#------------------------------------------------------------------------------
#$Date: 2022-06-11 04:50:27 +0300 (Sat, 11 Jun 2022) $
#$Revision: 275969 $
#$URL: file:///home/coder/svn-repositories/cod/cif/2/24/41/2244111.cif $
#------------------------------------------------------------------------------
#
# This file is available in the Crystallography Open Database (COD),
# http://www.crystallography.net/. The original data for this entry
# were provided by IUCr Journals, http://journals.iucr.org/.
#
# The file may be used within the scientific community so long as
# proper attribution is given to the journal article from which the
# data were obtained.
#
data_2244111
loop_
_publ_author_name
'Padgett, Clifford W.'
'Lynch, Will E.'
'Groneck, Erin N.'
'Raymundo, Melina'
'Adams, Desiree'
_publ_section_title
;
 Crystal structures of three zinc(II) halide coordination complexes with
 quinoline <i>N</i>-oxide
;
_journal_coeditor_code           ZV2014
_journal_issue                   7
_journal_name_full               'Acta Crystallographica Section E'
_journal_page_first
;
;
_journal_paper_doi               10.1107/S2056989022005953
_journal_volume                  78
_journal_year                    2022
_chemical_formula_iupac          '[Zn Cl2 (C9 H7 N1 O1)2]'
_chemical_formula_moiety         'C18 H14 Cl2 N2 O2 Zn'
_chemical_formula_sum            'C18 H14 Cl2 N2 O2 Zn'
_chemical_formula_weight         426.58
_chemical_name_systematic
;
Dichloridobis(quinoline <i>N</i>-oxide-\k<i>O</i>)zinc(II)
;
_space_group_crystal_system      monoclinic
_space_group_IT_number           4
_space_group_name_Hall           'P 2yb'
_space_group_name_H-M_alt        'P 1 21 1'
_atom_sites_solution_hydrogens   geom
_atom_sites_solution_primary     dual
_audit_creation_method
;
Olex2 1.3
(compiled 2020.11.12 svn.r5f609507 for OlexSys, GUI svn.r6403)
;
_cell_angle_alpha                90
_cell_angle_beta                 94.890(5)
_cell_angle_gamma                90
_cell_formula_units_Z            2
_cell_length_a                   8.5167(4)
_cell_length_b                   7.8697(4)
_cell_length_c                   13.1617(7)
_cell_measurement_reflns_used    1644
_cell_measurement_temperature    298.0(4)
_cell_measurement_theta_max      22.3910
_cell_measurement_theta_min      2.4020
_cell_volume                     878.94(8)
_computing_cell_refinement
;
CrysAlisPro (Rigaku OD, 2019)
;
_computing_data_collection
;
CrysAlisPro (Rigaku OD, 2019)
;
_computing_data_reduction
;
CrysAlisPro (Rigaku OD, 2019)
;
_computing_molecular_graphics
;
<i>OLEX2</i> (Dolomanov <i>et al.</i>,  2009)
;
_computing_publication_material
;
<i>OLEX2</i> (Dolomanov <i>et al.</i>,  2009)
;
_computing_structure_refinement
;
<i>SHELXL2018/1</i> (Sheldrick, 2015b)
;
_computing_structure_solution
;
<i>SHELXT2014/5</i> (Sheldrick, 2015a)
;
_diffrn_ambient_temperature      298.0(4)
_diffrn_detector                 'CCD plate'
_diffrn_measured_fraction_theta_full 0.999
_diffrn_measured_fraction_theta_max 0.999
_diffrn_measurement_device       'two-circle diffractometer'
_diffrn_measurement_device_type  'Rigaku XtaLAB mini'
_diffrn_measurement_method       '\w scans'
_diffrn_radiation_monochromator  graphite
_diffrn_radiation_probe          x-ray
_diffrn_radiation_type           'Mo K\a'
_diffrn_radiation_wavelength     0.71073
_diffrn_reflns_av_R_equivalents  0.0355
_diffrn_reflns_av_unetI/netI     0.0696
_diffrn_reflns_limit_h_max       10
_diffrn_reflns_limit_h_min       -10
_diffrn_reflns_limit_k_max       9
_diffrn_reflns_limit_k_min       -9
_diffrn_reflns_limit_l_max       14
_diffrn_reflns_limit_l_min       -15
_diffrn_reflns_number            5308
_diffrn_reflns_theta_full        25.242
_diffrn_reflns_theta_max         25.348
_diffrn_reflns_theta_min         2.400
_diffrn_source                   'fine-focus sealed X-ray tube'
_exptl_absorpt_coefficient_mu    1.715
_exptl_absorpt_correction_T_max  1.00000
_exptl_absorpt_correction_T_min  0.96753
_exptl_absorpt_correction_type   multi-scan
_exptl_absorpt_process_details
;
(CrysAlisPro; Rigaku OD, 2019)
;
_exptl_crystal_colour            'clear colourless'
_exptl_crystal_density_diffrn    1.612
_exptl_crystal_description       cube
_exptl_crystal_F_000             432
_exptl_crystal_size_max          0.1
_exptl_crystal_size_mid          0.1
_exptl_crystal_size_min          0.03
_refine_diff_density_max         0.422
_refine_diff_density_min         -0.351
_refine_ls_abs_structure_details
;
Flack <i>x</i> determined using 810 quotients
[(<i>I</i>^+^)-(<i>I</i>^-^)]/[(<i>I</i>^+^)+(<i>I</i>^-^)]
(Parsons <i>et al.</i>,  2013).
;
_refine_ls_abs_structure_Flack   -0.006(15)
_refine_ls_extinction_method     none
_refine_ls_goodness_of_fit_ref   1.029
_refine_ls_hydrogen_treatment    constr
_refine_ls_matrix_type           full
_refine_ls_number_parameters     226
_refine_ls_number_reflns         3169
_refine_ls_number_restraints     1
_refine_ls_restrained_S_all      1.029
_refine_ls_R_factor_all          0.0693
_refine_ls_R_factor_gt           0.0440
_refine_ls_shift/su_max          0.000
_refine_ls_shift/su_mean         0.000
_refine_ls_structure_factor_coef Fsqd
_refine_ls_weighting_details
'w=1/[\s^2^(Fo^2^)+(0.0183P)^2^] where P=(Fo^2^+2Fc^2^)/3'
_refine_ls_weighting_scheme      calc
_refine_ls_wR_factor_gt          0.0670
_refine_ls_wR_factor_ref         0.0773
_reflns_number_gt                2456
_reflns_number_total             3169
_reflns_threshold_expression     'I > 2\s(I)'
_cod_data_source_file            zv2014sup1.cif
_cod_data_source_block           I
_cod_database_code               2244111
_shelx_space_group_comment
;
The symmetry employed for this shelxl refinement is uniquely defined
by the following loop, which should always be used as a source of
symmetry information in preference to the above space-group names.
They are only intended as comments.
;
_shelx_estimated_absorpt_t_min   0.847
_shelx_estimated_absorpt_t_max   0.950
_shelx_hkl_file
;
   0  -9   0   -0.92    3.20
   0  -9  -1   10.79    4.34
   0  -9   1   10.70    5.08
   0  -9  -2    2.19    3.02
   0  -9   2   -2.97    3.67
   0  -9   3   -0.06    3.83
   0  -9   4    0.03    3.98
   0  -9  -4    8.79    5.18
   0  -8   0  117.41   11.29
   0  -8   1    3.22    3.50
   0  -8  -1    0.87    2.57
   0  -8   2   65.57    9.35
   0  -8  -2   65.22    8.36
   0  -8   3   34.48    7.29
   0  -8  -3   28.14    5.33
   0  -8  -3   26.23    6.56
   0  -8  -4    3.08    3.09
   0  -8  -4    4.82    3.79
   0  -8   4   -2.34    3.57
   0  -8   5    7.43    4.06
   0  -8  -5   19.35    5.81
   0  -8  -6    3.11    4.16
   0  -8   6   -1.97    3.63
   0  -8   7   10.10    5.01
   0  -8  -7    9.48    4.74
   0  -8   8   12.56    5.90
   0  -8  -8   15.67    5.71
   0  -7   0   -0.82    2.61
   0  -7   1  170.52   12.97
   0  -7  -1  180.97   12.56
   0  -7  -2   77.23    8.15
   0  -7  -2   93.65   10.72
   0  -7   2   75.92    8.84
   0  -7   3   76.83    9.42
   0  -7  -3   86.54   10.60
   0  -7  -3   79.69    8.31
   0  -7  -4  187.38   15.21
   0  -7  -4  172.38   11.92
   0  -7   4  175.34   14.37
   0  -7  -5   10.16    3.45
   0  -7  -5   10.61    4.67
   0  -7   5   14.65    5.15
   0  -7  -6   67.37    7.52
   0  -7   6   94.85   11.26
   0  -7  -6   79.07   10.25
   0  -7  -7    6.33    3.24
   0  -7   7    7.00    3.66
   0  -7  -7    5.21    4.23
   0  -7  -8    5.13    4.03
   0  -7   8    3.77    4.59
   0  -7   9   32.33    7.75
   0  -7  -9   25.11    6.94
   0  -7  10    6.21    4.05
   0  -7 -10   11.07    5.43
   0  -6   0   34.05    5.35
   0  -6  -1   11.13    2.99
   0  -6   1   11.53    3.43
   0  -6  -1   13.90    4.20
   0  -6  -2   25.51    4.54
   0  -6   2   28.08    5.31
   0  -6  -2   34.20    6.21
   0  -6  -3   72.37    8.47
   0  -6  -3   62.12    6.59
   0  -6   3   74.62    8.43
   0  -6  -4    3.87    2.34
   0  -6  -4   12.59    4.18
   0  -6   4    5.47    3.05
   0  -6  -5  146.12   12.29
   0  -6   5  129.12   11.85
   0  -6  -5  134.31    9.50
   0  -6   6   56.55    8.53
   0  -6  -6   61.62    8.33
   0  -6  -6   61.33    6.82
   0  -6  -7    8.87    4.07
   0  -6   7    4.50    3.79
   0  -6  -7    8.24    2.87
   0  -6   8   46.65    8.42
   0  -6  -8   44.59    7.79
   0  -6  -8   30.04    5.26
   0  -6   9   10.27    5.39
   0  -6  -9    7.61    3.48
   0  -6  -9    9.69    4.23
   0  -6  10   12.61    4.65
   0  -6 -10   22.84    5.24
   0  -6 -10   18.71    5.70
   0  -6 -11   12.08    5.02
   0  -6  11   11.72    4.92
   0  -6 -12    2.65    3.89
   0  -6  12    5.24    4.39
   0  -5   0    2.01    1.83
   0  -5   0   -1.79    2.11
   0  -5   1  158.02   10.15
   0  -5  -1  163.13   11.39
   0  -5  -1  155.56    9.44
   0  -5  -2   52.62    6.63
   0  -5  -2   56.95    5.60
   0  -5   2   54.22    6.41
   0  -5   3   87.45    8.34
   0  -5  -3   90.46    7.14
   0  -5  -3   88.23    8.65
   0  -5   4   80.72    8.41
   0  -5  -4   81.36    6.85
   0  -5  -4   89.49    8.66
   0  -5  -5   20.23    3.54
   0  -5   5   20.05    4.53
   0  -5  -5   26.06    5.15
   0  -5   6   47.13    7.07
   0  -5  -6   34.13    6.05
   0  -5  -6   37.87    4.97
   0  -5  -7  135.19    9.58
   0  -5   7  128.61   11.89
   0  -5  -7  152.31   12.05
   0  -5  -8   17.13    4.31
   0  -5  -8   17.43    4.33
   0  -5   8   13.02    4.86
   0  -5  -9   14.66    4.65
   0  -5  -9   31.95    5.57
   0  -5   9   19.97    5.95
   0  -5 -10    6.32    3.57
   0  -5 -10   13.87    4.24
   0  -5  10   10.73    4.94
   0  -5 -11   12.37    4.22
   0  -5  11   10.17    4.94
   0  -5 -11    7.29    3.86
   0  -5  12    7.26    4.95
   0  -5 -12    3.35    3.39
   0  -5 -12    5.38    4.01
   0  -5 -13    6.98    4.42
   0  -5  13    3.52    4.91
   0  -4   0  599.78   18.94
   0  -4   0  567.07   16.47
   0  -4   1  170.82    9.42
   0  -4  -1  176.09   10.29
   0  -4  -1  169.96    8.78
   0  -4   2  205.53   10.86
   0  -4  -2  205.22   11.34
   0  -4  -2  220.71    9.70
   0  -4   3  602.12   19.71
   0  -4  -3  603.63   19.43
   0  -4  -3  609.58   16.16
   0  -4  -4    2.30    1.61
   0  -4  -4   -1.65    2.36
   0  -4   4    1.88    2.14
   0  -4  -5  480.40   15.12
   0  -4  -5  465.17   17.96
   0  -4   5  460.34   19.11
   0  -4  -6   89.13    7.00
   0  -4  -6   87.00    8.03
   0  -4   6   85.71    8.74
   0  -4  -7  148.11    9.38
   0  -4  -7  159.71   11.16
   0  -4   7  140.86   11.75
   0  -4  -8   91.19    7.94
   0  -4  -8  103.12    9.33
   0  -4   8   96.65   10.38
   0  -4  -9   21.95    4.43
   0  -4   9   27.42    5.86
   0  -4  -9   22.93    5.16
   0  -4 -10   85.19    9.26
   0  -4 -10   84.62    8.71
   0  -4  10   88.13   10.76
   0  -4  11   22.70    6.25
   0  -4 -11   18.06    4.98
   0  -4 -11   11.78    4.16
   0  -4 -12   13.19    4.61
   0  -4 -12   15.27    5.13
   0  -4  12    6.86    3.95
   0  -4  13   39.50    8.96
   0  -4 -13   39.41    7.16
   0  -4 -13   37.17    7.09
   0  -4 -14    5.05    4.08
   0  -4 -14    8.67    4.61
   0  -3   0    1.37    1.46
   0  -3   0    0.49    1.63
   0  -3  -1  815.56   16.20
   0  -3   1  794.12   17.83
   0  -3  -1  813.61   18.77
   0  -3  -2  777.77   15.84
   0  -3  -2  761.85   18.74
   0  -3   2  772.89   18.70
   0  -3  -3  139.28    8.35
   0  -3  -3  149.31    7.15
   0  -3   3  144.08    8.82
   0  -3   4  272.17   12.72
   0  -3  -4  253.23    9.67
   0  -3  -4  264.39   11.52
   0  -3  -5   32.43    4.17
   0  -3   5   36.15    5.10
   0  -3  -5   30.21    4.32
   0  -3  -6  509.55   15.67
   0  -3  -6  521.86   17.53
   0  -3   6  516.40   19.61
   0  -3  -7  375.62   14.26
   0  -3   7  409.28   18.61
   0  -3  -7  369.38   15.53
   0  -3  -8   18.63    3.89
   0  -3  -8   17.17    3.78
   0  -3   8   16.21    4.11
   0  -3  -9   56.75    6.75
   0  -3   9   69.14    8.69
   0  -3  -9   64.85    7.41
   0  -3 -10    4.33    2.78
   0  -3 -10   12.28    4.04
   0  -3  10    8.49    4.03
   0  -3 -11   20.76    4.87
   0  -3  11   21.86    5.55
   0  -3 -12   25.73    5.53
   0  -3 -12   31.34    6.05
   0  -3  12   32.19    7.27
   0  -3 -13    1.70    2.71
   0  -3 -13    7.84    4.26
   0  -3 -14   31.72    6.55
   0  -3 -14   41.56    8.24
   0  -2   0  910.34   14.82
   0  -2   0  902.83   16.08
   0  -2  -1   78.68    5.09
   0  -2  -1   77.04    4.10
   0  -2   1   82.49    4.88
   0  -2  -2  501.05   12.45
   0  -2  -2  506.36   10.44
   0  -2   2  508.03   13.29
   0  -2   3  123.68    7.24
   0  -2  -3  128.44    6.91
   0  -2  -3  123.70    5.76
   0  -2   4  261.55   11.39
   0  -2  -4  256.07    9.02
   0  -2  -4  270.49   10.32
   0  -2  -5  262.88   10.12
   0  -2  -5  264.94   10.96
   0  -2   5  268.55   12.43
   0  -2   6   57.56    6.25
   0  -2  -6   49.44    4.99
   0  -2  -6   40.91    4.67
   0  -2   7   89.55    8.42
   0  -2  -7   78.65    6.74
   0  -2  -7   73.29    6.44
   0  -2  -8   98.51    7.85
   0  -2  -8   94.28    7.98
   0  -2   8   99.10    9.02
   0  -2  -9   29.71    4.96
   0  -2  -9   40.37    5.50
   0  -2   9   34.83    5.79
   0  -2 -10   28.59    4.81
   0  -2 -10   26.19    4.86
   0  -2  10   28.58    5.67
   0  -2 -11   36.37    6.10
   0  -2 -11   35.46    5.92
   0  -2 -12   34.36    6.49
   0  -2 -12   31.87    6.00
   0  -2 -13   34.59    6.30
   0  -2 -13   37.35    6.96
   0  -2 -14    9.22    5.40
   0  -2 -14    3.90    3.17
   0  -2 -15   13.04    5.76
   0  -1   0    0.17    0.52
   0  -1   1 1034.33   13.20
   0  -1  -1  993.78   10.36
   0  -1  -1 1024.49   12.57
   0  -1   2  530.09   11.63
   0  -1  -2  535.86    9.20
   0  -1  -2  563.04   10.41
   0  -1  -3  435.04   10.47
   0  -1   3  433.44   11.79
   0  -1  -3  406.63    9.59
   0  -1  -4  520.83   12.69
   0  -1   4  494.72   13.93
   0  -1  -4  471.26   12.08
   0  -1   5   12.20    2.97
   0  -1  -5    8.73    2.23
   0  -1  -5    5.25    1.69
   0  -1   6  492.17   16.43
   0  -1  -6  473.46   14.84
   0  -1  -6  475.79   14.64
   0  -1  -7  119.83    7.91
   0  -1  -7  100.14    7.40
   0  -1   7  119.40    8.81
   0  -1  -8   77.18    7.03
   0  -1  -8   84.62    7.24
   0  -1   8   91.68    8.36
   0  -1  -9  129.54    9.84
   0  -1  -9  130.46    9.62
   0  -1 -10   14.86    3.82
   0  -1 -10   10.33    3.17
   0  -1 -11   46.98    6.51
   0  -1 -11   42.14    6.29
   0  -1 -12   71.70    8.75
   0  -1 -12   69.24    8.25
   0  -1 -13   16.68    4.57
   0  -1 -13    6.98    4.06
   0  -1 -14    6.98    3.97
   0  -1 -14    8.26    3.66
   0  -1 -15   -6.34    5.01
   0   0  -2  300.38    7.47
   0   0   2  312.32    7.15
   0   0  -2  301.82    6.43
   0   0  -3  594.55   12.49
   0   0  -3  586.63   11.30
   0   0   3  599.19   12.03
   0   0   4  827.18   16.42
   0   0  -4  843.93   15.34
   0   0  -4  852.90   17.18
   0   0  -5  742.71   16.09
   0   0  -5  784.54   18.30
   0   0  -6  122.19    7.57
   0   0  -6  135.86    8.75
   0   0  -7  326.93   13.03
   0   0  -7  326.52   14.08
   0   0  -8  497.48   18.96
   0   0  -8  489.70   17.18
   0   0  -9    3.38    2.74
   0   0  -9    1.35    2.18
   0   0 -10  321.68   15.78
   0   0 -10  326.49   17.60
   0   0 -11   87.46    9.56
   0   0 -11   70.64    7.93
   0   0 -12   76.64    9.59
   0   0 -12   58.19    7.32
   0   0 -13   10.69    4.41
   0   0 -13   18.18    5.87
   0   0 -14    5.36    3.71
   0   0 -14   -0.03    3.66
   0   0 -15    5.39    4.06
   0   1   0    1.18    0.67
   0   1  -1 1015.37   12.10
   0   1   1  951.00   10.80
   0   1  -2  513.42    9.87
   0   1  -3  469.00   10.36
   0   1  -4  441.63   11.38
   0   1  -5    9.35    2.31
   0   1  -6  476.73   14.17
   0   1  -7  145.09    8.68
   0   1  -7  118.21    9.06
   0   1  -8   69.15    7.64
   0   1  -8   85.94    7.22
   0   1  -9  105.90    8.74
   0   1  -9  111.38   10.51
   0   1 -10   16.23    4.61
   0   1 -10   17.02    4.21
   0   1 -11   58.44    8.29
   0   1 -11   53.22    7.32
   0   1 -12   79.20   10.42
   0   1 -12   78.99    9.35
   0   1 -13   15.19    4.68
   0   1 -13   15.87    5.42
   0   1 -14    9.99    4.26
   0   1 -14   13.14    5.44
   0   1 -15    4.44    4.22
   0   2  -2  569.05   13.08
   0   2  -3  121.66    6.51
   0   2  -4  273.54   10.51
   0   2  -5  290.07   11.16
   0   2  -6   53.67    5.59
   0   2  -7  103.10    7.69
   0   2  -8  118.55    8.54
   0   2  -9   45.23    6.03
   0   2 -10   42.91    6.11
   0   2 -10   37.32    7.04
   0   2 -11   44.64    6.54
   0   2 -11   45.30    7.93
   0   2 -12   56.52    8.13
   0   2 -12   35.03    7.67
   0   2 -13   43.33    7.51
   0   2 -13   44.78    8.74
   0   2 -14   11.06    5.53
   0   2 -14    1.61    3.84
   0   2 -15   14.01    6.88
   0   3  -2  740.77   17.54
   0   3  -3  177.08    9.23
   0   3  -4  322.31   12.69
   0   3  -5   39.78    4.65
   0   3  -6  547.95   18.13
   0   3  -7  386.09   15.94
   0   3  -8   19.84    4.31
   0   3  -9   79.92    7.89
   0   3 -10    6.84    3.68
   0   3 -11   27.60    5.85
   0   3 -11   29.45    6.26
   0   3 -12   36.28    6.54
   0   3 -12   23.88    6.65
   0   3 -13   -5.29    4.44
   0   3 -13    0.56    3.26
   0   3 -14   35.06    8.60
   0   3 -14   34.14    7.45
   0   4  -3  569.22   18.45
   0   4  -4    2.80    2.19
   0   4  -5  470.70   17.94
   0   4  -6   77.41    7.54
   0   4  -7  147.48   10.90
   0   4  -8  102.48    9.48
   0   4  -9   31.76    5.76
   0   4 -10  100.83   10.31
   0   4 -11   11.20    3.87
   0   4 -12   16.88    5.43
   0   4 -12    9.01    4.65
   0   4 -13   38.79    8.16
   0   4 -13   46.43    8.17
   0   4 -14    4.76    4.35
   0   4 -14    6.06    4.37
   0   5  -3   67.60    7.24
   0   5  -4   93.04    8.97
   0   5  -5   21.85    4.93
   0   5  -6   23.29    5.18
   0   5  -7  145.92   11.72
   0   5  -8    9.34    3.24
   0   5  -9   17.72    5.24
   0   5 -10    8.33    4.31
   0   5 -11   13.36    5.13
   0   5 -12   -2.37    3.88
   0   5 -13   10.51    5.36
   0   5 -13    2.32    4.79
   0   6  -2   33.88    5.69
   0   6  -3   80.31    9.10
   0   6  -4    7.69    3.75
   0   6  -5  156.79   12.86
   0   6  -6   82.16    9.66
   0   6  -7   19.50    5.32
   0   6  -8   53.61    7.96
   0   6  -9    2.29    3.19
   0   6 -10   16.33    5.43
   0   6 -11   17.38    6.17
   0   6 -12   16.46    6.48
   0   7  -2  100.86   10.60
   0   7  -3   85.59   10.18
   0   7  -4  193.17   15.43
   0   7  -5    8.42    3.70
   0   7  -6   90.09   10.92
   0   7  -7   11.02    4.81
   0   7  -8    3.07    3.25
   0   7  -9   22.50    6.19
   0   7 -10    7.28    4.57
   0   8  -1    1.07    2.92
   0   8  -2   67.79    9.96
   0   8  -3   36.15    7.41
   0   8  -4   -1.50    3.64
   0   8  -5   21.17    6.51
   0   8  -6    6.65    5.11
   0   8  -7   16.08    6.35
   0   8  -8    6.18    4.83
   0   9   0   -1.75    4.27
   0   9  -1    6.98    4.72
   0   9  -2    2.24    3.62
   0   9  -3    0.29    4.11
   0   9  -4   -2.53    4.65
   1  -9  -4    9.22    4.47
  -1  -9   4    7.22    4.72
   1  -9  -3    0.74    3.25
  -1  -9   3    1.18    3.78
  -1  -9   2   11.70    4.57
   1  -9  -2   11.56    4.72
   1  -9  -1   -1.74    3.73
  -1  -9   1    1.60    3.02
   1  -9   0    4.90    3.12
   1  -9   1   -2.76    3.80
   1  -9   2   -1.89    3.78
  -1  -9  -2   -1.13    3.89
   1  -9   3   -4.06    4.49
  -1  -9  -3   -0.88    3.91
   1  -9   4   -5.26    5.10
  -1  -9  -4   -1.37    4.15
   1  -8  -8   17.68    6.32
  -1  -8   8   13.00    5.33
  -1  -8   7    5.99    4.16
   1  -8  -7    1.15    3.02
   1  -8  -7    8.41    4.86
   1  -8  -6   16.09    5.91
  -1  -8   6   19.20    6.14
   1  -8  -6   11.18    4.39
   1  -8  -5   35.50    7.47
  -1  -8   5   28.98    6.84
   1  -8  -5   26.72    6.09
  -1  -8   4    4.72    4.27
   1  -8  -4    6.81    3.79
   1  -8  -3  100.52   10.84
  -1  -8   3  106.49   11.35
   1  -8  -2   13.00    4.81
  -1  -8   2    8.84    3.96
  -1  -8   1   43.78    7.19
   1  -8  -1   42.89    7.47
  -1  -8   0   39.32    6.30
   1  -8   0   33.87    6.40
   1  -8   1    9.11    4.01
  -1  -8  -1   11.14    3.83
  -1  -8  -1   13.32    5.02
  -1  -8  -2   75.75   10.91
  -1  -8  -2   64.05    7.58
   1  -8   2   64.21    9.50
   1  -8   3    3.63    4.45
  -1  -8  -3   -0.22    3.02
  -1  -8  -4    9.93    4.90
   1  -8   4    7.84    3.52
   1  -8   5   24.41    6.67
  -1  -8  -5   27.74    7.01
   1  -8   6    7.42    5.13
  -1  -8  -6    6.44    4.20
  -1  -8  -7   37.92    8.46
   1  -8   7   37.65    8.59
   1  -8   8    5.62    5.63
  -1  -8  -8    2.89    4.44
   1  -7 -10   22.61    6.57
  -1  -7  10   16.32    6.00
   1  -7  -9   17.40    5.46
  -1  -7   9   14.46    5.55
   1  -7  -9    9.54    3.91
  -1  -7   8    0.50    3.07
   1  -7  -8    1.66    3.52
   1  -7  -8   -7.06    3.79
  -1  -7   7   43.40    8.05
   1  -7  -7   44.91    8.17
   1  -7  -7   40.43    6.95
  -1  -7   6   29.82    6.66
   1  -7  -6   32.05    6.45
   1  -7  -6   28.18    5.97
   1  -7  -5   14.35    4.76
   1  -7  -5   18.53    4.65
  -1  -7   5   15.42    4.87
  -1  -7   4  210.30   15.01
   1  -7  -4  214.63   14.29
   1  -7  -4  214.45   16.21
  -1  -7   3   12.22    4.09
   1  -7  -3   11.63    3.73
   1  -7  -2  138.55   11.66
  -1  -7   2  128.02   11.10
  -1  -7   1   31.45    5.34
   1  -7  -1   26.71    5.61
  -1  -7   0  107.00   11.49
  -1  -7   0   94.98    8.73
   1  -7   0  102.48   10.31
   1  -7   1  120.13   11.34
  -1  -7  -1  130.21   12.62
  -1  -7  -1  136.02   10.07
   1  -7   2    7.85    3.17
  -1  -7  -2   13.88    5.04
  -1  -7  -2    7.14    2.75
  -1  -7  -3   56.64    8.95
  -1  -7  -3   53.64    6.09
   1  -7   3   43.58    7.46
   1  -7   4   19.21    5.35
  -1  -7  -4   25.39    4.47
  -1  -7  -4   27.72    6.51
  -1  -7  -5   64.50    9.30
   1  -7   5   49.83    8.50
  -1  -7  -6  179.70   15.84
   1  -7   6  180.13   16.20
  -1  -7  -7    2.56    3.59
   1  -7   7    0.37    3.39
  -1  -7  -8   58.08    9.83
   1  -7   8   52.40    9.53
  -1  -7  -9   16.08    6.10
   1  -7   9   13.05    6.01
  -1  -7 -10   15.49    6.15
   1  -7  10    2.35    4.17
   1  -6 -12    5.71    4.04
  -1  -6  12   10.20    5.97
   1  -6 -12   14.60    5.53
  -1  -6  11   20.64    6.31
   1  -6 -11   25.78    6.17
   1  -6 -11   29.94    6.55
   1  -6 -10   11.76    4.32
   1  -6 -10   10.17    4.45
  -1  -6  10    7.17    3.46
   1  -6  -9   22.81    5.52
  -1  -6   9   11.54    5.01
   1  -6  -9   23.92    5.52
  -1  -6   8   44.80    8.22
   1  -6  -8   48.79    7.52
   1  -6  -8   57.08    7.44
   1  -6  -7   32.65    6.24
   1  -6  -7   19.53    4.38
  -1  -6   7   27.66    6.36
   1  -6  -6  179.67   12.31
   1  -6  -6  197.16   14.14
  -1  -6   6  190.04   14.55
   1  -6  -5   60.75    7.51
   1  -6  -5   47.98    7.16
  -1  -6   5   44.52    6.80
   1  -6  -4   38.98    6.38
  -1  -6   4   41.22    6.33
   1  -6  -4   39.02    5.85
   1  -6  -3   37.37    5.80
  -1  -6   3   26.65    4.94
   1  -6  -3   40.49    6.77
  -1  -6   2   14.05    3.51
   1  -6  -2    5.23    2.66
   1  -6  -1  143.99   10.89
  -1  -6   1  160.51   10.81
  -1  -6   1  162.38   12.47
   1  -6   0  133.44   10.76
  -1  -6   0  129.96   11.23
  -1  -6   0  130.54    9.22
  -1  -6  -1    1.06    1.69
   1  -6   1    4.35    2.29
  -1  -6  -1   -1.28    2.41
  -1  -6  -2  132.45    8.75
   1  -6   2  141.83   11.66
  -1  -6  -2  143.01   12.04
   1  -6   3   43.53    6.77
  -1  -6  -3   40.60    4.82
  -1  -6  -3   41.10    6.60
   1  -6   4   23.55    5.33
  -1  -6  -4   17.75    4.67
  -1  -6  -4   20.09    3.46
  -1  -6  -5   17.42    4.80
   1  -6   5   18.00    5.03
  -1  -6  -5   18.24    3.41
  -1  -6  -6   79.52    9.86
  -1  -6  -6   68.41    6.22
   1  -6   6   79.32    9.97
  -1  -6  -7   32.58    6.78
   1  -6   7   32.67    7.12
  -1  -6  -8    8.66    4.44
   1  -6   8    5.07    3.64
  -1  -6  -9    1.82    3.28
   1  -6   9    1.28    3.40
  -1  -6 -10   23.03    6.61
   1  -6  10   27.11    7.26
   1  -6  11   -5.87    5.66
  -1  -6 -11   -1.78    3.65
  -1  -6 -12   10.27    5.16
   1  -6  12   11.00    5.84
  -1  -5  13   11.71    5.55
   1  -5 -13    8.93    4.76
   1  -5 -13    5.84    3.70
   1  -5 -12   14.42    4.93
   1  -5 -12   11.65    4.22
  -1  -5  12   16.13    5.69
   1  -5 -11    0.62    2.64
  -1  -5  11    0.17    2.96
   1  -5 -11    0.60    3.05
  -1  -5  10   29.34    6.94
   1  -5 -10   44.74    7.03
   1  -5 -10   40.44    6.91
   1  -5  -9   68.01    8.26
   1  -5  -9   68.72    8.37
  -1  -5   9   68.71    9.55
  -1  -5   8    9.86    3.96
   1  -5  -8   16.09    4.20
   1  -5  -8   21.73    4.84
  -1  -5   7  157.70   13.05
   1  -5  -7  159.12   11.15
   1  -5  -7  173.91   12.43
  -1  -5   6   37.33    6.61
   1  -5  -6   41.91    6.28
   1  -5  -6   46.03    6.27
   1  -5  -5  199.30   12.61
  -1  -5   5  181.86   12.57
   1  -5  -5  199.57   12.01
   1  -5  -4   51.62    6.54
   1  -5  -4   50.66    5.86
  -1  -5   4   56.99    6.83
   1  -5  -3   35.47    5.09
   1  -5  -3   33.77    5.33
  -1  -5   3   23.83    4.39
   1  -5  -2   42.71    5.69
  -1  -5   2   50.46    5.87
   1  -5  -2   46.23    6.15
   1  -5  -1   41.04    5.36
  -1  -5   1   42.11    5.84
  -1  -5   1   46.26    5.30
   1  -5   0    2.29    1.93
  -1  -5   0    7.06    2.62
  -1  -5   0    7.01    2.40
   1  -5   1  262.37   14.10
  -1  -5  -1  261.86   11.14
  -1  -5  -1  276.43   14.88
  -1  -5  -2   11.47    3.60
  -1  -5  -2    9.51    2.42
   1  -5   2    8.60    2.92
  -1  -5  -3  140.68    7.78
  -1  -5  -3  135.34   10.82
   1  -5   3  131.50   10.66
   1  -5   4   54.31    7.02
  -1  -5  -4   46.40    6.78
  -1  -5  -4   58.02    5.07
   1  -5   5   92.04    9.70
  -1  -5  -5   94.41    9.21
  -1  -5  -5   95.67    6.49
  -1  -5  -6    3.60    1.61
   1  -5   6    8.35    3.55
  -1  -5  -6    7.24    3.45
  -1  -5  -7   33.57    4.35
   1  -5   7   31.08    6.29
  -1  -5  -7   38.74    6.41
  -1  -5  -8   42.24    7.23
  -1  -5  -8   44.96    5.42
   1  -5   8   42.81    7.84
  -1  -5  -9   24.53    4.71
   1  -5   9   18.43    5.53
  -1  -5  -9   16.18    4.98
  -1  -5 -10    2.09    2.83
   1  -5  10    2.89    3.79
  -1  -5 -11   21.13    6.16
   1  -5  11   27.64    7.37
  -1  -5 -12   11.42    4.88
   1  -5  12   16.25    6.77
   1  -5  13   -2.67    4.18
  -1  -5 -13    2.68    3.95
   1  -4 -14   14.47    5.50
   1  -4 -13   23.12    6.42
   1  -4 -13   12.51    4.36
   1  -4 -12   13.14    5.02
   1  -4 -12   13.96    4.31
  -1  -4  12   10.35    4.77
   1  -4 -11   21.40    5.38
   1  -4 -11   27.09    5.37
  -1  -4  11   29.98    7.03
   1  -4 -10   31.30    5.63
  -1  -4  10   35.73    7.30
   1  -4 -10   45.20    6.56
   1  -4  -9   97.91    9.34
  -1  -4   9   98.71   10.71
   1  -4  -9   84.39    8.57
  -1  -4   8  294.65   17.33
   1  -4  -8  313.74   15.47
   1  -4  -8  332.29   16.07
   1  -4  -7   15.21    3.74
   1  -4  -7   15.62    3.86
  -1  -4   7   17.23    4.64
   1  -4  -6  427.72   16.92
   1  -4  -6  455.47   17.02
  -1  -4   6  433.11   19.03
   1  -4  -5  136.66    9.48
   1  -4  -5  146.80    9.47
  -1  -4   5  135.22   10.12
   1  -4  -4  135.22    9.19
   1  -4  -4  141.21    9.05
  -1  -4   4  136.98    9.55
   1  -4  -3  225.39   11.11
  -1  -4   3  212.49   11.30
   1  -4  -3  215.75   11.33
   1  -4  -2   65.97    6.76
   1  -4  -2   83.00    6.87
  -1  -4   2   65.66    6.30
  -1  -4   2   70.22    6.18
  -1  -4   1  384.51   13.28
   1  -4  -1  387.39   14.51
  -1  -4   1  389.14   15.24
   1  -4   0  339.29   13.96
  -1  -4   0  320.49   11.21
  -1  -4   0  332.70   14.37
  -1  -4  -1   22.34    3.90
  -1  -4  -1   23.69    2.98
   1  -4   1   28.44    4.36
  -1  -4  -2  671.28   14.88
   1  -4   2  692.01   21.08
  -1  -4  -2  731.64   21.40
  -1  -4  -3  156.02    7.01
   1  -4   3  170.55   10.90
  -1  -4  -3  156.92   10.42
  -1  -4  -4  477.28   12.58
   1  -4   4  493.01   19.57
  -1  -4  -4  507.53   18.72
  -1  -4  -5  221.61   13.15
  -1  -4  -5  218.98    8.95
   1  -4   5  256.66   14.72
   1  -4   6  184.16   13.11
  -1  -4  -6  188.61   12.38
  -1  -4  -6  187.08    8.75
   1  -4   7  129.41   11.41
  -1  -4  -7  117.88   10.18
  -1  -4  -7  100.21    6.92
  -1  -4  -8   15.87    4.08
   1  -4   8   26.50    5.71
  -1  -4  -8   18.69    3.66
  -1  -4  -9   22.86    5.37
   1  -4   9   28.19    6.38
  -1  -4  -9   22.48    4.30
  -1  -4 -10   40.42    5.90
  -1  -4 -10   30.81    6.06
   1  -4  10   39.46    7.66
  -1  -4 -11    7.29    3.90
   1  -4  11   13.53    5.27
  -1  -4 -11    9.67    3.61
   1  -4  12   10.94    5.42
  -1  -4 -12    7.83    4.17
  -1  -4 -12    4.10    2.96
   1  -4  13    8.52    4.83
  -1  -4 -13   10.46    4.82
  -1  -4 -14    9.63    4.63
   1  -4  14   12.05    6.03
   1  -3 -15   -1.78    4.51
   1  -3 -14   14.38    5.76
   1  -3 -13   12.24    3.89
   1  -3 -13   10.43    4.69
   1  -3 -12   88.43    8.84
   1  -3 -12  101.19   11.12
   1  -3 -11   19.64    5.64
   1  -3 -11   17.74    4.21
   1  -3 -10   46.42    5.90
   1  -3 -10   49.82    7.09
  -1  -3  10   49.34    7.76
   1  -3  -9   86.76    7.61
  -1  -3   9   84.44    9.82
   1  -3  -9   85.87    8.54
   1  -3  -8   65.22    6.55
   1  -3  -8   68.84    7.36
  -1  -3   8   75.34    8.62
   1  -3  -7  451.22   17.15
  -1  -3   7  440.02   19.08
   1  -3  -7  443.04   15.57
  -1  -3   6  349.03   15.99
   1  -3  -6  339.30   14.14
   1  -3  -6  336.45   13.16
   1  -3  -5  298.82   12.08
   1  -3  -5  314.45   12.99
  -1  -3   5  305.93   14.13
   1  -3  -4  327.45   12.53
   1  -3  -4  340.87   12.51
  -1  -3   4  336.11   13.75
   1  -3  -3  245.18   10.51
  -1  -3   3  236.75   10.60
   1  -3  -3  231.39   10.29
   1  -3  -2  516.59   14.80
  -1  -3   2  496.57   15.04
   1  -3  -2  496.60   14.64
  -1  -3   2  505.08   14.36
   1  -3  -1  400.87   12.95
  -1  -3   1  379.28   11.49
   1  -3  -1  399.20   13.36
  -1  -3   1  377.36   12.94
   1  -3   0  417.47   13.84
  -1  -3   0  434.19   11.05
  -1  -3   0  438.81   14.13
  -1  -3  -1  428.47    9.98
   1  -3   1  440.97   14.63
  -1  -3  -1  432.30   14.54
   1  -3   2   27.84    3.91
  -1  -3  -2   28.36    2.51
  -1  -3  -2   27.34    4.03
  -1  -3  -3  846.85   21.32
  -1  -3  -3  807.76   13.36
   1  -3   3  853.76   21.98
   1  -3   4  237.37   12.47
  -1  -3  -4  229.19   11.64
  -1  -3  -4  220.66    7.50
  -1  -3  -5  281.31    9.60
  -1  -3  -5  292.15   13.72
   1  -3   5  282.67   14.38
  -1  -3  -6  228.10    9.41
  -1  -3  -6  240.74   12.97
   1  -3   6  240.33   14.00
  -1  -3  -7    1.88    1.84
   1  -3   7    7.21    2.79
  -1  -3  -7    5.18    1.95
   1  -3   8  318.30   17.76
  -1  -3  -8  289.49   15.53
  -1  -3  -8  305.06   12.93
  -1  -3  -9   48.80    5.94
   1  -3   9   38.24    6.57
  -1  -3  -9   36.53    6.06
   1  -3  10    6.96    3.55
  -1  -3 -10   11.14    4.05
  -1  -3 -10   12.30    3.72
  -1  -3 -11   23.77    5.25
  -1  -3 -11   20.32    4.99
   1  -3  11   23.00    5.91
   1  -3  12   14.90    5.34
  -1  -3 -12   15.46    4.70
  -1  -3 -12    2.05    3.30
   1  -3  13   16.53    5.44
  -1  -3 -13   12.90    4.79
  -1  -3 -13   18.41    5.21
  -1  -3 -14   55.19    8.84
   1  -3  14   63.34   11.05
  -1  -3 -14   57.79    9.06
   1  -2 -15   10.02    5.94
   1  -2 -14   54.44    9.49
   1  -2 -13   42.85    7.62
   1  -2 -13   51.75    6.75
   1  -2 -12   10.39    4.38
   1  -2 -12    5.95    2.66
   1  -2 -11   97.99    8.37
   1  -2 -11  111.80   10.88
   1  -2 -10    2.78    1.94
   1  -2 -10    8.07    3.73
   1  -2  -9  130.76   10.37
   1  -2  -9  121.88    8.36
  -1  -2   8  119.57   10.15
   1  -2  -8  115.08    7.62
   1  -2  -8  113.88    9.17
  -1  -2   7  126.18    9.67
   1  -2  -7  123.24    8.96
   1  -2  -7  114.08    7.20
   1  -2  -6  211.90   10.93
   1  -2  -6  202.99    8.99
  -1  -2   6  200.75   11.50
   1  -2  -5  347.51   12.81
  -1  -2   5  377.29   14.42
   1  -2  -5  379.50   11.60
   1  -2  -4  441.45   13.50
   1  -2  -4  451.60   11.97
  -1  -2   4  483.37   14.99
   1  -2  -3  368.30   11.61
  -1  -2   3  365.18   11.94
   1  -2  -3  369.47   10.50
  -1  -2   2   56.43    4.29
  -1  -2   2   53.02    4.13
   1  -2  -2   54.32    4.05
   1  -2  -2   55.15    4.37
  -1  -2   1  829.84   15.79
  -1  -2   1  833.12   13.97
   1  -2  -1  860.01   16.44
  -1  -2   0   53.96    3.05
  -1  -2   0   48.00    4.02
   1  -2   0   58.96    4.47
  -1  -2  -1   64.26    4.78
  -1  -2  -1   61.81    2.69
   1  -2   1   61.14    4.82
   1  -2   2   82.44    5.90
  -1  -2  -2   84.25    5.84
  -1  -2  -2   84.06    3.06
  -1  -2  -3   16.61    3.05
  -1  -2  -3   19.48    1.87
   1  -2   3   22.80    3.41
  -1  -2  -4   19.07    3.42
   1  -2   4   22.60    3.68
  -1  -2  -4   21.82    2.56
  -1  -2  -5  126.20    6.31
   1  -2   5  138.81    9.29
  -1  -2  -5  139.05    8.98
  -1  -2  -6   89.44    5.88
  -1  -2  -6   96.27    7.87
   1  -2   6   99.85    8.26
  -1  -2  -7  159.15   10.72
  -1  -2  -7  145.90    8.33
   1  -2   7  177.61   11.69
  -1  -2  -8   25.62    3.95
   1  -2   8   30.66    5.30
  -1  -2  -8   34.59    5.33
  -1  -2  -9   15.09    4.08
   1  -2   9   13.99    4.33
  -1  -2  -9    8.50    2.43
  -1  -2 -10   46.21    6.91
  -1  -2 -10   35.62    5.44
   1  -2  10   43.74    7.28
   1  -2  11    2.16    2.63
  -1  -2 -11   -2.11    2.95
  -1  -2 -11    2.29    2.69
  -1  -2 -12    5.06    2.77
   1  -2  12   11.66    4.65
  -1  -2 -12    9.95    4.11
  -1  -2 -13   21.83    5.54
  -1  -2 -13   23.60    5.86
  -1  -2 -14    0.43    3.03
  -1  -2 -14   -5.83    4.30
  -1  -2 -15   18.53    5.74
  -1  -2 -15   19.34    6.12
   1  -1 -15   13.78    5.44
   1  -1 -14    8.47    4.56
   1  -1 -13   29.68    4.96
   1  -1 -13   29.49    6.57
   1  -1 -12   41.08    5.58
   1  -1 -12   32.97    6.36
   1  -1 -11    0.15    2.84
   1  -1 -11    3.95    2.03
   1  -1 -10  108.45   10.06
   1  -1 -10  114.29    8.20
   1  -1  -9    9.76    3.22
   1  -1  -9   15.00    3.03
   1  -1  -8   33.31    4.72
   1  -1  -8   41.23    4.37
   1  -1  -7  324.15   10.99
   1  -1  -7  331.19   14.22
   1  -1  -6  378.03   14.08
   1  -1  -6  386.56   10.85
   1  -1  -5   46.79    4.84
   1  -1  -5   43.74    3.40
   1  -1  -4  937.11   18.63
   1  -1  -4  944.25   13.65
  -1  -1   4  961.32   19.67
  -1  -1   3   47.22    4.04
   1  -1  -3   47.59    2.82
   1  -1  -3   48.79    4.22
   1  -1  -2 2803.73   19.90
  -1  -1   2 2830.01   25.67
  -1  -1   2 2792.95   20.23
   1  -1  -2 2815.07   26.44
   1  -1  -1  401.83    9.32
  -1  -1   1  381.42    7.65
  -1  -1   1  376.42    7.51
  -1  -1   0  331.38    7.78
   1  -1   0  337.17    8.35
   1  -1   1 2889.46   26.59
  -1  -1  -1 2959.41   26.09
  -1  -1  -2   58.77    2.35
  -1  -1  -2   69.84    4.85
  -1  -1  -2   60.75    2.33
   1  -1   2   65.17    4.29
  -1  -1  -3 1893.49   26.65
  -1  -1  -3 1852.40   17.95
   1  -1   3 1888.39   25.89
   1  -1   4  533.22   14.82
  -1  -1  -4  517.56   14.90
  -1  -1  -4  505.65   11.50
  -1  -1  -5    5.17    1.89
  -1  -1  -5    8.55    2.12
   1  -1   5   12.64    2.82
  -1  -1  -6  489.78   17.00
  -1  -1  -6  469.53   14.45
   1  -1   6  485.62   16.58
  -1  -1  -7  319.72   14.59
  -1  -1  -7  336.33   13.26
   1  -1   7  338.22   14.94
  -1  -1  -8  285.33   13.33
  -1  -1  -8  303.20   14.98
   1  -1   8  313.97   15.43
  -1  -1  -9  163.76   11.60
  -1  -1  -9  169.19   10.95
   1  -1   9  173.29   12.14
  -1  -1 -10   15.56    4.28
   1  -1  10   12.47    3.61
  -1  -1 -10   17.70    4.33
  -1  -1 -11   90.49   10.04
  -1  -1 -11   75.13    8.65
  -1  -1 -12   15.47    5.20
  -1  -1 -12    5.55    2.44
  -1  -1 -13   22.66    5.45
  -1  -1 -13   28.27    6.59
  -1  -1 -14   20.10    5.47
  -1  -1 -14   20.89    6.23
  -1  -1 -15    0.10    3.47
  -1  -1 -15   -3.04    4.31
   1   0 -15   -3.93    5.17
   1   0 -14   21.61    6.63
   1   0 -13   25.91    5.00
   1   0 -13   27.54    6.35
   1   0 -12   -7.16    4.40
   1   0 -12    1.12    2.06
   1   0 -11   28.65    5.69
   1   0 -11   13.34    3.31
   1   0 -10   42.91    5.09
   1   0 -10   59.56    7.86
   1   0  -9    3.89    2.57
   1   0  -9    0.63    1.63
   1   0  -8   19.68    3.04
   1   0  -8   21.37    4.28
   1   0  -7    0.57    2.17
   1   0  -7    2.10    1.65
   1   0  -6  384.13   10.86
   1   0  -6  390.78   14.67
   1   0  -5 1569.81   26.34
   1   0  -5 1564.65   19.01
   1   0  -4    2.77    1.07
   1   0  -4    6.01    1.93
   1   0  -3 1501.82   20.80
   1   0  -2   58.16    3.52
   1   0  -1  132.65    4.46
   1   0   0 1199.03   10.97
   1   0   0 1161.79   11.64
  -1   0  -1   26.84    2.34
   1   0   1   23.19    1.74
  -1   0  -1   29.07    1.89
   1   0   2 1175.87   14.82
  -1   0  -2 1227.96   17.71
  -1   0  -3 1369.84   21.42
   1   0   3 1416.39   18.27
   1   0   4  680.10   14.80
  -1   0  -4  684.98   16.72
  -1   0  -5  411.81   14.40
   1   0   5  402.56   12.61
   1   0   6    2.30    1.69
  -1   0  -6    8.45    3.13
   1   0   7  726.53   20.64
  -1   0  -7  768.47   21.52
  -1   0  -7  758.63   22.12
  -1   0  -8  349.92   15.64
  -1   0  -8  369.01   16.67
   1   0   8  345.26   15.24
  -1   0  -9   68.89    7.63
  -1   0  -9   72.64    8.24
  -1   0 -10   98.04    9.97
  -1   0 -10   86.21    9.17
  -1   0 -11   91.35    9.95
  -1   0 -11   94.96   10.08
  -1   0 -12  127.48   12.20
  -1   0 -12  142.75   12.93
  -1   0 -13   -4.01    4.84
  -1   0 -13    4.84    4.19
  -1   0 -14    7.17    3.89
  -1   0 -14   22.84    6.07
  -1   0 -15   10.47    5.07
  -1   0 -15   12.53    5.29
   1   1 -15   20.84    6.78
   1   1 -14   16.92    5.70
   1   1 -13   36.65    6.03
   1   1 -13   47.08    8.55
   1   1 -12   39.49    7.46
   1   1 -12   30.36    5.55
   1   1 -11   11.45    3.84
   1   1 -11    3.38    2.83
   1   1 -10  127.97   11.52
   1   1 -10  123.82    8.86
   1   1  -9    7.54    3.11
   1   1  -9   13.52    3.57
   1   1  -8   39.58    4.28
   1   1  -8   40.00    6.07
   1   1  -7  330.73   15.22
   1   1  -7  321.08   11.05
   1   1  -6  402.84   11.02
   1   1  -6  370.62   15.49
   1   1  -5   37.73    4.60
   1   1  -5   43.28    3.48
   1   1  -4  887.72   19.98
   1   1  -4  956.07   13.58
   1   1  -3   46.37    2.73
   1   1  -3   41.29    3.86
   1   1  -2 2792.29   26.45
   1   1  -1  339.29    7.43
  -1   1   0  314.64    7.69
  -1   1  -1 3061.02   26.47
  -1   1  -2   70.21    4.60
  -1   1  -3 1792.24   24.54
  -1   1  -4  536.14   14.73
  -1   1  -5    7.81    2.70
  -1   1  -6  495.98   16.60
  -1   1  -7  347.72   14.90
  -1   1  -8  313.43   15.10
  -1   1  -9  182.27   12.38
  -1   1 -10   23.71    5.54
  -1   1 -10    7.09    3.22
  -1   1 -11   85.27    9.84
  -1   1 -11   93.10   10.17
  -1   1 -12    1.51    2.95
  -1   1 -12    9.64    4.61
  -1   1 -13   40.32    7.52
  -1   1 -13   31.28    7.19
  -1   1 -14   15.60    5.38
  -1   1 -14   13.26    5.51
  -1   1 -15    5.81    5.13
  -1   1 -15    2.67    3.80
   1   2 -15    4.24    5.17
   1   2 -14   59.76   10.74
   1   2 -13   44.77    7.01
   1   2 -13   45.93    8.65
   1   2 -12   25.03    5.79
   1   2 -12   10.47    4.92
   1   2 -11   94.88    8.59
   1   2 -11  115.14   12.09
   1   2 -10    1.51    2.38
   1   2 -10   -4.09    3.58
   1   2  -9  142.53    9.11
   1   2  -9  126.94   11.50
   1   2  -8  109.66    7.56
   1   2  -8  106.52    9.88
   1   2  -7  142.67    8.04
   1   2  -7  128.27   10.23
   1   2  -6  157.28    7.79
   1   2  -5  420.15   12.04
   1   2  -4  479.61   12.31
   1   2  -3  375.53   10.09
  -1   2   0   63.15    4.52
  -1   2  -1   70.40    5.11
  -1   2  -2   64.48    5.16
  -1   2  -3   23.41    3.27
  -1   2  -4   15.99    2.95
  -1   2  -5  159.98    9.63
  -1   2  -6  109.44    8.35
  -1   2  -7  202.84   11.67
  -1   2  -8   47.63    6.38
  -1   2  -9   22.65    5.04
  -1   2 -10   52.90    7.29
  -1   2 -11    1.20    2.94
  -1   2 -11    2.87    3.15
  -1   2 -12   11.55    4.76
  -1   2 -12    9.64    4.97
  -1   2 -13   27.33    6.72
  -1   2 -13   33.20    7.24
  -1   2 -14    1.63    4.35
  -1   2 -14   10.32    5.55
  -1   2 -15   25.28    7.38
  -1   2 -15   26.91    8.02
   1   3 -15    0.32    4.53
   1   3 -14   18.15    6.64
   1   3 -13    7.16    3.57
   1   3 -13    7.99    3.89
   1   3 -12   93.15    9.44
   1   3 -12   96.13   11.95
   1   3 -11   22.29    6.09
   1   3 -11   20.81    4.91
   1   3 -10   39.07    6.91
   1   3 -10   53.80    6.75
   1   3  -9   77.19    9.28
   1   3  -9   96.32    8.44
   1   3  -8   76.09    6.97
   1   3  -7  464.69   16.09
   1   3  -6  353.40   13.53
   1   3  -5  272.36   11.47
   1   3  -4  406.17   13.42
  -1   3  -1  470.02   14.65
  -1   3  -2   31.26    4.24
  -1   3  -3  796.43   20.81
  -1   3  -4  208.96   11.09
  -1   3  -5  283.09   13.29
  -1   3  -6  304.70   14.49
  -1   3  -7   11.84    3.93
  -1   3  -8  349.89   16.77
  -1   3  -9   53.12    7.35
  -1   3 -10   14.41    4.30
  -1   3 -11   39.71    7.35
  -1   3 -12    4.21    3.43
  -1   3 -13   11.27    4.74
  -1   3 -13   18.38    5.71
  -1   3 -14   49.25    9.85
  -1   3 -14   51.23    9.54
   1   4 -14    7.66    6.16
   1   4 -13   25.94    5.94
   1   4 -13   16.26    6.07
   1   4 -12   11.41    4.53
   1   4 -12    6.35    4.03
   1   4 -11   24.19    6.53
   1   4 -11   28.56    5.70
   1   4 -10   44.58    7.00
   1   4 -10   30.18    6.57
   1   4  -9  109.16    9.54
   1   4  -8  316.51   15.41
   1   4  -7    6.30    2.19
   1   4  -6  466.36   17.63
   1   4  -5  128.00    9.07
   1   4  -4  129.94    8.57
  -1   4  -1   22.49    3.92
  -1   4  -2  657.75   20.74
  -1   4  -3  189.39   11.34
  -1   4  -4  487.53   18.67
  -1   4  -5  213.30   12.56
  -1   4  -6  184.16   12.31
  -1   4  -7  132.08   11.17
  -1   4  -8   27.49    5.33
  -1   4  -9   24.64    5.98
  -1   4 -10   32.49    6.04
  -1   4 -11   12.66    4.81
  -1   4 -12    6.92    4.76
  -1   4 -13    9.94    4.91
  -1   4 -14   11.15    6.12
  -1   4 -14   -0.54    3.92
   1   5 -13   11.12    5.93
   1   5 -13    3.18    4.10
   1   5 -12   10.39    5.03
   1   5 -12   20.76    5.83
   1   5 -11    7.13    4.60
   1   5 -11   -3.93    3.96
   1   5 -10   50.73    7.45
   1   5  -9   55.22    7.39
   1   5  -8    9.77    2.35
   1   5  -7  179.98   12.68
   1   5  -6   37.70    5.72
   1   5  -5  197.64   12.83
   1   5  -4   34.27    4.91
  -1   5  -1  236.64   13.23
  -1   5  -2   12.70    3.53
  -1   5  -3  131.51   10.63
  -1   5  -4   52.44    7.09
  -1   5  -5   94.48    9.70
  -1   5  -6    4.44    2.75
  -1   5  -7   28.41    5.24
  -1   5  -8   27.06    5.92
  -1   5  -9   17.48    5.59
  -1   5 -10    8.27    4.79
  -1   5 -11   24.24    6.41
  -1   5 -12    4.90    4.25
  -1   5 -13    4.08    4.80
   1   6 -12    4.72    3.81
   1   6 -12   17.69    6.92
   1   6 -11   22.06    6.14
   1   6 -10    7.35    4.03
   1   6  -9   10.54    3.63
   1   6  -8   56.38    7.95
   1   6  -7   28.72    5.91
   1   6  -6  226.67   15.20
   1   6  -5   39.69    6.64
   1   6  -4   32.75    5.44
  -1   6  -1    3.00    2.75
  -1   6  -2  159.65   12.58
  -1   6  -3   47.61    7.43
  -1   6  -4   34.98    6.29
  -1   6  -5   15.89    4.89
  -1   6  -6   77.96    9.51
  -1   6  -7   23.44    5.20
  -1   6  -8    8.40    3.43
  -1   6  -9   -0.08    3.90
  -1   6 -10   30.89    7.50
  -1   6 -11   10.21    5.77
  -1   6 -12    1.74    4.05
   1   7 -10   12.63    5.14
   1   7  -9    7.37    3.97
   1   7  -8    7.17    4.35
   1   7  -7   46.30    8.29
   1   7  -6   30.68    6.49
   1   7  -5   34.26    6.69
   1   7  -4  216.74   15.67
   1   7  -3    8.31    3.38
  -1   7   0   86.34    9.93
  -1   7  -1  146.03   13.14
  -1   7  -2   19.24    5.18
  -1   7  -3   60.08    8.86
  -1   7  -4   27.98    6.76
  -1   7  -5   59.08    9.10
  -1   7  -6  208.40   16.67
  -1   7  -7   -5.59    4.92
  -1   7  -8   63.29    9.95
  -1   7  -9   16.22    6.05
  -1   7 -10    0.64    4.17
   1   8  -8   17.69    6.80
   1   8  -7    5.96    4.11
   1   8  -6   19.83    6.39
   1   8  -5   29.82    7.04
   1   8  -4    2.26    3.39
   1   8  -3  100.48   11.46
  -1   8   1   40.04    7.63
  -1   8   0   31.17    6.70
  -1   8  -1    4.26    4.32
  -1   8  -2   61.25    9.51
  -1   8  -3    4.67    3.73
  -1   8  -4   11.49    5.41
  -1   8  -5   32.82    7.79
  -1   8  -6   10.44    5.67
  -1   8  -7   30.51    7.19
  -1   8  -8    4.92    3.94
   1   9  -4   11.71    5.41
   1   9  -3    2.27    3.64
   1   9  -2   13.07    5.39
  -1   9   2   11.47    5.49
  -1   9   1   -1.28    3.31
  -1   9   0    5.01    3.68
  -1   9  -1   10.41    5.43
  -1   9  -2   -1.77    4.38
  -1   9  -3    0.78    3.69
  -1   9  -4    0.79    4.04
  -2  -9   4    3.35    4.15
   2  -9  -4   -3.45    4.25
  -2  -9   3   19.69    5.73
   2  -9  -3   15.51    5.82
   2  -9  -2    1.24    3.68
   2  -9  -1    8.32    4.72
   2  -9   0   -0.52    3.79
  -2  -9  -1   -1.71    4.55
   2  -9   1    0.39    3.73
  -2  -9  -2    3.51    4.51
   2  -9   2   -0.34    3.39
   2  -9   3    4.24    4.54
  -2  -9  -3   11.19    6.27
   2  -8  -8   10.89    5.17
  -2  -8   8    7.12    3.98
  -2  -8   7    4.38    4.20
   2  -8  -7    7.13    4.57
   2  -8  -6   32.18    7.04
  -2  -8   6   37.69    7.75
  -2  -8   5    4.68    3.58
   2  -8  -5   -1.75    3.45
  -2  -8   4   50.61    7.97
   2  -8  -4   48.25    7.97
  -2  -8   3   14.92    4.77
   2  -8  -3    9.94    4.26
   2  -8  -2   12.90    4.62
  -2  -8   2   10.87    3.83
  -2  -8   1   36.95    5.85
  -2  -8   1   44.49    8.47
   2  -8  -1   32.05    7.04
   2  -8   0   -4.33    4.39
  -2  -8   0    3.21    4.31
  -2  -8   0   -0.73    2.57
   2  -8   1   -2.04    4.02
  -2  -8  -1    5.27    4.27
   2  -8   2   23.83    6.43
  -2  -8  -2   41.96    8.04
  -2  -8  -3    2.43    3.99
   2  -8   3    3.17    3.31
   2  -8   4   41.99    8.64
  -2  -8  -4   69.02   10.53
   2  -8   5    7.37    4.74
  -2  -8  -5   18.68    6.46
   2  -8   6    5.12    3.96
  -2  -8  -6    8.59    5.24
   2  -8   7   15.55    6.67
  -2  -8  -7   12.02    5.83
   2  -7 -10   29.91    6.95
  -2  -7  10   28.33    7.55
   2  -7 -10   33.28    6.96
   2  -7  -9   -5.25    4.74
   2  -7  -9    1.18    3.30
  -2  -7   9    5.11    4.21
   2  -7  -8    2.66    3.66
   2  -7  -8   14.50    5.05
  -2  -7   8   11.51    4.65
   2  -7  -7   32.79    6.57
  -2  -7   7   33.89    7.33
   2  -7  -7   41.41    7.72
  -2  -7   6    8.92    4.27
   2  -7  -6   12.01    4.88
  -2  -7   5   52.06    7.85
   2  -7  -5   50.90    7.74
   2  -7  -4   55.40    7.90
  -2  -7   4   51.71    7.70
  -2  -7   3   65.82    7.73
   2  -7  -3   56.14    8.04
  -2  -7   2  135.77   10.65
  -2  -7   2  136.26   12.91
   2  -7  -2  137.41   12.35
  -2  -7   1    0.75    2.12
  -2  -7   1    1.42    3.20
   2  -7  -1    0.96    3.27
  -2  -7   0  181.55   11.36
  -2  -7   0  185.83   14.96
   2  -7   0  161.42   13.66
  -2  -7  -1   41.94    5.40
   2  -7   1   39.03    7.26
  -2  -7  -1   42.70    7.50
   2  -7   2   23.47    5.85
  -2  -7  -2   29.31    6.29
   2  -7   3   75.50    9.93
  -2  -7  -3   77.44   10.23
   2  -7   4    8.55    4.62
  -2  -7  -4   13.63    5.03
  -2  -7  -5   64.34    9.60
   2  -7   5   58.55    9.52
   2  -7   6   84.03   11.76
  -2  -7  -6   73.30   10.89
   2  -7   7    5.37    4.19
  -2  -7  -7   10.80    5.36
   2  -7   8   59.14   10.41
  -2  -7  -8   48.94    9.14
  -2  -7  -9    3.59    4.10
   2  -7   9    8.48    5.49
   2  -6 -12   24.53    7.05
   2  -6 -11   31.94    6.35
  -2  -6  11   35.11    8.87
   2  -6 -11   34.40    7.57
   2  -6 -10   12.51    5.10
  -2  -6  10    1.05    3.69
   2  -6 -10    3.42    3.26
  -2  -6   9   16.28    5.27
   2  -6  -9   21.42    5.54
   2  -6  -9   25.71    5.83
   2  -6  -8    5.50    3.61
  -2  -6   8   -1.28    2.69
   2  -6  -8    1.40    2.44
   2  -6  -7   44.48    6.99
   2  -6  -7   42.30    6.86
  -2  -6   7   47.49    7.83
   2  -6  -6   38.60    6.36
   2  -6  -6   56.82    7.89
  -2  -6   6   64.44    8.44
  -2  -6   5   15.72    4.65
   2  -6  -5    8.94    3.17
  -2  -6   4   99.80    9.33
   2  -6  -4   94.67    9.74
  -2  -6   3   50.01    6.48
   2  -6  -3   48.15    6.74
  -2  -6   2   17.77    3.93
   2  -6  -2   21.18    4.57
  -2  -6   2   19.58    4.74
   2  -6  -1  138.67   11.60
  -2  -6   1  136.27    9.18
  -2  -6   1  142.26   11.70
  -2  -6   0  110.18   10.45
   2  -6   0  114.93   10.58
  -2  -6   0  106.23    7.84
  -2  -6  -1   54.75    5.35
   2  -6   1   62.43    8.24
  -2  -6  -1   54.76    7.77
  -2  -6  -2   34.90    4.12
   2  -6   2   32.59    6.45
  -2  -6  -2   30.53    5.91
  -2  -6  -3   43.65    7.25
   2  -6   3   38.54    7.05
   2  -6   4   62.64    8.70
  -2  -6  -4   69.84    9.33
  -2  -6  -5    5.61    3.69
   2  -6   5    1.76    3.30
  -2  -6  -6   27.71    6.52
   2  -6   6   13.59    5.22
   2  -6   7   49.45    9.01
  -2  -6  -7   66.67    9.28
   2  -6   8   11.86    5.28
  -2  -6  -8    8.67    4.47
  -2  -6  -9    6.19    3.99
   2  -6   9    8.28    4.48
   2  -6  10    7.05    5.04
  -2  -6 -10    6.85    4.76
   2  -6  11    6.53    5.00
  -2  -6 -11   16.03    6.09
   2  -5 -13   14.35    6.18
   2  -5 -12   16.92    5.47
   2  -5 -12   13.17    4.45
   2  -5 -11   18.73    5.36
   2  -5 -11   22.02    5.20
   2  -5 -10   30.50    6.12
  -2  -5  10   27.62    7.13
   2  -5 -10   29.81    5.55
   2  -5  -9   41.05    7.39
   2  -5  -9   25.90    5.21
  -2  -5   9   25.25    6.08
  -2  -5   8  124.23   12.07
   2  -5  -8  137.76   10.71
   2  -5  -8  134.83   11.61
  -2  -5   7    1.42    2.66
   2  -5  -7    7.09    3.76
   2  -5  -7    2.73    2.45
   2  -5  -6   43.07    6.46
   2  -5  -6   36.82    5.66
  -2  -5   6   40.70    6.15
   2  -5  -5  180.54   12.02
  -2  -5   5  166.39   11.92
   2  -5  -5  177.20   12.15
   2  -5  -4   29.10    4.85
  -2  -5   4   37.98    5.70
  -2  -5   3   39.29    5.20
   2  -5  -3   41.83    6.00
  -2  -5   3   37.85    5.63
   2  -5  -2   71.56    7.75
  -2  -5   2   68.36    6.39
  -2  -5   2   71.28    7.61
   2  -5  -1   11.07    3.14
  -2  -5   1   14.59    3.98
  -2  -5   1   17.58    3.12
  -2  -5   0  145.17   10.97
  -2  -5   0  135.79    7.78
   2  -5   0  139.26   10.61
  -2  -5  -1   74.44    5.39
  -2  -5  -1   74.98    8.15
   2  -5   1   74.60    7.93
   2  -5   2  251.09   14.95
  -2  -5  -2  256.10   14.86
  -2  -5  -2  231.66    8.81
   2  -5   3  108.70   10.18
  -2  -5  -3  102.46    9.90
  -2  -5  -3   93.39    5.17
   2  -5   4   25.28    5.17
  -2  -5  -4   32.64    5.73
  -2  -5  -5   57.50    7.80
   2  -5   5   59.80    8.11
   2  -5   6    7.22    3.90
  -2  -5  -6    9.24    3.98
   2  -5   7    3.03    2.69
  -2  -5  -7    5.16    3.03
   2  -5   8   24.17    6.27
  -2  -5  -8   23.41    5.62
   2  -5   9   23.03    6.05
  -2  -5  -9   23.83    6.24
  -2  -5 -10   15.18    5.40
   2  -5  10   21.67    7.13
   2  -5  11   23.16    7.11
  -2  -5 -11   18.51    6.16
  -2  -5 -12   -2.40    3.43
   2  -5  12    6.16    4.62
   2  -4 -14   13.01    6.15
   2  -4 -13   12.51    5.65
   2  -4 -12    9.83    3.71
   2  -4 -12   11.05    4.69
   2  -4 -11  120.26   12.03
   2  -4 -11  131.52   10.32
   2  -4 -10    5.03    3.82
   2  -4 -10    1.23    2.33
   2  -4  -9  155.99   12.68
  -2  -4   9  159.22   13.88
   2  -4  -9  154.91   10.50
  -2  -4   8  132.60   11.78
   2  -4  -8  135.46    9.59
   2  -4  -8  126.39   10.72
   2  -4  -7   60.12    6.30
   2  -4  -7   56.31    7.00
  -2  -4   7   61.68    7.73
   2  -4  -6  127.62    8.91
   2  -4  -6  139.47   10.59
  -2  -4   6  141.62   10.66
   2  -4  -5   21.11    4.61
   2  -4  -5   19.42    3.59
  -2  -4   5   14.25    3.35
   2  -4  -4  129.74    9.73
  -2  -4   4  133.19    9.30
   2  -4  -4  132.83    9.07
  -2  -4   3  455.11   15.93
  -2  -4   3  454.67   16.65
   2  -4  -3  451.93   17.25
   2  -4  -2   40.08    5.05
  -2  -4   2   52.10    5.24
  -2  -4   2   53.25    5.75
  -2  -4   1  968.79   24.47
  -2  -4   1  966.84   19.40
   2  -4  -1  951.24   24.51
  -2  -4   0  320.59   14.48
  -2  -4   0  304.36    9.87
   2  -4   0  327.04   14.86
   2  -4   1  709.29   22.24
  -2  -4  -1  712.52   13.62
  -2  -4  -1  712.49   21.86
  -2  -4  -2  517.01   10.39
  -2  -4  -2  523.66   18.90
   2  -4   2  556.39   20.16
  -2  -4  -3  119.03    4.50
  -2  -4  -3  118.83    9.55
   2  -4   3  111.22    9.52
   2  -4   4  375.94   17.72
  -2  -4  -4  365.47   16.99
  -2  -4  -4  342.34    7.74
  -2  -4  -5   18.88    4.37
   2  -4   5   20.55    4.74
  -2  -4  -5   19.91    2.22
  -2  -4  -6  156.74   12.09
  -2  -4  -6  140.50    6.30
   2  -4   6  164.42   12.97
   2  -4   7   61.63    8.52
  -2  -4  -7   49.44    4.39
  -2  -4  -7   61.25    8.22
  -2  -4  -8    6.80    2.28
  -2  -4  -8    2.68    2.84
   2  -4   8    2.49    3.16
   2  -4   9   14.41    4.73
  -2  -4  -9   26.43    6.11
   2  -4  10   32.59    7.02
  -2  -4 -10   26.13    6.16
   2  -4  11   34.93    7.71
  -2  -4 -11   37.95    7.61
   2  -4  12   51.92    9.50
  -2  -4 -12   52.32    9.15
   2  -4  13   12.57    5.78
  -2  -4 -13    0.78    3.42
   2  -3 -14   -3.94    3.96
   2  -3 -13   45.15    8.12
   2  -3 -12   93.86   11.26
   2  -3 -11    0.77    2.13
   2  -3 -11   -2.50    3.22
   2  -3 -10  117.43   10.97
   2  -3 -10  124.28    8.78
   2  -3  -9   15.30    4.71
   2  -3  -9   15.03    3.23
   2  -3  -8  249.83   14.42
   2  -3  -8  254.97   11.52
   2  -3  -7  264.10   11.30
   2  -3  -7  264.40   14.34
  -2  -3   7  261.37   14.62
   2  -3  -6   71.59    7.35
  -2  -3   6   74.86    7.46
   2  -3  -6   69.26    5.75
  -2  -3   5  432.67   16.51
   2  -3  -5  443.43   13.93
   2  -3  -5  438.64   16.65
  -2  -3   4  161.08    9.39
   2  -3  -4  171.90    8.80
   2  -3  -4  175.15   10.20
   2  -3  -3  242.89   11.65
  -2  -3   3  217.38   10.02
  -2  -3   3  233.43   10.20
   2  -3  -2  648.40   18.87
  -2  -3   2  673.74   15.95
  -2  -3   2  679.06   17.47
   2  -3  -1    6.19    1.60
  -2  -3   1   17.49    2.95
  -2  -3   1   14.61    2.26
  -2  -3   0 1515.38   26.96
  -2  -3   0 1492.47   18.11
   2  -3   0 1504.46   28.21
  -2  -3  -1  673.42    9.85
  -2  -3  -1  660.16   18.61
   2  -3   1  704.56   20.02
   2  -3   2  467.98   16.78
  -2  -3  -2  464.13   16.20
   2  -3   3  385.54   15.91
  -2  -3  -3  380.39   15.32
  -2  -3  -4   92.66    8.19
   2  -3   4  100.31    8.52
  -2  -3  -4   89.34    3.34
  -2  -3  -5  251.31   13.56
   2  -3   5  256.61   14.35
  -2  -3  -5  227.41    6.89
   2  -3   6   96.24    9.23
  -2  -3  -6   71.92    4.61
  -2  -3  -6   76.72    8.38
  -2  -3  -7   59.45    4.91
  -2  -3  -7   61.32    7.76
   2  -3   7   66.47    8.02
  -2  -3  -8  139.01    8.07
  -2  -3  -8  138.55   11.59
   2  -3   8  142.98   12.00
  -2  -3  -9   57.98    8.49
  -2  -3  -9   65.10    6.22
   2  -3   9   79.29    9.36
   2  -3  10   21.85    5.53
  -2  -3 -10   17.16    5.03
  -2  -3 -10   30.60    4.87
  -2  -3 -11   16.45    5.09
  -2  -3 -11   20.25    4.61
   2  -3  11   12.30    4.37
  -2  -3 -12    8.76    4.23
  -2  -3 -12    9.92    3.96
   2  -3  12   15.81    5.94
  -2  -3 -13   16.22    5.81
   2  -3  13   19.68    6.16
  -2  -3 -14   -1.84    3.70
   2  -3  14   -1.80    3.74
   2  -2 -15    9.83    5.78
   2  -2 -14   39.10    8.51
   2  -2 -13   13.53    5.88
   2  -2 -12   23.33    6.67
   2  -2 -11   21.77    6.05
   2  -2 -11   18.75    3.35
   2  -2 -10   41.89    4.55
   2  -2 -10   53.03    7.55
   2  -2  -9  216.22    9.67
   2  -2  -9  223.45   14.14
   2  -2  -8   20.27    4.79
   2  -2  -8   11.74    2.38
   2  -2  -7  360.97   16.15
   2  -2  -7  377.73   11.51
   2  -2  -6  147.73    9.95
   2  -2  -6  151.70    6.98
   2  -2  -5   36.85    3.38
   2  -2  -5   34.04    4.52
   2  -2  -4   21.21    3.72
   2  -2  -4   20.32    2.48
  -2  -2   3  147.99    6.59
   2  -2  -3  163.62    8.75
  -2  -2   2  379.59   10.68
   2  -2  -2  391.26   12.94
  -2  -2   1  251.40    9.22
   2  -2  -1  258.20   10.36
  -2  -2   0   41.42    4.25
   2  -2   0   43.22    4.66
   2  -2   1  789.61   18.65
  -2  -2  -1  764.63   17.85
  -2  -2  -2  102.57    7.06
   2  -2   2  109.02    7.36
   2  -2   3  191.44    9.99
  -2  -2  -3  179.81   10.26
   2  -2   4   68.89    6.49
  -2  -2  -4   50.76    2.81
  -2  -2  -4   69.33    6.89
  -2  -2  -5  118.83    5.38
   2  -2   5  149.82   10.18
  -2  -2  -5  142.45   10.03
   2  -2   6  108.30    9.03
  -2  -2  -6   80.99    5.18
  -2  -2  -6  101.61    8.97
   2  -2   7  208.91   12.83
  -2  -2  -7  193.14   12.89
  -2  -2  -7  174.10    8.61
  -2  -2  -8    5.98    3.19
   2  -2   8    5.60    2.74
  -2  -2  -8    0.98    1.83
  -2  -2  -9   65.35    8.38
  -2  -2  -9   44.59    5.18
   2  -2   9   61.62    8.06
  -2  -2 -10   21.22    5.42
  -2  -2 -10   16.26    3.33
   2  -2  10   23.81    5.59
   2  -2  11    4.66    3.10
  -2  -2 -11    4.71    3.70
  -2  -2 -11   -2.87    3.31
   2  -2  12   25.26    5.93
  -2  -2 -12    9.53    3.10
  -2  -2 -12   24.89    6.36
  -2  -2 -13    8.10    4.38
  -2  -2 -13    4.30    2.78
   2  -2  13    8.39    4.69
  -2  -2 -14    0.45    3.66
  -2  -2 -14   -3.80    4.42
   2  -1 -15   32.91    8.16
   2  -1 -14    7.23    4.79
   2  -1 -13   61.61    9.57
   2  -1 -12   24.85    5.81
   2  -1 -11   49.12    4.91
   2  -1 -11   54.96    8.30
   2  -1 -10  146.69   12.23
   2  -1 -10  135.29    7.28
   2  -1  -9   -0.17    2.22
   2  -1  -9    4.31    1.67
   2  -1  -8  107.69    9.76
   2  -1  -8  113.61    5.69
   2  -1  -7  224.59    7.27
   2  -1  -7  243.09   13.00
   2  -1  -6  132.35    9.25
   2  -1  -6  134.13    5.00
   2  -1  -5  300.11    6.77
   2  -1  -5  306.01   12.84
   2  -1  -4  155.91    8.67
   2  -1  -3  768.04   18.30
  -2  -1   3  815.06   10.71
   2  -1  -2  936.00   18.40
  -2  -1   2  888.83   12.39
   2  -1  -1  764.58   15.45
  -2  -1   1  774.93   12.89
   2  -1   0 2195.66   26.07
  -2  -1   0 2178.19   24.29
  -2  -1  -1  179.65    7.99
  -2  -1  -1  162.42    3.85
   2  -1   1  173.59    7.58
  -2  -1  -2  972.31   20.00
   2  -1   2  978.26   18.87
  -2  -1  -3  395.80   14.27
   2  -1   3  414.55   12.90
  -2  -1  -4   17.83    3.38
   2  -1   4   28.41    3.85
   2  -1   5  474.27   15.91
  -2  -1  -5  451.60   17.12
  -2  -1  -6  123.69    9.83
   2  -1   6  126.72    9.07
  -2  -1  -6  113.57    6.91
  -2  -1  -7   55.09    6.78
  -2  -1  -7   54.19    5.39
   2  -1   7   63.38    6.68
  -2  -1  -8  303.08   16.67
   2  -1   8  297.66   15.13
  -2  -1  -8  288.96   13.16
   2  -1   9    8.58    3.12
  -2  -1  -9    1.66    3.05
  -2  -1  -9    6.26    2.74
  -2  -1 -10   34.67    6.12
  -2  -1 -10   38.58    5.88
   2  -1  10   50.00    7.26
  -2  -1 -11   21.56    4.94
  -2  -1 -11   19.11    5.30
   2  -1  11   21.56    5.14
   2  -1  12    2.19    3.45
  -2  -1 -12    7.69    4.17
  -2  -1 -12    6.75    3.85
  -2  -1 -13   23.97    6.46
  -2  -1 -13   15.38    4.83
  -2  -1 -14   16.69    6.03
  -2  -1 -14   11.84    4.16
  -2  -1 -15    3.38    3.85
  -2  -1 -15   -1.14    3.64
   2   0 -15    3.16    3.79
   2   0 -14   29.93    7.16
   2   0 -13    0.46    3.42
   2   0 -12   94.78   10.89
   2   0 -11   -3.35    4.24
   2   0 -10   12.71    2.38
   2   0 -10   10.88    3.10
   2   0  -9  121.02   10.38
   2   0  -9  118.58    6.33
   2   0  -8  261.71   14.09
   2   0  -8  242.56    7.90
   2   0  -7    9.22    1.51
   2   0  -7    4.42    1.79
   2   0  -6 1382.46   28.37
   2   0  -6 1325.58   12.63
   2   0  -5  364.52   13.77
   2   0  -4  690.04   17.37
   2   0  -3  409.80   12.31
   2   0  -2  385.76   10.87
  -2   0   2  375.89    6.27
   2   0  -2  381.21    5.85
  -2   0   1  969.97   12.97
   2   0  -1  989.15   15.72
  -2   0   0  263.95    8.03
   2   0   0  283.27    7.74
  -2   0  -1   93.90    5.56
   2   0   1   96.44    4.58
   2   0   2 9808.92   47.94
  -2   0  -2 9999.00   61.91
   2   0   3 1104.75   17.99
  -2   0  -3 1121.39   22.81
  -2   0  -4  139.29    9.40
   2   0   4  150.22    7.36
  -2   0  -5  354.26   14.79
   2   0   5  346.68   11.95
  -2   0  -6  751.72   23.01
   2   0   6  716.05   18.70
   2   0   7  480.67   16.48
  -2   0  -7  490.34   19.81
  -2   0  -8   18.99    4.76
   2   0   8   23.08    4.44
  -2   0  -9  263.11   16.41
   2   0   9  245.00   13.61
  -2   0  -9  247.26   14.12
  -2   0 -10   16.67    5.03
  -2   0 -10    7.38    3.21
   2   0  10   18.60    4.60
  -2   0 -11   48.54    8.36
  -2   0 -11   47.59    7.20
  -2   0 -12   84.63   10.66
  -2   0 -12   74.35    9.54
  -2   0 -13    2.79    3.82
  -2   0 -13    6.50    4.53
  -2   0 -14    2.66    4.50
  -2   0 -14   10.99    4.85
  -2   0 -15   -4.84    5.32
  -2   0 -15   11.70    5.36
   2   1 -15   37.05    8.32
   2   1 -14    2.53    3.85
   2   1 -13   57.51    9.53
   2   1 -12   25.23    6.30
   2   1 -11   66.01    9.50
   2   1 -10  135.52   12.15
   2   1 -10  107.94    7.18
   2   1  -9    2.37    1.69
   2   1  -9    2.39    2.36
   2   1  -8   96.56    9.35
   2   1  -8  100.20    5.77
   2   1  -7  200.32    7.19
   2   1  -7  219.00   12.90
   2   1  -6  151.56    5.47
   2   1  -6  158.90   10.19
   2   1  -5  358.93    7.46
   2   1  -5  340.60   13.72
   2   1  -4  140.89    7.98
   2   1  -4  150.51    4.42
   2   1  -3  823.71   17.08
  -2   1   3  778.49   10.92
   2   1  -2  754.35   14.53
  -2   1   2  732.79   11.39
   2   1  -1  754.88   12.52
  -2   1   1  730.97   12.86
   2   1   0 1976.40   16.46
  -2   1   0 1920.00   22.96
  -2   1  -1  152.76    7.35
   2   1   1  153.70    3.84
  -2   1  -2  944.12   19.00
   2   1   2  905.46    9.85
   2   1   3  344.83    7.55
  -2   1  -3  341.18   12.45
  -2   1  -4   25.56    4.16
   2   1   4   24.08    2.52
  -2   1  -5  477.05   17.46
   2   1   5  450.57   12.12
   2   1   6  138.16    7.47
  -2   1  -6  163.75   10.73
  -2   1  -7   59.14    6.87
  -2   1  -8  278.14   15.61
  -2   1  -9   13.46    4.44
  -2   1 -10   48.01    7.84
  -2   1 -11   18.36    6.09
  -2   1 -11    7.28    3.60
  -2   1 -12   11.49    5.81
  -2   1 -12   -2.54    3.79
  -2   1 -13    4.19    4.21
  -2   1 -13   16.45    4.90
  -2   1 -14    6.89    4.75
  -2   1 -14   13.88    6.12
  -2   1 -15   -1.57    5.64
  -2   1 -15    5.19    4.82
   2   2 -15   14.69    5.96
   2   2 -14   32.78    8.35
   2   2 -13    9.40    4.75
   2   2 -12   24.08    6.63
   2   2 -11   11.43    3.16
   2   2 -11   17.09    5.43
   2   2 -10   44.58    5.02
   2   2 -10   53.13    8.40
   2   2  -9  211.64    9.84
   2   2  -9  221.83   15.23
   2   2  -8   13.38    4.20
   2   2  -8   24.01    3.38
   2   2  -7  384.06   11.72
   2   2  -7  390.25   17.64
   2   2  -6  168.27   10.94
   2   2  -6  167.22    7.26
   2   2  -5   33.83    3.15
   2   2  -5   33.03    4.45
   2   2  -4   28.04    3.93
   2   2  -3  177.20    8.61
  -2   2   2  343.67   10.08
   2   2  -2  394.99   11.27
   2   2  -1  218.13    7.29
  -2   2   1  192.02    8.28
   2   2   0   39.74    2.50
  -2   2   0   32.72    3.91
  -2   2  -1  698.65   17.10
  -2   2  -2   96.59    6.78
  -2   2  -3  179.03    9.63
  -2   2  -4   74.03    6.85
  -2   2  -5  182.45   10.96
  -2   2  -6  108.52    8.99
  -2   2  -7  241.75   14.04
  -2   2  -8    7.30    3.66
  -2   2  -9   77.82    8.88
  -2   2 -10   18.33    5.04
  -2   2 -11    6.09    3.60
  -2   2 -12   33.28    8.06
  -2   2 -13    7.37    3.49
  -2   2 -13   12.23    6.19
  -2   2 -14   10.42    5.08
  -2   2 -14   14.39    6.36
   2   3 -14    6.76    5.15
   2   3 -13   52.36    9.67
   2   3 -12   99.89   12.73
   2   3 -11    1.37    3.18
   2   3 -11    6.30    2.67
   2   3 -10  118.15   11.92
   2   3 -10  116.21    8.59
   2   3  -9   19.48    3.91
   2   3  -9   13.14    4.61
   2   3  -8  256.61   11.55
   2   3  -8  254.93   15.78
   2   3  -7  278.64   11.71
   2   3  -7  281.33   15.73
   2   3  -6   71.27    7.43
   2   3  -6   71.40    5.73
   2   3  -5  437.98   13.69
   2   3  -5  427.46   17.15
  -2   3   1   13.50    2.71
  -2   3   0 1476.22   27.30
  -2   3  -1  724.91   19.74
  -2   3  -2  438.35   15.65
  -2   3  -3  391.06   15.75
  -2   3  -4   93.87    8.06
  -2   3  -5  289.85   14.57
  -2   3  -6  118.87    9.93
  -2   3  -7   66.39    8.06
  -2   3  -8  155.40   12.26
  -2   3  -9   79.99    9.33
  -2   3 -10   29.32    6.64
  -2   3 -11   20.82    6.13
  -2   3 -12   14.66    5.46
  -2   3 -13   14.03    5.45
  -2   3 -14   11.37    6.75
  -2   3 -14    0.87    4.31
   2   4 -14   10.22    5.95
   2   4 -13   11.66    6.35
   2   4 -12   12.17    5.12
   2   4 -12   10.37    3.90
   2   4 -11  130.33   13.89
   2   4 -11  139.37   10.84
   2   4 -10    1.23    2.13
   2   4 -10    0.05    3.19
   2   4  -9  142.27   13.32
   2   4  -9  141.86   10.06
   2   4  -8  114.52    8.68
   2   4  -8  106.05   10.74
   2   4  -7   71.61    6.99
   2   4  -7   56.18    7.47
   2   4  -6  134.64    9.14
   2   4  -5   11.59    2.59
  -2   4   1  865.65   22.82
  -2   4   0  342.21   14.99
  -2   4  -1  690.40   21.73
  -2   4  -2  498.62   18.77
  -2   4  -3  130.91   10.07
  -2   4  -4  389.12   17.49
  -2   4  -5   16.33    3.81
  -2   4  -6  151.20   11.64
  -2   4  -7   68.38    8.71
  -2   4  -8   12.07    4.80
  -2   4  -9   25.59    6.55
  -2   4 -10   26.19    6.96
  -2   4 -11   33.84    7.04
  -2   4 -12   54.87    9.49
  -2   4 -13    1.57    3.91
   2   5 -13   13.88    6.01
   2   5 -12   25.00    6.05
   2   5 -12   19.67    5.96
   2   5 -11   25.00    6.43
   2   5 -11   21.26    5.26
   2   5 -10   21.90    4.46
   2   5 -10   31.58    6.90
   2   5  -9   22.58    4.34
   2   5  -9   28.59    6.94
   2   5  -8  174.73   12.23
   2   5  -7    2.97    2.74
   2   5  -6   37.25    5.50
   2   5  -5  164.06   10.84
  -2   5   1   11.46    3.33
  -2   5   0  118.11   10.10
  -2   5  -1   69.53    7.76
  -2   5  -2  260.64   15.11
  -2   5  -3  100.76    9.71
  -2   5  -4   26.52    5.48
  -2   5  -5   51.45    6.89
  -2   5  -6   -3.84    4.24
  -2   5  -7    9.45    4.18
  -2   5  -8   12.62    4.57
  -2   5  -9   28.52    6.70
  -2   5 -10   29.19    7.33
  -2   5 -11   18.60    6.18
  -2   5 -12    1.37    4.83
   2   6 -12    3.23    3.97
   2   6 -11   26.05    5.94
   2   6 -11   29.34    7.44
   2   6 -10   -0.33    4.57
   2   6 -10   -3.66    4.31
   2   6  -9   19.39    6.21
   2   6  -9    8.63    2.87
   2   6  -8    1.13    2.78
   2   6  -7   50.12    7.24
   2   6  -6   62.48    7.89
   2   6  -5   10.03    3.23
  -2   6   2   11.88    3.59
  -2   6   1  159.37   12.37
  -2   6   0  117.62   11.13
  -2   6  -1   56.19    7.98
  -2   6  -2   50.44    7.75
  -2   6  -3   50.40    7.86
  -2   6  -4   83.75   10.13
  -2   6  -5   -6.68    4.89
  -2   6  -6   27.33    5.53
  -2   6  -7   54.36    8.39
  -2   6  -8    4.22    3.74
  -2   6  -9    6.28    4.90
  -2   6 -10   13.38    5.98
  -2   6 -11    7.69    5.78
   2   7 -10   21.29    5.44
   2   7 -10   33.67    8.21
   2   7  -9    3.53    3.29
   2   7  -8   22.69    6.19
   2   7  -7   37.78    7.08
   2   7  -6    5.39    3.65
   2   7  -5   54.64    8.11
   2   7  -4   53.49    7.56
  -2   7   2  128.33   11.95
  -2   7   1   -1.15    3.52
  -2   7   0  195.13   15.24
  -2   7  -1   61.00    8.90
  -2   7  -2   28.30    6.26
  -2   7  -3   89.29   10.98
  -2   7  -4   16.07    5.58
  -2   7  -5   49.38    8.68
  -2   7  -6   67.59    9.85
  -2   7  -7    2.68    3.79
  -2   7  -8   60.01    9.89
  -2   7  -9    1.41    4.56
   2   8  -8   11.81    5.25
   2   8  -7    4.35    3.55
   2   8  -6   36.09    7.69
   2   8  -5   -0.61    3.76
   2   8  -4   40.35    7.35
  -2   8   3    7.58    3.88
  -2   8   2    6.71    4.10
  -2   8   1   34.92    7.30
  -2   8   0    1.46    3.04
  -2   8  -1    7.27    4.32
  -2   8  -2   28.03    6.86
  -2   8  -3    1.47    3.34
  -2   8  -4   53.51    9.90
  -2   8  -5    0.58    4.22
  -2   8  -6   -1.58    5.90
  -2   8  -7    8.05    4.43
   2   9  -4    2.28    3.53
  -2   9   4    1.42    3.65
  -2   9   3   19.58    5.91
   2   9  -3   12.91    5.46
  -2   9   2   -0.56    3.59
  -2   9   1    5.64    3.97
  -2   9   0   -1.45    4.89
  -2   9  -1   -0.56    3.78
  -2   9  -2    2.58    4.60
  -2   9  -3    8.16    6.25
   3  -9  -2   -0.43    3.58
  -3  -9   1    7.38    4.78
   3  -9  -1   -1.79    3.77
   3  -9   0   -1.05    3.58
  -3  -9   0    0.62    4.36
   3  -9   1   -5.70    5.02
  -3  -9  -1   -1.81    4.06
  -3  -8   7   31.47    7.14
   3  -8  -7   30.55    7.39
   3  -8  -6   13.63    5.49
  -3  -8   6   13.52    4.99
  -3  -8   5   11.64    4.66
   3  -8  -5    5.22    3.91
   3  -8  -4   20.32    5.95
  -3  -8   4   17.22    5.00
   3  -8  -3    6.99    4.52
  -3  -8   3    2.92    3.42
  -3  -8   2   22.78    6.50
   3  -8  -2   12.85    5.38
  -3  -8   1   11.68    5.47
   3  -8  -1   17.60    5.99
   3  -8   0    8.90    4.52
  -3  -8   0    1.30    3.44
  -3  -8  -1   22.06    6.74
   3  -8   1   21.56    6.33
   3  -8   2   13.00    5.23
  -3  -8  -2   14.86    5.89
   3  -8   3   24.64    6.88
  -3  -8  -3   23.84    6.99
   3  -8   4   37.70    8.48
  -3  -8  -4   47.25    9.23
   3  -8   5    1.92    3.99
  -3  -8  -5    6.98    4.63
   3  -8   6   27.19    7.83
  -3  -8  -6   25.17    7.39
   3  -7  -9   -5.67    4.62
  -3  -7   9    1.08    3.32
   3  -7  -8   36.69    7.48
  -3  -7   8   42.59    8.17
   3  -7  -7    2.06    3.31
  -3  -7   7   -0.41    3.26
   3  -7  -6   50.73    8.62
  -3  -7   6   44.51    7.41
  -3  -7   5   24.40    5.44
   3  -7  -5   23.41    6.08
  -3  -7   4   35.65    6.09
   3  -7  -4   44.33    8.02
  -3  -7   3   57.87    7.37
  -3  -7   3   57.71    8.88
   3  -7  -3   51.56    8.42
  -3  -7   2   39.01    7.19
  -3  -7   2   35.83    5.54
   3  -7  -2   44.07    7.56
  -3  -7   1   14.02    4.77
   3  -7  -1   13.45    4.98
  -3  -7   1   17.61    3.78
  -3  -7   0   55.23    8.59
   3  -7   0   59.03    8.90
   3  -7   1    0.78    3.13
  -3  -7  -1    3.48    3.92
   3  -7   2   80.06   10.67
  -3  -7  -2  108.93   12.16
   3  -7   3   34.39    7.23
  -3  -7  -3   44.00    8.12
   3  -7   4    5.54    3.96
  -3  -7  -4   12.93    5.05
   3  -7   5   37.72    8.02
  -3  -7  -5   38.88    8.31
   3  -7   6   -3.43    4.74
  -3  -7  -6    0.76    3.33
   3  -7   7   40.83    9.07
  -3  -7  -7   36.60    8.66
   3  -7   8   48.57    9.95
  -3  -7  -8   47.66    9.70
   3  -7   9    4.78    4.79
  -3  -7  -9    8.57    5.21
   3  -6 -11    3.76    4.61
   3  -6 -10   52.70    9.00
   3  -6  -9   24.27    6.41
   3  -6  -8    6.49    3.89
  -3  -6   8    5.24    3.49
   3  -6  -7   41.30    7.37
  -3  -6   7   44.64    7.44
   3  -6  -6    7.64    3.99
  -3  -6   6   10.33    4.11
   3  -6  -5  159.89   13.31
  -3  -6   5  164.15   12.31
  -3  -6   4  191.51   12.50
   3  -6  -4  202.38   14.80
  -3  -6   3    7.66    2.59
   3  -6  -3   16.13    5.22
  -3  -6   3   10.48    3.96
  -3  -6   2   76.42    8.76
  -3  -6   2   74.63    7.00
   3  -6  -2   89.98    9.79
  -3  -6   1    2.99    2.79
   3  -6  -1    6.17    3.20
  -3  -6   1    4.79    2.19
  -3  -6   0  127.81    7.79
  -3  -6   0  140.02   12.31
   3  -6   0  122.64   11.57
  -3  -6  -1  149.83   12.70
   3  -6   1  134.42   12.32
   3  -6   2   16.03    4.94
  -3  -6  -2   14.27    4.67
   3  -6   3   17.70    5.47
  -3  -6  -3   14.38    4.88
   3  -6   4   18.97    5.51
  -3  -6  -4   18.84    5.12
   3  -6   5   -0.58    2.81
  -3  -6  -5   -3.47    3.48
  -3  -6  -6   10.59    4.22
   3  -6   6   10.72    4.38
   3  -6   7    3.92    3.02
  -3  -6  -7    7.17    4.22
   3  -6   8   11.36    5.04
  -3  -6  -8    8.99    4.47
   3  -6   9   13.05    5.09
  -3  -6  -9   11.99    5.35
   3  -6  10    7.01    5.30
  -3  -6 -10    2.33    3.40
   3  -5 -12   -4.24    3.46
   3  -5 -11   39.12    7.87
   3  -5 -10    2.19    2.77
   3  -5 -10    3.54    3.52
   3  -5  -9   46.88    8.38
   3  -5  -9   34.47    5.70
   3  -5  -8   43.54    7.84
   3  -5  -7    5.91    3.81
  -3  -5   7    0.14    2.64
   3  -5  -6    8.38    3.83
  -3  -5   6   12.54    4.23
  -3  -5   5  133.47   10.44
   3  -5  -5  116.88   10.73
   3  -5  -4   10.02    3.53
  -3  -5   4   12.85    3.70
  -3  -5   4   18.02    3.91
   3  -5  -3  185.76   12.90
  -3  -5   3  174.25   10.62
  -3  -5   3  176.37   12.05
  -3  -5   2   11.40    3.68
  -3  -5   2   10.26    2.64
   3  -5  -2   13.78    4.22
   3  -5  -1  186.91   13.13
  -3  -5   1  180.86    8.90
  -3  -5   1  180.39   12.35
   3  -5   0   70.08    8.28
  -3  -5   0   72.41    8.09
  -3  -5   0   70.08    5.00
  -3  -5  -1   12.97    2.04
   3  -5   1   11.40    4.01
  -3  -5  -1   17.45    4.28
  -3  -5  -2   20.93    4.66
   3  -5   2   31.55    5.85
   3  -5   3   41.35    6.83
  -3  -5  -3   33.05    6.01
   3  -5   4   16.24    4.96
  -3  -5  -4   13.84    4.26
   3  -5   5   46.20    7.45
  -3  -5  -5   52.25    7.59
   3  -5   6    4.95    3.53
  -3  -5  -6    5.54    3.59
   3  -5   7   41.50    7.81
  -3  -5  -7   46.41    7.76
   3  -5   8   22.68    6.22
  -3  -5  -8   13.64    5.10
   3  -5   9    0.88    3.42
  -3  -5  -9    4.55    3.57
   3  -5  10    9.62    5.00
  -3  -5 -10   14.01    5.14
   3  -5  11    6.36    4.91
  -3  -5 -11    1.12    3.74
   3  -5  12    6.26    4.70
  -3  -5 -12   10.07    5.09
   3  -4 -13   -1.49    4.04
   3  -4 -12   47.33    8.70
   3  -4 -11    6.79    4.58
   3  -4 -10    6.54    3.49
   3  -4 -10    9.00    2.91
   3  -4  -9   16.83    4.43
   3  -4  -9   15.10    3.42
   3  -4  -8   37.90    5.08
   3  -4  -8   36.50    6.67
   3  -4  -7  134.16   11.21
   3  -4  -6  199.36   13.43
   3  -4  -5    3.48    3.60
  -3  -4   4  485.18   17.20
   3  -4  -4  469.66   19.64
  -3  -4   3  170.11    9.59
  -3  -4   3  150.63    9.91
   3  -4  -3  175.22   11.65
  -3  -4   2  475.63   14.71
  -3  -4   2  487.37   17.81
   3  -4  -2  478.88   19.21
  -3  -4   1  495.04   18.32
   3  -4  -1  534.34   19.97
  -3  -4   0  206.11   11.96
   3  -4   0  189.39   12.04
   3  -4   1  580.69   21.71
  -3  -4  -1  551.11   19.92
   3  -4   2    5.19    2.27
  -3  -4  -2   10.69    3.42
   3  -4   3  290.87   16.06
  -3  -4  -3  276.25   15.14
   3  -4   4  152.48   12.07
  -3  -4  -4  128.67   10.99
   3  -4   5    5.38    3.16
  -3  -4  -5    2.91    2.20
  -3  -4  -6  123.51   11.25
   3  -4   6  135.45   12.17
   3  -4   7  136.76   12.67
  -3  -4  -7  111.88   11.06
   3  -4   8  168.21   14.72
  -3  -4  -8  172.81   14.44
  -3  -4  -9   65.90    9.61
   3  -4   9   84.65   10.69
  -3  -4 -10    3.81    3.56
   3  -4  10   -3.02    3.93
  -3  -4 -11   35.78    7.67
   3  -4  11   58.13    9.51
  -3  -4 -12    0.51    3.41
   3  -4  12   10.05    5.76
  -3  -4 -13    1.41    4.51
   3  -4  13   11.30    4.89
   3  -3 -14    4.23    5.04
   3  -3 -13   10.73    4.93
   3  -3 -12   19.30    6.08
   3  -3 -11   72.35   10.09
   3  -3 -10   45.29    7.41
   3  -3 -10   37.26    4.48
   3  -3  -9   17.99    4.79
   3  -3  -9   20.74    3.30
   3  -3  -8   90.92    9.92
   3  -3  -8   89.28    6.43
   3  -3  -7   28.05    5.51
   3  -3  -6   71.24    7.88
   3  -3  -5  547.59   20.27
   3  -3  -4   14.47    4.16
  -3  -3   4    8.49    2.29
  -3  -3   3  223.78   10.33
   3  -3  -3  216.83   12.26
  -3  -3   2   77.09    6.23
   3  -3  -2   79.89    7.35
   3  -3  -1  555.20   19.16
  -3  -3   1  583.58   17.15
   3  -3   0  878.15   23.46
  -3  -3   0  877.26   21.93
  -3  -3  -1  103.69    8.13
   3  -3   1  105.96    8.42
  -3  -3  -2  535.24   18.92
   3  -3   2  555.47   19.69
  -3  -3  -3  140.57   10.27
   3  -3   3  153.65   10.92
   3  -3   4  181.11   12.00
  -3  -3  -4  159.98   11.38
   3  -3   5  218.99   13.70
  -3  -3  -5  216.90   13.56
  -3  -3  -6   35.20    5.91
   3  -3   6   42.53    6.71
   3  -3   7  158.44   12.80
  -3  -3  -7  141.36   12.14
  -3  -3  -8   86.67   10.08
   3  -3   8  114.63   11.41
  -3  -3  -9    5.64    3.14
   3  -3   9   12.80    4.40
   3  -3  10  110.10   12.04
  -3  -3 -10   88.10   10.99
   3  -3  11   -1.83    3.12
  -3  -3 -11   -1.90    2.95
  -3  -3 -12   31.86    7.71
   3  -3  12   33.80    7.73
  -3  -3 -13   15.72    6.12
   3  -3  13   20.04    6.92
   3  -2 -15   40.25    9.48
   3  -2 -14   22.34    7.25
   3  -2 -13   20.73    7.04
   3  -2 -12  151.61   14.15
   3  -2 -11   41.28    7.64
   3  -2 -10   57.39    8.34
   3  -2  -9  122.52   11.37
   3  -2  -8   30.54    3.03
   3  -2  -8   30.75    6.23
   3  -2  -7  385.15   17.76
   3  -2  -6   65.23    7.29
   3  -2  -5  497.09   18.65
   3  -2  -4   97.75    7.98
  -3  -2   4  100.26    5.47
  -3  -2   3  125.74    6.38
   3  -2  -3  109.41    7.99
   3  -2  -2  565.23   18.04
  -3  -2   2  582.80   14.39
  -3  -2   1  220.42    9.30
   3  -2  -1  219.83   10.85
   3  -2   0   11.41    2.36
  -3  -2   0   24.12    3.45
   3  -2   1  303.30   12.71
  -3  -2  -1  291.38   12.24
  -3  -2  -2   73.61    6.80
   3  -2   2   78.44    6.65
   3  -2   3  152.03    9.75
  -3  -2  -3  147.11    9.99
  -3  -2  -4   55.96    2.75
  -3  -2  -4   65.86    7.65
   3  -2   4   65.61    6.74
  -3  -2  -5   49.86    3.36
  -3  -2  -5   51.32    6.65
   3  -2   5   58.51    6.64
  -3  -2  -6   60.99    4.34
  -3  -2  -6   72.30    8.34
   3  -2   6   81.20    8.23
  -3  -2  -7    8.63    3.94
   3  -2   7    3.74    2.76
  -3  -2  -7    6.75    2.07
  -3  -2  -8   17.28    5.32
   3  -2   8   18.02    4.28
  -3  -2  -8   13.59    2.92
   3  -2   9   26.31    5.38
  -3  -2  -9   24.69    4.08
  -3  -2  -9   28.82    6.29
   3  -2  10    0.81    2.82
  -3  -2 -10   -0.80    2.16
  -3  -2 -10    5.84    3.60
  -3  -2 -11   12.89    5.60
  -3  -2 -11   11.85    3.61
   3  -2  11   22.56    5.83
  -3  -2 -12    5.14    3.69
  -3  -2 -12   -1.03    3.12
   3  -2  12    9.72    4.23
  -3  -2 -13    6.42    5.06
   3  -2  13    4.95    4.02
  -3  -2 -14    2.91    4.36
   3  -2  14    5.28    4.12
   3  -1 -15    2.28    3.91
   3  -1 -14   30.79    7.94
   3  -1 -13   34.34    8.44
   3  -1 -12    1.27    3.11
   3  -1 -11   79.06    9.81
   3  -1 -10   15.08    5.46
   3  -1  -9   27.92    5.96
   3  -1  -8  310.79   17.13
   3  -1  -7   20.49    4.66
   3  -1  -6  613.98   20.88
   3  -1  -5  431.61   16.45
   3  -1  -4  237.95   11.60
  -3  -1   4  226.42    5.69
   3  -1  -3  216.25   10.50
  -3  -1   3  225.45    6.62
  -3  -1   2  564.27   11.94
   3  -1  -2  555.13   15.78
   3  -1  -1  118.49    7.31
  -3  -1   1  121.98    6.20
   3  -1   0 1104.81   21.33
  -3  -1   0 1111.51   20.84
  -3  -1  -1    5.61    1.95
   3  -1   1   11.38    2.80
  -3  -1  -2  668.55   19.24
   3  -1   2  669.27   17.41
   3  -1   3  527.57   15.97
  -3  -1  -3  506.71   18.20
   3  -1   4   76.51    6.43
  -3  -1  -4   71.35    7.35
  -3  -1  -5  920.71   27.36
   3  -1   5  900.68   23.02
  -3  -1  -6   65.11    7.85
   3  -1   6   65.84    6.91
  -3  -1  -7   71.26    8.58
   3  -1   7   63.86    7.06
  -3  -1  -8   71.63    9.28
   3  -1   8   76.94    8.05
  -3  -1  -8   64.68    6.44
  -3  -1  -9    9.26    3.17
  -3  -1  -9   12.57    3.42
  -3  -1 -10   46.85    7.83
  -3  -1 -10   52.22    6.67
   3  -1  10   60.26    7.88
  -3  -1 -11    5.01    2.34
   3  -1  11    1.55    2.61
  -3  -1 -12    6.54    4.22
  -3  -1 -12    6.53    3.68
   3  -1  12   10.14    4.40
  -3  -1 -13   39.83    8.83
  -3  -1 -13   21.18    5.50
   3  -1  13   25.77    6.96
  -3  -1 -14   16.44    6.56
  -3  -1 -14   13.01    5.10
   3   0 -15    4.99    4.38
   3   0 -14   18.98    6.66
   3   0 -13   -1.02    3.41
   3   0 -12   76.77   10.43
   3   0 -11   33.00    6.71
   3   0 -10   91.81   10.02
   3   0  -9   43.49    6.64
   3   0  -8   30.03    5.38
   3   0  -7  494.27   19.39
   3   0  -6   65.74    7.04
   3   0  -5  608.98   19.02
   3   0  -4  684.73   18.91
   3   0  -3   12.63    2.90
  -3   0   3    7.79    0.98
  -3   0   2  395.60    9.61
   3   0  -2  404.51   12.82
  -3   0   1   33.75    3.53
   3   0  -1   34.36    3.74
  -3   0   0   16.42    3.20
   3   0   0   13.87    2.36
  -3   0  -1  537.15   15.53
   3   0   1  518.95   12.78
   3   0   2  233.75    8.90
  -3   0  -2  249.19   11.51
   3   0   3   53.80    4.64
  -3   0  -3   62.75    6.56
   3   0   4  307.46   11.12
  -3   0  -4  325.95   14.97
   3   0   5  697.19   18.21
  -3   0  -5  712.87   23.20
   3   0   6 1439.31   27.72
  -3   0  -6 1469.45   35.10
   3   0   7   18.23    3.61
  -3   0  -7   24.86    5.74
  -3   0  -8  112.07   11.36
   3   0   8   91.40    7.91
  -3   0  -9   22.02    6.55
   3   0   9   10.65    3.37
  -3   0 -10    3.89    3.59
   3   0  10    0.21    2.03
  -3   0 -11    6.57    3.79
  -3   0 -11   12.88    4.06
   3   0  11   16.15    4.32
  -3   0 -12    2.17    3.68
  -3   0 -12   -0.17    2.76
  -3   0 -13    7.61    4.17
  -3   0 -13    5.85    4.11
  -3   0 -14   28.04    7.45
  -3   0 -14   43.20    8.39
   3   1 -15   -5.62    4.66
   3   1 -14   31.64    7.41
   3   1 -13   25.37    6.98
   3   1 -12   -9.87    5.68
   3   1 -11   81.30    9.94
   3   1 -10    3.38    3.08
   3   1  -9   17.98    4.56
   3   1  -8  325.36   16.69
   3   1  -7   13.46    3.01
   3   1  -6  597.70   19.88
   3   1  -5  393.69   15.18
  -3   1   5  404.29    6.77
   3   1  -5  413.42    6.39
   3   1  -4  242.70   11.16
  -3   1   4  239.15    6.10
   3   1  -3  159.56    8.32
  -3   1   3  155.31    5.76
   3   1  -2  494.87   13.27
  -3   1   2  497.72   11.34
   3   1  -1   94.02    5.29
  -3   1   1  107.67    5.83
  -3   1   0  987.29   19.48
   3   1   0 1044.47   15.72
   3   1   1    9.28    1.43
  -3   1  -1   13.17    3.11
   3   1   2  553.31   10.46
  -3   1  -2  573.93   17.03
   3   1   3  554.51   11.10
  -3   1  -3  591.54   18.58
   3   1   4   53.63    3.90
  -3   1  -4   66.57    7.28
   3   1   5  822.16   16.79
  -3   1  -5  867.01   25.31
  -3   1  -6   59.23    7.42
   3   1   6   60.24    5.09
  -3   1  -7   66.49    8.42
   3   1   7   59.46    5.67
  -3   1  -8   64.53    8.54
   3   1   8   52.24    5.61
  -3   1  -9   32.61    7.24
  -3   1 -10   45.35    8.30
  -3   1 -11   16.37    6.50
  -3   1 -12   13.99    5.84
  -3   1 -12    7.97    4.19
  -3   1 -13   31.46    8.47
  -3   1 -13   24.79    6.65
  -3   1 -14   11.49    6.56
  -3   1 -14    9.71    5.00
   3   2 -15   15.55    6.20
   3   2 -14   -1.89    5.75
   3   2 -13    9.17    3.92
   3   2 -12  120.86   12.95
   3   2 -11   30.93    7.11
   3   2 -10   84.24   10.00
   3   2  -9  141.07   11.97
   3   2  -8   31.14    3.15
   3   2  -8   35.17    6.10
   3   2  -7  399.39   17.74
   3   2  -7  400.29   10.39
   3   2  -6   65.90    7.10
   3   2  -6   72.54    4.39
  -3   2   5  480.52   11.88
   3   2  -5  503.77   17.49
   3   2  -4   59.83    5.82
  -3   2   4   52.13    4.19
   3   2  -3  124.81    7.25
  -3   2   3  120.05    6.34
   3   2  -2  587.76   14.22
  -3   2   2  567.90   14.37
  -3   2   1  191.69    8.90
   3   2  -1  187.41    7.12
  -3   2   0   22.52    3.29
   3   2   0   24.98    2.17
  -3   2  -1  313.29   12.68
   3   2   1  283.93    5.56
  -3   2  -2   83.91    7.09
  -3   2  -3  146.50    9.97
  -3   2  -4   95.87    8.34
  -3   2  -5   67.99    7.34
  -3   2  -6   96.55    9.74
  -3   2  -7   10.79    3.98
  -3   2  -8   13.39    4.68
  -3   2  -9   17.74    5.79
  -3   2 -10    0.38    3.62
  -3   2 -11   13.68    5.54
  -3   2 -12   16.39    6.66
  -3   2 -13   13.71    6.83
  -3   2 -14    0.44    3.67
  -3   2 -14    9.29    6.83
   3   3 -14    4.47    5.64
   3   3 -13   24.12    6.74
   3   3 -12   20.91    6.53
   3   3 -11   61.53    9.87
   3   3 -10   44.99    7.77
   3   3  -9   21.67    3.37
   3   3  -9   20.86    4.96
   3   3  -8  116.00   10.98
   3   3  -8  102.99    6.77
   3   3  -7   28.80    3.68
   3   3  -7   29.09    5.64
   3   3  -6   95.35    8.85
   3   3  -6   98.93    6.45
   3   3  -5  564.98   19.89
   3   3  -4   13.09    3.18
  -3   3   4    7.10    2.04
   3   3  -3  187.68    9.78
  -3   3   3  162.14    9.04
   3   3  -2   89.12    5.93
  -3   3   2   82.26    6.57
   3   3  -1  557.10   13.01
  -3   3   1  542.84   16.99
   3   3   0  792.09   12.74
  -3   3   0  833.72   21.70
  -3   3  -1   89.99    7.44
   3   3   1   85.99    2.86
  -3   3  -2  546.42   19.20
  -3   3  -3  177.73   11.50
  -3   3  -4  188.12   12.44
  -3   3  -5  234.13   14.50
  -3   3  -6   49.91    7.32
  -3   3  -7  168.28   13.05
  -3   3  -8  111.83   11.29
  -3   3  -9    4.02    3.91
  -3   3 -10  130.13   13.67
  -3   3 -11    5.71    5.12
  -3   3 -12   31.74    7.85
  -3   3 -13    6.58    4.63
   3   4 -13   13.31    6.12
   3   4 -12   38.58    8.23
   3   4 -11   14.26    5.65
   3   4 -10    7.67    3.09
   3   4 -10    7.81    4.51
   3   4  -9   21.71    5.34
   3   4  -9   17.05    3.34
   3   4  -8   35.36    6.41
   3   4  -8   29.32    4.24
   3   4  -7  159.61   12.54
   3   4  -7  168.73   10.16
   3   4  -6  202.36   10.72
   3   4  -6  201.22   13.11
   3   4  -5    1.30    2.15
  -3   4   4  410.00   15.60
   3   4  -4  457.96   17.57
  -3   4   3  156.96   10.01
   3   4  -3  157.76    9.47
   3   4  -2  483.60   15.31
  -3   4   2  460.30   17.47
   3   4  -1  472.46   13.52
  -3   4   1  485.60   18.12
   3   4   0  193.41    7.42
  -3   4   0  184.03   11.51
   3   4   1  544.74    9.72
  -3   4  -1  592.99   20.96
  -3   4  -2    2.06    1.99
  -3   4  -3  272.82   15.18
  -3   4  -4  120.85   10.64
  -3   4  -5    0.67    2.37
  -3   4  -6  123.33   11.78
  -3   4  -7  136.38   12.66
  -3   4  -8  173.94   14.63
  -3   4  -9   69.95    9.85
  -3   4 -10    2.97    4.91
  -3   4 -11   41.49    8.99
  -3   4 -12   11.46    6.23
  -3   4 -13   13.05    6.16
   3   5 -12    0.49    4.21
   3   5 -11   50.25    9.17
   3   5 -10    0.17    4.37
   3   5 -10   -5.41    3.49
   3   5  -9   30.07    4.95
   3   5  -9   39.56    7.31
   3   5  -8   28.36    6.02
   3   5  -8   34.41    5.23
   3   5  -7   -1.57    3.26
   3   5  -7    2.06    1.92
   3   5  -6    0.17    3.46
   3   5  -6    2.02    1.80
   3   5  -5   97.16    9.19
  -3   5   4    8.81    2.78
   3   5  -4    8.43    2.69
  -3   5   3  180.97   11.96
  -3   5   2    5.98    2.66
  -3   5   1  183.02   12.71
  -3   5   0   78.90    8.45
  -3   5  -1   13.61    4.02
  -3   5  -2   17.60    4.35
  -3   5  -3   31.08    5.62
  -3   5  -4   10.46    2.83
  -3   5  -5   27.52    5.75
  -3   5  -6   12.50    4.67
  -3   5  -7   46.05    8.07
  -3   5  -8   26.20    7.23
  -3   5  -9    9.36    5.22
  -3   5 -10   14.07    6.27
  -3   5 -11    4.87    5.37
  -3   5 -12    6.21    5.60
   3   6 -11   -0.65    3.65
   3   6 -10   31.80    5.86
   3   6 -10   36.65    7.75
   3   6  -9   21.90    5.31
   3   6  -9   13.33    4.65
   3   6  -8    7.00    3.42
   3   6  -8    7.69    3.46
   3   6  -7   46.76    7.47
   3   6  -7   56.12    7.52
   3   6  -6   10.99    3.46
   3   6  -6    8.61    3.16
  -3   6   5  123.84   10.89
   3   6  -5  141.41   11.86
  -3   6   4  199.38   13.89
  -3   6   3   12.07    3.57
  -3   6   2   85.38    9.46
  -3   6   1   11.94    4.32
  -3   6   0  137.72   12.17
  -3   6  -1  163.77   13.33
  -3   6  -2   15.23    5.04
  -3   6  -3   21.93    5.31
  -3   6  -4    8.10    3.03
  -3   6  -5   -1.54    4.25
  -3   6  -6    7.47    3.85
  -3   6  -7    8.61    4.68
  -3   6  -8   11.70    5.87
  -3   6  -9   21.58    7.28
  -3   6 -10    8.91    5.44
   3   7  -9   -0.97    4.63
   3   7  -9    0.93    3.27
   3   7  -8   49.40    8.24
   3   7  -8   40.48    8.35
   3   7  -7   -0.34    4.55
   3   7  -7    5.47    3.40
   3   7  -6   43.26    7.57
   3   7  -6   39.68    6.77
  -3   7   6   32.68    6.59
  -3   7   5   26.68    5.96
   3   7  -5   16.73    4.05
  -3   7   4   29.52    6.29
  -3   7   3   70.61    9.40
  -3   7   2   39.03    7.50
  -3   7   1   14.40    4.89
  -3   7   0   63.48    9.29
  -3   7  -1   -0.25    3.00
  -3   7  -2  107.48   12.53
  -3   7  -3   37.67    7.48
  -3   7  -4    0.27    4.79
  -3   7  -5   35.62    7.48
  -3   7  -6   -1.08    4.27
  -3   7  -7   43.45    8.91
  -3   7  -8   61.52   10.39
  -3   7  -9   -1.36    4.24
   3   8  -7   26.94    6.93
   3   8  -7   38.65    7.98
  -3   8   7   31.10    7.13
   3   8  -6    3.45    3.09
   3   8  -6    8.16    4.34
  -3   8   6    9.64    3.81
  -3   8   5   10.99    4.83
   3   8  -5    6.19    3.76
  -3   8   4   22.67    5.98
  -3   8   3   -3.16    4.23
  -3   8   2    4.51    4.70
  -3   8   1   16.61    5.94
  -3   8   0    0.74    3.32
  -3   8  -1   20.43    5.92
  -3   8  -2   13.36    5.99
  -3   8  -3   28.87    7.63
  -3   8  -4   44.73    8.64
  -3   8  -5   -8.14    6.07
  -3   8  -6   23.71    7.35
  -3   9   2    2.22    3.75
  -3   9   1    3.81    4.60
  -3   9   0    6.20    5.68
  -3   9  -1    3.63    4.92
   4  -8  -6    5.80    5.34
   4  -8  -5   11.29    6.15
   4  -8  -4   11.15    5.04
  -4  -8   3   10.61    5.22
   4  -8  -3    8.92    4.46
   4  -8  -2   28.18    7.62
  -4  -8   2   29.47    7.07
   4  -8  -1    9.97    4.82
  -4  -8   1   13.39    5.59
  -4  -8   0   29.15    7.39
   4  -8   0   25.79    7.19
   4  -8   1   21.22    6.69
  -4  -8  -1   30.00    7.20
   4  -8   2    4.83    5.01
  -4  -8  -2   12.22    5.49
   4  -8   3   24.25    7.23
  -4  -8  -3   43.34    9.01
   4  -8   4    4.78    4.60
  -4  -8  -4    3.05    4.67
   4  -8   5    8.28    5.87
  -4  -8  -5   23.35    7.41
   4  -7  -9   17.57    5.67
   4  -7  -8   19.05    5.85
   4  -7  -7   -0.66    4.70
   4  -7  -6   57.91    9.35
   4  -7  -5   12.84    5.42
  -4  -7   4   50.27    8.26
   4  -7  -4   49.72    8.47
  -4  -7   3   23.77    6.26
   4  -7  -3   20.82    6.06
   4  -7  -2    7.82    4.31
  -4  -7   2   10.73    4.56
  -4  -7   1   57.17    8.93
   4  -7  -1   56.36    9.38
   4  -7   0   36.83    7.94
  -4  -7   0   40.53    7.61
   4  -7   1   18.10    5.86
  -4  -7  -1   14.83    5.28
  -4  -7  -2  114.83   12.84
   4  -7   2  110.34   13.33
   4  -7   3   16.46    6.01
  -4  -7  -3   12.20    5.04
   4  -7   4   56.67   10.16
  -4  -7  -4   39.74    8.46
   4  -7   5   13.46    5.64
  -4  -7  -5    8.98    5.06
   4  -7   6    9.00    4.81
  -4  -7  -6   11.66    5.95
  -4  -7  -7   25.54    7.92
   4  -7   7   31.17    8.06
   4  -7   8   -4.21    5.60
  -4  -7  -8   -5.45    4.83
   4  -6 -11   13.94    6.58
   4  -6 -10   32.23    7.73
   4  -6  -9    8.25    4.98
   4  -6  -8   34.57    7.48
   4  -6  -7   15.98    5.65
   4  -6  -6   28.21    6.24
   4  -6  -5   88.01   10.68
   4  -6  -4   29.35    6.74
  -4  -6   4   21.28    4.81
  -4  -6   3   42.09    6.70
   4  -6  -3   44.27    8.21
   4  -6  -2   95.17   11.23
  -4  -6   2   79.38    9.30
   4  -6  -1    0.51    2.58
  -4  -6   1    9.14    3.79
   4  -6   0   30.17    6.29
  -4  -6   0   20.75    5.24
   4  -6   1    6.47    3.49
  -4  -6  -1    5.88    3.96
   4  -6   2   58.46    9.12
  -4  -6  -2   52.79    8.26
  -4  -6  -3   36.61    7.22
   4  -6   3   38.68    7.76
   4  -6   4   10.24    4.59
  -4  -6  -4   13.80    4.78
   4  -6   5   24.81    6.75
  -4  -6  -5   26.05    6.52
   4  -6   6   39.73    8.23
  -4  -6  -6   30.90    7.53
   4  -6   7    2.82    3.77
  -4  -6  -7   10.50    4.55
   4  -6   8   25.54    7.99
  -4  -6  -8   16.16    5.74
   4  -6   9    3.31    3.72
  -4  -6  -9    2.96    4.29
   4  -6  10   -2.19    3.92
  -4  -6 -10    1.91    4.24
   4  -5 -12   16.77    5.68
   4  -5 -11   34.02    8.03
   4  -5 -10   18.65    6.33
   4  -5  -9   58.25    9.41
   4  -5  -8    5.25    4.23
   4  -5  -7   37.17    7.58
   4  -5  -6  106.65   11.03
   4  -5  -5    2.86    3.17
  -4  -5   5    0.48    2.46
  -4  -5   4  110.77    9.71
   4  -5  -4  111.89   11.07
  -4  -5   3  179.43   12.28
   4  -5  -3  173.85   13.76
  -4  -5   2  105.30    9.66
   4  -5  -2  104.21   10.72
  -4  -5   1   73.59    8.39
   4  -5  -1   93.51    9.99
   4  -5   0   19.22    4.90
  -4  -5   0   16.03    4.34
  -4  -5  -1   77.98    8.73
   4  -5   1   84.28    9.58
   4  -5   2   73.30    9.13
  -4  -5  -2   66.80    8.47
   4  -5   3    8.45    4.19
  -4  -5  -3    5.09    2.91
   4  -5   4   40.01    7.31
  -4  -5  -4   46.97    7.51
   4  -5   5   54.42    8.46
  -4  -5  -5   59.43    8.76
   4  -5   6   14.20    4.80
  -4  -5  -6   21.51    5.92
   4  -5   7   57.59    9.66
  -4  -5  -7   53.81    8.80
   4  -5   8    1.97    3.75
  -4  -5  -8    6.07    4.25
   4  -5   9   26.47    6.98
  -4  -5  -9   34.37    7.78
   4  -5  10   -2.40    4.24
  -4  -5 -10    1.29    3.56
   4  -5  11   -0.66    3.59
  -4  -5 -11   -1.52    4.56
   4  -4 -13   15.37    6.68
   4  -4 -12   22.04    7.38
   4  -4 -11    4.83    4.39
   4  -4 -10    4.65    3.74
   4  -4  -9   16.36    5.28
   4  -4  -8    5.04    4.02
   4  -4  -7  130.97   12.43
   4  -4  -6   75.26    9.09
  -4  -4   5   73.63    6.91
   4  -4  -5   72.75    9.09
  -4  -4   4  144.46    9.69
   4  -4  -4  157.84   12.34
   4  -4  -3   26.16    5.20
  -4  -4   3   29.81    4.62
  -4  -4   2  323.23   15.10
   4  -4  -2  318.52   17.17
   4  -4  -1   17.85    5.06
  -4  -4   1   14.25    3.55
  -4  -4   0  176.63   11.72
   4  -4   0  182.46   12.87
  -4  -4  -1  122.48   10.05
   4  -4   1  130.15   11.20
   4  -4   2    1.83    2.20
  -4  -4  -2    4.68    3.02
   4  -4   3  108.47   10.46
  -4  -4  -3  104.69   10.17
  -4  -4  -4   87.23    9.76
   4  -4   4   97.30   10.18
  -4  -4  -5   44.75    7.26
   4  -4   5   37.71    6.69
  -4  -4  -6  144.46   13.17
   4  -4   6  169.04   14.08
   4  -4   7   -0.78    2.91
  -4  -4  -7    0.97    3.27
   4  -4   8  152.54   14.49
  -4  -4  -8  140.38   13.90
  -4  -4  -9   12.67    5.13
   4  -4   9   27.39    6.85
  -4  -4 -10   52.16    9.34
   4  -4  10   66.86   10.43
  -4  -4 -11    6.70    4.31
   4  -4  11    2.03    3.43
  -4  -4 -12   -0.94    5.40
   4  -4  12    4.78    4.05
   4  -3 -14   16.44    6.10
   4  -3 -13    6.36    4.34
   4  -3 -12   26.42    7.26
   4  -3 -11   52.81    9.50
   4  -3 -10   18.36    5.45
   4  -3  -9    6.77    4.12
   4  -3  -8   63.88    8.73
   4  -3  -7    8.43    3.70
   4  -3  -6  236.13   14.93
  -4  -3   5  196.13    9.56
   4  -3  -5  215.42   13.90
  -4  -3   4  123.63    7.82
   4  -3  -4  129.16   10.59
  -4  -3   3  359.88   13.54
   4  -3  -3  389.88   17.60
  -4  -3   2  117.55    7.97
   4  -3  -2  104.34    8.92
  -4  -3   1  313.13   13.71
   4  -3  -1  320.80   15.67
  -4  -3   0  300.69   13.91
   4  -3   0  324.22   15.69
  -4  -3  -1   61.64    6.67
   4  -3   1   54.99    6.70
  -4  -3  -2  239.36   13.77
   4  -3   2  262.26   14.85
  -4  -3  -3   29.94    5.21
   4  -3   3   39.21    5.77
  -4  -3  -4  208.07   13.98
   4  -3   4  215.14   13.97
   4  -3   5  105.97   10.11
  -4  -3  -5   89.06    9.88
  -4  -3  -6   27.67    6.23
   4  -3   6   24.00    4.90
   4  -3   7  134.01   12.22
  -4  -3  -7  110.95   11.58
  -4  -3  -8    2.20    3.46
   4  -3   8    2.96    3.32
   4  -3   9  112.10   12.04
  -4  -3  -9  102.20   11.94
  -4  -3 -10   37.20    8.06
   4  -3  10   40.74    7.84
  -4  -3 -11    4.06    3.30
   4  -3  11    8.52    4.74
   4  -3  12   10.91    5.52
  -4  -3 -12   16.07    5.98
  -4  -3 -13   -0.39    3.80
   4  -3  13    5.37    4.80
   4  -2 -14    2.52    4.41
   4  -2 -13   33.81    8.18
   4  -2 -12   41.10    8.52
   4  -2 -11   16.81    5.49
   4  -2 -10   30.06    6.78
   4  -2  -9   34.38    6.40
   4  -2  -8  269.97   16.63
   4  -2  -7  188.72   13.66
   4  -2  -6   37.68    6.17
   4  -2  -5  294.87   15.34
  -4  -2   5  286.06    9.16
   4  -2  -4   18.20    4.29
  -4  -2   4   16.11    2.54
   4  -2  -3  287.39   14.63
  -4  -2   3  292.48   10.57
  -4  -2   2   50.60    4.80
   4  -2  -2   55.70    6.60
  -4  -2   1  119.89    7.67
   4  -2  -1  109.21    8.39
   4  -2   0  207.37   11.59
  -4  -2   0  233.99   11.39
  -4  -2  -1  100.45    8.12
   4  -2   1  111.85    8.77
   4  -2   2  172.51   10.76
  -4  -2  -2  181.09   11.47
  -4  -2  -3  335.78   16.14
   4  -2   3  358.62   15.87
   4  -2   4   42.80    5.89
  -4  -2  -4   41.75    6.49
  -4  -2  -5   72.09    8.57
   4  -2   5   68.55    7.57
  -4  -2  -6   48.85    7.88
   4  -2   6   48.99    6.96
  -4  -2  -6   41.44    3.63
  -4  -2  -7   -0.71    1.29
  -4  -2  -7   -2.58    2.89
   4  -2   7   -3.09    2.89
  -4  -2  -8   61.19    8.87
   4  -2   8   59.41    7.97
  -4  -2  -8   46.48    4.78
  -4  -2  -9   18.39    5.34
   4  -2   9   24.70    5.76
  -4  -2  -9   15.81    3.40
   4  -2  10    4.19    3.07
  -4  -2 -10    5.59    4.62
   4  -2  11   13.09    5.11
  -4  -2 -11    9.69    4.91
  -4  -2 -12    6.09    5.33
   4  -2  12   -2.93    3.68
  -4  -2 -13    8.62    5.34
   4  -2  13    8.07    4.15
   4  -1 -14   39.29    8.90
   4  -1 -13   43.79    9.39
   4  -1 -12   10.58    5.03
   4  -1 -11   77.72   10.69
   4  -1 -10   21.14    6.25
   4  -1  -9  505.56   23.13
   4  -1  -8  114.78   10.68
   4  -1  -7  186.77   12.96
   4  -1  -6  211.17   12.95
   4  -1  -5  150.29   10.81
  -4  -1   5  149.97    4.45
   4  -1  -4  287.74   13.98
  -4  -1   4  259.78    7.41
  -4  -1   3   10.04    1.78
   4  -1  -3   11.19    2.94
  -4  -1   2  109.01    6.28
   4  -1  -2  100.03    7.91
  -4  -1   1  689.52   17.24
   4  -1  -1  668.68   19.04
   4  -1   0  215.43   10.65
  -4  -1   0  207.61   10.38
  -4  -1  -1  322.13   13.92
   4  -1   1  355.83   13.60
   4  -1   2  896.74   22.05
  -4  -1  -2  893.02   24.85
  -4  -1  -3  244.70   13.93
   4  -1   3  233.15   11.49
  -4  -1  -4   47.69    6.88
   4  -1   4   43.48    5.31
  -4  -1  -5   71.21    8.57
   4  -1   5   64.60    6.83
   4  -1   6  241.36   13.47
  -4  -1  -6  248.68   16.30
  -4  -1  -7   73.05   10.15
   4  -1   7   76.17    7.92
   4  -1   8    8.61    3.32
  -4  -1  -8   -2.25    4.24
  -4  -1  -9   76.03   10.28
   4  -1   9   87.62    9.38
  -4  -1  -9   74.68    7.42
   4  -1  10   31.42    6.07
  -4  -1 -10   18.91    4.46
  -4  -1 -11    3.11    2.59
   4  -1  11   10.75    4.56
  -4  -1 -12   11.87    5.36
  -4  -1 -12   18.75    5.35
   4  -1  12   22.44    5.89
  -4  -1 -13   10.64    6.15
  -4  -1 -13    0.94    2.95
   4  -1  13    1.64    3.70
   4   0 -15    6.63    5.22
   4   0 -14   -2.71    3.69
   4   0 -13   13.51    5.82
   4   0 -12   48.77    8.75
   4   0 -11   46.37    8.36
   4   0 -10  408.24   21.71
   4   0  -9    0.48    2.67
   4   0  -8  132.35   11.53
   4   0  -7  272.06   15.20
   4   0  -6    5.44    3.48
   4   0  -5  139.79   10.24
   4   0  -4  339.40   14.56
  -4   0   4  337.40    7.42
  -4   0   3    1.48    1.23
   4   0  -3   11.18    3.54
   4   0  -2  249.46   11.35
  -4   0   2  261.06    9.80
  -4   0   1  108.96    7.60
   4   0  -1   89.15    6.64
  -4   0   0  733.56   19.67
   4   0   0  716.31   17.65
  -4   0  -1  769.19   21.33
   4   0   1  708.37   17.14
   4   0   2   83.99    6.06
  -4   0  -2   96.31    8.36
   4   0   3  888.85   19.76
  -4   0  -3  863.50   25.39
   4   0   4  133.64    8.15
  -4   0  -4  143.68   11.35
  -4   0  -5   40.05    6.65
   4   0   5   36.76    4.53
  -4   0  -6    8.33    3.96
   4   0   6    3.29    1.70
   4   0   7    2.04    2.22
  -4   0  -7    7.39    4.34
   4   0   8  112.91    9.27
  -4   0  -8  153.66   14.40
  -4   0  -9    6.96    5.15
   4   0   9    1.75    2.35
  -4   0 -10   -2.23    3.47
   4   0  10   -2.82    2.97
  -4   0 -11   28.71    7.42
   4   0  11   25.18    5.24
  -4   0 -12   -5.05    5.72
  -4   0 -12   -5.37    4.50
   4   0  12   -1.64    2.53
  -4   0 -13   25.53    8.21
  -4   0 -13   30.93    6.99
  -4   0 -14    6.96    5.00
  -4   0 -14    5.59    4.25
   4   1 -14   34.27    8.44
   4   1 -13   34.50    8.22
   4   1 -12   10.97    5.16
   4   1 -11   77.86   10.37
   4   1 -10   10.69    5.07
   4   1  -9  521.75   23.26
   4   1  -8   89.58    9.64
   4   1  -7  216.58   13.66
   4   1  -6  202.84   12.45
   4   1  -5  165.31   10.63
  -4   1   5  132.80    4.67
  -4   1   4  282.69    8.28
   4   1  -4  296.07   13.08
   4   1  -3   27.55    4.47
  -4   1   3   22.28    2.90
   4   1  -2  123.04    7.85
  -4   1   2  108.95    6.38
   4   1  -1  677.42   16.47
  -4   1   1  663.70   17.13
  -4   1   0  214.21   10.56
   4   1   0  213.53    8.71
  -4   1  -1  396.21   15.33
   4   1   1  392.26   11.02
   4   1   2  835.12   15.85
  -4   1  -2  907.18   24.38
   4   1   3  219.29    8.29
  -4   1  -3  242.44   13.50
  -4   1  -4   27.85    5.28
   4   1   4   28.15    3.18
  -4   1  -5   50.57    7.15
   4   1   5   51.85    4.64
   4   1   6  225.41   10.20
  -4   1  -6  256.40   16.13
  -4   1  -7   80.02    9.65
   4   1   7   72.05    6.36
  -4   1  -8   26.14    6.94
   4   1   8    7.88    2.52
  -4   1  -9   81.23   10.78
   4   1   9   61.04    6.46
  -4   1 -10   55.06   10.74
  -4   1 -11    5.23    4.92
  -4   1 -12   17.47    6.36
  -4   1 -13    1.74    5.06
  -4   1 -13    1.01    3.76
   4   2 -14   -1.76    3.65
   4   2 -13   30.74    7.57
   4   2 -12   34.72    7.61
   4   2 -11   14.44    4.99
   4   2 -10   29.61    6.23
   4   2  -9   31.54    5.56
   4   2  -8  304.76   16.88
   4   2  -7  216.64   13.63
   4   2  -6   45.69    3.32
   4   2  -6   43.26    5.60
  -4   2   6   41.18    3.43
   4   2  -5  290.42   13.96
  -4   2   5  274.50    9.24
  -4   2   4   10.99    1.92
   4   2  -4   13.65    3.02
   4   2  -3  294.84   12.12
  -4   2   3  274.66   10.50
   4   2  -2   40.41    4.41
  -4   2   2   37.33    4.24
   4   2  -1  107.17    6.11
  -4   2   1  126.18    8.13
  -4   2   0  215.97   11.05
   4   2   0  207.24    7.64
  -4   2  -1  142.22    9.49
   4   2   1  125.51    5.15
  -4   2  -2  198.68   11.64
   4   2   2  191.21    5.44
  -4   2  -3  341.88   16.15
   4   2   3  303.61    6.36
  -4   2  -4   39.89    6.32
   4   2   4   33.24    2.35
   4   2   5   64.03    3.78
  -4   2  -5   71.85    8.49
  -4   2  -6   40.93    7.25
  -4   2  -7   -0.06    3.46
  -4   2  -8   49.32    7.91
  -4   2  -9   22.21    5.98
  -4   2 -10   -1.55    4.39
  -4   2 -11   31.05    8.68
  -4   2 -12    7.95    5.40
  -4   2 -13   15.84    7.24
   4   3 -14    7.77    4.47
   4   3 -13   -4.33    6.20
   4   3 -12   19.12    5.86
   4   3 -11   54.16    9.09
   4   3 -10   19.95    5.64
   4   3  -9   14.51    4.51
   4   3  -8   85.26    9.49
   4   3  -8   70.30    5.29
  -4   3   8   73.11    5.67
   4   3  -7   19.74    4.99
  -4   3   7   15.20    2.87
   4   3  -7   18.97    3.00
   4   3  -6  234.34   13.69
  -4   3   6  207.82    9.86
   4   3  -5  201.96   11.80
  -4   3   5  211.22   10.12
   4   3  -4  121.39    8.35
  -4   3   4  116.38    7.81
   4   3  -3  347.07   13.35
  -4   3   3  353.66   13.81
   4   3  -2  111.51    6.92
  -4   3   2  105.01    7.63
   4   3  -1  345.24   10.79
  -4   3   1  336.77   14.40
   4   3   0  297.10    8.50
  -4   3   0  321.28   14.62
  -4   3  -1   60.95    7.03
  -4   3  -2  281.05   15.04
  -4   3  -3   45.94    6.96
  -4   3  -4  266.22   15.65
  -4   3  -5  103.91   10.28
  -4   3  -6   29.18    6.06
  -4   3  -7  152.66   13.40
  -4   3  -8    0.64    3.44
  -4   3  -9  111.24   13.07
  -4   3 -10   33.29    8.24
  -4   3 -11    1.85    4.02
  -4   3 -12   11.39    6.31
  -4   3 -13    9.77    6.55
   4   4 -13   24.37    7.03
   4   4 -12   25.13    7.19
   4   4 -11    2.42    3.35
   4   4 -10   15.11    5.82
   4   4  -9   30.35    6.68
  -4   4   9   13.95    3.15
   4   4  -8    7.26    2.53
   4   4  -8    7.40    3.90
  -4   4   8    1.12    1.94
   4   4  -7  118.12   10.95
  -4   4   7   91.16    7.64
   4   4  -7  109.88    8.01
   4   4  -6   76.67    8.37
  -4   4   6   58.55    6.23
   4   4  -5   77.43    8.00
  -4   4   5   68.33    6.87
   4   4  -4  132.61    9.30
  -4   4   4  139.52    9.78
   4   4  -3   28.07    4.24
  -4   4   3   26.20    4.57
   4   4  -2  301.16   11.73
  -4   4   2  303.03   14.99
  -4   4   1    7.57    2.29
   4   4  -1   12.36    2.20
   4   4   0  170.80    6.61
  -4   4   0  166.46   11.55
  -4   4  -1  126.49   10.33
  -4   4  -2    0.36    2.18
  -4   4  -3   85.38    9.38
  -4   4  -4   96.45   10.25
  -4   4  -5   62.64    8.94
  -4   4  -6  172.02   14.13
  -4   4  -7    9.26    4.41
  -4   4  -8  135.44   13.53
  -4   4  -9   30.18    7.51
  -4   4 -10   76.70   11.33
  -4   4 -11    3.30    4.75
  -4   4 -12    6.36    4.87
   4   5 -12   29.53    7.58
   4   5 -11   19.27    6.32
   4   5 -10   11.03    5.09
   4   5  -9   38.26    5.81
  -4   5   9   36.79    5.44
   4   5  -9   41.88    8.23
   4   5  -8    4.04    2.47
  -4   5   8   -0.04    2.81
   4   5  -8    6.44    4.07
  -4   5   7   33.76    5.51
   4   5  -7   44.65    5.96
   4   5  -7   48.36    7.44
   4   5  -6  130.21   11.51
  -4   5   6  123.53   10.21
  -4   5   5    3.33    2.20
   4   5  -5    1.64    2.56
   4   5  -4  109.16    9.11
  -4   5   4   92.53    9.13
   4   5  -3  179.24   11.01
  -4   5   3  160.86   11.79
   4   5  -2  111.62    7.80
  -4   5   2  103.47    9.76
   4   5  -1   83.46    6.03
  -4   5   1   99.08    9.83
  -4   5   0    6.94    2.50
  -4   5  -1   71.61    8.42
  -4   5  -2   46.37    7.13
  -4   5  -3   -0.54    3.50
  -4   5  -4   43.90    7.35
  -4   5  -5   64.36    9.09
  -4   5  -6   16.46    5.31
  -4   5  -7   67.05   10.29
  -4   5  -8   10.87    5.46
  -4   5  -9   24.97    7.59
  -4   5 -10    2.24    4.11
  -4   5 -11    7.42    5.46
   4   6 -11   13.79    6.60
   4   6 -10   25.50    7.32
   4   6  -9    7.28    3.23
  -4   6   9    0.27    3.10
   4   6  -9    6.23    4.77
   4   6  -8   27.57    6.66
   4   6  -8   25.03    5.46
  -4   6   8   20.06    4.89
   4   6  -7   14.26    4.60
  -4   6   7   15.32    4.24
   4   6  -7   16.17    4.23
   4   6  -6   36.55    6.86
  -4   6   6   35.21    6.38
   4   6  -5  102.33   10.04
  -4   6   5   98.64   10.36
   4   6  -4   24.40    4.90
  -4   6   4   24.45    5.55
   4   6  -3   39.13    5.56
  -4   6   3   28.16    5.93
   4   6  -2   99.74    8.15
  -4   6   2  107.60   10.90
  -4   6   1    5.29    3.09
  -4   6   0   35.45    7.10
  -4   6  -1    2.69    4.19
  -4   6  -2   30.43    6.26
  -4   6  -3   13.70    4.01
  -4   6  -4   12.81    4.72
  -4   6  -5   24.61    6.47
  -4   6  -6   40.85    8.39
  -4   6  -7   13.67    5.88
  -4   6  -8   38.84    8.82
  -4   6  -9   13.15    6.81
  -4   6 -10    1.77    4.54
   4   7  -9   21.30    6.23
   4   7  -9   18.00    5.37
  -4   7   9   14.96    5.24
   4   7  -8   38.21    7.57
   4   7  -8   24.35    5.91
  -4   7   8   29.90    6.66
   4   7  -7    2.36    3.14
  -4   7   7    4.87    3.07
   4   7  -7    3.55    3.04
   4   7  -6   61.22    8.77
  -4   7   6   61.37    9.16
   4   7  -6   53.96    7.90
   4   7  -5    4.09    2.75
  -4   7   5    7.98    4.35
  -4   7   4   52.72    8.64
   4   7  -4   42.53    6.80
  -4   7   3   29.55    6.80
   4   7  -3   18.79    4.46
  -4   7   2    4.88    3.69
  -4   7   1   59.76    9.11
  -4   7   0   31.70    7.14
  -4   7  -1   16.62    5.05
  -4   7  -2   99.42   11.85
  -4   7  -3   14.08    4.97
  -4   7  -4   44.11    8.49
  -4   7  -5   12.72    5.83
  -4   7  -6   11.42    5.96
  -4   7  -7   37.07    9.26
  -4   7  -8    5.48    5.82
   4   8  -6    1.09    3.65
  -4   8   6    7.00    4.60
   4   8  -6   -1.62    4.11
  -4   8   5   15.78    5.65
  -4   8   4    9.21    4.98
  -4   8   3   19.80    6.64
  -4   8   2   22.73    6.99
  -4   8   1   13.25    5.72
  -4   8   0   27.99    6.87
  -4   8  -1   33.31    7.78
  -4   8  -2    3.77    4.00
  -4   8  -3   32.31    7.90
  -4   8  -4  -11.42    6.36
  -4   8  -5   11.12    5.47
   5  -8  -4   12.93    6.39
   5  -8  -3   23.04    7.56
  -5  -8   3   10.75    5.49
   5  -8  -2   13.23    5.74
  -5  -8   2   18.97    6.10
   5  -8  -1   -3.90    4.72
  -5  -8   1    8.59    5.04
   5  -8   0   29.44    8.01
  -5  -8   0   36.36    8.17
   5  -8   1    0.17    4.01
  -5  -8  -1    3.39    4.50
   5  -8   2   17.75    6.51
  -5  -8  -2   18.57    7.03
   5  -7  -8   -3.53    5.44
   5  -7  -7    3.43    3.87
   5  -7  -6   22.67    6.64
   5  -7  -5    8.16    6.16
  -5  -7   4   48.58    8.48
   5  -7  -4   59.15   10.15
  -5  -7   3   14.54    4.95
   5  -7  -3   25.90    6.93
   5  -7  -2   25.93    7.45
  -5  -7   2   25.35    6.23
   5  -7  -1   29.23    7.67
  -5  -7   1   36.33    7.65
   5  -7   0    5.71    4.90
  -5  -7   0    7.32    4.60
   5  -7   1   65.99   10.53
  -5  -7  -1   67.29   10.21
   5  -7   2   23.58    6.65
  -5  -7  -2   17.01    6.11
   5  -7   3   28.38    6.95
  -5  -7  -3   18.69    6.01
   5  -7   4   44.02    9.52
  -5  -7  -4   40.36    8.70
   5  -7   5   -3.03    4.88
  -5  -7  -5    3.53    4.37
   5  -7   6    9.70    4.57
  -5  -7  -6   12.27    5.82
   5  -6 -10   17.82    7.14
   5  -6  -9    5.13    4.52
   5  -6  -8   64.96   10.41
   5  -6  -7   -0.14    4.11
   5  -6  -6   45.44    8.60
   5  -6  -5   50.64    8.59
  -5  -6   5   43.92    7.08
   5  -6  -4   22.09    6.43
  -5  -6   4    9.62    3.86
  -5  -6   3   68.66    8.84
   5  -6  -3   64.13    9.79
  -5  -6   2    9.50    4.05
   5  -6  -2    2.14    3.55
   5  -6  -1   28.23    7.00
  -5  -6   1   37.22    6.99
   5  -6   0   35.31    7.95
  -5  -6   0   37.94    7.10
   5  -6   1   12.43    4.39
  -5  -6  -1   11.12    4.32
   5  -6   2   73.57   10.55
  -5  -6  -2   66.13    9.62
   5  -6   3   44.69    8.35
  -5  -6  -3   36.64    7.41
   5  -6   4   11.01    4.89
  -5  -6  -4    4.85    4.00
   5  -6   5   23.75    6.90
  -5  -6  -5   25.19    6.72
   5  -6   6    7.98    5.11
  -5  -6  -6    2.33    3.12
   5  -6   7   20.34    6.67
  -5  -6  -7   10.11    4.70
   5  -6   8    2.89    3.69
  -5  -6  -8    1.44    4.33
   5  -5 -11    6.75    5.31
   5  -5 -10   16.91    6.63
   5  -5  -9   49.44    9.56
   5  -5  -8    2.37    3.99
   5  -5  -7   98.73   12.12
   5  -5  -6   35.15    7.29
   5  -5  -5   46.78    7.98
  -5  -5   5   51.53    7.03
   5  -5  -4    6.44    3.32
  -5  -5   4   13.12    3.65
  -5  -5   3  176.55   12.64
   5  -5  -3  171.34   14.30
  -5  -5   2   25.98    5.29
   5  -5  -2   41.00    7.63
  -5  -5   1    6.03    3.16
   5  -5  -1   10.79    4.83
   5  -5   0   16.48    5.10
  -5  -5   0   16.38    4.78
   5  -5   1   33.98    6.83
  -5  -5  -1   31.32    6.03
   5  -5   2    9.27    4.29
  -5  -5  -2   11.38    4.04
   5  -5   3   19.14    5.97
  -5  -5  -3   20.70    5.44
   5  -5   4   13.65    4.92
  -5  -5  -4   15.39    5.01
   5  -5   5    0.70    3.06
  -5  -5  -5    1.45    2.87
   5  -5   6   26.58    6.79
  -5  -5  -6   31.43    7.11
   5  -5   7    6.90    4.30
  -5  -5  -7   10.49    4.96
   5  -5   8    4.61    3.55
  -5  -5  -8   13.16    5.58
   5  -5   9    7.10    5.02
  -5  -5  -9   -2.74    4.01
   5  -5  10    1.81    3.45
  -5  -5 -10    1.94    3.84
   5  -4 -12   -4.70    4.69
   5  -4 -11   14.85    5.98
   5  -4 -10   20.06    6.44
   5  -4  -9    3.65    3.53
   5  -4  -8   58.20    9.13
   5  -4  -7   38.09    8.18
   5  -4  -6  106.21   11.59
  -5  -4   5  224.77   12.18
   5  -4  -5  236.48   16.38
   5  -4  -4   16.00    4.65
  -5  -4   4   19.65    4.34
   5  -4  -3   22.44    4.73
  -5  -4   3   26.90    4.93
   5  -4  -2   59.33    7.76
  -5  -4   2   65.21    7.11
   5  -4  -1   19.66    5.33
  -5  -4   1   17.44    4.28
  -5  -4   0   99.11    9.30
   5  -4   0  103.12   10.34
   5  -4   1   64.41    8.56
  -5  -4  -1   58.79    7.71
   5  -4   2   34.39    6.41
  -5  -4  -2   31.60    6.34
  -5  -4  -3  149.12   12.57
   5  -4   3  164.32   13.55
  -5  -4  -4    5.39    3.32
   5  -4   4    1.52    3.19
  -5  -4  -5  183.21   14.90
   5  -4   5  194.84   15.50
  -5  -4  -6   21.95    5.70
   5  -4   6   35.03    6.97
  -5  -4  -7   34.95    7.41
   5  -4   7   31.92    6.86
  -5  -4  -8    8.04    5.30
   5  -4   8   14.72    5.53
  -5  -4  -9   -2.66    3.70
   5  -4   9   -5.36    4.56
  -5  -4 -10   43.08    9.33
   5  -4  10   27.35    6.96
  -5  -4 -11    5.28    5.93
   5  -4  11   -0.95    3.74
   5  -3 -13    9.99    5.92
   5  -3 -12   17.50    6.52
   5  -3 -11   10.82    5.29
   5  -3 -10   19.22    6.13
   5  -3  -9   29.68    6.81
   5  -3  -8    6.46    3.94
   5  -3  -7  160.77   13.58
  -5  -3   6  123.48    7.59
   5  -3  -6  119.27   11.56
  -5  -3   5  102.86    7.16
   5  -3  -5  113.20   11.12
  -5  -3   4  113.08    7.90
   5  -3  -4  120.98   11.21
  -5  -3   3   79.39    6.77
   5  -3  -3   95.84    9.56
  -5  -3   2  130.56    9.02
   5  -3  -2  125.38   11.02
   5  -3  -1   52.75    6.82
  -5  -3   1   50.03    5.94
   5  -3   0   25.15    5.23
  -5  -3   0   18.38    4.10
  -5  -3  -1  117.14    9.94
   5  -3   1  123.05   10.69
  -5  -3  -2   83.62    8.76
   5  -3   2   90.56    9.26
  -5  -3  -3    5.86    2.83
   5  -3   3    1.64    2.78
  -5  -3  -4  179.53   13.69
   5  -3   4  194.53   14.23
  -5  -3  -5   -1.38    3.56
   5  -3   5   -0.67    3.13
   5  -3   6  139.49   12.66
  -5  -3  -6  127.52   12.60
  -5  -3  -7   52.79    8.98
   5  -3   7   51.60    8.16
  -5  -3  -8   19.90    6.31
   5  -3   8   22.23    5.92
  -5  -3  -9   17.01    6.14
   5  -3   9   19.35    5.53
  -5  -3 -10    2.80    3.70
   5  -3  10    3.28    3.97
  -5  -3 -11    5.61    5.16
   5  -3  11    8.79    4.88
   5  -3  12   11.56    6.19
  -5  -3 -12   11.70    6.59
   5  -2 -14    5.09    4.66
   5  -2 -13   44.36    9.89
   5  -2 -12   15.64    5.86
   5  -2 -11   70.97   10.81
   5  -2 -10   58.71    9.49
   5  -2  -9   29.11    6.82
   5  -2  -8  137.80   13.12
   5  -2  -7   40.98    7.79
   5  -2  -6  102.82   10.44
  -5  -2   5  110.53    6.23
   5  -2  -5  114.62   10.71
  -5  -2   4   57.04    4.82
   5  -2  -4   65.20    7.97
  -5  -2   3  212.01    9.89
   5  -2  -3  207.35   13.17
   5  -2  -2   57.62    7.06
  -5  -2   2   50.68    5.32
  -5  -2   1  344.04   14.46
   5  -2  -1  353.19   16.68
  -5  -2   0  398.45   16.49
   5  -2   0  402.76   17.78
  -5  -2  -1    2.85    2.50
   5  -2   1    2.73    2.72
  -5  -2  -2   83.20    8.46
   5  -2   2   88.48    8.50
  -5  -2  -3   22.37    4.97
   5  -2   3   21.66    4.34
  -5  -2  -4   78.22    9.11
   5  -2   4   80.37    8.39
   5  -2   5  151.74   11.84
  -5  -2  -5  157.97   13.36
  -5  -2  -6    8.27    3.90
   5  -2   6    7.23    2.73
  -5  -2  -7   18.23    5.66
   5  -2   7   14.94    4.25
  -5  -2  -8   22.45    6.26
   5  -2   8   17.47    5.07
  -5  -2  -9   16.07    6.07
   5  -2   9   22.49    5.84
  -5  -2 -10   20.32    7.10
   5  -2  10   18.59    5.30
   5  -2  11    1.84    3.36
  -5  -2 -11    3.29    4.96
   5  -2  12    7.35    4.16
  -5  -2 -12   14.62    6.70
   5  -1 -14   44.36    9.79
   5  -1 -13   -4.68    4.46
   5  -1 -12   58.16    9.66
   5  -1 -11    2.44    3.73
   5  -1 -10   18.06    4.98
   5  -1  -9   97.66   11.03
   5  -1  -8   19.69    4.94
   5  -1  -7  200.97   14.10
   5  -1  -6   65.12    8.05
  -5  -1   5   30.10    2.62
   5  -1  -5   29.07    5.46
   5  -1  -4  293.52   15.46
  -5  -1   4  301.44    9.56
  -5  -1   3  184.54    8.64
   5  -1  -3  178.84   11.63
  -5  -1   2  263.32   11.16
   5  -1  -2  249.43   13.24
  -5  -1   1  157.04    9.52
   5  -1  -1  158.99   10.43
  -5  -1   0  131.29    9.08
   5  -1   0  135.30    9.46
  -5  -1  -1  311.76   15.31
   5  -1   1  337.75   14.78
  -5  -1  -2   44.92    6.08
   5  -1   2   43.40    5.57
  -5  -1  -3  231.22   14.59
   5  -1   3  212.38   12.23
   5  -1   4  218.50   12.62
  -5  -1  -4  235.46   15.54
  -5  -1  -5   19.43    4.65
   5  -1   5   21.21    4.19
   5  -1   6  106.42    9.52
  -5  -1  -6  107.03   11.70
  -5  -1  -7   94.88   11.27
   5  -1   7  107.99   10.01
  -5  -1  -8    2.41    4.83
   5  -1   8    8.59    3.36
   5  -1   9   15.47    4.69
  -5  -1  -9    1.87    5.33
   5  -1  10    1.58    2.72
  -5  -1 -10   -5.31    6.37
  -5  -1 -10    0.03    2.92
  -5  -1 -11   21.86    6.77
   5  -1  11   24.28    5.96
  -5  -1 -12   -6.13    5.93
   5  -1  12    3.05    3.59
  -5  -1 -13   10.43    6.02
   5  -1  13    2.02    3.55
   5   0 -14    8.33    6.65
   5   0 -13   39.40    9.52
   5   0 -12   24.39    7.39
   5   0 -11   18.30    6.12
   5   0 -10   58.07    9.66
   5   0  -9    5.17    4.60
   5   0  -8  349.98   19.37
   5   0  -7    9.53    3.80
   5   0  -6   -3.74    3.44
   5   0  -5  202.05   12.87
   5   0  -4   85.04    8.06
  -5   0   4   90.12    5.16
   5   0  -3  264.65   13.37
  -5   0   3  255.39   10.03
  -5   0   2  841.86   20.62
   5   0  -2  841.58   22.60
  -5   0   1  139.38    9.31
   5   0  -1  151.53    9.27
  -5   0   0 1041.01   26.19
   5   0   0 1037.60   23.59
   5   0   1   -2.95    2.32
  -5   0  -1    9.44    3.77
  -5   0  -2  471.99   19.78
   5   0   2  438.36   15.32
   5   0   3  109.15    7.92
  -5   0  -3  119.01   10.66
  -5   0  -4   44.78    7.18
   5   0   4   42.13    5.05
   5   0   5   83.40    7.19
  -5   0  -5   94.86   10.66
  -5   0  -6    3.02    3.62
   5   0   6    2.56    2.03
   5   0   7  103.98    8.79
  -5   0  -7  116.13   12.41
   5   0   8  260.62   14.31
  -5   0  -8  281.47   20.94
   5   0   9    6.24    3.11
  -5   0  -9    4.99    4.64
  -5   0 -10   69.57   11.52
   5   0  10   61.87    7.86
  -5   0 -11   -8.56    6.50
   5   0  11    3.04    3.11
  -5   0 -12   14.76    6.42
  -5   0 -12   12.83    4.72
   5   0  12   14.83    4.71
  -5   0 -13    7.21    6.19
   5   1 -14   31.72    8.31
   5   1 -13    3.43    4.18
   5   1 -12   62.10   10.28
   5   1 -11    2.98    3.95
   5   1 -10   21.42    6.28
   5   1  -9  119.08   11.99
   5   1  -8   26.58    5.91
   5   1  -7  209.31   13.96
   5   1  -6   56.67    7.31
   5   1  -5   36.55    5.76
  -5   1   5   35.17    3.32
   5   1  -4  259.71   13.28
  -5   1   4  244.73    9.40
   5   1  -3  170.24   10.39
  -5   1   3  174.81    8.72
   5   1  -2  267.58   12.14
  -5   1   2  246.69   11.24
  -5   1   1  150.03    9.46
   5   1  -1  150.61    8.77
  -5   1   0  151.12   10.00
   5   1   0  147.51    8.33
  -5   1  -1  358.09   16.14
   5   1   1  334.83   12.09
  -5   1  -2   45.65    6.34
   5   1   2   42.44    4.25
   5   1   3  224.68    9.61
  -5   1  -3  238.02   14.75
   5   1   4  171.32    8.58
  -5   1  -4  180.51   13.56
  -5   1  -5   16.21    4.41
   5   1   5   18.85    3.18
   5   1   6   84.58    6.77
  -5   1  -6  125.73   13.25
   5   1   7   90.28    7.26
  -5   1  -7  102.64   12.12
  -5   1  -8   12.04    5.91
   5   1   8    9.72    2.97
  -5   1  -9   32.86    8.55
   5   1   9    8.22    3.15
  -5   1 -10    5.46    4.55
   5   1  10    3.98    2.35
  -5   1 -11   25.35    7.23
  -5   1 -12    8.90    5.98
  -5   1 -13    0.68    5.15
   5   2 -14   10.69    6.04
   5   2 -13   51.75    9.82
   5   2 -12    7.38    4.23
   5   2 -11   71.03   10.33
   5   2 -10   44.71    7.92
   5   2  -9   26.16    5.65
   5   2  -8  163.81   13.15
   5   2  -7   30.77    6.02
   5   2  -6   95.33    9.00
   5   2  -5  117.36    9.55
  -5   2   5  118.59    6.85
   5   2  -4   59.77    6.75
  -5   2   4   57.97    5.29
   5   2  -3  230.34   11.68
  -5   2   3  204.49   10.22
   5   2  -2   72.92    6.30
  -5   2   2   64.07    6.28
   5   2  -1  352.35   12.63
  -5   2   1  359.64   14.90
  -5   2   0  436.08   17.38
   5   2   0  437.24   12.62
   5   2   1    2.76    1.19
  -5   2  -1    3.52    3.11
   5   2   2  113.00    5.56
  -5   2  -2  126.43   10.57
  -5   2  -3   37.96    6.17
   5   2   3   26.43    2.60
  -5   2  -4   84.24    9.61
  -5   2  -5  136.47   12.45
  -5   2  -6    9.86    4.77
  -5   2  -7   19.39    5.28
  -5   2  -8   28.71    7.50
  -5   2  -9   16.39    6.07
  -5   2 -10   29.25    8.08
  -5   2 -11    1.99    5.02
  -5   2 -12   10.23    6.70
   5   3 -13    2.97    3.89
   5   3 -12   16.08    6.01
   5   3 -11    0.27    4.67
   5   3 -10    4.55    3.67
   5   3  -9   26.08    5.87
   5   3  -8   -1.68    3.98
   5   3  -7  149.05   12.00
   5   3  -6  131.73   10.61
  -5   3   6  130.69    7.90
   5   3  -5   96.01    8.67
  -5   3   5   84.05    6.66
   5   3  -4  118.82    9.04
  -5   3   4  109.82    7.81
   5   3  -3   85.21    7.25
  -5   3   3   91.43    7.50
   5   3  -2  145.65    8.56
  -5   3   2  151.14   10.12
   5   3  -1   69.12    5.27
  -5   3   1   72.91    7.83
  -5   3   0   22.57    5.26
   5   3   0   24.86    2.98
  -5   3  -1  144.33   11.30
  -5   3  -2  101.92    9.77
  -5   3  -3    9.83    3.99
  -5   3  -4  171.23   13.27
  -5   3  -5    2.18    3.25
  -5   3  -6  157.99   14.50
  -5   3  -7   51.79    8.78
  -5   3  -8   33.19    8.20
  -5   3  -9   29.80    7.98
  -5   3 -10    1.52    4.35
  -5   3 -11    3.18    5.07
  -5   3 -12    5.72    6.09
   5   4 -12   -8.54    6.03
   5   4 -11    7.04    3.38
   5   4 -10    7.86    3.11
   5   4  -9   -0.43    4.06
   5   4  -8   41.50    6.98
  -5   4   7   25.01    4.42
   5   4  -7   22.12    3.78
   5   4  -7   13.86    3.38
   5   4  -6  106.59    9.56
  -5   4   6   98.35    8.08
   5   4  -5  230.18   13.36
  -5   4   5  216.03   12.28
  -5   4   4   14.84    3.28
   5   4  -4   17.63    3.32
  -5   4   3   20.62    3.72
   5   4  -3   29.16    4.38
   5   4  -2   61.10    5.68
  -5   4   2   53.33    6.44
   5   4  -1   22.76    3.28
  -5   4   1   14.77    3.65
  -5   4   0   98.37    9.52
  -5   4  -1   71.60    8.48
  -5   4  -2   37.28    6.89
  -5   4  -3  159.68   13.39
  -5   4  -4   13.69    5.50
  -5   4  -5  184.67   15.31
  -5   4  -6   27.30    5.35
  -5   4  -7   42.74    8.30
  -5   4  -8   25.91    7.40
  -5   4  -9   -3.88    4.33
  -5   4 -10   40.77    9.87
  -5   4 -11   -1.03    5.04
   5   5 -11   -2.94    5.36
   5   5 -10    5.65    3.46
   5   5  -9   43.95    7.94
   5   5  -8    8.75    4.30
  -5   5   8    5.59    3.19
   5   5  -8   -0.13    2.53
   5   5  -7   82.85    7.78
   5   5  -7   92.53   10.23
  -5   5   7   88.52    8.87
   5   5  -6   34.47    5.90
  -5   5   6   36.25    5.97
   5   5  -5   42.26    6.03
  -5   5   5   47.23    6.72
  -5   5   4    8.34    3.41
   5   5  -4   -2.05    3.39
   5   5  -3  153.97    9.75
  -5   5   3  157.26   12.02
  -5   5   2   19.90    4.28
   5   5  -2   27.16    3.88
  -5   5   1   -5.45    4.30
  -5   5   0   11.68    3.47
  -5   5  -1   22.93    5.29
  -5   5  -2   12.12    4.56
  -5   5  -3   17.45    5.83
  -5   5  -4   15.66    5.52
  -5   5  -5    1.94    4.34
  -5   5  -6   40.25    8.66
  -5   5  -7   -3.38    4.72
  -5   5  -8    9.44    5.52
  -5   5  -9    0.91    4.09
  -5   5 -10    2.59    5.01
   5   6 -10   22.89    6.72
   5   6  -9   11.81    5.63
   5   6  -8   58.32    9.07
  -5   6   8   54.41    7.81
   5   6  -8   58.66    8.07
   5   6  -7   10.06    4.66
  -5   6   7    6.81    3.81
   5   6  -7   14.68    4.63
   5   6  -6   48.80    7.55
  -5   6   6   47.87    7.43
   5   6  -5   47.80    6.96
  -5   6   5   64.02    8.58
   5   6  -4    9.15    3.57
  -5   6   4   13.02    4.59
   5   6  -3   48.13    6.06
  -5   6   3   55.42    8.40
  -5   6   2   -1.62    4.10
  -5   6   1   21.13    4.63
  -5   6   0   29.51    6.30
  -5   6  -1    8.95    3.88
  -5   6  -2   67.97    9.96
  -5   6  -3   43.03    8.33
  -5   6  -4   -1.39    3.81
  -5   6  -5   38.15    8.46
  -5   6  -6   18.56    6.48
  -5   6  -7   22.42    7.18
  -5   6  -8   -3.03    5.93
   5   7  -8    2.66    3.82
   5   7  -7   12.74    5.44
  -5   7   7   11.89    4.87
   5   7  -7   10.43    3.93
   5   7  -6   20.40    5.57
  -5   7   6   16.76    5.63
   5   7  -5    1.06    3.01
  -5   7   5   -1.27    3.31
  -5   7   4   56.55    8.94
  -5   7   3   28.51    6.91
  -5   7   2   32.61    7.03
  -5   7   1   28.79    6.32
  -5   7   0   -6.52    4.86
  -5   7  -1   49.63    8.90
  -5   7  -2   20.35    6.11
  -5   7  -3   14.54    5.68
  -5   7  -4   39.99    9.05
  -5   7  -5    1.41    4.39
  -5   7  -6    9.82    6.04
  -5   8   4   18.85    6.50
  -5   8   3   23.17    7.11
  -5   8   2   19.79    6.71
  -5   8   1   -4.32    5.58
  -5   8   0   29.69    7.26
  -5   8  -1   -4.48    6.10
  -5   8  -2    8.64    4.40
   6  -7  -6    7.66    5.45
  -6  -7   5   12.19    5.01
   6  -7  -5    6.37    4.76
  -6  -7   4   23.91    6.29
   6  -7  -4   23.50    6.94
  -6  -7   3    0.86    3.48
   6  -7  -3    4.16    4.31
   6  -7  -2   62.45   10.81
  -6  -7   2   66.47   10.22
   6  -7  -1    8.13    5.10
  -6  -7   1   -0.08    3.79
   6  -7   0   17.27    7.04
  -6  -7   0    8.48    4.43
   6  -7   1   14.20    6.13
  -6  -7  -1   26.24    7.35
   6  -7   2    5.01    4.29
  -6  -7  -2   -1.53    4.19
   6  -7   3   16.65    6.70
  -6  -7  -3   15.65    6.74
   6  -7   4   17.44    7.44
  -6  -7  -4   12.36    5.71
   6  -6  -8   22.04    6.99
   6  -6  -7   -2.36    3.67
   6  -6  -6   15.09    5.42
   6  -6  -5   -8.52    6.25
  -6  -6   5   -1.12    3.11
   6  -6  -4   36.80    8.57
  -6  -6   4   27.32    6.08
  -6  -6   3   47.73    7.74
   6  -6  -3   59.62    9.99
  -6  -6   2   -3.59    3.41
   6  -6  -2    0.77    3.97
   6  -6  -1   21.71    6.97
  -6  -6   1   24.92    5.69
   6  -6   0    6.69    3.83
  -6  -6   0   11.38    4.93
   6  -6   1   23.03    6.46
  -6  -6  -1   19.14    5.60
   6  -6   2   36.11    7.66
  -6  -6  -2   43.51    8.39
   6  -6   3    3.52    4.23
  -6  -6  -3    3.77    4.22
   6  -6   4   20.54    6.76
  -6  -6  -4   10.42    5.13
   6  -6   5    9.95    5.68
  -6  -6  -5    8.40    4.68
   6  -6   6    7.04    4.90
  -6  -6  -6    5.20    5.11
   6  -6   7    1.44    3.74
  -6  -6  -7    5.00    4.66
   6  -5 -10   26.41    7.89
   6  -5  -9   23.79    7.62
   6  -5  -8   64.16   10.68
   6  -5  -7   64.59   10.87
   6  -5  -6   14.37    4.91
  -6  -5   6   17.62    4.62
  -6  -5   5   83.33    8.62
   6  -5  -5  100.90   11.94
   6  -5  -4    2.80    4.78
  -6  -5   4   15.04    4.23
   6  -5  -3   58.56    9.15
  -6  -5   3   51.21    7.32
  -6  -5   2   23.62    5.22
   6  -5  -2   32.16    7.32
  -6  -5   1   27.39    5.73
   6  -5  -1   33.90    6.83
   6  -5   0   40.81    7.74
  -6  -5   0   33.35    6.60
   6  -5   1   41.11    7.73
  -6  -5  -1   33.88    6.52
   6  -5   2    1.02    3.77
  -6  -5  -2    9.00    3.99
   6  -5   3   88.43   12.03
  -6  -5  -3   67.42    9.60
   6  -5   4   20.28    6.08
  -6  -5  -4   14.94    5.24
   6  -5   5   35.17    8.20
  -6  -5  -5   35.07    7.65
   6  -5   6   10.68    5.17
  -6  -5  -6   -0.35    4.14
   6  -5   7   -2.03    4.13
  -6  -5  -7    2.83    3.33
   6  -5   8    9.81    5.27
  -6  -5  -8   11.14    5.28
   6  -4 -11   28.09    8.13
   6  -4 -10   25.44    7.45
   6  -4  -9   44.09    9.07
   6  -4  -8   32.06    8.01
   6  -4  -7    6.89    4.95
   6  -4  -6   71.28   10.08
  -6  -4   6   72.04    7.05
   6  -4  -5   19.20    5.51
  -6  -4   5   16.22    3.78
   6  -4  -4   14.01    5.10
  -6  -4   4   15.85    4.00
   6  -4  -3   -0.49    3.45
  -6  -4   3    5.66    2.23
   6  -4  -2   24.57    5.69
  -6  -4   2   23.41    4.68
  -6  -4   1    8.92    3.46
   6  -4  -1   13.30    4.92
  -6  -4   0  168.43   12.96
   6  -4   0  167.16   14.34
   6  -4   1   -1.16    3.07
  -6  -4  -1    7.14    3.87
  -6  -4  -2  117.97   11.77
   6  -4   2  129.14   12.99
  -6  -4  -3   11.56    4.05
   6  -4   3    5.81    3.63
  -6  -4  -4   65.55    9.34
   6  -4   4   62.40    9.21
  -6  -4  -5    8.48    3.84
   6  -4   5   15.46    4.95
  -6  -4  -6   10.28    4.72
   6  -4   6    7.53    3.89
  -6  -4  -7    9.56    4.04
   6  -4   7   10.84    5.26
  -6  -4  -8    0.21    3.64
   6  -4   8   -0.06    3.26
  -6  -4  -9   -3.89    4.76
   6  -4   9    4.86    3.95
  -6  -4 -10    8.10    5.88
   6  -4  10    3.77    3.54
   6  -3 -12   23.81    8.32
   6  -3 -11    2.75    4.72
   6  -3 -10   60.92    9.94
   6  -3  -9   42.32    7.98
   6  -3  -8   19.23    5.56
   6  -3  -7   59.54    9.39
   6  -3  -6   63.20    9.25
  -6  -3   5  126.71    8.36
   6  -3  -5  126.31   12.59
   6  -3  -4   49.03    8.05
  -6  -3   4   51.78    5.59
   6  -3  -3   22.71    5.16
  -6  -3   3   24.76    4.45
   6  -3  -2   64.10    8.20
  -6  -3   2   74.58    7.54
   6  -3  -1   19.69    4.79
  -6  -3   1   22.29    4.59
  -6  -3   0   86.94    8.92
   6  -3   0   93.27   10.11
  -6  -3  -1  115.79   10.64
   6  -3   1  128.23   11.60
  -6  -3  -2    8.31    3.41
   6  -3   2    8.98    3.28
  -6  -3  -3   76.58    9.50
   6  -3   3   89.88    9.89
  -6  -3  -4   32.55    6.89
   6  -3   4   37.20    7.07
  -6  -3  -5   14.43    4.91
   6  -3   5   14.91    4.88
  -6  -3  -6   84.67   11.15
   6  -3   6   70.83    9.84
  -6  -3  -7    5.87    4.04
   6  -3   7    8.66    4.44
  -6  -3  -8   19.12    5.99
   6  -3   8   17.92    6.03
  -6  -3  -9    5.96    4.71
   6  -3   9    6.45    3.38
  -6  -3 -10    7.31    5.31
   6  -3  10   13.72    5.63
  -6  -3 -11    7.00    4.83
   6  -3  11    2.94    4.10
   6  -2 -13   25.86    7.87
   6  -2 -12   32.68    8.22
   6  -2 -11   58.14   10.00
   6  -2 -10   10.30    5.08
   6  -2  -9  138.82   14.46
   6  -2  -8   14.82    5.66
   6  -2  -7  129.95   12.69
   6  -2  -6  330.47   19.06
  -6  -2   5   44.94    4.43
   6  -2  -5   70.92    9.81
  -6  -2   4  101.03    7.00
   6  -2  -4  130.57   12.50
  -6  -2   3   86.63    7.07
   6  -2  -3   84.36    9.31
  -6  -2   2   38.50    5.09
   6  -2  -2   38.60    6.19
  -6  -2   1  210.15   12.41
   6  -2  -1  219.32   14.15
   6  -2   0   15.92    4.16
  -6  -2   0   15.99    3.94
  -6  -2  -1   38.54    6.07
   6  -2   1   43.45    6.61
  -6  -2  -2   57.82    7.81
   6  -2   2   63.68    8.09
  -6  -2  -3   46.83    7.59
   6  -2   3   35.32    5.77
  -6  -2  -4   23.97    5.87
   6  -2   4   28.64    6.02
  -6  -2  -5   66.09    9.73
   6  -2   5   59.51    8.01
  -6  -2  -6   18.18    5.82
   6  -2   6   17.98    4.91
  -6  -2  -7   42.77    8.83
   6  -2   7   25.39    6.15
  -6  -2  -8   15.37    6.08
   6  -2   8    5.16    3.61
  -6  -2  -9    6.47    4.94
   6  -2   9    7.58    3.85
  -6  -2 -10    9.68    5.35
   6  -2  10    3.48    3.14
   6  -2  11   18.57    6.09
  -6  -2 -11   24.07    8.85
   6  -1 -13   24.73    7.56
   6  -1 -12   21.15    6.75
   6  -1 -11    0.52    3.83
   6  -1 -10   31.99    7.15
   6  -1  -9    0.87    3.39
   6  -1  -8    4.01    3.27
   6  -1  -7  284.90   18.03
   6  -1  -6   53.84    7.87
   6  -1  -5   42.38    6.94
  -6  -1   4   84.05    5.92
   6  -1  -4   94.07    9.71
  -6  -1   3   33.51    4.10
   6  -1  -3   39.58    6.24
  -6  -1   2  236.26   11.93
   6  -1  -2  240.40   14.29
  -6  -1   1    2.59    2.69
   6  -1  -1   -1.52    2.36
  -6  -1   0  253.79   14.03
   6  -1   0  251.56   14.11
  -6  -1  -1  133.86   10.92
   6  -1   1  143.81   10.83
  -6  -1  -2    4.16    3.08
   6  -1   2   11.94    3.52
  -6  -1  -3   48.13    7.57
   6  -1   3   48.30    6.58
  -6  -1  -4   30.82    6.03
   6  -1   4   36.49    5.89
  -6  -1  -5    4.16    4.61
   6  -1   5    8.70    3.23
  -6  -1  -6   36.78    7.41
   6  -1   6   39.35    6.52
  -6  -1  -7  -18.00    6.99
   6  -1   7   -1.23    2.74
  -6  -1  -8   86.85   12.28
   6  -1   8   79.65    9.39
  -6  -1  -9    9.40    4.69
   6  -1   9   20.06    5.28
   6  -1  10    3.20    2.80
  -6  -1 -10   -7.75    7.28
   6  -1  11   31.88    6.73
  -6  -1 -11   12.83    4.84
   6   0 -13    2.72    4.36
   6   0 -12   -0.46    4.51
   6   0 -11   14.01    5.15
   6   0 -10   -2.32    3.94
   6   0  -9   -3.09    4.01
   6   0  -8   66.31    8.99
   6   0  -7    0.54    3.36
   6   0  -6   70.95    8.67
   6   0  -5  114.05   10.60
   6   0  -4   47.30    6.55
  -6   0   4   52.69    4.78
  -6   0   3  138.57    8.55
   6   0  -3  139.67   10.61
  -6   0   2   55.91    6.36
   6   0  -2   58.28    7.05
  -6   0   1  319.15   15.40
   6   0  -1  312.45   14.91
  -6   0   0   70.96    7.99
   6   0   0   67.94    6.83
  -6   0  -1   43.15    7.02
   6   0   1   51.57    6.23
  -6   0  -2  165.59   13.04
   6   0   2  143.22    9.78
  -6   0  -3   19.19    5.66
   6   0   3    6.75    2.45
  -6   0  -4   24.35    6.76
   6   0   4   15.53    3.61
   6   0   5  121.21    9.32
  -6   0  -5  140.40   14.39
  -6   0  -6    3.79    4.23
   6   0   6   -0.92    2.48
  -6   0  -7   80.42   11.39
   6   0   7   79.07    8.39
   6   0   8   14.83    4.16
  -6   0  -8   16.23    5.44
   6   0   9   24.61    5.04
  -6   0  -9   20.99    7.11
   6   0  10   35.92    6.14
  -6   0 -10   29.44    8.40
  -6   0 -11    7.01    5.31
  -6   0 -12    4.33    5.25
   6   1 -13   21.01    7.19
   6   1 -12   39.87    8.74
   6   1 -11    7.40    4.69
   6   1 -10   47.34    8.58
   6   1  -9    7.67    5.40
   6   1  -8   14.91    4.90
   6   1  -7  277.68   17.18
   6   1  -6   47.94    6.85
   6   1  -5   56.51    7.18
   6   1  -4   91.05    8.61
  -6   1   4   96.11    7.06
  -6   1   3   45.93    5.68
   6   1  -3   42.72    6.07
  -6   1   2  239.04   12.72
   6   1  -2  241.22   12.77
  -6   1   1   -0.06    2.31
   6   1  -1   10.34    3.49
  -6   1   0  284.48   15.22
   6   1   0  260.73   12.28
  -6   1  -1  128.45   10.97
   6   1   1  123.71    8.30
  -6   1  -2    9.77    3.73
   6   1   2   21.07    3.68
  -6   1  -3   58.17    8.74
   6   1   3   47.52    4.98
  -6   1  -4   77.29   10.71
   6   1   4   32.02    4.21
  -6   1  -5   20.76    7.03
   6   1   5   11.43    3.03
   6   1   6   31.47    4.52
  -6   1  -6   43.10    8.62
   6   1   7   -0.20    1.75
  -6   1  -7   19.60    8.49
  -6   1  -8   96.23   12.98
  -6   1  -9   30.94    9.07
  -6   1 -10   15.39    7.02
  -6   1 -11   21.53    8.08
   6   2 -13   42.58    9.72
   6   2 -12   18.80    6.25
   6   2 -11   42.16    8.45
   6   2 -10    9.20    5.17
   6   2  -9  136.02   13.12
   6   2  -8    8.34    4.15
   6   2  -7  133.01   11.90
   6   2  -6  307.84   17.25
   6   2  -5   48.53    6.66
  -6   2   5   44.65    4.84
   6   2  -4  104.87    8.90
  -6   2   4  108.20    8.02
   6   2  -3   94.17    8.04
  -6   2   3   99.82    8.15
  -6   2   2   43.59    6.03
   6   2  -2   46.26    5.68
  -6   2   1  235.83   13.42
   6   2  -1  223.82   10.91
  -6   2   0   14.50    4.02
   6   2   0   10.51    2.55
   6   2   1   33.66    3.84
  -6   2  -1   39.26    6.73
  -6   2  -2   56.12    8.72
   6   2   2   36.83    3.82
  -6   2  -3   72.41   10.33
  -6   2  -4   36.78    7.03
  -6   2  -5   62.57    9.61
  -6   2  -6   18.01    5.99
  -6   2  -7   27.82    6.56
  -6   2  -8    6.90    4.86
  -6   2  -9   12.70    6.32
  -6   2 -10   19.34    8.19
  -6   2 -11   22.06    8.44
   6   3 -12   25.99    7.24
   6   3 -11   -0.38    3.30
   6   3 -10   50.73    8.67
   6   3  -9   39.23    7.66
   6   3  -8   27.54    6.33
   6   3  -7   46.26    7.56
   6   3  -6   50.02    7.31
  -6   3   6   52.82    5.59
   6   3  -5  112.92   10.14
  -6   3   5  116.28    8.53
   6   3  -4   64.42    7.07
  -6   3   4   68.64    6.84
  -6   3   3   30.75    5.07
   6   3  -3   18.42    3.91
   6   3  -2   93.42    7.49
  -6   3   2   94.52    8.69
  -6   3   1   14.52    2.85
   6   3  -1   29.69    4.06
  -6   3   0   73.53    8.06
   6   3   0   81.47    5.83
  -6   3  -1  124.36   11.27
  -6   3  -2   15.25    4.88
  -6   3  -3   84.78   10.34
  -6   3  -4   39.22    7.60
  -6   3  -5   17.89    5.82
  -6   3  -6  108.99   13.30
  -6   3  -7   13.20    6.11
  -6   3  -8   29.64    7.86
  -6   3  -9    9.35    5.65
  -6   3 -10    4.14    4.80
  -6   3 -11    4.47    6.19
   6   4 -11   24.13    6.84
   6   4 -10    7.83    4.53
   6   4  -9   34.65    7.32
   6   4  -8   21.17    5.13
   6   4  -7   16.74    4.76
   6   4  -6   77.57    9.02
  -6   4   6   69.99    7.20
   6   4  -5   13.77    3.53
  -6   4   5   13.15    3.52
   6   4  -4   17.14    4.18
  -6   4   4   12.92    3.76
   6   4  -3   11.64    3.17
  -6   4   3    8.02    3.29
  -6   4   2   24.65    5.37
   6   4  -2   18.76    3.32
  -6   4   1   18.55    4.57
  -6   4   0  160.54   13.03
  -6   4  -1   12.24    4.99
  -6   4  -2  124.95   12.18
  -6   4  -3   11.04    4.09
  -6   4  -4   56.43    9.40
  -6   4  -5   10.78    5.01
  -6   4  -6   19.12    6.56
  -6   4  -7   18.19    7.20
  -6   4  -8    0.62    5.12
  -6   4  -9    1.22    4.84
  -6   4 -10    6.41    5.50
   6   5 -10   28.23    7.06
   6   5  -9   12.13    5.12
   6   5  -8   64.13    9.25
   6   5  -7   58.37    8.15
  -6   5   6    7.67    3.54
   6   5  -6   12.04    3.52
   6   5  -5   89.09    9.31
  -6   5   5   92.12    9.44
  -6   5   4    7.80    3.23
   6   5  -4   10.63    3.33
   6   5  -3   48.31    6.05
  -6   5   3   46.10    6.95
  -6   5   2   15.31    4.29
  -6   5   1   25.56    5.61
  -6   5   0   29.91    6.66
  -6   5  -1   55.35    8.70
  -6   5  -2   13.86    5.87
  -6   5  -3   94.27   12.00
  -6   5  -4   20.17    6.08
  -6   5  -5   40.70    8.24
  -6   5  -6    7.82    5.46
  -6   5  -7    3.88    4.47
  -6   5  -8   -0.99    4.37
   6   6  -8    5.34    3.54
   6   6  -7   -4.84    4.75
  -6   6   6   14.52    4.24
   6   6  -6   19.91    4.23
  -6   6   5   -7.01    5.29
   6   6  -5   -4.67    3.86
  -6   6   4   18.27    4.41
  -6   6   3   33.20    6.08
  -6   6   2   -7.98    5.57
  -6   6   1    7.35    3.59
  -6   6   0   13.79    5.40
  -6   6  -1   24.52    6.58
  -6   6  -2   51.39    9.38
  -6   6  -3    7.95    4.84
  -6   6  -4   21.54    7.76
  -6   6  -5   14.42    6.96
  -6   6  -6    0.23    4.70
  -6   6  -7   -1.19    6.04
  -6   7   6    0.22    4.13
  -6   7   5   -8.85    5.76
  -6   7   4   21.73    5.73
  -6   7   3   -5.23    5.75
  -6   7   2   49.96    8.48
  -6   7   1   -7.85    5.17
  -6   7   0    1.34    5.09
  -6   7  -1   19.45    6.58
  -6   7  -2    0.70    4.23
  -6   7  -3   21.74    7.35
  -6   7  -4   13.05    6.85
   7  -6  -6    9.26    5.22
   7  -6  -5    2.28    4.23
  -7  -6   5    2.96    3.24
   7  -6  -4   30.11    8.38
  -7  -6   4   20.93    5.60
  -7  -6   3   13.70    4.65
   7  -6  -3    9.17    4.81
  -7  -6   2   16.87    5.34
   7  -6  -2   15.77    5.99
   7  -6  -1   46.56    9.48
  -7  -6   1   32.56    7.04
   7  -6   0   10.32    5.35
  -7  -6   0   15.86    5.45
   7  -6   1   22.58    6.89
  -7  -6  -1   35.70    7.62
   7  -6   2    4.55    3.75
  -7  -6  -2   -1.77    3.64
   7  -6   3    1.48    4.78
  -7  -6  -3    7.62    4.66
   7  -6   4    9.73    5.66
  -7  -6  -4   12.24    5.32
   7  -5  -8   25.91    7.73
   7  -5  -7    0.84    3.92
   7  -5  -6    9.32    4.83
   7  -5  -5   13.78    4.79
  -7  -5   5   16.02    4.38
   7  -5  -4   -5.51    5.52
  -7  -5   4    0.34    2.85
   7  -5  -3   28.41    7.31
  -7  -5   3   23.41    5.60
  -7  -5   2   11.51    4.59
   7  -5  -2   21.95    6.81
   7  -5  -1   76.62   11.21
  -7  -5   1   62.18    8.91
   7  -5   0   48.98    9.21
  -7  -5   0   50.18    8.05
   7  -5   1   -4.36    4.96
  -7  -5  -1    2.09    3.15
   7  -5   2   41.32    8.34
  -7  -5  -2   41.29    7.99
   7  -5   3   10.69    5.20
  -7  -5  -3   18.71    5.86
   7  -5   4   10.91    6.12
  -7  -5  -4    8.83    5.08
   7  -5   5    4.30    3.99
  -7  -5  -5   -3.54    4.57
   7  -5   6    2.90    3.47
  -7  -5  -6    8.59    5.00
   7  -5   7    3.00    4.31
  -7  -5  -7    2.48    4.10
   7  -4 -10    8.78    4.98
   7  -4  -9   26.98    8.70
   7  -4  -8    9.05    5.66
   7  -4  -7   48.62    9.23
   7  -4  -6   22.10    6.87
   7  -4  -5   -5.50    4.77
  -7  -4   5    2.17    2.58
   7  -4  -4   17.17    5.60
  -7  -4   4   23.27    4.67
   7  -4  -3   89.13   11.27
  -7  -4   3   94.44    9.33
   7  -4  -2   37.50    7.86
  -7  -4   2   30.94    5.64
  -7  -4   1   50.21    7.41
   7  -4  -1   55.82    9.41
   7  -4   0   15.27    5.39
  -7  -4   0   15.18    4.64
   7  -4   1   61.80    9.45
  -7  -4  -1   60.35    8.74
   7  -4   2   37.64    8.23
  -7  -4  -2   37.36    7.05
  -7  -4  -3   14.11    4.85
   7  -4   3    7.07    3.58
  -7  -4  -4   21.98    5.90
   7  -4   4   25.36    6.79
  -7  -4  -5   -4.97    4.13
   7  -4   5    1.59    3.08
  -7  -4  -6   12.54    5.46
   7  -4   6   14.03    5.73
  -7  -4  -7   18.44    6.32
   7  -4   7   15.40    6.17
  -7  -4  -8   -5.66    5.20
   7  -4   8    1.96    4.75
   7  -3 -11   14.96    6.01
   7  -3 -10   41.86    9.14
   7  -3  -9   -3.08    4.05
   7  -3  -8   81.38   11.88
   7  -3  -7   21.94    6.78
   7  -3  -6   25.85    7.12
   7  -3  -5   72.44   10.15
  -7  -3   5   65.80    6.44
   7  -3  -4   11.99    5.13
  -7  -3   4   11.69    3.27
   7  -3  -3   19.82    5.16
  -7  -3   3   24.78    4.55
   7  -3  -2   61.68    9.23
  -7  -3   2   55.03    7.08
   7  -3  -1   21.75    5.82
  -7  -3   1   14.47    4.10
  -7  -3   0  109.50   10.81
   7  -3   0  113.24   11.91
  -7  -3  -1   16.52    4.63
   7  -3   1   22.69    5.25
  -7  -3  -2   72.92    9.53
   7  -3   2   82.81   10.29
  -7  -3  -3   43.33    7.92
   7  -3   3   39.60    7.24
  -7  -3  -4   10.72    4.86
   7  -3   4   25.68    6.27
  -7  -3  -5   -2.06    3.81
   7  -3   5    4.10    3.55
  -7  -3  -6   23.53    7.25
   7  -3   6   15.92    5.45
  -7  -3  -7   10.58    5.94
   7  -3   7   -0.37    3.54
  -7  -3  -8   14.93    6.24
   7  -3   8   13.13    5.46
  -7  -3  -9    3.34    4.60
   7  -3   9    0.56    3.94
   7  -2 -11   18.13    7.37
   7  -2 -10    6.16    4.10
   7  -2  -9   78.63   11.53
   7  -2  -8    9.08    4.78
   7  -2  -7   73.20   10.36
   7  -2  -6   96.77   11.55
   7  -2  -5   20.71    6.21
   7  -2  -4   61.00    8.63
  -7  -2   4   53.59    5.57
   7  -2  -3   -0.85    2.91
  -7  -2   3    1.74    2.10
  -7  -2   2  105.86    9.30
   7  -2  -2  103.54   10.65
  -7  -2   1   39.60    6.11
   7  -2  -1   34.95    6.04
   7  -2   0   19.14    5.47
  -7  -2   0   12.78    3.98
  -7  -2  -1  130.76   11.98
   7  -2   1  141.73   12.45
  -7  -2  -2   30.32    6.28
   7  -2   2   26.81    6.11
  -7  -2  -3   61.76    8.88
   7  -2   3   66.21    8.92
  -7  -2  -4   11.43    5.11
   7  -2   4    7.50    3.95
  -7  -2  -5   50.74    9.46
   7  -2   5   45.19    7.59
  -7  -2  -6   28.78    7.71
   7  -2   6   22.14    5.59
  -7  -2  -7   12.10    5.76
   7  -2   7    7.38    3.63
  -7  -2  -8    7.59    5.81
   7  -2   8    1.09    3.05
  -7  -2  -9   11.50    5.67
   7  -2   9   -2.53    3.62
  -7  -2 -10   -1.23    4.38
   7  -2  10   -0.94    3.41
   7  -1 -12    0.81    4.62
   7  -1 -11    7.86    6.06
   7  -1 -10   34.42    8.21
   7  -1  -9   15.57    5.72
   7  -1  -8   64.80    9.92
   7  -1  -7   37.18    7.55
   7  -1  -6   12.31    5.18
   7  -1  -5  160.39   13.61
  -7  -1   4   43.10    4.69
   7  -1  -4   56.50    7.84
  -7  -1   3  208.17   11.51
   7  -1  -3  218.42   15.16
   7  -1  -2   71.11    8.67
  -7  -1   2   67.85    7.15
  -7  -1   1   20.09    4.69
   7  -1  -1   17.75    4.55
   7  -1   0   53.19    7.20
  -7  -1   0   63.18    7.97
  -7  -1  -1    8.68    2.80
   7  -1   1   22.19    5.24
  -7  -1  -2   -3.49    5.33
   7  -1   2    5.13    3.17
  -7  -1  -3   25.29    5.21
   7  -1   3   23.11    5.40
  -7  -1  -4   -9.09    6.85
   7  -1   4    8.75    4.29
  -7  -1  -5   85.06   11.14
   7  -1   5   78.00    9.24
  -7  -1  -6   -2.97    6.21
   7  -1   6   13.16    4.46
  -7  -1  -7    5.05    5.18
   7  -1   7   16.02    4.97
  -7  -1  -8   23.43    6.33
   7  -1   8   39.39    7.23
  -7  -1  -9   -2.96    6.07
   7  -1   9    4.69    3.58
   7  -1  10   -0.12    2.94
  -7  -1 -10   -9.79    7.84
   7   0 -12    2.82    4.20
   7   0 -11   -1.82    4.26
   7   0 -10    3.08    4.04
   7   0  -9   11.92    5.13
   7   0  -8    9.79    4.55
   7   0  -7    4.38    3.75
   7   0  -6  187.45   14.63
   7   0  -5    7.02    4.01
  -7   0   4   95.19    7.15
   7   0  -4   87.51    9.60
  -7   0   3    2.56    2.94
   7   0  -3   20.20    5.33
  -7   0   2   17.81    3.91
   7   0  -2   28.85    5.74
  -7   0   1    9.10    3.61
   7   0  -1    6.90    2.65
   7   0   0   38.83    5.90
  -7   0   0   53.57    7.68
  -7   0  -1   21.81    5.20
   7   0   1   19.70    4.75
  -7   0  -2   77.21   10.31
   7   0   2   70.64    7.71
  -7   0  -3    9.14    4.55
   7   0   3    7.68    3.20
   7   0   4   92.16    8.84
  -7   0  -4  114.00   13.00
  -7   0  -5   51.74    9.01
   7   0   5   45.84    6.35
  -7   0  -6   49.01    9.90
   7   0   6   32.64    5.57
  -7   0  -7   41.67    9.48
   7   0   7   38.27    6.52
   7   0   8    2.03    2.45
  -7   0  -8    4.91    4.54
  -7   0  -9   27.87    8.76
  -7   0 -10    8.02    6.56
   7   1 -12   17.48    6.76
   7   1 -11   11.61    6.36
   7   1 -10   15.09    6.01
   7   1  -9   10.69    5.23
   7   1  -8   72.13    9.96
   7   1  -7   38.34    7.09
   7   1  -6   15.58    4.97
   7   1  -5  150.79   12.36
  -7   1   4   49.58    5.87
   7   1  -4   51.23    7.47
  -7   1   3  228.88   13.03
   7   1  -3  215.46   13.92
  -7   1   2   60.49    7.61
   7   1  -2   54.59    6.97
  -7   1   1   35.24    6.25
   7   1  -1   20.41    4.28
   7   1   0   41.29    5.45
  -7   1   0   49.17    7.37
  -7   1  -1   28.35    6.59
   7   1   1   22.56    4.45
  -7   1  -2   13.27    5.75
   7   1   2    5.07    2.19
  -7   1  -3   40.48    8.22
   7   1   3   32.18    4.61
  -7   1  -4    8.59    5.92
   7   1   4    4.68    2.26
  -7   1  -5   93.05   12.43
   7   1   5   72.55    7.00
  -7   1  -6   16.67    7.35
  -7   1  -7   22.41    7.58
  -7   1  -8   41.90    9.32
  -7   1  -9   11.95    6.97
  -7   1 -10   -0.24    5.41
   7   2 -11   29.71    7.85
   7   2 -10   12.82    5.77
   7   2  -9   81.41   11.02
   7   2  -8   -2.24    3.25
   7   2  -7   67.77    8.87
   7   2  -6   98.34   10.49
   7   2  -5    5.11    2.51
  -7   2   4   46.07    5.95
   7   2  -4   54.17    7.40
  -7   2   3   -0.35    2.78
   7   2  -3   -1.49    2.77
  -7   2   2  103.75    9.69
   7   2  -2   99.17    8.64
  -7   2   1   37.18    6.50
   7   2  -1   38.62    5.40
   7   2   0   11.61    3.22
  -7   2   0   13.07    4.36
  -7   2  -1  121.75   11.66
   7   2   1  122.76    8.25
  -7   2  -2   36.03    7.09
  -7   2  -3   72.29   10.30
  -7   2  -4   13.92    5.57
  -7   2  -5   54.29    9.71
  -7   2  -6   26.12    7.41
  -7   2  -7   29.49    8.64
  -7   2  -8   15.29    8.36
  -7   2  -9   16.92    7.73
  -7   2 -10   12.67    7.63
   7   3 -11   17.94    6.58
   7   3 -10   44.50    9.11
   7   3  -9    7.28    5.23
   7   3  -8   71.86    9.74
   7   3  -7   19.36    5.70
   7   3  -6   35.31    6.38
  -7   3   5   65.98    6.94
   7   3  -5   61.56    7.84
  -7   3   4   16.74    4.29
   7   3  -4   11.46    3.52
  -7   3   3    8.36    2.97
   7   3  -3   13.69    3.46
  -7   3   2   56.88    7.57
   7   3  -2   63.56    6.84
  -7   3   1   11.58    4.15
   7   3  -1   15.96    3.50
  -7   3   0  112.80   11.29
  -7   3  -1   25.30    6.57
  -7   3  -2   71.14   10.08
  -7   3  -3   53.50    9.26
  -7   3  -4   20.89    6.16
  -7   3  -5    7.85    5.22
  -7   3  -6   29.02    8.00
  -7   3  -7    9.63    4.75
  -7   3  -8   19.49    7.57
  -7   3  -9    1.55    4.93
   7   4 -10   10.68    4.51
   7   4  -9   28.13    7.08
   7   4  -8   -5.25    4.39
   7   4  -7   40.18    7.02
   7   4  -6   26.44    6.12
   7   4  -5    6.97    3.91
  -7   4   5    5.45    2.98
  -7   4   4   28.09    5.73
   7   4  -4   24.51    4.70
   7   4  -3   84.76    8.05
  -7   4   3   82.28    9.28
  -7   4   2   11.71    4.26
  -7   4   1   47.48    7.46
  -7   4   0    2.74    3.77
  -7   4  -1   61.49    8.97
  -7   4  -2   56.87    8.99
  -7   4  -3   11.32    5.23
  -7   4  -4   30.13    7.80
  -7   4  -5    0.52    4.27
  -7   4  -6   14.71    6.40
  -7   4  -7   14.22    6.08
  -7   4  -8   10.97    5.54
   7   5  -8   30.69    6.47
   7   5  -7   11.03    5.17
   7   5  -6   27.60    6.16
   7   5  -5   27.18    5.89
  -7   5   5   24.91    5.79
  -7   5   4    3.34    3.73
  -7   5   3   17.70    5.39
  -7   5   2   13.19    5.03
  -7   5   1   80.34   10.87
  -7   5   0   58.77    9.70
  -7   5  -1    9.11    5.10
  -7   5  -2   51.70    9.21
  -7   5  -3    6.85    4.86
  -7   5  -4    8.32    5.34
  -7   5  -5    5.57    4.76
  -7   5  -6    9.89    6.43
  -7   5  -7   -1.20    5.04
  -7   6   5    3.15    4.19
  -7   6   4   20.01    5.81
  -7   6   3   10.79    4.98
  -7   6   2   23.02    6.50
  -7   6   1   41.41    8.47
  -7   6   0   15.54    6.09
  -7   6  -1   27.02    7.72
  -7   6  -2   17.07    6.58
  -7   6  -3   12.65    6.12
  -7   6  -4   10.08    4.57
   8  -5  -6   13.93    6.27
   8  -5  -5   12.70    5.02
   8  -5  -4    5.38    4.14
  -8  -5   4    6.61    3.79
   8  -5  -3   49.63    9.62
  -8  -5   3   41.40    7.33
  -8  -5   2   -1.10    3.21
   8  -5  -2    3.83    4.80
   8  -5  -1   53.44    9.93
  -8  -5   1   57.61    8.83
   8  -5   0   13.69    5.80
  -8  -5   0    8.49    4.37
   8  -5   1    1.33    3.70
  -8  -5  -1    5.46    4.44
   8  -5   2   -8.69    5.81
  -8  -5  -2    3.85    3.92
   8  -5   3    6.22    4.19
  -8  -5  -3    4.61    4.19
   8  -5   4    3.17    4.96
  -8  -5  -4   -2.01    4.30
   8  -4  -8    5.23    5.60
   8  -4  -7    2.78    4.45
   8  -4  -6    1.25    4.04
   8  -4  -5   -0.37    3.65
   8  -4  -4   32.90    7.41
  -8  -4   4   40.43    6.32
   8  -4  -3    0.77    4.58
  -8  -4   3    5.75    3.89
   8  -4  -2   29.62    7.64
  -8  -4   2   26.33    5.72
   8  -4  -1   15.32    6.02
  -8  -4   1    8.25    3.54
   8  -4   0   75.03   10.90
  -8  -4   0   69.78    9.86
   8  -4   1    7.02    4.48
  -8  -4  -1   20.49    5.85
   8  -4   2   -1.92    4.47
  -8  -4  -2   -4.81    4.34
  -8  -4  -3    5.09    3.67
   8  -4   3    2.43    3.85
  -8  -4  -4   -0.69    3.40
   8  -4   4   11.64    5.95
  -8  -4  -5    1.90    3.88
   8  -4   5    4.75    4.25
  -8  -4  -6   16.28    6.46
   8  -4   6   10.21    5.07
   8  -3  -9   15.91    7.46
   8  -3  -8   17.89    6.38
   8  -3  -7    3.49    4.12
   8  -3  -6   32.70    7.33
   8  -3  -5    8.24    4.80
   8  -3  -4    5.93    4.44
  -8  -3   4    5.80    3.02
   8  -3  -3   42.97    8.16
  -8  -3   3   46.34    6.52
   8  -3  -2   -0.03    4.92
  -8  -3   2    4.33    2.83
  -8  -3   1   62.08    8.32
   8  -3  -1   71.45   10.41
  -8  -3   0   43.71    7.48
   8  -3   0   58.08    9.16
  -8  -3  -1   23.90    5.93
   8  -3   1   22.90    6.29
  -8  -3  -2   25.61    6.29
   8  -3   2   32.10    7.15
  -8  -3  -3   14.23    5.17
   8  -3   3    9.50    4.60
  -8  -3  -4    9.80    4.98
   8  -3   4    8.02    4.83
  -8  -3  -5    7.74    4.81
   8  -3   5    8.32    4.57
  -8  -3  -6    3.82    4.70
   8  -3   6    6.47    4.99
  -8  -3  -7    2.73    4.38
   8  -3   7    2.38    3.94
   8  -2 -10   23.73    7.57
   8  -2  -9   14.83    6.53
   8  -2  -8   19.32    6.78
   8  -2  -7  137.74   14.93
   8  -2  -6    6.25    4.10
   8  -2  -5   75.06   10.67
   8  -2  -4   78.19   10.59
  -8  -2   4   75.81    7.38
   8  -2  -3   16.16    5.14
  -8  -2   3   17.50    4.35
  -8  -2   2   43.76    6.62
   8  -2  -2   45.27    7.64
  -8  -2   1    3.92    2.92
   8  -2  -1   -2.74    3.60
  -8  -2   0   49.50    7.53
   8  -2   0   51.42    8.52
  -8  -2  -1   48.73    8.13
   8  -2   1   44.77    7.81
  -8  -2  -2    1.71    3.21
   8  -2   2   -0.21    3.64
  -8  -2  -3   25.17    6.39
   8  -2   3   15.20    4.63
  -8  -2  -4   -1.82    3.54
   8  -2   4    3.60    3.85
  -8  -2  -5   40.14    8.89
   8  -2   5   28.47    6.57
  -8  -2  -6   21.05    7.44
   8  -2   6   11.86    4.87
  -8  -2  -7    0.81    4.43
   8  -2   7    1.69    4.24
  -8  -2  -8   17.30    7.79
   8  -2   8   -1.37    3.72
   8  -1 -10    6.12    5.47
   8  -1  -9   16.53    5.65
   8  -1  -8   48.09    8.97
   8  -1  -7   18.57    5.44
   8  -1  -6   55.97    9.07
   8  -1  -5   27.91    6.74
   8  -1  -4   14.51    5.12
  -8  -1   3    4.09    2.84
   8  -1  -3   13.21    4.93
  -8  -1   2   -0.89    2.52
   8  -1  -2    1.88    2.67
  -8  -1   1   29.55    5.72
   8  -1  -1   27.88    5.64
   8  -1   0   20.12    5.73
  -8  -1   0   17.71    5.46
  -8  -1  -1    8.25    3.33
   8  -1   1    2.30    2.34
  -8  -1  -2   46.46    8.06
   8  -1   2   44.97    7.47
  -8  -1  -3   -3.84    5.96
   8  -1   3    7.87    3.56
  -8  -1  -4   -4.31    6.65
   8  -1   4    4.34    3.07
  -8  -1  -5    2.74    4.28
   8  -1   5   11.71    4.46
  -8  -1  -6   -9.51    7.24
   8  -1   6    1.07    2.67
  -8  -1  -7   -7.01    7.24
   8  -1   7    5.16    3.79
  -8  -1  -8   -3.41    6.35
   8  -1   8    1.36    3.17
   8   0 -10   22.27    7.35
   8   0  -9   11.53    4.98
   8   0  -8   11.40    5.18
   8   0  -7   57.93    9.58
   8   0  -6   -0.24    3.58
   8   0  -5   16.35    5.32
   8   0  -4   11.36    4.89
  -8   0   3    7.06    3.02
   8   0  -3   14.89    5.15
  -8   0   2   62.16    7.30
   8   0  -2   73.08    9.50
  -8   0   1   -6.71    5.05
   8   0  -1   -1.12    2.58
   8   0   0   -1.27    3.07
  -8   0   0   -0.79    4.20
  -8   0  -1   40.13    7.78
   8   0   1   42.72    6.80
  -8   0  -2   15.78    5.21
   8   0   2   20.74    4.86
  -8   0  -3   35.38    7.48
   8   0   3   30.76    5.80
  -8   0  -4   30.78    7.96
   8   0   4   28.31    5.71
  -8   0  -5    1.72    5.28
   8   0   5    2.49    2.81
  -8   0  -6   33.15    9.07
   8   0   6   24.21    5.06
  -8   0  -7   -1.87    6.10
  -8   0  -8    8.13    6.25
   8   1 -10    6.40    4.62
   8   1  -9   21.33    6.72
   8   1  -8   48.51    8.98
   8   1  -7   18.40    5.47
   8   1  -6   61.64    8.94
   8   1  -5   36.94    7.16
   8   1  -4   21.80    5.46
  -8   1   3    6.72    3.62
   8   1  -3    6.63    4.08
  -8   1   2    7.02    3.96
   8   1  -2    1.50    2.79
  -8   1   1   33.58    6.88
   8   1  -1   26.53    5.15
   8   1   0    6.90    2.27
  -8   1   0   18.83    6.14
  -8   1  -1   11.55    6.17
   8   1   1   -0.23    2.04
  -8   1  -2   66.18   10.20
   8   1   2   46.33    6.34
  -8   1  -3   11.07    5.53
   8   1   3   10.08    3.21
  -8   1  -4   16.29    6.40
  -8   1  -5   27.58    8.43
  -8   1  -6    0.92    5.52
  -8   1  -7   10.77    7.28
  -8   1  -8    0.08    5.08
   8   2 -10   26.04    6.95
   8   2  -9   15.13    5.71
   8   2  -8   20.32    5.68
   8   2  -7  122.01   12.72
   8   2  -6    1.29    2.96
   8   2  -5   75.29    9.69
   8   2  -4   66.75    8.67
  -8   2   4   70.88    8.38
  -8   2   3   27.65    6.28
   8   2  -3   24.09    5.78
  -8   2   2   58.47    8.39
   8   2  -2   54.53    7.32
  -8   2   1    8.34    5.21
   8   2  -1    6.20    3.03
   8   2   0   41.74    5.42
  -8   2   0   53.36    9.16
  -8   2  -1   32.35    7.38
  -8   2  -2    3.13    4.35
  -8   2  -3   32.88    8.13
  -8   2  -4   12.29    7.16
  -8   2  -5   53.12   10.93
  -8   2  -6   48.00   11.25
  -8   2  -7   18.44    8.88
  -8   2  -8   14.26    8.40
   8   3  -9    7.05    4.01
   8   3  -8    9.63    5.07
   8   3  -7    2.33    3.32
   8   3  -6   34.30    6.73
   8   3  -5    9.37    4.10
  -8   3   4    5.95    3.66
   8   3  -4    1.36    2.71
  -8   3   3   38.84    6.58
   8   3  -3   39.81    6.32
  -8   3   2    4.30    3.81
   8   3  -2    4.51    3.01
  -8   3   1   49.83    8.30
  -8   3   0   55.83    8.74
  -8   3  -1   34.47    7.84
  -8   3  -2   28.05    7.21
  -8   3  -3   17.14    5.73
  -8   3  -4    7.67    4.92
  -8   3  -5   17.80    7.31
  -8   3  -6    2.07    4.72
  -8   3  -7    5.08    5.07
   8   4  -8    1.00    3.83
   8   4  -7    7.09    4.35
   8   4  -6    3.58    3.32
   8   4  -5    4.58    3.15
  -8   4   4   38.36    6.98
  -8   4   3    9.62    4.46
  -8   4   2   24.04    5.76
  -8   4   1   15.15    5.73
  -8   4   0   78.54   10.64
  -8   4  -1   25.76    6.80
  -8   4  -2    4.67    5.57
  -8   4  -3    9.65    5.86
  -8   4  -4   16.73    6.89
  -8   4  -5   -4.25    4.73
  -8   4  -6   17.81    7.85
  -8   5   4    0.13    3.91
  -8   5   3   44.27    7.84
  -8   5   2   -7.01    5.28
  -8   5   1   50.87    8.83
  -8   5   0   12.21    5.71
  -8   5  -1    2.76    4.08
  -8   5  -2    6.60    5.60
  -8   5  -3    6.06    5.51
  -8   5  -4    2.20    4.78
   9  -4  -4   -4.77    4.76
   9  -4  -3    7.90    6.35
  -9  -4   2    3.84    3.28
   9  -4  -2   14.08    5.86
   9  -4  -1    3.65    3.67
  -9  -4   1    1.78    3.45
   9  -4   0    8.59    6.27
  -9  -4   0   10.89    5.08
   9  -4   1   -2.17    4.11
  -9  -4  -1    5.00    4.26
   9  -4   2   -4.93    5.36
  -9  -4  -2   -3.91    4.64
   9  -3  -6    6.38    5.47
   9  -3  -5   -0.51    4.27
   9  -3  -4   36.16    8.55
   9  -3  -3    7.68    3.91
   9  -3  -2   15.72    6.59
  -9  -3   2    8.27    4.50
   9  -3  -1   17.53    6.26
  -9  -3   1    5.81    3.46
  -9  -3   0    1.33    3.07
   9  -3   0    3.06    4.64
  -9  -3  -1    6.46    4.17
   9  -3   1   16.77    5.86
  -9  -3  -2   14.04    5.27
   9  -3   2   10.94    5.20
  -9  -3  -3    4.72    3.93
   9  -3   3   -7.05    5.62
  -9  -3  -4    8.73    6.13
   9  -3   4    6.46    4.92
   9  -2  -8   33.25    8.79
   9  -2  -7   15.28    7.09
   9  -2  -6   19.43    6.94
   9  -2  -5   52.73    9.65
   9  -2  -4    5.91    4.80
   9  -2  -3   11.46    4.57
  -9  -2   2    7.23    3.87
   9  -2  -2   -0.46    4.51
   9  -2  -1   30.20    7.99
  -9  -2   1   24.81    5.64
  -9  -2   0   42.83    7.61
   9  -2   0   43.71    8.12
  -9  -2  -1    5.18    3.44
   9  -2   1    8.39    4.29
  -9  -2  -2   16.84    5.49
   9  -2   2   13.65    5.18
  -9  -2  -3   14.67    5.88
   9  -2   3   12.47    4.71
  -9  -2  -4    0.47    3.63
   9  -2   4    1.13    3.56
  -9  -2  -5   14.78    6.67
   9  -2   5    7.66    3.84
   9  -1  -8   10.24    5.76
   9  -1  -7   49.21    9.70
   9  -1  -6   39.28    8.54
   9  -1  -5    9.15    5.47
   9  -1  -4   15.41    5.73
   9  -1  -3    7.38    4.55
  -9  -1   2   25.15    5.52
   9  -1  -2   17.92    5.32
  -9  -1   1   82.35    9.97
   9  -1  -1   95.15   11.43
  -9  -1   0   15.91    5.57
   9  -1   0   13.02    4.74
  -9  -1  -1   36.08    7.84
   9  -1   1   24.34    6.28
  -9  -1  -2   14.28    5.71
   9  -1   2    3.26    3.83
  -9  -1  -3   17.38    6.77
   9  -1   3   12.22    4.70
  -9  -1  -4   11.05    5.98
   9  -1   4   16.18    5.28
  -9  -1  -5   14.58    6.05
   9  -1   5    4.80    3.85
  -9  -1  -6    9.82    5.81
   9   0  -8   24.53    7.16
   9   0  -7    6.25    3.82
   9   0  -6   16.17    6.20
   9   0  -5   10.28    5.50
   9   0  -4    8.91    5.05
   9   0  -3   -3.16    4.00
  -9   0   2   20.10    4.73
   9   0  -2   20.46    5.72
   9   0  -1    5.28    3.66
  -9   0   1   -5.98    5.39
  -9   0   0    7.53    3.65
   9   0   0   22.51    6.11
  -9   0  -1   -7.08    5.90
   9   0   1   -0.83    2.79
  -9   0  -2    2.58    3.74
   9   0   2    1.11    2.75
  -9   0  -3    9.32    4.74
   9   0   3   15.33    4.77
  -9   0  -4   -5.23    6.63
  -9   0  -5   -7.14    7.36
  -9   0  -6  -14.06    7.35
   9   1  -8    3.32    5.32
   9   1  -7   48.78    8.95
   9   1  -6   30.98    7.18
   9   1  -5    3.07    3.46
   9   1  -4   17.78    5.55
   9   1  -3    9.10    4.14
  -9   1   2   14.41    4.65
   9   1  -2   24.38    5.58
  -9   1   1   87.22   11.25
   9   1  -1   84.69    9.53
  -9   1   0   17.80    5.61
   9   1   0   19.34    5.21
  -9   1  -1   25.22    7.45
   9   1   1   22.19    4.77
  -9   1  -2   11.00    6.51
  -9   1  -3   16.23    6.53
  -9   1  -4   19.35    8.09
  -9   1  -5   10.10    6.83
  -9   1  -6   13.08    7.95
   9   2  -8   25.09    7.21
   9   2  -7   18.47    6.42
   9   2  -6   11.13    4.67
   9   2  -5   59.07    8.70
   9   2  -4   13.54    5.15
   9   2  -3   20.19    5.52
  -9   2   2   14.40    5.17
   9   2  -2    5.19    2.92
  -9   2   1   26.35    7.28
  -9   2   0   49.36    9.33
  -9   2  -1   11.97    6.65
  -9   2  -2   26.62    8.24
  -9   2  -3   23.37    7.62
  -9   2  -4    5.66    6.91
  -9   2  -5   25.77    9.01
   9   3  -6   23.30    6.43
   9   3  -5    0.88    3.39
  -9   3   2    5.99    4.89
  -9   3   1    6.26    4.54
  -9   3   0   -1.94    4.39
  -9   3  -1   -0.80    5.00
  -9   3  -2    7.39    5.29
  -9   3  -3    0.44    5.15
  -9   3  -4   11.64    7.85
  -9   4   2   18.40    6.51
  -9   4   1    2.99    4.83
  -9   4   0    9.81    5.95
  -9   4  -1   -3.45    4.69
  -9   4  -2    3.06    5.55
  10  -2  -2    2.09    4.51
 -10  -2   1   11.85    4.96
  10  -2  -1   23.48    7.00
  10  -1  -4   18.62    6.07
  10  -1  -3   -4.35    5.09
  10  -1  -2   12.78    4.93
 -10  -1   1   10.31    5.00
  10  -1  -1    7.43    5.35
 -10  -1   0    6.50    4.57
  10  -1   0   11.71    5.27
 -10  -1  -1   18.59    7.10
  10  -1   1   10.23    5.48
  10   0  -4    1.49    4.17
  10   0  -3    4.57    3.64
  10   0  -2    2.11    3.67
  10   0  -1   25.18    6.63
 -10   0   1   25.30    6.80
 -10   0   0   47.81    9.15
  10   0   0   46.67    8.55
 -10   0  -1  -11.42    7.49
 -10   0  -2   -4.56    7.87
  10   1  -4   14.68    5.27
  10   1  -3    3.08    3.65
  10   1  -2   11.04    4.28
 -10   1   1    0.98    4.24
 -10   1   0   -4.93    6.21
 -10   1  -1   11.11    5.54
 -10   2   1   21.43    7.56
   0   0   0    0.00    0.00
TITL x1357a in P2(1)
REM P2(1) (#4 in standard setting)
CELL 0.71073   8.516715   7.869664  13.161678  90.0000  94.8902  90.0000
ZERR   10.00   0.000436   0.000354   0.000674   0.0000   0.0048   0.0000
LATT -1
SYMM -x, y+1/2,-z
SFAC C H N O Cl Zn
UNIT 10.00 10.00 10.00 10.00 10.00 10.00
TREF
HKLF 4
END
_computing_structure_solution     'SHELXT 2014/5 (Sheldrick, 2014)'
;
_shelx_hkl_checksum              28598
_shelx_res_file
;
TITL x1357a_a.res in P2(1)
    x1357a.res
    created by SHELXL-2018/1 at 08:32:27 on 10-Dec-2021
REM Old TITL x1357a in P2(1)
REM SHELXT solution in P2(1)
REM R1 0.104, Rweak 0.033, Alpha 0.005, Orientation as input
REM Flack x = 0.009 ( 0.014 ) from Parsons' quotients
REM Formula found by SHELXT: C18 N2 O2 Cl2 Zn
CELL 0.71073 8.5167 7.8697 13.1617 90 94.89 90
ZERR 2 0.0004 0.0004 0.0007 0 0.005 0
LATT -1
SYMM -X,0.5+Y,-Z
SFAC C H Cl N O Zn
UNIT 36 28 4 4 4 2
L.S. 10
PLAN  1
SIZE 0.1 0.1 0.03
CONF
BOND $H
list 4
MORE -1
fmap 2
acta
REM <olex2.extras>
REM <HklSrc "%.\\x1357a.hkl">
REM </olex2.extras>
WGHT    0.018300
FVAR       0.52809
ZN1   6    0.608315    0.408780    0.693248    11.00000    0.04945    0.04510 =
         0.05185    0.00235    0.01677   -0.00130
CL1   3    0.813092    0.525996    0.781849    11.00000    0.06561    0.06778 =
         0.08119   -0.00531    0.00337   -0.01730
CL2   3    0.572409    0.132243    0.710117    11.00000    0.07105    0.04205 =
         0.08753    0.00539    0.00869   -0.00339
O1    5    0.608655    0.443519    0.545894    11.00000    0.06606    0.08320 =
         0.05222    0.00625    0.02522   -0.03258
O2    5    0.415158    0.539265    0.718388    11.00000    0.05920    0.06328 =
         0.04273   -0.00987    0.01715    0.01091
N1    4    0.691920    0.570228    0.506764    11.00000    0.04496    0.05736 =
         0.03965    0.00186    0.00636   -0.00421
N2    4    0.392719    0.616258    0.806674    11.00000    0.04242    0.05012 =
         0.04582   -0.00277    0.00396    0.00729
C1    1    0.793806    0.525413    0.434211    11.00000    0.04134    0.04652 =
         0.03704    0.00968    0.00045   -0.00281
C2    1    0.806072    0.356166    0.404468    11.00000    0.05250    0.05576 =
         0.04810    0.00317    0.00474   -0.00842
AFIX  43
H2    2    0.745778    0.272501    0.432433    11.00000   -1.20000
AFIX   0
C3    1    0.908573    0.315028    0.333245    11.00000    0.07053    0.06384 =
         0.06033   -0.00250    0.01225    0.00500
AFIX  43
H3    2    0.916168    0.203042    0.311636    11.00000   -1.20000
AFIX   0
C4    1    1.001070    0.439800    0.293245    11.00000    0.06469    0.09733 =
         0.05301    0.00759    0.01611    0.01224
AFIX  43
H4    2    1.072298    0.409606    0.246598    11.00000   -1.20000
AFIX   0
C5    1    0.989126    0.604086    0.321044    11.00000    0.04704    0.07791 =
         0.06140    0.02717    0.01810   -0.00561
AFIX  43
H5    2    1.051065    0.685676    0.292553    11.00000   -1.20000
AFIX   0
C6    1    0.883457    0.653821    0.393061    11.00000    0.04415    0.05194 =
         0.04456    0.00984    0.00399   -0.00774
C7    1    0.862348    0.823357    0.424332    11.00000    0.05842    0.04325 =
         0.06248    0.01871   -0.01292   -0.01169
AFIX  43
H7    2    0.920737    0.910057    0.397750    11.00000   -1.20000
AFIX   0
C8    1    0.757722    0.860063    0.492674    11.00000    0.07586    0.04202 =
         0.06779    0.00125   -0.00864    0.00598
AFIX  43
H8    2    0.742052    0.972081    0.511924    11.00000   -1.20000
AFIX   0
C9    1    0.673349    0.729285    0.534213    11.00000    0.05888    0.06474 =
         0.04640   -0.00417    0.00968    0.01290
AFIX  43
H9    2    0.602718    0.754824    0.582143    11.00000   -1.20000
AFIX   0
C10   1    0.311281    0.530716    0.877665    11.00000    0.03868    0.04349 =
         0.05018    0.00842    0.00364    0.00898
C11   1    0.265354    0.362094    0.859470    11.00000    0.05528    0.06130 =
         0.06204   -0.00369    0.01095   -0.00289
AFIX  43
H11   2    0.289239    0.306487    0.800371    11.00000   -1.20000
AFIX   0
C12   1    0.184581    0.280992    0.930554    11.00000    0.07637    0.05623 =
         0.08650    0.00183    0.01525   -0.00740
AFIX  43
H12   2    0.154890    0.168062    0.920740    11.00000   -1.20000
AFIX   0
C13   1    0.145756    0.368573    1.019451    11.00000    0.07334    0.09676 =
         0.07481    0.02154    0.02107   -0.00387
AFIX  43
H13   2    0.089040    0.312853    1.066778    11.00000   -1.20000
AFIX   0
C14   1    0.189915    0.530867    1.036040    11.00000    0.06245    0.08477 =
         0.05982    0.00119    0.01213    0.00425
AFIX  43
H14   2    0.163818    0.585631    1.094912    11.00000   -1.20000
AFIX   0
C15   1    0.274546    0.618708    0.966101    11.00000    0.04663    0.05934 =
         0.04630    0.00217    0.00369    0.00767
C16   1    0.324478    0.789872    0.980258    11.00000    0.06566    0.06532 =
         0.06312   -0.02112    0.00089    0.01037
AFIX  43
H16   2    0.300458    0.850485    1.037580    11.00000   -1.20000
AFIX   0
C17   1    0.408142    0.863676    0.908425    11.00000    0.06964    0.05340 =
         0.07762   -0.01105    0.00096   -0.00442
AFIX  43
H17   2    0.443132    0.975085    0.917171    11.00000   -1.20000
AFIX   0
C18   1    0.441129    0.774487    0.823139    11.00000    0.07160    0.03852 =
         0.07311   -0.00425    0.01163   -0.00535
AFIX  43
H18   2    0.499384    0.826957    0.775384    11.00000   -1.20000
AFIX   0
HKLF 4
REM  x1357a_a.res in P2(1)
REM R1 =  0.0440 for    2456 Fo > 4sig(Fo)  and  0.0693 for all    3169 data
REM    226 parameters refined using      1 restraints
END
WGHT      0.0183      0.0000
REM Highest difference peak  0.422,  deepest hole -0.351,  1-sigma level  0.055
Q1    1   0.1855  0.4070  0.9225  11.00000  0.05    0.42
;
_shelx_res_checksum              77023
loop_
_space_group_symop_operation_xyz
'x, y, z'
'-x, y+1/2, -z'
loop_
_atom_site_type_symbol
_atom_site_label
_atom_site_fract_x
_atom_site_fract_y
_atom_site_fract_z
_atom_site_U_iso_or_equiv
_atom_site_adp_type
_atom_site_calc_flag
_atom_site_occupancy
_atom_site_disorder_assembly
_atom_site_disorder_group
Zn Zn1 0.60832(9) 0.40878(9) 0.69325(6) 0.0481(2) Uani d 1 . .
Cl Cl1 0.8131(2) 0.5260(3) 0.78185(18) 0.0717(6) Uani d 1 . .
Cl Cl2 0.5724(2) 0.1322(2) 0.71012(17) 0.0668(6) Uani d 1 . .
O O1 0.6087(5) 0.4435(7) 0.5459(4) 0.0660(17) Uani d 1 . .
O O2 0.4152(6) 0.5393(6) 0.7184(4) 0.0543(13) Uani d 1 . .
N N1 0.6919(7) 0.5702(8) 0.5068(4) 0.0472(15) Uani d 1 . .
N N2 0.3927(6) 0.6163(7) 0.8067(4) 0.0461(14) Uani d 1 . .
C C1 0.7938(8) 0.5254(9) 0.4342(5) 0.0418(17) Uani d 1 . .
C C2 0.8061(9) 0.3562(9) 0.4045(6) 0.052(2) Uani d 1 . .
H H2 0.745778 0.272501 0.432433 0.063 Uiso calc 1 . .
C C3 0.9086(10) 0.3150(11) 0.3332(6) 0.065(2) Uani d 1 . .
H H3 0.916168 0.203042 0.311636 0.077 Uiso calc 1 . .
C C4 1.0011(10) 0.4398(14) 0.2932(6) 0.071(3) Uani d 1 . .
H H4 1.072298 0.409606 0.246598 0.085 Uiso calc 1 . .
C C5 0.9891(9) 0.6041(11) 0.3210(6) 0.061(2) Uani d 1 . .
H H5 1.051065 0.685676 0.292553 0.074 Uiso calc 1 . .
C C6 0.8835(8) 0.6538(9) 0.3931(5) 0.0469(18) Uani d 1 . .
C C7 0.8623(9) 0.8234(8) 0.4243(6) 0.056(2) Uani d 1 . .
H H7 0.920737 0.910057 0.397750 0.067 Uiso calc 1 . .
C C8 0.7577(10) 0.8601(9) 0.4927(6) 0.063(2) Uani d 1 . .
H H8 0.742052 0.972081 0.511924 0.075 Uiso calc 1 . .
C C9 0.6733(9) 0.7293(10) 0.5342(6) 0.056(2) Uani d 1 . .
H H9 0.602718 0.754824 0.582143 0.068 Uiso calc 1 . .
C C10 0.3113(8) 0.5307(9) 0.8777(6) 0.0441(18) Uani d 1 . .
C C11 0.2654(9) 0.3621(9) 0.8595(6) 0.059(2) Uani d 1 . .
H H11 0.289239 0.306487 0.800371 0.071 Uiso calc 1 . .
C C12 0.1846(10) 0.2810(12) 0.9306(7) 0.073(2) Uani d 1 . .
H H12 0.154890 0.168062 0.920740 0.087 Uiso calc 1 . .
C C13 0.1458(11) 0.3686(13) 1.0195(7) 0.081(3) Uani d 1 . .
H H13 0.089040 0.312853 1.066778 0.097 Uiso calc 1 . .
C C14 0.1899(10) 0.5309(12) 1.0360(7) 0.069(3) Uani d 1 . .
H H14 0.163818 0.585631 1.094912 0.082 Uiso calc 1 . .
C C15 0.2745(8) 0.6187(10) 0.9661(5) 0.0508(19) Uani d 1 . .
C C16 0.3245(9) 0.7899(11) 0.9803(6) 0.065(2) Uani d 1 . .
H H16 0.300458 0.850485 1.037580 0.078 Uiso calc 1 . .
C C17 0.4081(9) 0.8637(10) 0.9084(6) 0.067(2) Uani d 1 . .
H H17 0.443132 0.975085 0.917171 0.081 Uiso calc 1 . .
C C18 0.4411(9) 0.7745(11) 0.8231(6) 0.061(2) Uani d 1 . .
H H18 0.499384 0.826957 0.775384 0.073 Uiso calc 1 . .
loop_
_atom_site_aniso_label
_atom_site_aniso_U_11
_atom_site_aniso_U_22
_atom_site_aniso_U_33
_atom_site_aniso_U_12
_atom_site_aniso_U_13
_atom_site_aniso_U_23
Zn1 0.0494(4) 0.0451(5) 0.0519(5) -0.0013(5) 0.0168(4) 0.0023(5)
Cl1 0.0656(13) 0.0678(14) 0.0812(16) -0.0173(11) 0.0034(12) -0.0053(12)
Cl2 0.0710(14) 0.0421(11) 0.0875(16) -0.0034(10) 0.0087(12) 0.0054(10)
O1 0.066(3) 0.083(5) 0.052(3) -0.033(3) 0.025(3) 0.006(3)
O2 0.059(3) 0.063(3) 0.043(3) 0.011(3) 0.017(3) -0.010(3)
N1 0.045(3) 0.057(4) 0.040(4) -0.004(3) 0.006(3) 0.002(3)
N2 0.042(3) 0.050(4) 0.046(4) 0.007(3) 0.004(3) -0.003(3)
C1 0.041(4) 0.047(4) 0.037(4) -0.003(4) 0.000(3) 0.010(4)
C2 0.052(5) 0.056(5) 0.048(5) -0.008(4) 0.005(4) 0.003(3)
C3 0.071(6) 0.064(6) 0.060(5) 0.005(5) 0.012(5) -0.003(4)
C4 0.065(5) 0.097(8) 0.053(5) 0.012(6) 0.016(4) 0.008(6)
C5 0.047(5) 0.078(6) 0.061(6) -0.006(5) 0.018(4) 0.027(5)
C6 0.044(4) 0.052(5) 0.045(4) -0.008(4) 0.004(4) 0.010(4)
C7 0.058(5) 0.043(5) 0.062(5) -0.012(4) -0.013(4) 0.019(4)
C8 0.076(6) 0.042(5) 0.068(5) 0.006(4) -0.009(5) 0.001(4)
C9 0.059(5) 0.065(6) 0.046(4) 0.013(4) 0.010(4) -0.004(4)
C10 0.039(4) 0.043(4) 0.050(5) 0.009(4) 0.004(4) 0.008(4)
C11 0.055(5) 0.061(6) 0.062(5) -0.003(4) 0.011(4) -0.004(4)
C12 0.076(6) 0.056(5) 0.086(7) -0.007(5) 0.015(6) 0.002(5)
C13 0.073(6) 0.097(10) 0.075(6) -0.004(6) 0.021(5) 0.022(6)
C14 0.062(6) 0.085(7) 0.060(6) 0.004(5) 0.012(5) 0.001(5)
C15 0.047(4) 0.059(5) 0.046(5) 0.008(4) 0.004(4) 0.002(4)
C16 0.066(6) 0.065(6) 0.063(5) 0.010(5) 0.001(5) -0.021(5)
C17 0.070(6) 0.053(6) 0.078(6) -0.004(4) 0.001(5) -0.011(4)
C18 0.072(6) 0.039(4) 0.073(6) -0.005(4) 0.012(5) -0.004(5)
loop_
_atom_type_symbol
_atom_type_description
_atom_type_scat_dispersion_real
_atom_type_scat_dispersion_imag
_atom_type_scat_source
C C 0.0033 0.0016 'International Tables Vol C Tables 4.2.6.8 and 6.1.1.4'
H H 0.0000 0.0000 'International Tables Vol C Tables 4.2.6.8 and 6.1.1.4'
Cl Cl 0.1484 0.1585 'International Tables Vol C Tables 4.2.6.8 and 6.1.1.4'
N N 0.0061 0.0033 'International Tables Vol C Tables 4.2.6.8 and 6.1.1.4'
O O 0.0106 0.0060 'International Tables Vol C Tables 4.2.6.8 and 6.1.1.4'
Zn Zn 0.2839 1.4301 'International Tables Vol C Tables 4.2.6.8 and 6.1.1.4'
loop_
_geom_angle_atom_site_label_1
_geom_angle_atom_site_label_2
_geom_angle_atom_site_label_3
_geom_angle_site_symmetry_1
_geom_angle_site_symmetry_3
_geom_angle
_geom_angle_publ_flag
Cl2 Zn1 Cl1 . . 117.80(9) ?
O1 Zn1 Cl1 . . 113.30(15) ?
O1 Zn1 Cl2 . . 104.40(18) ?
O1 Zn1 O2 . . 99.4(2) ?
O2 Zn1 Cl1 . . 108.81(16) ?
O2 Zn1 Cl2 . . 111.57(16) ?
N1 O1 Zn1 . . 121.7(4) ?
N2 O2 Zn1 . . 124.0(4) ?
O1 N1 C1 . . 117.0(6) ?
C9 N1 O1 . . 121.2(6) ?
C9 N1 C1 . . 121.8(6) ?
O2 N2 C10 . . 118.8(6) ?
C18 N2 O2 . . 120.2(6) ?
C18 N2 C10 . . 120.9(6) ?
N1 C1 C2 . . 120.1(7) ?
N1 C1 C6 . . 118.3(7) ?
C2 C1 C6 . . 121.6(7) ?
C1 C2 H2 . . 120.5 ?
C3 C2 C1 . . 118.9(7) ?
C3 C2 H2 . . 120.5 ?
C2 C3 H3 . . 119.8 ?
C2 C3 C4 . . 120.4(8) ?
C4 C3 H3 . . 119.8 ?
C3 C4 H4 . . 119.5 ?
C5 C4 C3 . . 121.0(8) ?
C5 C4 H4 . . 119.5 ?
C4 C5 H5 . . 119.6 ?
C4 C5 C6 . . 120.9(8) ?
C6 C5 H5 . . 119.6 ?
C1 C6 C5 . . 117.2(7) ?
C1 C6 C7 . . 118.8(7) ?
C7 C6 C5 . . 124.0(7) ?
C6 C7 H7 . . 119.9 ?
C8 C7 C6 . . 120.3(7) ?
C8 C7 H7 . . 119.9 ?
C7 C8 H8 . . 120.2 ?
C7 C8 C9 . . 119.7(7) ?
C9 C8 H8 . . 120.2 ?
N1 C9 C8 . . 121.1(7) ?
N1 C9 H9 . . 119.4 ?
C8 C9 H9 . . 119.4 ?
N2 C10 C11 . . 119.6(7) ?
N2 C10 C15 . . 118.5(7) ?
C11 C10 C15 . . 121.9(7) ?
C10 C11 H11 . . 120.8 ?
C12 C11 C10 . . 118.4(8) ?
C12 C11 H11 . . 120.8 ?
C11 C12 H12 . . 119.9 ?
C11 C12 C13 . . 120.2(9) ?
C13 C12 H12 . . 119.9 ?
C12 C13 H13 . . 119.6 ?
C14 C13 C12 . . 120.9(9) ?
C14 C13 H13 . . 119.6 ?
C13 C14 H14 . . 119.5 ?
C13 C14 C15 . . 121.0(9) ?
C15 C14 H14 . . 119.5 ?
C10 C15 C16 . . 119.2(7) ?
C14 C15 C10 . . 117.6(8) ?
C14 C15 C16 . . 123.2(8) ?
C15 C16 H16 . . 120.6 ?
C17 C16 C15 . . 118.8(7) ?
C17 C16 H16 . . 120.6 ?
C16 C17 H17 . . 119.8 ?
C16 C17 C18 . . 120.3(8) ?
C18 C17 H17 . . 119.8 ?
N2 C18 C17 . . 122.1(8) ?
N2 C18 H18 . . 118.9 ?
C17 C18 H18 . . 118.9 ?
loop_
_geom_bond_atom_site_label_1
_geom_bond_atom_site_label_2
_geom_bond_site_symmetry_2
_geom_bond_distance
_geom_bond_publ_flag
Zn1 Cl1 . 2.215(2) y
Zn1 Cl2 . 2.211(2) ?
Zn1 O1 . 1.959(5) ?
Zn1 O2 . 1.991(4) ?
O1 N1 . 1.351(7) ?
O2 N2 . 1.339(6) ?
N1 C1 . 1.389(8) ?
N1 C9 . 1.316(9) ?
N2 C10 . 1.385(8) ?
N2 C18 . 1.324(9) ?
C1 C2 . 1.395(9) ?
C1 C6 . 1.403(9) ?
C2 H2 . 0.9300 ?
C2 C3 . 1.373(10) ?
C3 H3 . 0.9300 ?
C3 C4 . 1.390(11) ?
C4 H4 . 0.9300 ?
C4 C5 . 1.350(12) ?
C5 H5 . 0.9300 ?
C5 C6 . 1.417(10) ?
C6 C7 . 1.412(10) ?
C7 H7 . 0.9300 ?
C7 C8 . 1.350(11) ?
C8 H8 . 0.9300 ?
C8 C9 . 1.393(10) ?
C9 H9 . 0.9300 ?
C10 C11 . 1.398(10) ?
C10 C15 . 1.412(10) ?
C11 H11 . 0.9300 ?
C11 C12 . 1.366(10) ?
C12 H12 . 0.9300 ?
C12 C13 . 1.421(12) ?
C13 H13 . 0.9300 ?
C13 C14 . 1.344(12) ?
C14 H14 . 0.9300 ?
C14 C15 . 1.399(10) ?
C15 C16 . 1.420(11) ?
C16 H16 . 0.9300 ?
C16 C17 . 1.362(11) ?
C17 H17 . 0.9300 ?
C17 C18 . 1.373(10) ?
C18 H18 . 0.9300 ?
loop_
_geom_hbond_atom_site_label_D
_geom_hbond_atom_site_label_H
_geom_hbond_atom_site_label_A
_geom_hbond_site_symmetry_D
_geom_hbond_site_symmetry_H
_geom_hbond_site_symmetry_A
_geom_hbond_distance_DH
_geom_hbond_distance_HA
_geom_hbond_distance_DA
_geom_hbond_angle_DHA
_geom_hbond_publ_flag
? ? ? ? ? ? ? ? ? ? ?
loop_
_geom_torsion_atom_site_label_1
_geom_torsion_atom_site_label_2
_geom_torsion_atom_site_label_3
_geom_torsion_atom_site_label_4
_geom_torsion_site_symmetry_1
_geom_torsion_site_symmetry_2
_geom_torsion_site_symmetry_3
_geom_torsion_site_symmetry_4
_geom_torsion
_geom_torsion_publ_flag
Zn1 O1 N1 C1 . . . . 127.4(5) ?
Zn1 O1 N1 C9 . . . . -54.6(8) ?
Zn1 O2 N2 C10 . . . . -94.8(6) ?
Zn1 O2 N2 C18 . . . . 88.5(7) ?
O1 N1 C1 C2 . . . . 0.3(10) ?
O1 N1 C1 C6 . . . . -179.2(6) ?
O1 N1 C9 C8 . . . . -179.1(6) ?
O2 N2 C10 C11 . . . . 5.0(9) ?
O2 N2 C10 C15 . . . . -173.8(6) ?
O2 N2 C18 C17 . . . . 174.0(6) ?
N1 C1 C2 C3 . . . . -179.5(6) ?
N1 C1 C6 C5 . . . . 178.5(6) ?
N1 C1 C6 C7 . . . . -2.2(10) ?
N2 C10 C11 C12 . . . . -179.7(7) ?
N2 C10 C15 C14 . . . . 179.0(6) ?
N2 C10 C15 C16 . . . . -1.2(10) ?
C1 N1 C9 C8 . . . . -1.1(11) ?
C1 C2 C3 C4 . . . . 1.4(12) ?
C1 C6 C7 C8 . . . . 0.1(11) ?
C2 C1 C6 C5 . . . . -1.0(11) ?
C2 C1 C6 C7 . . . . 178.3(7) ?
C2 C3 C4 C5 . . . . -1.9(13) ?
C3 C4 C5 C6 . . . . 0.9(13) ?
C4 C5 C6 C1 . . . . 0.5(11) ?
C4 C5 C6 C7 . . . . -178.7(8) ?
C5 C6 C7 C8 . . . . 179.3(7) ?
C6 C1 C2 C3 . . . . 0.0(12) ?
C6 C7 C8 C9 . . . . 1.6(12) ?
C7 C8 C9 N1 . . . . -1.1(12) ?
C9 N1 C1 C2 . . . . -177.7(7) ?
C9 N1 C1 C6 . . . . 2.8(10) ?
C10 N2 C18 C17 . . . . -2.7(11) ?
C10 C11 C12 C13 . . . . 1.4(12) ?
C10 C15 C16 C17 . . . . -0.7(11) ?
C11 C10 C15 C14 . . . . 0.1(11) ?
C11 C10 C15 C16 . . . . 180.0(7) ?
C11 C12 C13 C14 . . . . -1.2(14) ?
C12 C13 C14 C15 . . . . 0.4(14) ?
C13 C14 C15 C10 . . . . 0.1(13) ?
C13 C14 C15 C16 . . . . -179.7(8) ?
C14 C15 C16 C17 . . . . 179.1(8) ?
C15 C10 C11 C12 . . . . -0.9(11) ?
C15 C16 C17 C18 . . . . 1.0(12) ?
C16 C17 C18 N2 . . . . 0.7(13) ?
C18 N2 C10 C11 . . . . -178.3(7) ?
C18 N2 C10 C15 . . . . 2.9(10) ?

_cod_database_fobs_code 2244111
