#------------------------------------------------------------------------------
#$Date: 2022-05-21 05:02:35 +0300 (Sat, 21 May 2022) $
#$Revision: 275592 $
#$URL: file:///home/coder/svn-repositories/cod/cif/2/24/41/2244101.cif $
#------------------------------------------------------------------------------
#
# This file is available in the Crystallography Open Database (COD),
# http://www.crystallography.net/. The original data for this entry
# were provided by IUCr Journals, http://journals.iucr.org/.
#
# The file may be used within the scientific community so long as
# proper attribution is given to the journal article from which the
# data were obtained.
#
data_2244101
loop_
_publ_author_name
'Sathya, Udhayasuriyan'
'Nirmalram, Jeyaraman Selvaraj'
'Gomathi, Sundaramoorthy'
'Dhivya, Durairaj'
'Jegan Jennifer, Samson'
'Abdul Razak, Ibrahim'
_publ_section_title
;
 A study of the crystal structures, supramolecular patterns and Hirshfeld
 surfaces of bromide salts of hypoxanthine and xanthine
;
_journal_coeditor_code           JQ2017
_journal_issue                   6
_journal_name_full               'Acta Crystallographica Section E'
_journal_page_first
;
;
_journal_paper_doi               10.1107/S2056989022005278
_journal_volume                  78
_journal_year                    2022
_chemical_formula_iupac          'C5 H5 N4 O2 +, Br -, H2 O'
_chemical_formula_moiety         'C5 H5 N4 O2 +, Br -, H2 O'
_chemical_formula_sum            'C5 H7 Br N4 O3'
_chemical_formula_weight         251.06
_chemical_name_common
;
Xanthinium bromide monohydrate
;
_chemical_name_systematic
;
2,6-Dioxo-2,3,6,9-tetrahydro-1<i>H</i>-purin-7-ium bromide monohydrate
;
_space_group_crystal_system      monoclinic
_space_group_IT_number           14
_space_group_name_Hall           '-P 2ybc'
_space_group_name_H-M_alt        'P 1 21/c 1'
_atom_sites_solution_hydrogens   difmap
_atom_sites_solution_primary     direct
_atom_sites_solution_secondary   difmap
_audit_creation_method           SHELXL-2018/3
_cell_angle_alpha                90
_cell_angle_beta                 103.003(3)
_cell_angle_gamma                90
_cell_formula_units_Z            4
_cell_length_a                   4.9225(2)
_cell_length_b                   22.7572(17)
_cell_length_c                   7.5601(5)
_cell_measurement_reflns_used    1418
_cell_measurement_temperature    303(2)
_cell_measurement_theta_max      29.6
_cell_measurement_theta_min      2.9
_cell_volume                     825.18(9)
_computing_cell_refinement
;
SAINT (Bruker, 2016)
;
_computing_data_collection
;
APEX2 (Bruker, 2016)
;
_computing_data_reduction
;
SAINT (Bruker, 2016)
;
_computing_molecular_graphics
;
PLATON (Spek, 2020), Mercury (Macrae <i>et al.</i>, 2020)
and <i>POVRay</i> (Cason, 2004)
;
_computing_publication_material
;
PLATON (Spek, 2020) and publCIF (Westrip,2010)
;
_computing_structure_refinement
;
<i>SHELXL2018/3</i> (Sheldrick, 2015<i>b</i>)
;
_computing_structure_solution
;
<i>SHELXT2014/5</i> (Sheldrick, 2015<i>a</i>)
;
_diffrn_ambient_temperature      303(2)
_diffrn_measured_fraction_theta_full 0.965
_diffrn_measured_fraction_theta_max 0.796
_diffrn_measurement_device_type  'Bruker APEXII CCD'
_diffrn_measurement_method       '\f and \w scans'
_diffrn_radiation_type           MoK\a
_diffrn_radiation_wavelength     0.71073
_diffrn_reflns_av_R_equivalents  0.0449
_diffrn_reflns_av_unetI/netI     0.0462
_diffrn_reflns_limit_h_max       6
_diffrn_reflns_limit_h_min       -6
_diffrn_reflns_limit_k_max       30
_diffrn_reflns_limit_k_min       -30
_diffrn_reflns_limit_l_max       9
_diffrn_reflns_limit_l_min       -9
_diffrn_reflns_number            5810
_diffrn_reflns_theta_full        25.000
_diffrn_reflns_theta_max         29.649
_diffrn_reflns_theta_min         2.907
_exptl_absorpt_coefficient_mu    4.963
_exptl_absorpt_correction_T_max  0.561
_exptl_absorpt_correction_T_min  0.316
_exptl_absorpt_correction_type   multi-scan
_exptl_absorpt_process_details
;
(SADABS; Bruker, 2016)
;
_exptl_crystal_colour            colourless
_exptl_crystal_density_diffrn    2.021
_exptl_crystal_description       plate
_exptl_crystal_F_000             496
_exptl_crystal_size_max          0.548
_exptl_crystal_size_mid          0.367
_exptl_crystal_size_min          0.308
_refine_diff_density_max         0.424
_refine_diff_density_min         -0.620
_refine_ls_extinction_method     none
_refine_ls_goodness_of_fit_ref   1.100
_refine_ls_hydrogen_treatment    refxyz
_refine_ls_matrix_type           full
_refine_ls_number_parameters     139
_refine_ls_number_reflns         1855
_refine_ls_number_restraints     9
_refine_ls_restrained_S_all      1.097
_refine_ls_R_factor_all          0.0621
_refine_ls_R_factor_gt           0.0360
_refine_ls_shift/su_max          0.000
_refine_ls_shift/su_mean         0.000
_refine_ls_structure_factor_coef Fsqd
_refine_ls_weighting_details
'w=1/[\s^2^(Fo^2^)+(0.0151P)^2^+1.7175P] where P=(Fo^2^+2Fc^2^)/3'
_refine_ls_weighting_scheme      calc
_refine_ls_wR_factor_gt          0.0687
_refine_ls_wR_factor_ref         0.0802
_reflns_number_gt                1418
_reflns_number_total             1855
_reflns_threshold_expression     'I > 2\s(I)'
_cod_data_source_file            jq2017sup1.cif
_cod_data_source_block           II
_cod_original_sg_symbol_H-M      'P 21/c'
_cod_database_code               2244101
_shelx_space_group_comment
;
The symmetry employed for this shelxl refinement is uniquely defined
by the following loop, which should always be used as a source of
symmetry information in preference to the above space-group names.
They are only intended as comments.
;
_shelx_estimated_absorpt_t_min   0.172
_shelx_estimated_absorpt_t_max   0.310
_shelx_hkl_file
;
   1   0   0   98.99    7.40
  -1   0   0   96.79    7.20
   2   0   0 4379.36  118.09
  -2   0   0 4397.76  115.99
  -3   0   0 5835.92  154.98
   3   0   0 5614.94  158.88
  -4   0   0  304.47   25.70
  -4   0   0  279.07   25.00
  -5   0   0  215.18   25.10
  -5   0   0  184.38   24.30
  -6   0   0  489.55   38.90
  -1  -1   0 1378.06   38.70
   1  -1   0 1389.96   42.20
   1   1   0 1390.56   39.00
  -1   1   0 1387.56   41.40
   2  -1   0 6813.82  177.98
  -2  -1   0 6988.50  172.58
   2   1   0 7071.69  174.18
  -2   1   0 6863.51  175.18
  -3  -1   0  768.42   36.00
   3   1   0  796.52   38.90
  -3   1   0  789.62   47.00
  -4  -1   0 2048.20   74.29
  -4   1   0 2013.30   76.29
  -4   1   0 2153.18   78.19
  -5  -1   0  789.72   44.50
  -5  -1   0  846.22   46.00
  -5   1   0  790.92   46.40
  -5   1   0  768.52   46.40
  -6  -1   0   37.10   15.70
  -6   1   0   10.30   16.50
  -1  -2   0 2634.14   68.39
   1   2   0 2682.63   68.79
  -1   2   0 2723.93   72.29
  -2  -2   0 1059.19   36.70
   2   2   0 1020.20   37.10
  -2   2   0  953.50   39.40
  -3  -2   0 1706.63   59.79
   3   2   0 1768.42   63.19
  -3   2   0 1774.52   64.39
  -3   2   0 1777.02   64.79
  -4  -2   0  525.35   32.80
  -4   2   0  559.44   36.50
  -4   2   0  536.75   36.20
   4   2   0  563.24   36.60
  -5  -2   0  243.88   25.00
  -5  -2   0  230.78   25.90
  -5   2   0  214.38   26.40
  -5   2   0  216.18   27.70
  -6  -2   0  194.38   25.10
  -6   2   0  156.58   26.40
   0  -3   0    0.40    1.80
   0   3   0   -0.10    1.30
  -1  -3   0 3979.00   97.59
  -1   3   0 3834.02  107.89
   1   3   0 3863.61   97.69
  -2  -3   0 1495.45   47.80
   2   3   0 1552.34   49.20
  -2   3   0 1465.15   52.59
  -2   3   0 1452.75   53.69
  -3  -3   0 1088.09   43.90
   3   3   0 1089.19   45.60
  -3   3   0 1180.28   50.09
  -3   3   0 1138.69   49.90
  -4  -3   0  173.08   19.60
  -4   3   0  166.08   22.30
  -4   3   0  162.88   21.90
   4   3   0  168.38   21.00
  -5  -3   0  402.76   30.70
  -5   3   0  432.36   42.70
  -5   3   0  426.06   36.30
  -6  -3   0   10.60   11.30
  -6   3   0   -6.70   15.80
   0  -4   0  183.58   11.80
   0   4   0  219.38   12.50
  -1  -4   0 2392.86   64.79
   1  -4   0 2408.26   76.09
   1   4   0 2368.76   64.99
  -1   4   0 2289.37   70.69
  -2  -4   0  504.55   23.10
  -2   4   0  479.45   28.40
  -2   4   0  432.36   26.00
   2   4   0  456.65   23.10
  -3  -4   0  921.11   39.30
   3   4   0  914.91   40.60
  -3   4   0  970.90   46.90
  -3   4   0  927.41   45.30
  -4  -4   0  200.98   21.20
  -4   4   0  191.28   24.40
  -4   4   0  174.48   23.50
   4   4   0  229.18   22.80
  -5  -4   0  177.78   22.90
  -5  -4   0  161.18   21.00
  -5   4   0  143.59   24.60
  -5   4   0  124.89   22.60
  -6  -4   0   69.29   17.10
  -6   4   0   72.29   22.60
   0  -5   0    1.30    3.10
   0   5   0    2.50    2.80
   1  -5   0 2846.32   81.99
  -1   5   0 2815.82   81.69
   1   5   0 2715.83   76.79
  -2  -5   0  215.58   15.50
  -2   5   0  236.98   25.60
  -2   5   0  264.57   20.90
   2   5   0  243.48   16.80
  -3  -5   0   39.20    8.70
  -3   5   0   30.90   10.50
   3   5   0   40.90   10.20
  -3   5   0   33.10   12.30
   4   5   0   61.39   13.40
  -4   5   0   79.59   18.40
  -4   5   0   75.59   17.70
  -5  -5   0   56.09   13.50
  -5   5   0   65.49   16.90
  -5   5   0   36.10   15.50
  -6   5   0   -1.30   17.90
   0  -6   0   17.80    6.00
   0   6   0   14.40    5.10
   1  -6   0   -1.40    4.10
  -1  -6   0    2.50    3.70
  -1   6   0    0.80    4.00
   1   6   0   -0.70    2.90
  -2  -6   0  361.06   21.10
  -2   6   0  405.66   27.00
   2   6   0  365.46   21.70
  -3  -6   0  148.89   15.80
   3   6   0  179.08   18.00
  -3   6   0  171.68   22.20
  -4  -6   0   -4.70    6.20
  -4   6   0   -5.50    9.40
   4   6   0    1.80    7.20
  -5  -6   0  124.59   18.10
  -5   6   0  125.99   25.00
  -5   6   0  116.89   24.70
  -6  -6   0   39.70   11.40
  -6   6   0  -31.70   18.30
   0  -7   0   -3.40    3.30
   0   7   0    6.90    4.30
   1  -7   0 1252.47   48.10
  -1  -7   0 1180.88   43.70
  -1   7   0 1170.08   47.40
   1   7   0 1197.08   44.10
  -2  -7   0 1421.76   49.90
  -2   7   0 1297.97   59.59
   2   7   0 1345.87   50.09
  -2   7   0 1425.56   57.59
  -3  -7   0    6.50    5.80
  -3   7   0    0.40    7.80
  -3   7   0    1.10    7.70
   3   7   0   -8.60    5.10
  -4  -7   0  310.77   25.20
   4   7   0  317.07   27.40
  -4   7   0  353.96   34.00
  -4   7   0  339.67   32.60
  -5  -7   0  313.27   26.70
  -5   7   0  380.36   39.60
  -5   7   0  339.77   39.80
   5   7   0  348.17   29.60
  -6  -7   0   12.80    9.20
   0  -8   0 9194.58  233.78
   0   8   0 9380.96  233.98
  -1  -8   0 1108.79   44.10
   1  -8   0 1148.69   48.00
  -1   8   0 1230.08   49.50
   1   8   0 1122.79   44.30
  -2  -8   0 1142.69   45.30
  -2   8   0 1191.88   61.59
   2   8   0 1088.49   45.10
  -3  -8   0  658.53   33.60
  -3   8   0  619.54   42.60
  -3   8   0  641.44   41.30
   3   8   0  557.64   33.40
  -4  -8   0  614.84   35.00
   4   8   0  575.24   36.30
  -4   8   0  554.14   43.00
  -4   8   0  644.24   46.80
  -5  -8   0   40.60   13.00
   5   8   0   66.29   15.20
  -5   8   0   60.89   18.70
  -6   8   0   38.00   25.80
   0  -9   0    2.00    5.20
   0   9   0   10.50    6.20
  -1  -9   0 1471.75   55.89
   1  -9   0 1583.44   60.89
  -1   9   0 1577.14   60.89
   1   9   0 1537.65   56.39
  -2  -9   0 5385.96  144.99
  -2   9   0 5186.58  154.58
   2   9   0 5210.98  145.69
  -3  -9   0    4.80    7.70
  -3   9   0   30.00   13.00
   3   9   0   22.40    9.20
  -4  -9   0  332.27   26.70
   4   9   0  321.67   28.40
  -4   9   0  331.17   34.60
  -4   9   0  285.67   33.70
  -5  -9   0  615.24   36.40
   5   9   0  649.93   40.10
  -5   9   0  716.13   54.99
  -6   9   0  -14.60   25.50
   0 -10   0 3510.55  108.39
   0  10   0 3603.14  108.89
   1 -10   0 2758.32   92.49
   1  10   0 2723.03   88.19
  -1  10   0 2782.52   92.99
  -2 -10   0  863.41   40.80
   2 -10   0  802.52   45.40
   2  10   0  869.31   41.60
  -2  10   0  833.92   46.70
  -3 -10   0 3329.57  102.19
  -3  10   0 3325.97  116.59
   3  10   0 3231.18  104.49
  -3  10   0 3075.49  122.79
  -4 -10   0  277.57   25.60
   4  10   0  327.77   28.80
  -4  10   0  255.87   33.50
  -4  10   0  303.77   36.50
  -5 -10   0  133.09   18.20
  -5  10   0  100.49   25.10
   5  10   0  171.98   21.70
   0 -11   0    6.70    6.70
   0  11   0    3.10    6.80
   1 -11   0 6319.47  176.68
   1  11   0 6192.58  171.08
  -1  11   0 6057.99  174.68
  -2 -11   0 2200.68   78.09
   2 -11   0 2263.97   86.79
   2  11   0 2285.07   79.89
  -2  11   0 2283.27   88.09
  -3 -11   0   55.09   13.00
  -3  11   0   53.79   17.00
  -3  11   0   44.10   16.70
   3  11   0   48.20   12.80
  -4 -11   0 1209.78   54.49
  -4  11   0 1281.27   71.39
   4  11   0 1216.98   58.29
  -4  11   0 1282.37   73.09
  -5 -11   0  493.75   33.20
   5  11   0  470.25   35.00
  -5  11   0  522.75   51.29
   0 -12   0 8428.96  223.98
   0  12   0 8211.78  223.78
   1 -12   0  125.29   19.80
   1  12   0  152.48   18.80
  -1  12   0  132.29   21.10
   2 -12   0  635.84   42.60
  -2 -12   0  586.44   36.00
   2  12   0  611.54   37.10
  -2  12   0  647.94   43.30
  -3 -12   0 3388.26  111.29
  -3  12   0 3392.46  134.49
  -3  12   0 3539.45  128.39
   3  12   0 3766.42  116.69
  -4 -12   0   88.99   17.40
  -4  12   0   99.29   25.50
  -4  12   0   87.19   23.80
   4  12   0   76.89   17.40
  -5 -12   0  205.78   24.00
   5  12   0  200.88   24.10
  -5  12   0  193.88   37.90
   0 -13   0    5.80    6.70
   0  13   0    9.30    9.30
   1 -13   0 1032.00   53.99
   1  13   0 1051.79   51.59
  -1  13   0 1035.20   54.29
  -2 -13   0  654.93   39.30
   2 -13   0  715.63   46.60
  -2  13   0  689.13   46.20
   2  13   0  720.33   41.70
  -3 -13   0  487.05   34.60
  -3  13   0  514.95   43.50
  -3  13   0  504.65   47.80
   3  13   0  501.85   36.30
  -4 -13   0  933.21   49.00
  -4  13   0  935.81   63.89
   4  13   0  906.11   51.39
  -5 -13   0  311.37   27.80
  -5  13   0  324.67   48.20
   0 -14   0 2188.38   82.99
   0  14   0 1903.31   79.79
  -1 -14   0 1118.89   55.39
   1 -14   0 1081.29   57.69
  -1  14   0 1158.08   59.49
   1  14   0 1098.29   54.99
   2 -14   0  710.53   48.70
  -2 -14   0  769.52   44.10
   2  14   0  764.02   44.70
  -2  14   0  733.03   49.10
  -3 -14   0  196.48   23.60
  -3  14   0  216.38   35.70
   3  14   0  221.18   25.80
  -3  14   0  251.97   33.00
  -4 -14   0  406.46   33.40
  -4  14   0  431.76   47.80
   4  14   0  380.06   34.30
  -5 -14   0   -3.00    9.70
  -5  14   0  -47.80   17.90
   5  14   0   31.70   13.00
   0 -15   0   -4.90    7.70
   0  15   0   15.50   13.80
  -1 -15   0 1512.85   68.79
   1 -15   0 1512.75   71.59
   1  15   0 1497.85   68.39
  -1  15   0 1571.44   72.89
   2 -15   0 1349.66   69.59
  -2 -15   0 1250.17   60.49
  -2  15   0 1379.96   70.29
   2  15   0 1243.88   61.79
  -3 -15   0  195.18   27.00
  -3  15   0  169.88   33.90
  -3  15   0  160.38   30.10
   3  15   0  193.28   25.90
  -4 -15   0  294.77   30.30
   4  15   0  297.37   31.50
  -4  15   0  274.37   41.20
  -4  15   0  303.47   42.10
  -5 -15   0   -6.60   11.90
  -5  15   0  -31.90   21.30
   0 -16   0  580.44   62.29
   0  16   0  550.54   41.10
   1 -16   0  149.59   26.10
  -1 -16   0  112.79   21.40
   1  16   0  110.79   21.00
  -1  16   0  131.89   25.30
  -2 -16   0  166.68   25.10
   2 -16   0  227.58   29.80
  -2  16   0  155.88   29.00
   2  16   0  214.08   27.00
  -3 -16   0  120.39   21.70
  -3  16   0   58.19   24.10
   3  16   0   79.89   18.40
  -3  16   0   71.89   21.90
  -4 -16   0  -11.40   12.40
   4  16   0   13.50   12.00
  -4  16   0   27.80   19.10
  -4  16   0  -28.50   15.50
  -5 -16   0   -5.80   13.00
  -5  16   0  -34.00   25.00
   5  16   0   67.89   17.70
   0 -17   0  -12.50    9.30
   0  17   0   11.90   12.80
   1 -17   0    7.40   13.80
  -1 -17   0   15.20   11.40
   1  17   0   17.00   11.00
  -1  17   0   27.30   15.40
   2 -17   0  583.64   48.50
  -2 -17   0  683.83   45.90
   2  17   0  613.44   45.30
  -2  17   0  664.73   51.99
  -3 -17   0   87.69   20.10
   3  17   0   71.29   19.60
  -3  17   0   67.29   26.40
  -3  17   0   56.29   21.80
  -4 -17   0   78.99   20.20
  -4  17   0  104.29   28.50
  -4  17   0  103.19   29.10
   4  17   0  133.49   24.30
  -5 -17   0   13.50   15.50
   5  17   0   56.89   16.00
   0 -18   0 1094.79   63.49
   0  18   0 1125.39   64.39
  -1 -18   0  354.66   35.40
   1 -18   0  390.46   38.70
  -1  18   0  477.55   43.30
   1  18   0  391.46   37.00
  -2 -18   0  184.88   28.30
  -2  18   0  218.98   34.90
   2  18   0  239.78   30.30
  -3 -18   0  181.78   28.30
   3  18   0  232.58   30.90
  -3  18   0  174.58   36.60
  -3  18   0  189.78   35.10
  -4 -18   0   66.49   19.00
  -4  18   0   85.39   27.30
  -4  18   0   77.99   31.90
   4  18   0  102.79   18.40
  -5 -18   0   -6.50   14.80
   5  18   0    9.30   15.50
   0 -19   0    0.60   11.80
   0  19   0    8.80   12.20
   1 -19   0 1077.29   65.49
  -1 -19   0  998.20   60.09
   1  19   0  891.41   58.69
  -1  19   0 1036.40   79.79
   2 -19   0  583.24   50.99
  -2 -19   0  544.95   45.00
   2  19   0  510.65   43.80
  -2  19   0  525.55   49.50
  -3 -19   0  -12.10   12.50
  -3  19   0   12.60   19.90
  -3  19   0   -4.20   17.40
   3  19   0    4.80   12.70
  -4 -19   0  285.07   36.50
  -4  19   0  302.97   62.79
   4  19   0  241.68   33.80
  -5 -19   0   13.00   18.20
   5  19   0   38.50   26.00
   0 -20   0  574.44   48.40
   0  20   0  553.84   48.00
  -1 -20   0  225.48   33.50
   1 -20   0  199.08   33.30
  -1  20   0  175.58   31.30
   1  20   0  179.38   31.10
   2 -20   0   15.50   15.50
  -2 -20   0   -4.20   12.20
   2  20   0   25.10   13.90
  -2  20   0   14.80   16.00
  -3 -20   0  771.32   55.29
  -3  20   0  789.32   65.29
   3  20   0  842.22   56.99
  -3  20   0  753.82   70.59
  -4 -20   0  119.49   25.10
  -4  20   0   56.29   33.70
   4  20   0  186.88   29.90
  -5 -20   0  -14.70   24.80
   0 -21   0    7.20   14.20
   0  21   0  -18.00   11.80
  -1 -21   0 2091.89   97.19
   1 -21   0 2083.79  101.39
  -1  21   0 2154.18  102.69
   1  21   0 2072.39   97.19
   2 -21   0  577.24   53.59
  -2 -21   0  647.54   50.59
   2  21   0  643.74   51.29
  -2  21   0  621.04   56.09
  -3 -21   0   -7.60   13.60
  -3  21   0   -3.70   18.10
   3  21   0   -5.10   14.00
  -3  21   0  -12.00   20.80
  -4 -21   0  323.37   41.60
   4  21   0  488.85   45.00
  -4  21   0  307.77   58.29
   0 -22   0 1008.50   68.29
   0  22   0 1047.60   69.49
  -1 -22   0  997.70   66.19
   1 -22   0  973.10   69.49
  -1  22   0  974.00   69.19
   1  22   0 1069.59   68.19
   2 -22   0  401.26   48.30
  -2 -22   0  464.65   45.80
   2  22   0  408.16   44.00
  -2  22   0  433.56   49.99
  -3 -22   0  998.90   64.39
  -3  22   0 1062.59   84.49
   3  22   0 1072.69   69.39
  -3  22   0 1250.77   93.59
  -4  22   0   56.19   37.30
   0 -23   0   17.10   17.10
   0  23   0   15.60   16.10
   1 -23   0 1083.39   74.49
  -1 -23   0 1103.99   71.79
   1  23   0 1187.38   74.49
  -1  23   0 1057.29   73.69
   2 -23   0 1163.38   79.89
  -2 -23   0 1244.78   71.89
   2  23   0 1168.68   72.69
  -2  23   0 1001.40   76.59
  -3 -23   0  -37.60   14.80
  -3  23   0   17.40   21.10
   3  23   0   14.60   16.30
  -3  23   0   25.30   25.20
   0 -24   0  688.83   60.59
   0  24   0  705.73   60.39
  -1 -24   0  188.68   35.60
   1 -24   0  262.57   40.70
  -1  24   0  226.98   40.00
   1  24   0  120.19   29.40
   2 -24   0   33.30   22.40
  -2 -24   0   -1.90   16.20
   2  24   0   21.50   18.00
  -2  24   0   37.10   24.60
  -3 -24   0  365.66   48.20
  -3  24   0  365.46   53.99
  -3  24   0  439.66   66.49
   3  24   0  373.46   47.90
   0 -25   0    1.50   17.60
   0  25   0    3.50   20.40
   1 -25   0  309.17   48.20
  -1 -25   0  378.06   47.90
   1  25   0  316.07   46.10
  -1  25   0  355.36   51.99
  -2 -25   0   25.40   22.60
   2 -25   0    2.90   23.00
  -2  25   0  -28.40   22.30
   2  25   0   70.79   21.80
  -3 -25   0   -2.70   22.00
  -3  25   0   17.80   28.10
  -3  25   0   39.90   30.20
   0 -26   0  273.07   46.70
   0  26   0  281.17   47.00
  -1 -26   0  -15.70   16.50
   1 -26   0   23.60   24.10
  -1  26   0   11.20   21.50
   1  26   0  -31.50   15.20
  -2 -26   0   77.79   30.10
   2 -26   0   61.99   28.10
   2  26   0  108.79   29.00
  -2  26   0   81.29   30.00
  -3  26   0   74.79   39.60
   0 -27   0   -2.20   21.40
   0  27   0  -21.00   21.70
   1 -27   0   31.50   23.60
  -1 -27   0  -26.50   23.90
   1  27   0   13.50   27.60
  -1  27   0  -18.10   19.70
  -2 -27   0   47.80   28.50
  -2  27   0  137.39   34.30
   0 -28   0   80.89   23.80
   0  28   0   17.60   24.40
  -1 -28   0   27.20   28.10
   1 -28   0   25.80   27.30
   1  28   0   34.40   26.80
  -1  28   0   16.70   26.80
  -2  28   0   -5.70   26.90
   0 -29   0   30.40   25.70
   0  29   0  -56.99   22.90
   1 -29   0  253.77   46.80
  -1  29   0  101.39   36.90
  -2  29   0   50.29   30.00
   1 -30   0   13.10   26.80
  -6   0   1   -1.00   13.60
  -5   0   1    6.90    8.50
  -5   0   1   -3.00    8.50
  -4   0   1   10.60    8.40
  -4   0   1    9.30    6.50
  -3   0   1    0.50    4.00
  -3   0   1    2.30    3.40
  -2   0   1   -0.70    1.90
  -2   0   1   -0.80    2.20
  -1   0   1    1.40    1.40
   1   0  -1   -0.30    0.90
   0   0   1   -0.40    1.60
   0   0  -1    5.90    2.40
  -1   0  -1    3.60    3.50
   1   0   1   -0.30    3.10
  -2   0  -1    0.60    4.70
   2   0   1    4.00    5.30
  -3   0  -1    2.70    7.30
   3   0   1    4.40    7.00
   4   0   1   -4.50    7.90
  -4   0  -1   -0.50    8.40
  -5   0  -1    2.40   11.70
  -5   0  -1  -18.00   11.70
  -6   0  -1  -44.80   17.10
  -6  -1   1   21.30    8.80
  -6   1   1   19.20   11.70
  -5  -1   1   -4.60    6.80
  -5  -1   1    9.30    9.30
  -5   1   1   26.40   10.30
  -4  -1   1  392.76   23.00
  -4  -1   1  358.96   21.90
  -4   1   1  380.86   25.40
  -4   1   1  368.96   24.50
  -3  -1   1   37.40    7.00
  -3  -1   1   37.90    7.00
  -3   1   1   34.60    7.70
  -3   1   1   26.20    7.20
  -2  -1   1 1244.78   34.70
  -2  -1   1 1255.77   35.20
  -2   1   1 1366.16   41.60
  -2   1   1 1235.58   39.30
  -1   1   1  502.15   17.80
   0  -1   1   13.20    3.40
   0  -1  -1   10.80    3.00
   0   1   1    9.20    3.00
   0   1  -1   18.10    4.00
   1  -1   1 2125.19   65.69
   1   1   1 2058.29   63.69
  -1   1  -1 2130.09   64.69
   2  -1   1   79.59   13.20
  -2  -1  -1   73.59   12.00
  -2   1  -1   73.29   12.90
   2   1   1  103.99   13.60
  -3  -1  -1  104.49   17.00
   3  -1   1  114.29   20.00
   3   1   1   99.49   17.60
  -3   1  -1  120.39   19.50
  -4  -1  -1   38.10   13.70
   4  -1   1   40.10   14.80
   4   1   1   44.60   15.70
  -4   1  -1   35.20   13.40
  -5   1  -1    2.70   11.20
  -5   1  -1   12.50   13.80
  -6  -1  -1  -23.80   17.40
  -6   1  -1  -37.40   18.10
  -6  -2   1   33.10    6.70
  -6   2   1   52.29   13.90
  -5  -2   1  393.36   23.50
  -5  -2   1  415.26   24.50
  -5   2   1  388.66   29.80
  -5   2   1  398.06   29.90
  -4  -2   1  543.75   26.60
  -4  -2   1  557.44   26.40
  -4   2   1  596.94   32.90
  -4   2   1  567.14   32.30
  -3  -2   1    6.30    4.00
  -3   2   1    1.40    4.30
  -3   2   1    6.00    5.60
  -2  -2   1 5735.53  129.99
  -2  -2   1 5672.13  129.59
  -2   2   1 5370.56  139.69
  -2   2   1 5460.35  142.59
   1  -2  -1 3124.69   83.09
  -1   2   1 3142.49   94.49
   1   2  -1 3367.86   73.79
   1   2  -1 3084.99   73.79
   0  -2   1 1173.58   37.40
   0   2  -1 1251.27   37.80
   0   2   1 1153.78   37.70
   1  -2   1  539.15   27.00
  -1   2  -1  527.55   26.10
  -2  -2  -1  266.97   20.20
   2  -2   1  201.18   19.90
   2   2   1  224.08   19.40
   3  -2   1   31.80   12.00
  -3  -2  -1   12.10    7.60
  -3   2  -1   26.10   10.40
   3   2   1   12.20    9.10
  -4  -2  -1   81.19   16.90
   4   2   1   71.29   18.00
  -4   2  -1   88.69   19.50
  -5  -2  -1  260.87   31.20
  -5   2  -1  274.27   33.20
  -5   2  -1  249.18   32.40
  -6  -2  -1   28.50   19.90
  -6   2  -1   27.10   21.50
  -6   3   1  344.67   31.50
  -5  -3   1  129.99   13.10
  -5  -3   1   77.29   11.00
  -5   3   1   94.89   17.30
  -5   3   1  122.49   18.90
  -4  -3   1  685.13   28.90
  -4  -3   1  712.93   28.80
  -4   3   1  695.43   38.20
  -4   3   1  693.93   37.90
  -3  -3   1 2265.07   60.29
  -3   3   1 2094.39   71.99
  -3   3   1 2212.78   71.69
   2  -3  -1  538.35   25.00
  -2  -3   1  537.55   15.80
  -2   3   1  505.05   24.50
   2   3  -1  520.95   16.10
   1  -3  -1 2874.01   79.19
   1   3  -1 2866.11   69.59
  -1   3   1 2883.61   77.99
   0  -3   1  798.22   29.70
   0   3   1  732.93   28.40
   0   3  -1  766.62   29.00
   1  -3   1 8378.46  220.78
   1   3   1 9175.48  218.38
  -2  -3  -1 1325.07   51.69
   2  -3   1 1454.55   59.39
   2   3   1 1373.76   53.59
  -3  -3  -1 2780.52   94.69
   3  -3   1 2908.21  106.29
  -3   3  -1 2882.81  100.29
   3   3   1 3084.59  101.09
  -4  -3  -1  698.43   42.10
   4   3   1  603.14   44.30
  -4   3  -1  611.74   43.50
  -4   3  -1  614.54   43.30
  -5  -3  -1  418.46   37.90
  -5   3  -1  401.46   48.20
  -5   3  -1  391.86   39.70
   5   3   1  382.76   39.90
  -6  -3  -1  168.68   29.60
  -6   3  -1  146.49   39.40
  -6   4   1    1.10   11.30
  -5  -4   1  491.35   22.20
  -5  -4   1  547.05   23.60
  -5   4   1  448.16   35.10
  -5   4   1  563.24   37.60
  -4  -4   1  915.51   33.40
  -4  -4   1  930.21   33.00
  -4   4   1  877.81   45.20
  -4   4   1  915.21   46.10
  -3  -4   1   19.40    4.70
  -3   4   1   26.20   10.90
  -3   4   1   19.30    7.80
   3   4  -1   16.10    4.50
  -2  -4   1 3626.94   85.79
   2  -4  -1 3524.85   99.49
   2   4  -1 3444.46   85.99
  -2   4   1 3591.74   99.99
   1  -4  -1 6840.12  167.28
  -1  -4   1 6386.26  157.88
   1   4  -1 6774.02  158.48
  -1   4   1 6722.93  167.28
   0   4  -1  638.34   25.60
   0   4   1  589.04   26.00
   0   4  -1  569.34   26.20
   2  -4   1 1547.15   64.29
  -2  -4  -1 1570.34   57.19
   2   4   1 1551.14   58.49
  -2   4  -1 1504.05   63.09
  -3  -4  -1  505.65   32.40
  -3   4  -1  483.75   34.90
   3   4   1  485.05   33.90
  -4  -4  -1 1153.58   56.69
   4   4   1 1213.98   62.39
  -4   4  -1 1180.58   62.39
  -4   4  -1 1183.58   62.39
  -5  -4  -1  681.73   46.00
   5   4   1  549.45   46.70
  -5   4  -1  629.94   49.40
  -6  -4  -1   -9.00   18.20
  -6   5   1  736.13   48.50
  -5  -5   1   17.70    5.20
  -5  -5   1   22.70    4.90
  -5   5   1   27.10   12.00
  -5   5   1   12.60   12.10
  -4  -5   1 1149.19   38.60
  -4  -5   1 1193.98   38.60
  -4   5   1 1221.68   55.99
  -4   5   1 1225.38   56.89
  -3  -5   1 3955.10  101.79
  -3   5   1 4193.48  125.19
   3   5  -1 3966.30  103.09
  -3   5   1 4165.58  121.09
  -2  -5   1  243.28   11.80
   2  -5  -1  239.98   18.50
  -2   5   1  258.57   19.10
   2   5  -1  255.57   12.50
  -1  -5   1 7648.43  178.38
   1  -5  -1 7565.14  187.38
  -1   5   1 7380.76  187.08
   1   5  -1 7131.39  177.88
   0  -5  -1 5280.17  139.69
   0   5  -1 5566.94  138.79
   0   5   1 5274.87  140.09
  -1   5  -1 1155.88   48.90
  -1   5  -1 1286.07   48.90
   1   5   1 1204.48   45.80
  -2  -5  -1  136.59   16.20
  -2   5  -1  105.09   16.70
   2   5   1  126.99   16.40
  -3  -5  -1 4060.39  133.19
  -3   5  -1 4201.88  133.89
   3   5   1 4046.60  128.99
  -3   5  -1 4358.96  135.39
  -4  -5  -1  210.68   25.50
   4   5   1  221.88   28.50
  -4   5  -1  166.28   27.10
  -4   5  -1  219.68   28.80
  -5  -5  -1   93.89   20.10
   5   5   1   64.69   19.70
  -5   5  -1   74.39   22.40
  -6   5  -1  336.07   45.00
  -6   6   1  131.09   24.80
  -5  -6   1  525.95   16.60
  -5  -6   1  546.35   16.80
  -5   6   1  560.74   41.80
  -5   6   1  547.65   40.50
  -4  -6   1 1654.33   49.70
  -4   6   1 1731.13   72.29
  -4   6   1 1623.84   69.39
  -3  -6   1 1001.30   32.90
  -3   6   1 1023.10   50.99
  -3   6   1  967.70   55.09
   3   6  -1  948.71   33.50
  -2  -6   1 2322.97   61.99
   2  -6  -1 2193.68   74.09
  -2   6   1 2234.38   74.39
   2   6  -1 2312.07   63.09
   1  -6  -1 6485.75  166.08
  -1  -6   1 6206.08  156.18
   1   6  -1 6247.48  156.58
  -1   6   1 6392.96  165.48
   0  -6  -1  545.15   27.60
   0  -6   1  531.25   25.90
   0   6   1  535.95   27.40
   0   6  -1  558.44   26.40
  -1   6  -1 1821.92   62.99
  -1   6  -1 1649.13   63.69
   1   6   1 1629.84   58.99
  -2  -6  -1 5322.87  148.49
  -2   6  -1 5426.36  155.48
   2   6   1 5387.66  150.78
  -2   6  -1 5321.47  157.48
  -3   6  -1   -0.40    9.50
   3   6   1  -10.00    7.00
  -4  -6  -1 1938.51   78.59
   4   6   1 1982.70   84.49
  -4   6  -1 1890.91   86.09
  -4   6  -1 2080.29   88.79
  -5  -6  -1  225.98   29.30
  -5   6  -1  160.18   29.60
   5   6   1  159.08   29.60
  -6  -6  -1  -26.90   16.40
  -6   6  -1  -34.40   32.40
  -6   7   1  450.45   44.80
  -5   7   1   64.69   17.80
  -5   7   1   85.29   21.60
  -4   7   1  714.23   44.70
  -4   7   1  804.12   48.40
  -3  -7   1 3091.49   83.39
   3   7  -1 3172.58   85.59
  -3   7   1 3121.19  103.39
  -3   7   1 3043.90  108.09
   2  -7  -1 3707.93  112.69
  -2  -7   1 3706.03   99.19
   2   7  -1 3854.51  100.59
  -2   7   1 3912.01  117.19
   1  -7  -1 2077.19   68.09
  -1  -7   1 1916.41   59.29
   1   7  -1 1954.20   59.79
  -1   7   1 1850.81   65.69
   1   7   1  154.28   16.10
  -1   7  -1  210.38   21.00
  -1   7  -1  171.48   18.10
  -2  -7  -1 1052.19   46.60
  -2   7  -1 1020.10   52.59
   2   7   1 1017.10   47.00
  -2   7  -1 1017.80   52.19
  -3  -7  -1 2104.89   86.49
  -3   7  -1 2004.40   84.09
  -4  -7  -1   30.20   13.70
   4   7   1   35.40   13.70
  -4   7  -1   22.70   14.00
  -4   7  -1   34.40   16.80
  -5  -7  -1   51.59   17.90
  -5   7  -1   66.39   21.60
   5   7   1   50.69   18.10
  -6  -7  -1  267.47   34.80
  -6   8   1   15.50   17.60
  -5   8   1  541.65   44.40
  -5   8   1  427.46   38.90
  -4   8   1 1015.70   58.59
  -4   8   1 1110.69   57.69
  -3  -8   1    0.10    4.00
  -3   8   1    3.10    8.90
   3   8  -1    3.30    5.10
  -3   8   1   11.10    9.40
   2  -8  -1 4461.15  130.59
  -2  -8   1 4406.46  116.49
  -2   8   1 4401.76  134.19
   2   8  -1 4381.76  117.09
   1  -8  -1 3681.83  109.19
  -1  -8   1 3445.66   99.69
  -1   8   1 3530.15  107.89
   1   8  -1 3758.72  101.49
   0  -8  -1  505.35   29.40
   0  -8   1  471.15   27.10
   0   8  -1  510.65   27.70
   0   8   1  462.55   28.20
  -1  -8  -1 2830.92   91.69
  -1   8  -1 2980.70   95.19
  -1   8  -1 2947.51  100.39
   1   8   1 2962.60   92.99
  -2  -8  -1 2777.62   91.49
   2   8   1 2842.02   93.49
  -2   8  -1 2711.23  100.69
  -3  -8  -1    1.50    7.80
  -3   8  -1    3.50    9.80
   3   8   1  -12.70   13.90
  -3   8  -1   10.00   12.30
  -4  -8  -1 1107.09   57.29
  -4   8  -1 1122.89   66.69
   4   8   1 1146.59   61.49
  -4   8  -1 1195.18   67.49
  -5  -8  -1  238.28   31.60
   5   8   1  253.57   41.80
  -5   8  -1  211.88   36.20
  -6  -8  -1    3.00   17.00
  -6   9   1   -4.10   19.40
  -5   9   1   51.89   19.30
  -4   9   1  412.16   38.50
  -4   9   1  413.56   36.90
  -3  -9   1  437.06   23.30
   3   9  -1  486.15   25.80
  -3   9   1  465.45   34.80
   2  -9  -1   -4.40    6.60
  -2  -9   1   12.30    5.80
  -2   9   1   14.90    8.20
   2   9  -1    5.20    5.20
  -1  -9   1  609.14   30.20
   1  -9  -1  592.14   34.60
  -1   9   1  575.84   34.30
   1   9  -1  606.44   30.20
   0  -9  -1  471.35   29.70
   0  -9   1  530.75   29.90
   0   9   1  458.85   29.30
   0   9  -1  470.55   28.30
  -1  -9  -1 1181.68   49.99
  -1   9  -1 1107.79   55.09
   1   9   1 1081.99   48.80
  -1   9  -1 1110.09   51.19
  -2  -9  -1 1519.55   61.69
  -2   9  -1 1539.35   67.79
   2   9   1 1546.95   63.49
  -2   9  -1 1541.55   71.49
  -3  -9  -1  195.58   22.90
   3   9   1  187.08   29.80
  -3   9  -1  180.28   27.90
  -3   9  -1  180.18   27.80
  -4  -9  -1  479.75   37.00
   4   9   1  487.55   40.90
  -4   9  -1  474.55   43.80
  -4   9  -1  516.65   45.20
  -5   9  -1  262.27   45.80
  -5  10   1  261.37   37.30
  -4  10   1   12.10   11.80
  -4  10   1    7.50   11.00
  -3 -10   1  128.49   14.40
   3  10  -1  163.98   16.00
  -3  10   1  122.19   21.40
   2 -10  -1  373.46   29.90
  -2 -10   1  352.96   22.90
  -2  10   1  349.27   29.20
   2  10  -1  406.46   24.80
  -1 -10   1   87.59   13.50
   1 -10  -1  141.59   18.40
   1  10  -1  105.49   14.00
  -1  10   1  101.49   17.10
   0 -10   1 1937.31   71.39
   0 -10  -1 2027.60   73.89
   0  10   1 2006.20   73.79
   0  10  -1 2136.19   73.59
  -1 -10  -1  557.94   33.90
   1  10   1  573.64   34.70
  -1  10  -1  521.35   34.90
  -2 -10  -1    4.50    7.10
   2  10   1   12.40    9.00
  -2  10  -1    6.70    8.80
  -2  10  -1    2.60    9.30
  -3 -10  -1  267.57   26.60
  -3  10  -1  192.58   30.30
   3  10   1  244.98   27.80
  -3  10  -1  182.28   28.30
  -4 -10  -1   25.40   14.30
  -4  10  -1   23.50   17.30
   4  10   1   59.39   17.30
  -5 -10  -1   57.99   19.00
   5  10   1   45.20   18.80
  -5  10  -1   48.10   23.80
  -6 -10  -1  -20.70   17.00
   6  10   1  -11.50   15.70
  -6  11   1   20.50   37.00
  -5  11   1  -12.00   14.70
  -4 -11   1  249.08   26.10
  -4  11   1  197.18   33.50
   4  11  -1  270.27   28.80
  -4  11   1  254.67   31.30
  -3 -11   1    1.30    5.50
  -3  11   1   -3.60    8.40
  -2 -11   1   25.90    8.30
   2 -11  -1    9.70    9.20
  -2  11   1   16.10   10.70
   2  11  -1   15.80    8.60
  -1 -11   1   49.00   10.90
   1 -11  -1   43.70   12.50
   1  11  -1   62.69   12.90
  -1  11   1   67.79   15.00
   0 -11  -1   63.59   13.90
   0 -11   1   55.09   13.00
   0  11   1   48.20   12.80
   0  11  -1   41.10   11.80
  -1 -11  -1   94.79   16.60
   1  11   1  107.29   18.30
  -1  11  -1   84.79   16.10
  -2 -11  -1  150.28   22.10
   2  11   1  181.48   21.90
  -2  11  -1  193.08   29.80
  -2  11  -1  192.68   25.70
  -3 -11  -1  262.17   26.90
  -3  11  -1  149.09   26.50
  -3  11  -1  196.28   31.70
   3  11   1  237.58   29.80
  -4 -11  -1   68.59   17.50
   4  11   1  100.99   21.90
  -4  11  -1   71.09   21.50
  -5 -11  -1   11.80   14.00
  -5  11  -1  -19.10   19.90
  -6 -11  -1   -3.10   19.10
  -5  12   1   -7.90   18.00
  -4 -12   1   96.09   19.40
  -4  12   1  106.59   26.00
  -4  12   1  170.68   28.70
   4  12  -1  117.59   20.80
  -3 -12   1  304.37   23.00
   3 -12  -1  305.67   32.30
  -3  12   1  265.27   31.20
   3  12  -1  272.77   23.20
   2 -12  -1   38.50   13.40
  -2 -12   1   18.40   12.90
  -2  12   1   22.70   13.20
   2  12  -1   15.20   10.90
   1 -12  -1  436.76   33.40
  -1 -12   1  447.96   29.70
   1  12  -1  392.76   28.60
  -1  12   1  355.76   30.50
   0 -12   1    5.90    7.90
   0 -12  -1    5.20    8.00
   0  12   1   10.40   11.60
   0  12  -1   -8.20    5.70
  -1 -12  -1 2103.39   80.69
   1 -12   1 2117.99   82.79
  -1  12  -1 2134.59   83.49
   1  12   1 2162.88   82.09
  -2 -12  -1   45.70   13.00
  -2  12  -1   48.90   17.10
   2  12   1   33.80   12.30
  -2  12  -1   26.70   13.70
  -3 -12  -1  301.17   30.20
  -3  12  -1  366.46   40.40
  -3  12  -1  334.37   36.00
   3  12   1  296.87   31.60
  -4 -12  -1  -19.40   10.00
  -4  12  -1   -5.00   13.50
  -4  12  -1   18.20   17.60
   4  12   1   17.30   15.20
  -5 -12  -1   33.60   16.60
  -5  12  -1  -39.00   20.20
  -6 -12  -1  -31.60   20.70
  -5  13   1  -27.60   15.80
  -4 -13   1  158.88   24.60
  -4  13   1  133.99   30.20
   4  13  -1  180.18   23.20
  -4  13   1  146.69   29.30
  -3 -13   1  248.88   22.40
   3 -13  -1  233.58   29.50
  -3  13   1  250.27   30.90
   3  13  -1  251.37   23.50
  -2 -13   1   55.49   15.10
   2 -13  -1   70.19   17.60
  -2  13   1   71.09   18.00
   2  13  -1   55.09   13.30
   1 -13  -1 2004.60   79.09
  -1 -13   1 1725.03   69.69
   1  13  -1 1819.62   71.09
  -1  13   1 1772.02   75.99
   0 -13   1  207.48   23.20
   0  13   1  235.78   25.50
   0  13  -1  164.38   21.20
  -1 -13  -1  142.29   22.10
   1 -13   1  109.79   20.60
   1  13   1  126.79   21.00
  -1  13  -1  135.69   21.90
  -2 -13  -1  149.39   22.70
  -2  13  -1  151.58   25.60
   2  13   1  141.19   22.40
  -2  13  -1   95.19   23.60
  -3 -13  -1 1343.27   65.59
   3  13   1 1425.96   76.19
  -3  13  -1 1304.87   73.69
  -3  13  -1 1403.76   79.79
  -4 -13  -1  185.18   27.70
   4  13   1  190.48   30.30
  -4  13  -1  207.28   37.60
  -5 -13  -1  132.09   25.80
  -5  13  -1  137.99   36.40
   5  14  -1  276.57   23.20
  -4 -14   1  402.06   32.00
   4  14  -1  355.06   28.90
  -4  14   1  405.56   48.40
   3 -14  -1   26.80   14.80
  -3 -14   1    1.80    8.10
   3  14  -1    0.20    7.90
  -3  14   1   18.00   13.80
   2 -14  -1 2333.77   95.49
  -2 -14   1 2265.57   83.39
   2  14  -1 2501.55   87.09
  -2  14   1 2371.66   96.39
   1 -14  -1 1757.12   76.39
  -1  14   1 1770.52   76.69
   1  14  -1 1694.73   70.39
   0 -14   1  382.06   31.80
   0 -14  -1  379.16   32.00
   0  14  -1  359.76   31.00
   0  14   1  352.96   31.60
   1 -14   1 2097.69   86.99
  -1 -14  -1 2143.09   85.19
  -1  14  -1 2104.59   87.69
   1  14   1 2188.88   86.89
  -2 -14  -1 1632.74   72.49
  -2  14  -1 1547.45   76.59
   2  14   1 1480.55   70.69
  -2  14  -1 1566.94   84.19
  -3 -14  -1   19.90   12.40
   3  14   1   19.30   15.60
  -3  14  -1   65.99   34.10
  -3  14  -1   54.69   20.10
  -4 -14  -1  453.75   40.60
  -4  14  -1  473.85   51.09
  -4  14  -1  461.75   47.20
   4  14   1  417.26   38.90
  -5 -14  -1  233.88   31.50
   5  14   1  247.78   33.90
  -5  14  -1  234.98   44.40
   5  15  -1   35.60    8.20
  -5  15   1   10.90   21.60
  -4 -15   1  279.27   25.90
  -4  15   1  273.57   39.60
   4  15  -1  248.58   25.30
   3 -15  -1 2131.29   95.19
  -3 -15   1 2031.60   77.29
  -3  15   1 2016.80   93.79
   3  15  -1 2138.89   80.79
  -2 -15   1  542.55   36.20
   2 -15  -1  506.55   42.00
  -2  15   1  607.94   45.70
   2  15  -1  525.25   36.50
   1 -15  -1  360.36   33.90
  -1  15   1  474.85   38.60
   1  15  -1  423.96   33.20
   0 -15   1 4297.97  140.39
   0 -15  -1 4370.96  142.89
   0  15   1 4481.35  143.79
   0  15  -1 4181.88  139.49
   1 -15   1 1998.40   84.89
  -1 -15  -1 1910.81   80.89
  -1  15  -1 1753.12   81.69
   1  15   1 1887.51   81.69
  -2 -15  -1 1112.29   60.79
   2  15   1 1153.58   62.39
  -2  15  -1 1264.17   76.39
  -2  15  -1 1260.57   70.29
  -3 -15  -1 1630.94   77.79
  -3  15  -1 1818.72   97.29
   3  15   1 1783.62   92.59
  -3  15  -1 1598.74   86.69
  -4 -15  -1  123.99   26.20
  -4  15  -1   99.49   30.10
   4  15   1  114.49   23.60
  -4  15  -1  182.88   36.30
  -5 -15  -1   98.39   27.60
   5  15   1   94.19   22.70
  -5 -16   1  650.23   31.10
   5  16  -1  548.75   29.80
  -5  16   1  598.54   65.49
  -4 -16   1  368.56   29.70
  -4  16   1  445.66   48.00
   4  16  -1  355.16   29.50
  -4  16   1  403.76   46.40
   3 -16  -1    3.30   13.80
  -3 -16   1    6.00    9.70
  -3  16   1   -6.00   13.30
   3  16  -1   -3.60    9.30
  -2 -16   1 4268.17  134.39
   2 -16  -1 4241.08  147.49
  -2  16   1 4228.58  148.59
   2  16  -1 4011.10  133.49
   1 -16  -1 1370.46   69.49
   1  16  -1 1345.17   64.09
  -1  16   1 1261.57   67.49
   0 -16  -1    8.10   11.40
   0 -16   1   28.80   13.60
   0  16  -1    1.10    9.30
   0  16   1   11.20   10.10
  -1 -16  -1 2298.27   93.79
   1 -16   1 2354.16   96.49
  -1  16  -1 2176.68   94.59
   1  16   1 2322.07   94.79
  -2 -16  -1  573.54   43.30
  -2  16  -1  523.15   46.30
   2  16   1  593.54   44.40
  -2  16  -1  541.95   51.89
  -3 -16  -1   23.50   15.50
  -3  16  -1   44.90   20.30
   3  16   1   20.30   21.40
  -3  16  -1   16.00   18.20
  -4 -16  -1  528.05   60.79
  -4  16  -1  659.73   62.49
   4  16   1  555.24   46.00
  -4  16  -1  619.94   57.79
  -5 -16  -1  201.98   32.90
   5  16   1  217.98   35.40
  -5 -17   1   78.79   13.20
  -5  17   1  115.89   36.80
  -4 -17   1  823.62   45.20
  -4  17   1  719.23   67.79
   4  17  -1  788.62   46.20
  -4  17   1  793.12   63.99
   3 -17  -1 1959.60   96.39
  -3 -17   1 2021.40   81.39
   3  17  -1 2137.39   84.59
  -3  17   1 2085.09   99.79
   2 -17  -1   11.50   18.70
  -2 -17   1    7.20   10.30
   2  17  -1    7.70    9.70
  -2  17   1   18.00   16.10
  -1 -17   1  531.55   47.20
   1 -17  -1  622.54   47.90
   1  17  -1  702.73   45.70
   0 -17  -1 3019.50  115.89
   0 -17   1 2787.92  110.89
   0  17  -1 3099.89  130.69
   0  17   1 3234.48  117.89
   1 -17   1  158.58   28.10
  -1 -17  -1  216.88   28.30
  -1  17  -1  170.48   28.20
   1  17   1  163.68   26.30
  -2 -17  -1  878.41   56.19
  -2  17  -1  923.41   62.49
   2  17   1  909.91   57.39
  -2  17  -1  903.21   68.79
  -3 -17  -1  689.53   50.79
  -3  17  -1  719.93   64.39
  -3  17  -1  664.93   56.39
   3  17   1  611.04   71.89
  -4  17  -1   39.10   25.60
  -4  17  -1   61.09   35.10
   4  17   1   48.30   19.40
  -5 -17  -1   83.79   25.60
   5  17   1   74.79   25.80
  -5 -18   1  168.28   19.90
  -4 -18   1  288.97   29.60
   4  18  -1  297.77   29.40
  -4  18   1  284.77   44.40
  -4  18   1  221.88   43.50
   3 -18  -1  103.49   25.80
  -3 -18   1   83.29   19.50
   3  18  -1   97.09   20.00
  -3  18   1  117.49   27.40
   2 -18  -1  498.05   46.20
  -2 -18   1  568.94   42.60
  -2  18   1  499.35   46.90
   2  18  -1  556.64   42.40
   1 -18  -1 2187.08   97.09
  -1 -18   1 2188.18   91.29
  -1  18   1 2153.38   96.69
   1  18  -1 2083.29   90.49
   0 -18  -1  154.38   28.00
   0  18   1  174.18   29.90
   0  18  -1  211.38   31.70
   1 -18   1 1279.17   70.89
  -1 -18  -1 1253.47   68.49
  -1  18  -1 1181.58   68.89
   1  18   1 1227.68   68.59
  -2 -18  -1 2061.99   92.19
  -2  18  -1 2009.20  108.09
   2  18   1 2088.49   93.69
  -3 -18  -1   64.89   22.60
  -3  18  -1   48.90   21.30
  -3  18  -1   68.59   23.30
  -4  18  -1  615.44   66.69
  -4  18  -1  574.34   71.79
   4  18   1  635.24   48.30
  -5 -18  -1  194.98   34.20
  -4 -19   1   29.40   14.10
  -4  19   1   44.70   28.50
   4  19  -1   40.70   13.80
   3 -19  -1  565.74   52.39
  -3 -19   1  590.14   44.00
   3  19  -1  579.64   43.50
  -3  19   1  532.85   54.09
   2 -19  -1  691.63   54.79
  -2 -19   1  686.23   48.60
   2  19  -1  688.03   49.20
  -2  19   1  724.33   56.89
  -1 -19   1 1176.88   65.89
   1 -19  -1 1406.76   75.79
  -1  19   1 1258.47   72.69
   1  19  -1 1199.38   67.09
   0 -19   1 2328.97   99.89
   0 -19  -1 2329.97  101.79
   0  19  -1 2189.48   97.99
   0  19   1 2284.87  100.79
  -1 -19  -1    7.90   13.10
   1 -19   1   23.20   16.60
  -1  19  -1    2.50   11.70
   1  19   1   -3.00   12.40
  -2  19  -1  583.84   52.69
   2  19   1  440.46   43.70
  -2  19  -1  514.85   55.59
  -3 -19  -1  927.81   70.89
  -3  19  -1  975.70   76.59
  -3  19  -1  907.31   70.49
  -4 -19  -1   23.90   21.20
  -4  19  -1   19.20   32.00
   4  19   1   31.40   20.50
  -5 -20   1  109.19   21.20
  -4 -20   1   83.39   19.90
   4  20  -1  125.79   20.80
  -4  20   1   79.09   34.70
  -3 -20   1  119.69   24.00
   3 -20  -1  123.39   29.40
   3  20  -1  104.29   24.20
  -3  20   1  138.49   32.40
   2 -20  -1  451.85   46.90
  -2 -20   1  510.25   43.10
  -2  20   1  458.35   47.20
   2  20  -1  478.75   42.70
   1 -20  -1    1.10   11.90
  -1 -20   1   11.00   12.70
   1  20  -1   15.30   13.50
  -1  20   1   17.10   16.30
   0 -20   1   30.70   14.60
   0 -20  -1   22.90   15.90
   0  20  -1   23.10   17.10
   0  20   1   42.80   18.40
  -1 -20  -1   67.79   20.70
   1 -20   1   76.79   23.20
  -1  20  -1   38.70   21.20
   1  20   1   73.69   22.60
   2  20   1  336.47   37.90
  -2  20  -1  432.26   47.70
  -2  20  -1  361.16   54.19
  -3 -20  -1    1.90   15.60
  -3  20  -1   51.59   24.80
  -3  20  -1   31.30   21.10
  -4 -20  -1  150.38   31.50
   4  20   1  208.18   35.30
  -4  20  -1  156.08   42.00
  -4 -21   1  -31.30   14.00
   4  21  -1   19.60   13.50
  -4  21   1   18.50   28.80
  -3 -21   1  -29.40   12.50
   3 -21  -1   30.30   18.80
   3  21  -1    3.80   14.30
  -2 -21   1   24.50   16.10
   2 -21  -1   30.60   22.30
  -2  21   1   26.10   16.50
   2  21  -1   27.70   16.50
   1 -21  -1    5.60   13.70
  -1 -21   1  -19.30   11.10
   1  21  -1   25.20   16.70
  -1  21   1  -10.10   15.50
   0 -21  -1  329.57   39.50
   0 -21   1  263.47   38.40
   0  21  -1  321.57   39.00
   0  21   1  403.66   43.20
   1 -21   1   15.30   17.20
  -1 -21  -1  -13.60   12.30
  -1  21  -1    4.70   14.80
   1  21   1   20.00   17.20
  -2  21  -1  117.89   31.70
   2  21   1  126.29   28.70
  -2  21  -1  103.89   31.60
  -3 -21  -1   13.10   21.80
  -3  21  -1   55.99   25.50
   3  21   1    4.10   26.10
  -3  21  -1   11.70   19.10
  -4 -21  -1    3.00   21.80
   4  21   1   -0.60   17.10
  -4  21  -1  -13.00   31.00
  -4 -22   1   43.90   21.00
   4  22  -1   25.70   16.60
  -4  22   1  -39.50   27.90
  -3 -22   1   -1.80   16.60
   3  22  -1    7.10   16.10
   2 -22  -1    5.70   19.70
  -2 -22   1   34.30   18.20
  -2  22   1   46.00   22.50
   2  22  -1   26.30   15.30
   1 -22  -1    6.00   13.80
  -1 -22   1  -10.30   12.70
  -1  22   1  -19.80   14.30
   1  22  -1    0.10   13.80
   0 -22   1    3.10   16.30
   0 -22  -1   33.80   19.30
   0  22   1   20.00   16.50
   0  22  -1   15.70   16.70
  -1 -22  -1   -4.20   14.00
   1 -22   1    7.70   16.50
  -1  22  -1   -5.90   16.60
   1  22   1   -0.10   13.20
  -2  22  -1   36.50   28.40
   2  22   1   43.50   21.40
  -2  22  -1   74.89   26.10
  -3 -22  -1  -21.10   19.20
  -3  22  -1  -10.20   23.00
  -3  22  -1  -44.40   22.30
  -4 -22  -1  -18.20   24.20
  -4 -23   1   -1.60   19.20
   4  23  -1  -32.40   17.00
   3 -23  -1   42.50   24.90
  -3 -23   1   71.69   25.30
  -3  23   1   25.80   24.50
   3  23  -1   20.20   19.80
  -2 -23   1   12.00   16.30
   2 -23  -1    2.00   16.50
  -2  23   1   39.60   21.10
   2  23  -1  -23.30   10.50
   1 -23  -1  120.09   30.70
  -1 -23   1   80.29   24.40
   1  23  -1   91.29   26.50
  -1  23   1  148.99   32.20
   0 -23   1  190.98   34.40
   0 -23  -1  172.68   34.10
   0  23   1  241.28   39.00
   0  23  -1  254.77   39.90
  -1 -23  -1  -18.60   16.00
   1 -23   1    3.70   15.80
   1  23   1   14.10   22.80
  -1  23  -1   -9.30   19.30
  -2  23  -1  170.48   36.30
  -2  23  -1   71.19   29.40
   2  23   1   76.79   25.70
  -3 -23  -1  -38.60   20.00
   3  23   1   47.40   25.00
  -3  23  -1   -2.80   22.30
  -4 -24   1   33.80   26.50
   3 -24  -1    0.80   28.30
  -3 -24   1   18.80   20.00
   3  24  -1   33.50   20.40
  -3  24   1   19.10   26.20
   2 -24  -1  408.16   50.79
  -2 -24   1  334.37   40.80
  -2  24   1  277.77   45.50
   2  24  -1  343.77   42.30
  -1 -24   1  148.59   31.80
   1 -24  -1  129.09   32.40
   1  24  -1  173.68   33.20
   0 -24  -1  -39.50   14.70
   0 -24   1  -24.80   14.00
   0  24   1  -13.10   15.90
   0  24  -1    3.40   16.10
   1 -24   1  106.99   28.50
  -1 -24  -1  141.89   30.60
  -1  24  -1   93.09   28.50
   1  24   1  100.49   30.60
  -2  24  -1  328.07   53.49
  -2  24  -1  247.98   43.80
   2  24   1  306.97   46.70
  -3 -24  -1  -15.70   21.00
   3  24   1    7.30   22.80
  -3  24  -1   53.89   25.40
  -3  24  -1   39.40   27.80
  -3 -25   1  403.46   49.00
   3 -25  -1  230.48   45.60
  -3  25   1  446.56   57.49
   3  25  -1  283.87   40.80
   2 -25  -1  115.09   32.30
  -2 -25   1  121.59   29.10
   2  25  -1   90.29   26.00
  -2  25   1  122.29   33.30
   1 -25  -1   24.90   23.70
  -1 -25   1   35.60   19.60
  -1  25   1   41.10   22.00
   1  25  -1  -17.90   13.90
   0 -25  -1 1604.14   94.89
   0 -25   1 1630.84   94.29
   0  25   1 1358.26  126.49
   0  25  -1 1517.95   91.49
   1 -25   1  124.19   31.20
  -1 -25  -1   44.50   25.90
   1  25   1   56.09   25.90
  -1  25  -1  183.28   37.60
  -2 -25  -1  171.38   34.90
  -2  25  -1  175.08   40.20
  -2  25  -1  191.28   42.40
   2  25   1  167.38   36.80
  -3 -25  -1  216.18   48.40
  -3  25  -1  193.88   48.80
  -3  25  -1  219.48   47.10
  -3 -26   1   29.20   28.60
   2 -26  -1  790.42   73.29
  -2 -26   1  940.11   70.89
  -2  26   1  711.13   69.19
   2  26  -1  809.02   64.69
   1 -26  -1  333.17   49.99
  -1 -26   1  395.56   48.40
  -1  26   1  404.46   55.59
   1  26  -1  264.17   43.40
   0 -26  -1   60.59   27.80
   0 -26   1   97.39   29.30
   0  26  -1   47.20   26.00
   0  26   1   85.59   30.30
  -1 -26  -1  338.67   52.29
  -1  26  -1  314.07   50.99
   1  26   1  374.76   49.90
  -2 -26  -1  402.06   52.39
  -2  26  -1  404.26   67.79
  -2  26  -1  436.66   58.09
   2  26   1  412.16   52.99
  -3  26  -1  -13.70   32.90
  -2 -27   1  116.29   31.10
  -2  27   1   75.49   32.60
   1 -27  -1  442.06   56.39
  -1 -27   1  507.55   57.59
  -1  27   1  356.76   53.19
   1  27  -1  455.45   52.29
   0 -27  -1  702.53   64.89
   0 -27   1  707.73   67.19
   0  27   1  801.82   69.19
   0  27  -1  685.53   65.79
  -1 -27  -1   64.99   31.20
  -1  27  -1   63.99   29.60
   1  27   1   48.70   27.00
  -2 -27  -1  171.08   42.30
  -2  27  -1  224.18   44.80
  -2  27  -1  134.39   46.00
  -2  28   1  564.74   75.29
  -1 -28   1   37.60   30.80
   1 -28  -1   50.89   30.90
   1  28  -1   53.39   31.60
  -1  28   1   78.69   29.70
   0 -28  -1   10.40   26.60
   0 -28   1   52.99   31.60
   0  28   1    2.90   27.30
   0  28  -1    1.70   25.00
  -1 -28  -1  575.24   64.09
   1  28   1  635.04   67.99
  -1  28  -1  436.86   64.09
  -2  28  -1   19.60   28.80
   2 -29  -1   54.39   40.10
  -2  29   1  -35.30   30.20
   1 -29  -1  114.29   40.70
  -1  29   1  139.79   40.70
   0 -29  -1  416.36   60.69
   0 -29   1  466.95   56.99
   0  29   1  500.05   63.19
  -1  29  -1  124.79   36.90
  -2  29  -1  164.08   57.09
   2 -30  -1   -6.50   42.70
  -2  30   1  109.99   48.30
   1 -30  -1  219.08   56.69
  -5   0   2  272.27   12.50
  -5   0   2  271.97   12.60
  -4   0   2  575.64   22.00
  -4   0   2  493.55   21.10
  -3   0   2 3159.08   80.59
  -3   0   2 3194.58   80.79
  -2   0   2 2155.58   56.89
   2   0  -2 2150.88   56.29
  -1   0   2  501.25   21.00
   1   0  -2  472.75   20.70
   1   0   2 1660.33   61.09
  -1   0  -2 1640.84   59.99
  -2   0  -2 4330.87  132.29
   2   0   2 4461.45  135.79
  -3   0  -2 2909.21  103.29
   3   0   2 2757.22  106.19
  -4   0  -2   -6.00   10.80
   4   0   2   15.20   16.30
  -5   0  -2  103.09   23.90
   5   0   2  133.89   32.60
  -5   1   2 1524.05   49.40
  -5   1   2 1501.15   49.00
  -4   1   2 1273.07   43.20
  -4   1   2 1247.38   43.20
  -3   1   2  890.41   30.90
  -3   1   2  751.52   30.00
   2  -1  -2 3764.62   96.69
  -2  -1   2 3844.22   89.79
   2   1  -2 3847.11   89.49
  -2   1   2 3688.33   96.99
   1  -1  -2 3926.81  101.09
  -1  -1   2 3809.62   98.39
  -1   1   2 3831.42  100.79
   1   1  -2 3846.22   98.59
   0  -1   2 1951.70   62.59
   0  -1  -2 1998.90   62.89
   0   1  -2 2055.89   63.09
   0   1   2 1975.00   63.19
   1  -1   2 2989.60   92.69
  -1  -1  -2 2957.20   90.69
   1   1   2 2939.01   91.79
  -1   1  -2 2770.42   90.29
   2  -1   2 2517.45   90.19
  -2  -1  -2 2388.76   85.49
  -2   1  -2 2401.16   86.39
   2   1   2 2532.25   89.19
   3  -1   2  127.89   23.60
  -3  -1  -2  179.08   23.70
  -3   1  -2  121.19   20.10
   3   1   2  152.38   24.80
  -4  -1  -2 1734.93   80.39
   4  -1   2 1739.33   89.19
  -4   1  -2 1811.92   82.89
   4   1   2 1757.52   88.09
  -5  -1  -2  208.28   32.00
  -5   1  -2  186.18   31.80
   5   1   2  224.48   39.40
  -5   2   2   31.40    8.40
  -5   2   2   21.60    8.10
  -4   2   2 1208.98   45.00
  -4   2   2 1188.98   44.60
  -3   2   2 4049.09  106.69
  -3   2   2 3871.51  108.19
   2  -2  -2  109.99   10.20
  -2   2   2   80.89    9.60
  -1  -2   2 7314.07  179.18
   1  -2  -2 7563.04  184.38
  -1   2   2 7459.85  184.08
   1   2  -2 7408.76  179.18
   0  -2  -2 9524.25  235.78
   1  -2   2   89.49   14.40
  -1  -2  -2   89.99   14.00
   1   2   2   88.49   13.80
  -1   2  -2   77.89   13.00
  -2  -2  -2 1187.78   60.59
   2  -2   2 1242.28   57.89
  -2   2  -2 1221.18   55.59
   2   2   2 1230.38   56.39
  -3  -2  -2 1702.73   72.09
   3  -2   2 1572.34   76.49
   3   2   2 1598.94   74.29
   4  -2   2   99.99   24.70
  -4  -2  -2  115.09   22.40
   4   2   2  107.19   25.00
  -4   2  -2   63.59   18.10
  -5  -2  -2  295.27   35.80
   5   2   2  340.77   43.50
  -5   2  -2  242.88   35.90
  -5   3   2  700.93   35.90
  -5   3   2  608.04   35.10
  -4   3   2   93.99   13.60
  -3   3   2  645.64   30.40
   2  -3  -2 3883.11  105.09
  -2   3   2 3872.21  105.09
  -1  -3   2 2211.88   62.29
   1  -3  -2 2272.27   67.39
  -1   3   2 2196.78   66.99
   1   3  -2 2175.08   61.59
   0  -3   2  703.23   31.90
   0  -3  -2  703.93   32.20
   0   3  -2  707.53   31.60
   0   3   2  626.14   30.90
  -1  -3  -2 5219.48  145.79
   1  -3   2 5464.15  150.28
   1   3   2 5118.69  146.19
  -1   3  -2 5255.97  147.19
   2  -3   2  829.82   47.90
   2   3   2  883.71   46.50
  -2   3  -2  925.71   47.30
  -3  -3  -2   17.80   10.70
   3  -3   2   -0.10    8.00
   3   3   2    9.30    8.90
   4  -3   2  485.55   47.20
   4   3   2  563.54   57.99
  -4   3  -2  465.85   41.70
  -5  -3  -2  137.19   28.60
   5   3   2   58.69   22.20
  -5   3  -2   73.99   22.30
  -6   4   2   30.30   11.50
  -5   4   2   91.89   16.00
  -4   4   2  166.88   18.60
  -4   4   2  129.69   17.40
  -3   4   2  446.36   26.40
   2  -4  -2  861.51   36.10
  -2   4   2  848.12   36.00
   1  -4  -2 1378.16   49.30
  -1  -4   2 1358.36   44.80
   1   4  -2 1426.66   44.20
  -1   4   2 1359.26   49.30
   0  -4   2 2022.10   66.99
   0  -4  -2 2141.19   67.79
   0   4   2 1850.31   65.39
   0   4  -2 2026.90   65.89
   1  -4   2 3001.70   98.79
  -1  -4  -2 3057.99   95.49
   1   4   2 2977.00   95.99
  -1   4  -2 3090.89   97.49
   2  -4   2 2121.79   83.99
   2   4   2 2072.59   79.19
  -2   4  -2 1999.50   79.09
   3  -4   2  414.36   38.90
  -3  -4  -2  378.46   32.30
   3   4   2  406.46   36.00
  -3   4  -2  403.76   35.10
  -4  -4  -2   30.20   16.00
  -4   4  -2   49.70   20.00
   4   4   2   37.50   18.00
  -5  -4  -2  120.79   27.50
   5   4   2  149.59   31.40
  -5   4  -2  153.58   32.20
  -6   5   2   19.80   11.10
  -5   5   2   -6.80    9.50
  -5   5   2    5.40    9.60
  -4   5   2   49.60   13.20
  -4   5   2   38.20   11.10
   3  -5  -2   86.19   13.80
  -3   5   2   87.49   16.40
   2  -5  -2   51.19   10.30
   2   5  -2   51.19    4.30
  -2   5   2   44.60   12.20
   2   5  -2   56.19    4.30
   1  -5  -2  608.34   30.60
   1   5  -2  643.34   26.90
  -1   5   2  631.54   31.00
   1   5  -2  564.34   24.90
   0  -5  -2  312.17   22.00
   0  -5   2  282.27   21.50
   0   5  -2  305.87   21.50
   0   5   2  275.37   21.30
   1  -5   2  269.97   24.70
  -1  -5  -2  288.07   23.30
   1   5   2  290.27   23.60
  -1   5  -2  286.17   23.80
   2  -5   2    1.60    6.40
   2   5   2    0.00    6.90
  -2   5  -2   14.40    8.60
   3  -5   2    7.20   10.80
  -3  -5  -2   20.90   11.20
   3   5   2   12.50   10.40
  -3   5  -2   -2.30    9.20
  -4  -5  -2    0.20   12.90
  -4   5  -2    5.80   11.60
   4   5   2   20.60   14.90
  -5  -5  -2  197.28   32.00
   5   5   2  180.68   33.10
  -6   6   2  -17.30   12.50
  -5   6   2    9.70   10.60
  -5   6   2   16.80   11.60
  -4   6   2   -8.80    7.90
  -4   6   2   -3.00    8.00
   3  -6  -2   24.60    9.30
  -3   6   2   31.40    9.90
   2  -6  -2  407.36   26.20
   2   6  -2  371.66   15.50
  -2   6   2  375.96   25.90
   2   6  -2  383.06   16.20
   1  -6  -2 1073.79   44.70
   1   6  -2 1043.20   38.10
  -1   6   2 1078.99   45.20
   1   6  -2 1022.30   39.60
   0  -6   2 1038.70   45.80
   0  -6  -2  993.60   44.40
   0   6   2 1081.29   46.40
   0   6  -2 1037.20   44.70
  -1  -6  -2  335.67   25.70
   1  -6   2  342.57   28.40
   1   6   2  336.77   26.00
  -1   6  -2  338.87   32.70
   2  -6   2   -1.90    7.70
   2   6   2    3.30    8.10
  -2   6  -2   -4.40    6.00
  -3  -6  -2  109.99   20.50
  -3   6  -2   92.79   20.00
   3   6   2  105.59   21.50
  -4  -6  -2  181.48   28.50
   4   6   2  193.48   31.80
  -4   6  -2  205.68   31.90
  -4   6  -2  162.08   28.80
  -5   6  -2   13.10   19.20
   5   6   2   -8.70   15.70
  -6   7   2  -22.60   12.60
  -5   7   2  269.57   29.90
  -5   7   2  337.37   31.90
  -4   7   2   43.10   15.30
  -4   7   2   62.19   15.90
   3  -7  -2  434.46   30.20
  -3   7   2  456.85   31.20
   2  -7  -2  294.97   23.50
  -2   7   2  314.07   24.60
   2   7  -2  302.87   16.60
   2   7  -2  301.67   15.60
   1  -7  -2  157.48   17.30
  -1   7   2  122.09   15.50
   1   7  -2  151.28   13.60
   1   7  -2  111.69   12.70
   0  -7  -2   64.39   12.20
   0   7  -2   74.49   12.90
   0   7  -2   78.89   13.10
  -1  -7  -2   64.99   13.40
  -1   7  -2   53.09   12.50
   1   7   2   41.90   11.60
   2   7   2 1556.14   68.19
  -2   7  -2 1589.04   71.59
  -3  -7  -2   32.50   13.70
   3   7   2   36.50   13.30
  -3   7  -2   25.50   13.80
  -3   7  -2   25.40   12.80
  -4  -7  -2   57.89   17.50
   4   7   2   27.40   15.50
  -4   7  -2   45.40   21.20
  -5  -7  -2  370.76   40.30
  -5   7  -2  407.66   48.40
   5   7   2  438.26   43.50
  -6   8   2   46.30   20.20
  -5   8   2  161.58   24.30
  -5   8   2  166.98   26.50
  -4   8   2  187.78   24.90
  -4   8   2  149.88   24.20
   3  -8  -2 2145.89   79.89
  -3   8   2 2136.29   80.39
   2  -8  -2  452.25   31.00
   2   8  -2  486.95   24.00
  -2   8   2  462.35   31.10
   2   8  -2  436.36   21.40
   1  -8  -2  751.32   39.10
   1   8  -2  681.93   32.00
  -1   8   2  675.83   37.50
   1   8  -2  745.83   36.10
   0   8   2 3678.83  117.09
   0   8  -2 3883.21  115.69
   0   8  -2 4017.50  119.99
  -1  -8  -2 1684.43   67.49
  -1   8  -2 1798.42   70.99
  -1   8  -2 1733.13   71.79
   1   8   2 1692.93   68.59
  -2   8  -2 7593.04  222.58
  -2   8  -2 7714.93  221.38
   2   8   2 8059.89  219.98
  -3  -8  -2  283.77   30.20
  -3   8  -2  324.07   34.40
  -3   8  -2  269.47   32.40
   3   8   2  256.67   31.20
  -4  -8  -2   88.19   21.40
  -4   8  -2   62.79   27.90
  -4   8  -2   53.49   20.00
   4   8   2   77.49   22.60
  -5  -8  -2   62.59   22.70
   5   8   2   99.89   25.50
  -5   8  -2   48.40   24.80
  -6   9   2  135.69   28.00
  -5   9   2 1411.76   98.59
  -4   9   2  259.87   29.60
  -4   9   2  201.28   31.20
   3  -9  -2   93.69   17.60
   3   9  -2  138.29   11.90
  -3   9   2  125.89   20.90
   3   9  -2  130.09    9.80
   2  -9  -2 4528.05  139.79
   2   9  -2 4695.43  124.19
  -2   9   2 4817.22  141.79
   1  -9  -2   54.19   12.90
   1   9  -2   52.29   10.40
   1   9  -2   71.39   13.30
  -1   9   2   63.89   14.20
   0  -9  -2 1314.57   57.49
   0   9  -2 1347.37   59.29
   0   9   2 1287.97   57.69
   0   9  -2 1376.16   56.19
  -1  -9  -2 1388.06   60.29
  -1   9  -2 1247.28   59.69
   1   9   2 1386.16   61.69
  -1   9  -2 1396.66   64.59
  -2   9  -2   -1.80    6.10
  -2   9  -2   26.30   12.70
   2   9   2   18.40   10.10
  -3  -9  -2   69.99   18.90
  -3   9  -2   71.99   20.60
   3   9   2   72.39   20.40
  -3   9  -2   50.09   18.20
  -4  -9  -2 1082.39   62.59
  -4   9  -2 1115.89   69.99
   4   9   2 1033.10   66.29
  -4   9  -2 1115.29   70.29
  -5  -9  -2  219.48   35.10
   5   9   2  336.17   42.10
  -5   9  -2  278.87   42.80
  -6  10   2  646.84   55.29
  -5  10   2   12.40   14.90
  -4  10   2  664.93   50.99
  -4  10   2  762.72   49.10
   3 -10  -2 3381.36  113.99
  -3  10   2 3205.48  112.69
   3  10  -2 3249.57   88.59
   2 -10  -2   24.20   11.00
  -2  10   2   24.00   10.90
   2  10  -2   25.90    7.40
   1 -10  -2 1191.88   55.39
   1  10  -2 1175.78   48.70
  -1  10   2 1168.08   54.89
   0 -10  -2 7032.90  188.08
   0  10   2 6781.42  187.78
   0  10  -2 6245.78  187.48
   0  10  -2 6285.87  181.08
  -1 -10  -2   43.00   12.60
  -1  10  -2   38.70   14.30
   1  10   2   53.59   14.50
  -1  10  -2   54.09   14.20
   2  10   2 1108.99   58.29
  -2  10  -2 1057.89   69.59
  -2  10  -2 1199.98   63.09
  -3 -10  -2 2417.86   96.99
  -3  10  -2 2507.15  107.49
  -3  10  -2 2392.36  104.49
   3  10   2 2504.35  101.89
  -4 -10  -2   36.40   15.30
  -4  10  -2   39.60   19.70
   4  10   2   61.19   20.30
  -4  10  -2   58.69   21.00
  -5 -10  -2  224.58   35.70
   5  10   2  200.38   39.30
  -5  10  -2  226.98   40.40
  -6  11   2  -45.50   20.10
  -5  11   2  584.04   50.29
  -4  11   2  706.83   50.09
  -4  11   2  698.33   53.59
   3 -11  -2   77.09   17.60
  -3  11   2   84.59   20.10
   3  11  -2   76.79   11.30
  -2 -11   2 3915.11  112.79
   2 -11  -2 3968.60  128.99
   2  11  -2 3855.91  113.29
  -2  11   2 4132.79  130.59
   1 -11  -2 5593.64  164.48
   1  11  -2 5519.45  154.58
  -1  11   2 5477.85  163.98
   0 -11  -2   73.49   16.50
   0  11   2  106.29   19.80
   0  11  -2  115.59   20.20
   0  11  -2  102.39   17.80
  -1 -11  -2 7216.48  202.58
  -1  11  -2 7181.48  211.48
   1  11   2 7091.49  203.78
  -1  11  -2 7039.90  204.48
  -2  11  -2 2445.16  100.19
  -2  11  -2 2622.04  105.99
   2  11   2 2431.66   96.49
  -3 -11  -2  153.98   25.70
  -3  11  -2  131.19   26.70
   3  11   2  117.59   23.20
  -3  11  -2  123.89   26.40
  -4 -11  -2 1292.47   70.39
   4  11   2 1291.47   74.69
  -4  11  -2 1173.48   75.99
  -5 -11  -2  131.69   30.70
   5  11   2  204.38   31.50
  -5  11  -2  119.29   33.50
  -6  12   2  172.98   53.59
  -4  12   2 1408.46   73.29
  -4  12   2 1481.45   81.69
   3 -12  -2 1343.17   66.59
  -3 -12   2 1243.38   46.70
  -3  12   2 1276.77   65.59
   3  12  -2 1262.17   48.10
   2 -12  -2  330.27   31.10
  -2 -12   2  265.27   22.10
   2  12  -2  280.37   22.50
  -2  12   2  320.27   30.60
  -1 -12   2 5027.00  145.39
   1 -12  -2 5183.88  155.78
   1  12  -2 4978.50  145.49
  -1  12   2 4922.91  154.48
   0 -12  -2 3109.29  106.89
   0  12  -2 2951.30  109.29
   0  12  -2 2921.01  101.89
   0  12   2 2910.81  105.39
  -1 -12  -2  226.58   26.20
   1  12   2  196.38   25.10
  -1  12  -2  204.58   26.10
  -1  12  -2  182.88   28.50
  -2  12  -2  420.06   39.10
   2  12   2  354.46   34.40
  -2  12  -2  439.66   40.80
  -3 -12  -2 1710.13   78.69
  -3  12  -2 1695.43   86.39
  -3  12  -2 1570.14   86.39
   3  12   2 1564.94   79.39
  -4 -12  -2  168.98   28.60
   4  12   2  230.18   35.60
  -4  12  -2  158.08   32.70
  -4  12  -2  194.58   36.00
  -5 -12  -2   80.09   26.60
   5  12   2  130.89   28.30
  -5  13   2  420.36   46.60
  -4  13   2 1031.40   73.59
   4  13  -2  920.11   33.00
   4  13  -2  958.10   33.10
   3 -13  -2 1118.29   61.99
  -3 -13   2 1047.20   43.70
  -3  13   2 1029.20   59.89
   3  13  -2  984.10   43.70
  -2 -13   2 2021.10   71.69
   2 -13  -2 1935.81   83.29
   2  13  -2 1872.81   70.69
  -2  13   2 1980.40   84.09
  -1 -13   2  795.82   42.70
   1 -13  -2  731.13   46.60
   1  13  -2  761.12   42.00
  -1  13   2  790.82   48.40
   0 -13  -2  536.45   39.30
   0  13  -2  494.85   39.80
   0  13  -2  495.65   36.00
   0  13   2  435.36   36.10
  -1 -13  -2 2360.56   91.89
   1  13   2 2242.68   91.39
  -1  13  -2 2305.37   99.09
  -1  13  -2 2188.58   92.09
  -2  13  -2 1293.77   73.69
   2  13   2 1189.18   64.89
  -2  13  -2 1294.57   69.99
  -3 -13  -2  788.52   53.49
   3  13   2  802.42   55.59
  -3  13  -2  782.22   58.69
  -3  13  -2  841.92   62.69
  -4 -13  -2  178.78   28.30
   4  13   2  232.08   36.30
  -4  13  -2  160.98   34.00
  -4  13  -2  172.58   34.50
  -5 -13  -2   28.00   22.80
   5  13   2   86.39   26.10
  -5  13  -2   31.40   28.10
  -5  14   2   18.60   21.30
  -4  14   2  367.16   39.60
   4  14  -2  368.86   22.20
   4  14  -2  398.06   22.70
  -3 -14   2  461.65   29.60
   3 -14  -2  486.05   42.50
  -3  14   2  431.06   40.90
   3  14  -2  428.16   28.50
  -2 -14   2  110.99   17.70
   2 -14  -2   91.49   20.90
   2  14  -2  118.19   19.00
  -2  14   2  119.09   23.50
  -1 -14   2  782.62   44.80
   1 -14  -2  891.01   52.39
  -1  14   2  679.93   47.50
   1  14  -2  854.11   45.90
   0 -14  -2  760.52   49.10
   0  14  -2  824.32   48.90
   0  14  -2  824.12   53.69
   0  14   2  850.51   51.49
  -1 -14  -2   41.60   15.00
  -1  14  -2   51.19   17.10
  -1  14  -2   48.90   18.20
   1  14   2   36.10   15.20
  -2 -14  -2  193.38   29.60
  -2  14  -2  236.08   34.80
  -2  14  -2  267.87   35.70
   2  14   2  262.17   31.40
  -3 -14  -2  471.65   43.20
   3  14   2  576.24   47.70
  -3  14  -2  538.35   51.89
  -3  14  -2  459.25   47.20
  -4 -14  -2  -15.30   12.30
   4  14   2   -9.70   14.00
  -4  14  -2   22.40   21.70
  -4  14  -2    1.20   18.20
  -5 -14  -2   50.19   30.60
  -5  15   2   -5.50   20.50
  -4  15   2   38.50   18.80
   4  15  -2   45.90   10.80
   3 -15  -2   89.19   22.50
  -3 -15   2  111.59   20.00
  -3  15   2  117.29   26.50
   3  15  -2   84.29   15.30
  -2 -15   2   85.69   16.40
  -2  15   2  117.99   30.30
   2  15  -2   88.19   17.20
   1 -15  -2  480.75   40.30
  -1 -15   2  491.85   35.80
   1  15  -2  508.65   36.80
  -1  15   2  496.55   40.80
   0 -15  -2   21.10   12.20
   0  15   2   11.90   11.30
   0  15  -2   11.80   10.20
  -1 -15  -2  724.63   49.30
  -1  15  -2  675.63   52.89
   1  15   2  667.43   48.30
  -1  15  -2  718.83   50.39
  -2 -15  -2   57.79   17.50
  -2  15  -2   38.80   18.00
  -2  15  -2   60.59   22.80
   2  15   2   78.79   20.80
  -3 -15  -2    9.00   14.80
  -3  15  -2   20.50   17.90
  -3  15  -2   14.60   17.20
   3  15   2    0.00   14.40
  -4 -15  -2  245.78   36.50
   4  15   2  163.98   33.50
  -4  15  -2  237.88   41.50
  -4  15  -2  178.48   37.10
  -5  16   2  -49.20   24.20
   4  16  -2   33.70   10.50
  -4  16   2   25.30   17.50
   3 -16  -2   42.80   16.90
  -3 -16   2   35.50   18.30
   3  16  -2   47.90   13.50
  -3  16   2    8.10   13.70
   2 -16  -2    8.50   12.80
  -2 -16   2    9.70   10.30
   2  16  -2   15.30   10.90
  -2  16   2   -2.50   12.80
  -1 -16   2   35.00   15.40
   1 -16  -2   75.99   19.90
  -1  16   2   57.69   18.40
   1  16  -2   62.09   15.40
   0 -16  -2    3.50   10.40
   0  16  -2   -7.30    9.30
   0  16   2    3.90   10.40
  -1 -16  -2   14.50   13.50
   1  16   2    5.80   11.00
  -1  16  -2    4.50   12.10
  -1  16  -2  -21.30    9.80
  -2 -16  -2   12.60   15.20
  -2  16  -2  -14.70   13.00
  -2  16  -2   -0.30   14.80
   2  16   2   -3.90   11.80
  -3 -16  -2   38.30   19.70
  -3  16  -2   21.20   18.30
   3  16   2   21.40   17.50
  -3  16  -2   77.29   25.40
  -4 -16  -2   54.69   21.30
   4  16   2   46.50   20.30
  -4  16  -2   16.00   19.30
  -4  16  -2   35.00   27.70
  -5  17   2   13.10   27.00
  -4  17   2    9.70   18.80
   4  17  -2   33.70   10.30
   3 -17  -2    0.50   13.70
  -3  17   2   21.40   17.30
   3  17  -2  -18.20    7.90
   2 -17  -2   15.40   12.90
  -2 -17   2   -1.90   11.00
  -2  17   2   -2.70   12.80
   1 -17  -2  281.97   35.30
   1  17  -2  243.08   28.70
  -1  17   2  279.77   33.50
   0 -17  -2   28.80   14.40
   0  17   2   46.90   17.50
   0  17  -2   47.70   17.50
  -1 -17  -2    3.20   13.90
   1  17   2    7.60   13.90
  -1  17  -2   14.80   14.60
  -1  17  -2   14.80   15.90
  -2 -17  -2   82.79   21.80
  -2  17  -2   53.69   20.90
  -2  17  -2   44.00   24.00
   2  17   2   66.79   22.60
  -3 -17  -2  -12.20   13.80
  -3  17  -2  -11.70   16.80
  -3  17  -2  -22.70   16.70
   3  17   2  -15.70   12.80
  -4 -17  -2   54.89   23.70
  -4  17  -2  129.29   39.20
  -4  17  -2  120.69   37.50
   4  17   2  100.09   30.30
   4  18  -2  119.89   17.80
  -4  18   2  145.49   38.80
   3 -18  -2   47.80   20.80
  -3  18   2   20.80   17.90
   3  18  -2   69.89   16.90
   2 -18  -2  245.28   36.30
   2  18  -2  238.98   46.60
  -2  18   2  286.87   36.70
   1 -18  -2  226.98   34.60
  -1  18   2  245.88   36.60
   1  18  -2  243.48   30.10
   0 -18  -2  266.07   33.40
   0  18  -2  290.47   35.20
   0  18   2  313.47   36.30
  -1 -18  -2   13.50   14.10
   1  18   2   12.50   25.30
  -1  18  -2   -3.90   13.50
  -1  18  -2    1.40   12.30
  -2 -18  -2   13.30   15.30
  -2  18  -2   13.70   17.20
  -2  18  -2    1.00   13.80
   2  18   2   24.50   18.40
  -3 -18  -2  274.27   39.60
   3  18   2  268.07   41.10
  -3  18  -2  280.47   47.20
  -3  18  -2  221.88   40.40
  -4 -18  -2   70.99   25.30
   4  18   2   43.20   22.90
  -4  18  -2   21.70   32.60
   4  19  -2  134.39   21.10
   3 -19  -2  208.68   37.00
   3  19  -2  190.78   25.60
  -3  19   2  244.68   40.10
   2 -19  -2  716.53   54.79
   2  19  -2  660.63   49.30
  -2  19   2  736.43   57.69
   1 -19  -2  364.26   41.20
  -1  19   2  393.96   41.60
   1  19  -2  402.26   38.90
   0 -19  -2   37.70   19.10
   0  19  -2   47.90   17.80
   0  19   2   37.50   18.20
  -1 -19  -2 1119.99   82.09
  -1  19  -2 1120.39   76.59
   1  19   2 1003.60   66.19
  -1  19  -2 1020.00   68.19
  -2 -19  -2  470.15   46.10
   2  19   2  428.56   46.90
  -2  19  -2  570.34   57.39
  -2  19  -2  521.75   51.99
  -3 -19  -2  108.89   26.30
  -3  19  -2  165.18   37.40
   3  19   2  110.49   27.60
  -3  19  -2   90.39   29.80
  -4 -19  -2   52.19   25.30
   4  19   2   64.49   27.40
  -4  19  -2   28.40   33.60
   4  20  -2  226.48   26.60
   3 -20  -2 1036.40   72.39
   3  20  -2 1045.50   57.69
  -3  20   2 1035.80   73.79
   2 -20  -2   58.89   22.70
  -2 -20   2   33.50   17.20
   2  20  -2   23.00   13.30
  -2  20   2   65.09   23.20
  -1 -20   2 1263.27   79.89
   1 -20  -2 1726.83   88.79
   1  20  -2 1644.04   82.29
  -1  20   2 1778.72   89.59
   0 -20  -2 1723.33   89.79
   0  20  -2 1805.12   89.69
   0  20   2 1734.73   91.19
  -1 -20  -2   38.10   18.20
  -1  20  -2   46.10   22.60
   1  20   2   18.30   16.20
  -1  20  -2   53.39   24.80
  -2 -20  -2  625.54   52.89
  -2  20  -2  590.64   57.39
   2  20   2  618.14   53.79
  -2  20  -2  593.14   61.19
  -3 -20  -2  552.64   52.59
  -3  20  -2  481.55   57.79
  -3  20  -2  499.05   58.39
   3  20   2  616.74   55.09
  -4 -20  -2   11.20   25.70
  -4  20  -2  -39.80   25.10
   4  21  -2  143.59   22.30
   3  21  -2  128.69   24.30
   2 -21  -2 1864.11   99.19
  -2 -21   2 1803.92   85.89
   2  21  -2 1812.72   86.29
  -2  21   2 1843.42   98.09
   1 -21  -2  149.19   30.50
  -1 -21   2  104.29   24.30
  -1  21   2  100.59   27.00
   1  21  -2   97.19   24.00
   0 -21  -2   28.30   18.30
   0  21   2   12.30   18.10
   0  21  -2    9.80   16.80
  -1 -21  -2 1903.11   96.19
  -1  21  -2 2034.70  101.19
  -1  21  -2 1795.12  105.49
   1  21   2 1865.61   97.59
  -2 -21  -2  423.06   46.00
  -2  21  -2  427.16   52.19
   2  21   2  450.65   50.29
  -2  21  -2  429.56   56.09
  -3 -21  -2  -25.00   17.10
  -3  21  -2   13.10   24.40
   3  21   2   -3.30   17.10
  -3  21  -2    3.10   21.00
   4  22  -2  250.07   28.80
   3 -22  -2  761.32   66.79
  -3 -22   2  801.62   77.89
  -3  22   2  753.12   66.19
   3  22  -2  652.53   49.90
   2 -22  -2   27.60   19.60
   2  22  -2    0.40   11.90
  -2  22   2   -8.10   17.80
   1 -22  -2  230.88   40.30
  -1 -22   2  277.77   35.80
   1  22  -2  259.37   38.00
   0 -22  -2 1458.85   86.09
   0  22   2 1440.36   89.49
   0  22  -2 1477.05   84.49
  -1 -22  -2  125.79   29.50
   1  22   2  144.29   31.60
  -1  22  -2   55.79   26.70
  -2 -22  -2  282.87   41.30
  -2  22  -2  284.57   46.40
  -2  22  -2  233.28   45.70
   2  22   2  259.37   42.40
  -3 -22  -2  771.92   65.29
  -3  22  -2  704.93   82.59
   3  22   2  765.22   64.19
  -3  22  -2  765.02   89.69
   4  23  -2  136.09   25.60
   3 -23  -2   63.19   26.20
  -3 -23   2   24.00   23.20
  -3  23   2  -17.20   23.30
   3  23  -2   82.39   15.50
   2 -23  -2 1020.60   74.79
  -2 -23   2  918.31   62.19
   2  23  -2  967.70   63.29
  -2  23   2  878.31   70.69
   1 -23  -2 1234.18   80.99
  -1 -23   2 1146.29   73.19
   1  23  -2 1189.48   74.29
  -1  23   2 1145.19   77.99
   0 -23  -2  300.17   46.00
   0  23  -2  427.46   48.00
   0  23   2  338.97   48.70
  -1 -23  -2 1081.89   75.79
  -1  23  -2 1225.68   88.89
   1  23   2 1174.18   79.79
  -1  23  -2 1070.89   77.89
  -2 -23  -2   74.59   26.20
   2  23   2  111.99   30.10
  -2  23  -2   83.59   34.10
  -2  23  -2   63.09   30.20
  -3 -23  -2  -23.10   20.50
  -3  23  -2   59.09   30.60
   3  23   2   -1.10   23.00
  -3 -24   2  155.18   30.00
   3 -24  -2  179.98   39.70
  -3  24   2  188.88   40.90
   3  24  -2  107.29   28.60
   2 -24  -2    4.00   21.70
  -2 -24   2   13.70   18.70
   2  24  -2   -1.60   15.10
  -2  24   2   16.20   19.60
   1 -24  -2  713.03   63.59
  -1 -24   2  624.94   54.89
  -1  24   2  607.44   59.89
   1  24  -2  677.83   58.29
   0 -24  -2   77.19   27.70
   0  24  -2   78.89   29.10
   0  24   2   43.00   24.40
  -1 -24  -2   31.80   20.80
  -1  24  -2   13.30   20.10
   1  24   2   33.30   21.70
  -1  24  -2   86.49   29.90
  -2 -24  -2  115.59   33.00
   2  24   2  145.19   35.10
  -2  24  -2  166.68   43.00
  -2  24  -2   78.29   29.90
  -3 -24  -2  160.48   42.70
  -3  24  -2  295.57   50.19
  -3  24  -2   74.69   30.40
   3  25  -2   71.99   23.60
  -2 -25   2  179.38   34.60
   2 -25  -2  168.18   36.90
  -2  25   2  117.99   33.80
   2  25  -2  113.99   29.10
   1 -25  -2  446.36   53.79
  -1  25   2  445.46   52.49
   1  25  -2  263.67   43.50
   0 -25  -2   28.80   21.10
   0  25  -2   75.69   27.30
   0  25  -2  111.59   32.70
   0  25   2   97.69   30.70
  -1 -25  -2  348.17   51.79
  -1  25  -2  515.75   63.59
  -1  25  -2  338.07   52.19
   1  25   2  407.86   52.79
  -2 -25  -2  273.47   46.20
  -2  25  -2  322.07   50.79
  -2  25  -2  240.98   44.70
   2  25   2  253.97   44.20
  -3  25  -2  212.28   49.40
  -3  25  -2  241.38   52.89
  -2 -26   2   29.20   25.10
   2 -26  -2  -46.60   23.50
   2  26  -2   42.90   22.90
  -2  26   2   15.70   22.60
   1 -26  -2   15.20   25.50
  -1  26   2   38.70   26.90
   1  26  -2   30.40   21.20
   0 -26  -2  210.68   43.40
   0  26  -2  186.28   37.90
   0  26   2  244.28   43.80
   0  26  -2  192.38   41.80
  -1 -26  -2   21.40   21.60
  -1  26  -2   18.00   25.50
  -1  26  -2  -15.30   20.80
   1  26   2  -18.70   20.70
  -2 -26  -2  -27.90   25.40
  -2  26  -2   25.90   17.80
   2 -27  -2  111.99   28.20
  -2  27   2  -16.70   24.20
   1 -27  -2    7.10   27.20
  -1  27   2    8.50   25.70
   1  27  -2   45.70   22.90
   0 -27  -2   -5.20   22.00
   0  27  -2    6.30   23.60
   0  27   2   59.99   23.90
  -1 -27  -2  -25.30   25.10
   1  27   2   -1.00   27.00
  -1  27  -2  -42.80   30.90
  -1  27  -2   24.90   26.00
  -2  27  -2   42.60   43.50
  -2  27  -2   24.90   27.30
   2 -28  -2  -57.09   28.90
   1 -28  -2   36.60   29.00
  -1  28   2   18.30   28.20
   0 -28  -2  -13.20   25.60
   0  28   2    0.60   25.70
   0  28  -2   65.49   28.20
  -1 -28  -2  -27.70   27.50
  -1  28  -2   23.90   33.70
  -2  28  -2   19.50   33.40
  -2  28  -2    3.10   33.50
   2 -29  -2    8.10   37.40
  -2  29   2   27.00   30.30
   1 -29  -2  112.69   35.60
  -1  29   2   47.60   30.30
   0 -29  -2  -27.10   34.90
   1 -30  -2  113.29   46.90
  -3   0   3    4.30    3.20
   3   0  -3    1.50    2.50
  -2   0   3    1.50    3.80
   2   0  -3    6.70    4.20
  -1   0   3    0.80    4.80
   1   0  -3    0.50    4.70
   0   0   3    1.60    5.20
   0   0  -3    3.90    5.90
   1   0   3   -0.30    7.10
   2   0   3   -9.30    7.00
  -2   0  -3   -2.80    7.50
  -3   0  -3   -1.10    9.90
   3   0   3   -5.80   11.30
   4   0   3    5.40   15.50
  -4   0  -3  -23.30   10.00
   5   0   3   11.00   21.70
  -5   0  -3  -33.20   18.40
  -4   1   3  490.15   18.70
   3  -1  -3   97.59    9.60
  -3   1   3   85.99    9.90
   2  -1  -3   81.19   10.30
  -2   1   3   69.19   10.10
   2   1  -3   81.69    8.90
   1  -1  -3 2467.45   77.69
  -1  -1   3 2521.25   76.39
  -1   1   3 2384.96   76.89
   1   1  -3 2553.04   76.69
   0  -1  -3  739.13   37.70
   0  -1   3  740.73   38.10
   0   1   3  779.92   39.20
   0   1  -3  858.81   39.80
   1  -1   3  285.37   26.00
  -1  -1  -3  279.97   25.30
  -1   1  -3  260.77   24.70
   2  -1   3 2128.29   89.39
  -2  -1  -3 2092.09   85.59
  -2   1  -3 2329.17   88.99
   2   1   3 2224.58   89.49
   3  -1   3   16.50   11.90
  -3  -1  -3   -2.60   10.30
   3   1   3    5.70   12.60
  -3   1  -3    6.90   12.00
   4  -1   3  -13.00   14.40
  -4  -1  -3   20.40   15.20
  -4   1  -3    2.50   14.60
   4   1   3   10.30   13.20
  -5  -1  -3  120.39   30.60
   5  -1   3   44.40   24.10
  -5   1  -3  118.79   33.50
   5   1   3  125.79   30.30
  -5   2   3  103.49    7.40
  -5   2   3   98.59    7.20
  -4   2   3   27.30    6.70
   2  -2  -3 1481.55   52.09
   2   2  -3 1531.45   46.40
  -2   2   3 1595.24   53.59
  -1  -2   3  308.47   20.30
   1  -2  -3  302.67   21.50
  -1   2   3  337.57   22.50
   1   2  -3  285.97   19.80
   0  -2  -3  815.22   39.50
   0  -2   3  790.02   39.30
   0   2   3  731.73   38.60
   0   2  -3  778.62   38.30
   1  -2   3 3081.09  103.89
  -1  -2  -3 2926.71  100.29
   1   2   3 3094.59  106.59
  -1   2  -3 2941.21  100.89
  -2  -2  -3  324.37   30.50
   2  -2   3  383.46   35.00
  -2   2  -3  300.37   29.90
   2   2   3  325.17   32.00
   3  -2   3   46.00   17.00
  -3  -2  -3   43.90   16.70
  -3   2  -3   40.00   15.80
   3   2   3   41.10   16.00
  -4  -2  -3  501.75   46.50
   4  -2   3  507.55   50.99
   4   2   3  519.05   49.99
   5  -2   3  188.88   41.60
  -5  -2  -3  170.18   34.20
   5   2   3  139.49   36.90
  -5   2  -3  105.19   29.30
  -5   3   3    1.90    5.60
  -5   3   3    2.20    6.30
  -4   3   3 1439.66   51.59
  -4   3   3 1459.65   52.89
   2  -3  -3  663.43   31.60
  -2  -3   3  666.03   26.00
   2   3  -3  613.24   24.50
  -2   3   3  617.64   31.00
  -1  -3   3  464.85   25.40
   1  -3  -3  412.76   26.40
  -1   3   3  396.36   25.90
   1   3  -3  443.76   24.80
   0  -3  -3 2379.16   79.99
   0  -3   3 2345.57   79.99
   0   3  -3 2179.38   76.79
   0   3   3 2226.68   78.99
  -1  -3  -3    1.50    7.50
   1  -3   3    6.10    8.30
   1   3   3    6.30    8.50
  -1   3  -3    4.80    8.10
   2  -3   3  389.06   35.20
  -2  -3  -3  325.87   30.70
  -2   3  -3  276.27   29.80
   2   3   3  298.97   30.80
   3  -3   3  753.62   55.99
  -3  -3  -3  663.83   49.90
   3   3   3  727.03   52.79
  -3   3  -3  747.63   51.79
  -4  -3  -3   66.09   22.10
   4  -3   3   71.39   24.70
   4   3   3   84.49   26.20
  -5  -3  -3   28.10   22.60
  -5   3  -3   59.09   23.40
   5   3   3   25.90   21.00
  -5   4   3  212.18   19.30
  -5   4   3  202.88   18.40
  -4   4   3 1208.68   50.59
  -4   4   3 1147.29   47.60
   3  -4  -3   41.30    9.40
  -2  -4   3 6231.88  160.38
   2  -4  -3 6652.73  173.48
  -2   4   3 6531.95  173.28
   2   4  -3 6709.53  160.38
  -1  -4   3 3609.34  104.49
   1  -4  -3 3755.42  109.79
   1   4  -3 3551.84  103.49
  -1   4   3 3664.33  109.39
   0  -4   3   16.40    8.70
   0  -4  -3    9.90    7.60
   0   4   3   21.80    8.40
   0   4  -3   12.60    7.60
  -1  -4  -3 4617.54  137.49
   1  -4   3 4266.67  137.99
   1   4   3 4399.26  137.49
  -1   4  -3 4450.85  137.19
  -2  -4  -3 2363.46   91.49
   2  -4   3 2431.56  113.69
  -2   4  -3 2313.27   92.99
   2   4   3 2405.96   94.79
   3  -4   3  862.31   59.99
  -3   4  -3  792.42   53.99
   3   4   3  803.32   56.19
  -4  -4  -3  828.52   57.79
   4  -4   3  826.62   66.79
  -4   4  -3  757.12   57.99
   4   4   3  849.91   64.69
  -5  -4  -3   13.80   22.80
   5   4   3   25.40   22.40
  -5   4  -3   46.80   21.80
  -5   5   3   -2.00    8.30
  -5   5   3  -13.60    7.70
  -4   5   3 2439.06   99.39
  -4   5   3 2252.57   78.89
   3  -5  -3 2814.62   89.29
  -3   5   3 2821.52   90.49
   2  -5  -3   56.49   11.90
   2   5  -3   47.20    7.20
  -2   5   3   30.90    9.30
   2   5  -3   63.89    8.00
  -1  -5   3 4389.76  125.19
   1  -5  -3 4555.94  130.69
  -1   5   3 4626.34  131.19
   1   5  -3 4267.67  122.89
   0  -5   3 5004.00  143.59
   0  -5  -3 4704.03  140.79
   0   5   3 4891.51  142.59
   0   5  -3 4753.82  139.59
   1  -5   3   -2.60    5.90
  -1  -5  -3    1.50    8.00
   1   5   3   -3.20    6.60
  -1   5  -3    8.50    8.70
   2  -5   3  795.72   52.89
  -2  -5  -3  794.12   48.50
   2   5   3  836.82   51.19
  -2   5  -3  759.02   50.89
   3  -5   3 1635.54   87.39
   3   5   3 1562.64   80.79
  -3   5  -3 1611.04   79.99
   4  -5   3   11.70   15.30
  -4  -5  -3   26.80   18.10
  -4   5  -3   29.00   19.50
   4   5   3   41.80   19.30
  -5  -5  -3  300.47   43.30
  -5   5  -3  400.36   52.59
   5   5   3  399.66   50.79
  -6   6   3    2.50   14.70
  -5   6   3 2415.56   96.69
  -4   6   3  230.28   23.30
   3  -6  -3 1087.99   48.90
  -3   6   3 1143.69   50.69
   2  -6  -3 6472.75  181.18
   2   6  -3 6821.32  166.88
   2   6  -3 6741.23  164.88
  -2   6   3 6716.43  182.68
   1  -6  -3  913.01   44.10
  -1  -6   3  890.61   41.20
  -1   6   3  851.11   43.20
   1   6  -3  852.81   38.70
   0  -6  -3 3101.29   99.99
   0  -6   3 2931.51   99.69
   0   6   3 2848.31   98.49
   0   6  -3 2913.91   96.89
  -1  -6  -3 6565.84  183.88
   1  -6   3 6132.69  187.58
  -1   6  -3 6619.64  185.98
   1   6   3 6167.78  183.68
   2  -6   3  279.97   32.80
  -2  -6  -3  320.97   30.60
  -2   6  -3  270.37   30.80
   2   6   3  301.27   31.40
   3  -6   3  602.94   52.79
   3   6   3  634.84   50.09
  -3   6  -3  615.34   48.50
  -4  -6  -3  634.14   51.09
  -4   6  -3  726.93   57.49
   4   6   3  619.24   55.79
  -5  -6  -3   78.49   26.90
  -5   6  -3  113.89   34.60
   5   6   3   93.79   28.80
  -6   7   3   60.59   13.70
  -5   7   3   22.40   11.50
  -5   7   3    9.70   11.60
  -4   7   3  643.24   39.80
   3  -7  -3  622.34   36.90
  -3   7   3  639.04   38.10
   2  -7  -3  182.18   20.10
   2   7  -3  152.78   12.60
  -2   7   3  125.59   18.50
   2   7  -3  140.09   13.20
   1  -7  -3 3447.86  110.99
  -1   7   3 3415.96  111.09
   1   7  -3 3637.64  106.29
   0  -7  -3 2494.95   90.39
   0  -7   3 2558.04   92.69
   0   7  -3 2695.53   91.59
   0   7   3 2571.84   91.89
   1  -7   3   74.39   17.90
  -1  -7  -3   83.99   17.20
  -1   7  -3   92.29   19.20
   1   7   3   74.09   17.10
   2  -7   3 1802.22   86.39
  -2  -7  -3 1767.62   77.49
  -2   7  -3 1824.42   81.69
   2   7   3 1627.14   77.99
   3  -7   3 2158.48  105.39
   3   7   3 2045.30   96.39
  -3   7  -3 2232.38   98.59
  -4  -7  -3   28.00   17.60
  -4   7  -3   21.40   16.90
  -4   7  -3   13.60   19.30
   4   7   3   16.30   17.20
  -5  -7  -3  381.36   46.90
   5   7   3  344.47   52.09
  -5   7  -3  334.07   48.90
  -6   8   3   48.40   18.30
  -5   8   3  238.98   29.30
  -5   8   3  240.88   29.30
   4  -8  -3  215.78   24.90
  -4   8   3  165.18   23.10
   3  -8  -3  677.63   40.00
  -3   8   3  670.93   41.10
   2  -8  -3  245.38   24.20
   2   8  -3  288.37   18.20
   2   8  -3  257.77   18.50
  -2   8   3  259.87   25.40
   1  -8  -3 1850.61   73.79
   1   8  -3 1890.01   67.19
   1   8  -3 1870.91   68.79
  -1   8   3 1998.50   75.89
   0  -8   3 1400.76   62.59
   0  -8  -3 1253.77   58.79
   0   8  -3 1260.97   58.09
   0   8   3 1239.18   59.39
  -1  -8  -3 1536.25   67.19
   1  -8   3 1385.36   69.89
  -1   8  -3 1299.37   65.49
   1   8   3 1490.35   68.09
  -2  -8  -3 1044.50   57.39
   2  -8   3 1006.50   63.89
  -2   8  -3  928.41   57.29
   2   8   3 1068.79   60.09
   3   8   3  194.68   32.70
  -4  -8  -3  329.37   39.10
   4   8   3  272.57   42.60
  -4   8  -3  225.18   37.80
  -4   8  -3  285.87   42.00
  -5  -8  -3   74.79   28.80
   5   8   3  169.48   36.50
  -6   9   3   90.29   22.70
  -5   9   3   20.10   13.80
   4  -9  -3  433.56   34.30
  -4   9   3  441.16   35.90
   3  -9  -3 1582.84   69.09
   3   9  -3 1609.74   39.50
  -3   9   3 1740.33   71.89
   2  -9  -3   76.89   16.50
  -2   9   3   56.89   15.00
   2   9  -3   59.59   10.50
   2   9  -3   90.39   13.30
   1  -9  -3 1544.65   68.29
   1   9  -3 1699.23   63.69
   1   9  -3 1634.94   64.69
  -1   9   3 1820.52   72.49
   0  -9  -3  500.95   36.00
   0   9  -3  474.65   34.60
   0   9  -3  473.55   33.70
   0   9   3  471.95   35.70
  -1  -9  -3   -4.40    7.40
   1   9   3    1.70   10.10
  -1   9  -3   10.20    9.80
  -2  -9  -3  524.75   41.00
  -2   9  -3  534.45   43.70
   2   9   3  507.55   42.20
  -3   9  -3  215.68   34.20
   3   9   3  167.28   30.00
  -3   9  -3  183.18   32.10
  -4  -9  -3   26.00   17.20
  -4   9  -3  -20.20   16.30
   4   9   3    2.30   15.90
  -4   9  -3    5.20   15.90
  -5  -9  -3  -20.40   19.50
   5   9   3   53.39   26.20
  -6  10   3   22.60   18.30
  -5  10   3   86.49   23.20
   4 -10  -3  124.59   21.80
  -4  10   3   99.79   20.40
   3 -10  -3   31.90   12.70
   3  10  -3   30.40    6.00
   3  10  -3   32.00    5.70
  -3  10   3   41.10   13.30
   2 -10  -3  940.41   51.89
   2  10  -3  957.20   40.50
   2  10  -3 1025.00   62.99
  -2  10   3  905.41   50.89
   1 -10  -3  146.99   22.40
   1  10  -3  195.08   20.70
  -1  10   3  179.78   26.10
   1  10  -3  178.78   19.10
   0 -10  -3   25.30   11.30
   0  10   3   18.80   10.20
   0  10  -3   12.60    9.40
   0  10  -3   -2.40    7.00
  -1 -10  -3  287.17   30.80
  -1  10  -3  341.77   32.60
  -1  10  -3  262.47   29.70
   1  10   3  277.97   36.80
  -2 -10  -3   69.49   18.80
  -2  10  -3   48.00   17.80
  -2  10  -3   34.20   16.20
   2  10   3   50.09   16.20
  -3 -10  -3  -15.20   17.50
  -3  10  -3   10.30   14.70
  -3  10  -3    2.40   13.90
   3  10   3  -24.60   10.90
  -4 -10  -3  141.39   29.40
  -4  10  -3  196.38   36.60
   4  10   3  146.79   29.70
  -4  10  -3  140.09   30.50
  -5 -10  -3  -33.50   20.60
  -6  11   3   31.10   23.40
   4 -11  -3   19.70   13.90
  -4  11   3   19.50   14.00
   3 -11  -3   -1.10    8.50
   3  11  -3    8.90    5.40
  -3  11   3    1.60    9.30
   3  11  -3    8.90    5.20
   2 -11  -3   44.10   14.70
  -2  11   3   60.89   16.20
   2  11  -3   40.90   10.80
   2  11  -3   55.69   11.40
   1 -11  -3   84.69   18.80
  -1  11   3   71.39   17.90
   1  11  -3   77.19   14.80
   1  11  -3   82.99   16.70
   0 -11  -3  254.97   27.90
   0  11   3  253.17   28.40
   0  11  -3  253.37   27.00
   0  11  -3  262.87   28.20
  -1  11  -3   24.10   12.40
  -1  11  -3  -10.80    7.80
   1  11   3   12.00   11.70
  -2 -11  -3  390.86   37.60
  -2  11  -3  360.66   38.20
   2  11   3  361.56   37.10
  -2  11  -3  356.56   38.90
  -3 -11  -3  338.17   37.90
  -3  11  -3  299.07   39.30
   3  11   3  292.07   36.90
  -3  11  -3  231.48   37.20
  -4  11  -3  -38.10   16.40
  -4  11  -3    8.70   21.10
   4  11   3  -22.80   14.90
  -5 -11  -3  -23.00   28.10
  -6  12   3   -0.60   24.00
  -5  12   3    6.40   18.20
   3 -12  -3   23.60   13.00
  -3  12   3   10.10   12.00
   3  12  -3   16.40    6.90
   3  12  -3   18.30    6.60
   2 -12  -3  562.74   47.90
   2  12  -3  545.65   34.60
   2  12  -3  520.05   31.50
   1 -12  -3  930.41   54.79
   1  12  -3  934.21   48.00
  -1  12   3  973.40   55.49
   1  12  -3 1018.80   53.39
   0 -12  -3  116.39   22.20
   0  12   3  103.69   21.80
   0  12  -3   99.69   20.50
   0  12  -3   88.29   18.60
  -1 -12  -3  795.72   53.79
   1  12   3  731.33   50.99
  -1  12  -3  845.52   53.69
  -1  12  -3  846.52   54.89
  -2 -12  -3  505.35   43.40
  -2  12  -3  501.95   46.40
  -2  12  -3  513.05   46.50
   2  12   3  562.74   46.40
  -3 -12  -3  757.42   56.59
  -3  12  -3  636.44   56.69
  -3  12  -3  695.63   58.09
   3  12   3  752.72   56.99
  -4 -12  -3   23.80   21.60
   4  12   3    1.70   18.20
  -4  12  -3   14.70   19.70
  -4  12  -3   38.00   19.60
  -5  13   3  -26.40   19.20
   4 -13  -3  873.81   57.59
  -4  13   3  984.80   61.69
   3 -13  -3  635.84   47.30
   3  13  -3  592.74   32.40
   3  13  -3  586.84   30.70
  -3  13   3  642.24   47.60
   2 -13  -3   61.39   18.60
   2  13  -3   62.29   13.10
   2  13  -3   53.99   13.90
  -2  13   3   55.49   16.80
   1 -13  -3 1447.56   71.09
   1  13  -3 1500.55   69.79
   1  13  -3 1456.65   64.39
  -1  13   3 1488.55   72.69
   0 -13  -3  629.34   45.20
   0  13  -3  651.43   44.60
   0  13  -3  634.34   46.50
   0  13   3  635.34   45.90
  -1 -13  -3    2.00   11.00
  -1  13  -3    2.80   11.60
  -1  13  -3   -8.90    9.80
   1  13   3   12.00   12.20
  -2 -13  -3  171.48   29.70
  -2  13  -3  162.78   31.20
  -2  13  -3  165.88   31.60
   2  13   3  227.38   34.70
  -3 -13  -3   66.89   22.10
  -3  13  -3   42.20   20.80
   3  13   3   54.59   20.00
  -3  13  -3   41.10   20.20
  -4  13  -3  108.89   31.90
  -4  13  -3   87.09   28.30
  -5  14   3  257.57   41.60
   4 -14  -3   29.90   16.40
  -4  14   3   26.20   17.50
   3 -14  -3   73.49   20.30
   3  14  -3   62.89   12.60
   3  14  -3   82.79   14.80
  -3  14   3   91.19   22.70
   2 -14  -3 1206.78   65.99
  -2  14   3 1107.89   63.69
   2  14  -3 1084.19   51.89
   2  14  -3 1096.99   56.49
   1 -14  -3  484.95   40.30
  -1  14   3  444.56   39.60
   1  14  -3  418.26   33.80
   1  14  -3  404.16   35.50
   0 -14  -3   31.10   13.90
   0  14  -3   27.40   12.70
   0  14  -3   20.00   13.90
   0  14   3   26.50   15.30
  -1 -14  -3 1382.46   73.79
  -1  14  -3 1485.85   76.59
   1  14   3 1335.17   74.09
  -1  14  -3 1629.74   81.89
  -2 -14  -3  311.97   35.30
   2  14   3  359.86   39.70
  -2  14  -3  367.56   41.60
  -2  14  -3  321.77   39.40
  -3 -14  -3    7.60   15.50
  -3  14  -3   11.90   17.00
  -3  14  -3   14.00   17.10
   3  14   3   -7.30   12.80
  -4 -14  -3  576.84   63.89
  -4  14  -3  593.64   61.79
   4  14   3  653.93   84.09
  -4  14  -3  509.75   55.49
  -5  15   3   23.00   24.30
   4 -15  -3  285.07   37.50
   4  15  -3  337.27   12.70
  -4  15   3  315.77   43.20
   3 -15  -3 1533.75   80.49
   3  15  -3 1569.34   65.09
   3  15  -3 1609.44   61.79
  -3  15   3 1567.44   81.69
   2 -15  -3   84.59   22.00
  -2  15   3  108.59   23.70
   2  15  -3  115.49   21.40
   2  15  -3  107.09   19.00
   1 -15  -3  655.43   49.70
  -1  15   3  808.42   54.09
   1  15  -3  896.31   50.29
   1  15  -3  748.03   50.99
   0 -15  -3 2729.63  109.09
   0  15  -3 2609.64  112.19
   0  15  -3 2867.81  108.19
   0  15   3 2506.15  106.89
  -1 -15  -3   18.80   13.50
  -1  15  -3    4.80   12.00
   1  15   3   -6.10   10.90
  -1  15  -3    6.00   13.30
  -2 -15  -3 1362.66   74.29
  -2  15  -3 1153.98   73.99
  -2  15  -3 1182.88   76.19
   2  15   3 1292.17   74.99
  -3 -15  -3  593.84   52.89
   3  15   3  601.34   54.79
  -3  15  -3  607.34   58.59
  -3  15  -3  643.24   59.19
  -4 -15  -3   -0.20   19.60
  -4  15  -3   27.90   27.50
   4  15   3   14.20   21.80
  -5  16   3  312.87   51.59
   4 -16  -3  197.78   34.90
  -4  16   3  244.38   37.50
   4  16  -3  225.78   15.60
   4  16  -3  242.38   16.50
   3 -16  -3  322.77   39.00
   3  16  -3  415.26   30.70
   3  16  -3  343.07   30.20
  -3  16   3  408.46   43.10
   2 -16  -3 2568.24  111.29
   2  16  -3 2796.32  106.59
   2  16  -3 2802.62   99.49
  -2  16   3 2799.82  114.59
   1 -16  -3  561.24   46.40
   1  16  -3  565.74   41.80
   1  16  -3  561.94   45.40
  -1  16   3  533.85   46.00
   0 -16  -3 1336.07   73.29
   0  16  -3 1328.87   70.39
   0  16  -3 1345.87   76.19
   0  16   3 1248.68   71.79
  -1 -16  -3 2461.45  106.79
   1  16   3 2630.24  111.49
  -1  16  -3 2554.54  110.79
  -1  16  -3 2386.56  111.99
  -2 -16  -3  178.88   31.50
  -2  16  -3  143.49   32.10
   2  16   3  175.48   32.70
  -2  16  -3  205.78   36.90
  -3 -16  -3   26.60   19.80
   3  16   3   69.39   23.90
  -3  16  -3   49.80   26.90
  -3  16  -3   25.10   21.30
  -4 -16  -3  678.13   63.09
  -4  16  -3  815.62   76.79
   4  16   3  873.11   67.49
  -5  17   3  -13.10   29.50
   4  17  -3  465.45   26.80
   4  17  -3  508.15   26.70
   3 -17  -3 1339.57   77.99
   3  17  -3 1295.27   58.99
   3  17  -3 1372.76   64.59
  -3  17   3 1358.06   78.79
   2 -17  -3   32.10   18.80
  -2  17   3   26.00   15.80
   2  17  -3   32.20   13.90
   2  17  -3   37.80   15.20
   1 -17  -3 1755.32   85.49
  -1  17   3 1484.35   80.79
   1  17  -3 1554.14   75.29
   1  17  -3 1609.44   82.49
   0 -17  -3 1176.88   70.99
   0  17  -3 1358.36   72.19
   0  17   3 1358.46   75.99
   0  17  -3 1247.48   75.09
  -1 -17  -3  176.78   31.40
  -1  17  -3  156.58   30.80
  -1  17  -3  114.79   28.50
   1  17   3  187.68   33.80
  -2 -17  -3 1612.54   84.79
  -2  17  -3 1522.15  106.99
   2  17   3 1378.76   82.09
  -2  17  -3 1523.85   90.59
  -3 -17  -3  987.40   70.19
  -3  17  -3  920.61   73.79
   3  17   3  971.20   69.89
  -3  17  -3  933.41   75.39
  -4 -17  -3  -47.60   22.30
  -4  17  -3  -29.40   24.90
   4  17   3  -32.60   19.60
   4  18  -3  190.08   18.10
   3 -18  -3  443.36   45.30
   3  18  -3  412.76   32.70
   3  18  -3  421.86   36.50
  -3  18   3  359.46   44.40
   2 -18  -3 1331.47   77.29
   2  18  -3 1264.77   69.79
   2  18  -3 1200.78   63.09
  -2  18   3 1307.77   76.99
   1 -18  -3  545.85   48.80
   1  18  -3  570.54   49.70
   1  18  -3  591.64   44.80
  -1  18   3  519.95   48.60
   0 -18  -3  497.15   46.00
   0  18  -3  525.15   49.30
   0  18   3  443.66   44.70
   0  18  -3  367.46   40.90
  -1 -18  -3  732.53   57.39
  -1  18  -3  764.82   62.69
   1  18   3  786.02   60.49
  -1  18  -3  812.92   61.09
  -2 -18  -3  268.37   40.70
  -2  18  -3  319.07   49.90
  -2  18  -3  259.17   43.20
   2  18   3  312.97   41.20
  -3 -18  -3   34.60   22.90
  -3  18  -3   27.90   20.10
  -3  18  -3   37.50   23.00
   3  18   3   41.30   21.20
  -4 -18  -3  153.48   37.50
  -4  18  -3  162.18   46.90
   4  19  -3  169.98   19.90
   3 -19  -3  126.89   30.80
   3  19  -3   81.69   19.70
  -3  19   3   89.79   29.00
   3  19  -3  156.98   23.00
   2 -19  -3  517.55   50.29
   2  19  -3  649.24   46.50
  -2  19   3  605.84   54.29
   2  19  -3  726.43   76.09
   1 -19  -3  581.24   52.69
  -1  19   3  584.24   55.19
   1  19  -3  621.64   47.50
   1  19  -3  558.74   50.49
   0 -19  -3  875.91   63.39
   0  19  -3  914.01   66.69
   0  19   3  946.41   79.59
   0  19  -3  954.90   91.89
  -1 -19  -3  100.89   26.20
  -1  19  -3   49.40   21.20
   1  19   3   83.39   26.00
  -1  19  -3   76.59   28.00
  -2 -19  -3  401.36   45.40
  -2  19  -3  487.35   53.39
   2  19   3  480.85   50.29
  -2  19  -3  410.86   51.99
  -3 -19  -3  144.99   39.50
  -3  19  -3  159.78   40.30
  -3  19  -3  185.38   40.00
   3  19   3  169.98   37.50
  -4  19  -3  -23.90   39.90
   4  20  -3   81.29   16.00
   3 -20  -3  397.16   46.90
  -3  20   3  403.76   48.30
   3  20  -3  438.86   37.80
   2 -20  -3   86.79   25.10
  -2  20   3  111.39   29.30
   2  20  -3   77.09   20.90
   2  20  -3  111.59   25.50
   1 -20  -3  136.29   37.20
   1  20  -3  112.49   26.60
   1  20  -3  210.48   36.60
  -1  20   3  128.29   29.90
   0 -20  -3  272.77   39.90
   0  20   3  276.07   42.10
   0  20  -3  333.07   41.80
   0  20  -3  312.37   39.50
  -1 -20  -3   26.10   18.70
  -1  20  -3   41.70   22.00
   1  20   3   88.09   25.30
  -1  20  -3   67.69   38.50
  -2 -20  -3   78.89   26.10
  -2  20  -3   67.79   26.60
  -2  20  -3   60.89   27.10
   2  20   3   63.19   22.90
  -3 -20  -3   79.49   39.50
  -3  20  -3   20.30   23.70
   3  20   3   92.09   26.90
  -3  20  -3   45.90   28.50
   4  21  -3  -15.30   11.10
   3 -21  -3  180.28   36.90
   3  21  -3  241.98   29.10
  -3  21   3  134.19   33.00
   2 -21  -3   47.30   23.30
   2  21  -3   49.50   19.00
  -2  21   3   30.60   23.00
   2  21  -3   45.60   19.60
   1 -21  -3  248.48   38.20
  -1  21   3  179.08   35.90
   1  21  -3  229.68   35.80
   1  21  -3  254.07   40.50
   0 -21  -3   54.79   21.70
   0  21   3   34.70   22.20
   0  21  -3   76.09   23.60
   0  21  -3   55.09   23.10
  -1 -21  -3  102.09   29.10
   1  21   3   89.39   29.40
  -1  21  -3   65.59   24.60
  -1  21  -3   94.49   27.20
  -2 -21  -3   74.29   27.40
  -2  21  -3   64.49   27.20
  -2  21  -3   60.99   27.20
   2  21   3   42.00   24.00
  -3 -21  -3   20.30   34.00
  -3  21  -3   48.80   33.20
   3  21   3   66.19   23.30
  -3  21  -3  -27.40   27.80
   4  22  -3   64.39   17.60
   3 -22  -3   99.09   30.60
  -3  22   3   37.50   24.00
   3  22  -3   77.49   20.00
   2 -22  -3  -13.80   18.90
   2  22  -3  -23.00   14.20
   1 -22  -3   47.00   22.30
  -1  22   3   38.20   22.10
   1  22  -3   43.80   20.10
   1  22  -3   73.89   24.90
   0 -22  -3   63.99   23.40
   0  22  -3   36.80   22.10
   0  22  -3   88.89   27.50
   0  22   3   61.29   26.60
  -1 -22  -3   79.09   25.60
  -1  22  -3   32.00   24.00
   1  22   3   11.10   21.00
  -1  22  -3   66.99   26.20
  -2 -22  -3   23.00   22.40
  -2  22  -3  -12.80   24.00
   2  22   3   36.60   20.60
  -2  22  -3    8.90   25.20
  -3 -22  -3   25.90   36.30
  -3  22  -3  -37.20   19.80
  -3  22  -3   -4.80   23.00
   4  23  -3   85.39   18.60
   3 -23  -3   51.09   29.80
  -3  23   3   90.89   32.00
   3  23  -3   44.10   20.20
   2 -23  -3   58.79   24.40
  -2  23   3   19.10   23.10
   2  23  -3   59.69   20.30
   1 -23  -3  140.49   34.70
   1  23  -3  209.28   36.30
  -1  23   3  163.78   35.50
   1  23  -3  186.78   37.70
   0 -23  -3  121.29   32.20
   0  23   3   75.49   28.80
   0  23  -3   82.29   27.20
  -1 -23  -3    8.10   19.90
  -1  23  -3   12.10   20.50
   1  23   3  -21.30   17.80
  -1  23  -3   14.90   25.40
  -2 -23  -3   36.60   26.20
  -2  23  -3   95.79   32.30
   2  23   3    0.90   20.10
  -2  23  -3   17.90   24.40
  -3  23  -3  151.58   33.60
  -3  23  -3  126.89   44.60
   3  24  -3  242.78   31.20
   2 -24  -3  108.89   33.70
  -2  24   3  104.59   30.40
   2  24  -3  114.69   29.20
   1 -24  -3  186.98   36.20
   1  24  -3  184.98   59.19
  -1  24   3  189.98   35.60
   1  24  -3  140.39   31.20
   0 -24  -3  134.39   33.00
   0  24   3   54.09   27.80
   0  24  -3  103.99   31.50
   0  24  -3  102.39   30.00
  -1 -24  -3  304.67   48.00
  -1  24  -3  257.67   44.60
  -1  24  -3  249.18   46.10
   1  24   3  218.58   44.30
  -2 -24  -3   86.79   32.80
  -2  24  -3  191.78   38.50
   2  24   3   14.80   48.00
  -2  24  -3   67.89   32.20
  -3  24  -3   17.10   33.00
  -3  24  -3  -49.20   29.30
   3  25  -3  344.37   51.19
   2 -25  -3   20.60   36.90
   2  25  -3   25.60   18.00
   1 -25  -3  670.93   62.79
   1  25  -3  549.45   57.19
  -1  25   3  438.96   55.89
   0 -25  -3  101.69   31.30
   0  25   3  172.98   41.10
   0  25  -3  131.89   36.60
   0  25  -3  112.59   30.80
  -1 -25  -3   39.80   24.50
  -1  25  -3   54.29   26.90
   1  25   3   -7.80   23.90
  -1  25  -3   48.90   30.00
  -2  25  -3  187.48   44.60
  -2  25  -3  261.27   48.10
   2 -26  -3  512.05   60.99
  -2  26   3  334.77   51.29
   2  26  -3  285.57   43.60
   1 -26  -3   65.09   29.00
  -1  26   3  135.39   34.30
   1  26  -3  132.09   33.20
   0  26  -3  -21.00   21.60
   0  26   3   13.10   24.80
  -1 -26  -3  556.94   66.89
  -1  26  -3  671.23   74.79
   1  26   3  846.02   88.99
  -1  26  -3  552.54   64.79
  -2  26  -3   14.50   32.00
  -2  26  -3  107.69   41.80
   2 -27  -3   34.50   26.50
  -2  27   3   -4.30   26.20
   1 -27  -3  348.47   54.09
  -1  27   3  272.27   48.00
   0 -27  -3 1163.48   84.59
   0  27   3 1003.30   83.89
   0  27  -3 1137.69   84.79
  -1 -27  -3  -48.30   24.90
  -2  27  -3  305.07   58.69
   2 -28  -3  660.33   73.59
  -2  28   3  622.34   74.89
   1 -28  -3   22.10   33.90
  -1  28   3  -21.10   24.10
   0 -28  -3   82.79   31.40
   0  28   3   39.10   31.90
   1 -29  -3   75.99   40.20
  -1  29   3   50.89   35.30
   3   0  -4 2926.91   83.69
  -3   0   4 3126.29   85.69
  -2   0   4  212.98   18.60
   1   0  -4 9999.00  257.57
  -1   0   4 9920.01  257.37
   0   0   4 2996.90  103.29
   0   0  -4 2992.80  101.69
  -1   0  -4  202.88   26.00
   1   0   4  162.08   26.30
   2   0   4 2169.68   96.49
  -2   0  -4 2180.68   93.39
   3   0   4 2199.88  106.69
  -3   0  -4 2163.08   99.29
   4   0   4  110.49   32.20
  -4   0  -4   79.69   28.30
  -5   0  -4  186.18   40.10
  -4   1   4    8.20    4.00
  -4   1   4    0.40    3.00
  -3  -1   4 2200.38   62.49
   3  -1  -4 2038.50   66.19
  -3   1   4 2116.59   67.69
   3   1  -4 2292.97   62.19
   2  -1  -4 3197.28   97.19
  -2  -1   4 3071.79   93.69
  -2   1   4 3176.28   96.79
   2   1  -4 3183.98   94.99
  -1  -1   4   83.99   15.40
   1  -1  -4   51.69   13.00
  -1   1   4   70.79   14.60
   1   1  -4   83.09   14.80
   0  -1   4  737.83   43.00
   0  -1  -4  699.33   41.70
   0   1  -4  742.33   42.20
   0   1   4  683.33   41.90
   1  -1   4 2922.81  105.79
  -1  -1  -4 2867.81  103.19
   1   1   4 2494.85  100.79
  -1   1  -4 2716.73  101.29
  -2  -1  -4  262.07   31.50
   2  -1   4  242.68   32.40
  -2   1  -4  230.98   29.60
   2   1   4  216.88   33.00
  -3  -1  -4   53.69   20.10
   3  -1   4   69.19   23.60
   3   1   4   68.99   22.70
  -3   1  -4   76.29   22.60
  -4  -1  -4  578.24   51.29
   4  -1   4  494.95   56.79
  -4   1  -4  445.36   47.40
   4   1   4  497.45   54.99
  -5  -1  -4   85.89   31.30
  -5   1  -4  143.39   35.90
  -4   2   4 1760.82   55.19
  -3  -2   4 1363.56   41.10
   3  -2  -4 1235.98   48.30
   3   2  -4 1413.26   40.80
  -3   2   4 1280.47   49.80
   2  -2  -4   35.60    9.40
  -2   2   4   37.10   10.40
  -1  -2   4 3332.57  103.59
   1  -2  -4 3296.57  105.29
  -1   2   4 3158.98  104.09
   1   2  -4 3195.68  101.99
   0  -2   4 2373.06   89.79
   0  -2  -4 2593.54   91.79
   0   2   4 2507.75   92.09
   0   2  -4 2569.84   91.09
   1  -2   4   59.39   17.20
  -1  -2  -4   41.00   13.80
   1   2   4   29.30   12.80
  -1   2  -4   42.50   14.80
  -2  -2  -4 2122.89   92.69
   2  -2   4 2352.86  101.39
  -2   2  -4 2228.88   95.79
   2   2   4 2318.27   99.39
   3  -2   4  573.34   54.89
  -3  -2  -4  635.44   50.69
  -3   2  -4  539.45   47.80
   3   2   4  513.45   49.70
  -4  -2  -4   10.10   14.40
   4  -2   4   46.60   21.40
  -4   2  -4   21.90   17.20
   4   2   4   16.70   19.60
  -5  -2  -4  146.49   36.40
  -5   2  -4   92.59   38.10
  -5   3   4   78.89    7.90
  -5   3   4   86.99    6.90
  -4   3   4 1157.08   45.00
   3  -3  -4  308.97   22.20
  -3   3   4  293.07   22.80
  -2  -3   4  830.72   37.70
   2  -3  -4  976.20   44.40
   2   3  -4  933.81   39.50
  -2   3   4  842.72   42.30
  -1  -3   4 1679.13   64.59
   1  -3  -4 1616.44   66.09
   1   3  -4 1696.23   64.29
  -1   3   4 1596.04   65.79
   0  -3  -4 1569.94   67.39
   0  -3   4 1490.05   66.49
   0   3   4 1560.64   67.89
   0   3  -4 1583.04   66.69
  -1  -3  -4 1120.29   58.89
   1  -3   4 1095.49   61.59
   1   3   4 1184.88   62.29
  -1   3  -4 1274.37   62.29
  -2  -3  -4  159.98   28.30
   2  -3   4  148.29   27.40
   2   3   4  195.68   30.90
  -2   3  -4  164.88   27.70
  -3  -3  -4  516.65   46.30
   3  -3   4  542.25   52.79
   3   3   4  530.45   50.49
   4  -3   4  261.77   45.50
   4   3   4  276.27   46.30
  -4   3  -4  316.67   41.10
  -5  -3  -4   -5.00   36.90
  -5   4   4  121.79   14.00
  -5   4   4  108.09   14.00
   4  -4  -4  243.88   20.90
  -4   4   4  257.27   22.20
   3  -4  -4   18.60    8.30
  -3   4   4   20.10    8.90
  -2  -4   4  351.76   22.70
   2  -4  -4  305.87   25.40
  -2   4   4  313.67   26.10
   2   4  -4  320.27   22.00
   1  -4  -4   90.89   16.50
  -1  -4   4   80.09   15.70
   1   4  -4   85.29   15.20
  -1   4   4  119.59   18.60
   0  -4  -4  387.26   31.40
   0  -4   4  331.97   30.00
   0   4   4  357.56   31.40
   0   4  -4  380.26   30.80
  -1  -4  -4   72.99   17.50
   1  -4   4   47.20   15.20
  -1   4  -4   70.99   17.70
   1   4   4   73.99   18.50
   2  -4   4  102.29   24.20
  -2   4  -4   59.79   18.30
   2   4   4   48.90   17.70
   3  -4   4   13.60   16.80
  -3  -4  -4   20.90   16.40
  -3   4  -4   10.00   15.70
   3   4   4   25.30   17.40
   4  -4   4   -5.10   17.80
  -4   4  -4   -1.60   14.70
   4   4   4  -13.50   18.30
  -5   5   4   -6.30    7.60
  -5   5   4    2.00    7.00
   4  -5  -4   11.80    8.40
  -4   5   4   -5.10    6.70
   3  -5  -4   18.20    7.90
  -3   5   4   29.10   10.10
  -2  -5   4  894.71   39.20
   2  -5  -4  921.61   46.00
  -2   5   4  827.42   44.40
   2   5  -4  791.32   37.10
   1  -5  -4  298.97   26.90
  -1  -5   4  305.87   25.70
   1   5  -4  301.77   25.00
  -1   5   4  297.97   27.00
   0  -5   4   -6.50    5.50
   0  -5  -4    4.30    8.60
   0   5  -4   -3.60    6.20
   1  -5   4   55.99   16.50
  -1  -5  -4   24.90   12.00
   1   5   4   40.70   14.60
  -1   5  -4   42.70   14.80
   2  -5   4    7.80   12.10
  -2  -5  -4   16.50   14.00
   2   5   4    0.40   11.40
  -2   5  -4    9.40   11.50
   3  -5   4   57.89   22.10
  -3  -5  -4   -5.80   12.90
  -3   5  -4   10.80   13.60
   3   5   4   23.10   17.00
   4  -5   4  114.29   34.40
  -4   5  -4  129.99   30.20
   4   5   4   91.89   28.70
  -5   6   4  -16.90    8.10
  -5   6   4    5.40    9.80
   4  -6  -4    2.40    8.70
  -4   6   4   15.40   10.20
   3  -6  -4   29.60   10.50
  -3   6   4   33.60   11.10
   2  -6  -4   39.60   12.20
  -2  -6   4   32.00    8.60
   2   6  -4   39.50    9.30
  -2   6   4   37.80   12.30
  -1  -6   4   12.10    8.20
   1  -6  -4    7.60    7.90
  -1   6   4   12.30    9.00
   1   6  -4    1.30    5.60
   0  -6   4  132.19   22.30
   0  -6  -4  136.49   22.10
   0   6   4  125.79   22.10
   0   6  -4  143.09   22.30
  -1  -6  -4   10.30   11.20
   1  -6   4   29.10   14.90
  -1   6  -4   -4.50    8.20
   1   6   4   22.40   12.30
  -2  -6  -4   40.70   16.40
   2  -6   4   37.80   17.30
  -2   6  -4   43.60   15.60
  -3  -6  -4   14.90   16.40
   3   6   4   -4.80   13.40
  -3   6  -4   29.00   18.30
   4  -6   4    1.80   17.90
  -4  -6  -4  -17.70   17.70
  -4   6  -4   13.00   19.80
  -6   7   4   50.39   11.90
  -5   7   4   96.39   22.00
  -5   7   4  126.49   21.90
   4  -7  -4  131.79   20.20
  -4   7   4   80.89   17.20
   3  -7  -4  398.36   30.90
   3   7  -4  403.36   12.90
   3   7  -4  340.07   12.00
  -3   7   4  392.86   31.50
   2  -7  -4  513.15   35.90
   2   7  -4  522.45   28.60
  -2   7   4  475.75   37.40
   2   7  -4  588.94   37.20
   1  -7  -4    8.00    9.80
  -1  -7   4   14.10    7.70
   1   7  -4   21.10    9.60
  -1   7   4   27.10   11.00
   0  -7   4  180.68   24.10
   0  -7  -4  189.48   24.50
   0   7  -4  144.69   22.50
   0   7   4  139.59   23.20
  -1  -7  -4  120.79   23.50
   1  -7   4  123.39   25.40
   1   7   4   95.19   22.00
  -1   7  -4   84.59   19.70
  -2  -7  -4   -0.20   10.40
   2  -7   4   13.50   13.70
  -2   7  -4    0.30   12.10
  -3  -7  -4    2.90   15.00
   3  -7   4   24.40   19.10
  -3   7  -4    3.30   15.90
   3   7   4  -15.50   13.40
  -4  -7  -4  119.89   28.40
   4   7   4  120.79   33.80
  -4   7  -4  114.99   36.10
   4  -8  -4  105.39   18.60
  -4   8   4  118.19   20.70
   3  -8  -4 1049.20   54.99
   3   8  -4 1173.58   33.30
   3   8  -4 1154.88   34.00
  -3   8   4 1083.69   55.99
   2  -8  -4   12.50   15.20
   2   8  -4   -3.50    5.20
   2   8  -4    6.70    5.30
  -2   8   4   -9.20    8.40
   1  -8  -4 2033.00   82.19
  -1  -8   4 1979.80   78.89
  -1   8   4 1929.61   81.79
   1   8  -4 1969.30   75.99
   0  -8   4 2882.41  108.79
   0  -8  -4 2923.21  106.39
   0   8   4 2817.52  106.39
   0   8  -4 2679.63  101.79
  -1  -8  -4   19.70   12.50
   1  -8   4    8.90   12.60
  -1   8  -4   12.10   10.80
   1   8   4    4.80    9.10
   2  -8   4  939.71   66.29
  -2  -8  -4 1029.90   61.89
   2   8   4  967.10   90.29
  -2   8  -4  932.31   61.09
  -3  -8  -4  618.74   51.99
   3  -8   4  638.84   60.09
   3   8   4  666.53   57.19
  -3   8  -4  666.63   55.89
  -4  -8  -4    3.60   17.80
  -4   8  -4   22.90   19.20
   4   8   4    8.80   20.20
  -6   9   4   37.30   18.10
  -5   9   4  652.13   49.10
   4  -9  -4  510.55   40.10
  -4   9   4  519.95   39.70
   3  -9  -4 1769.42   75.79
  -3   9   4 1761.92   76.09
   3   9  -4 1643.54   50.99
   3   9  -4 1805.32   50.49
   2  -9  -4 3472.75  120.29
   2   9  -4 3489.05  106.99
   2   9  -4 3502.55  104.29
  -2   9   4 3424.06  119.69
   1  -9  -4  756.22   47.40
   1   9  -4  717.13   42.30
  -1   9   4  639.64   44.90
   0  -9   4 1240.28   65.99
   0  -9  -4 1226.48   63.39
   0   9  -4 1085.69   58.89
   0   9   4 1275.57   65.49
   1  -9   4 3273.87  128.29
  -1  -9  -4 3269.37  119.99
  -1   9  -4 3269.07  121.59
   1   9   4 3160.18  121.49
   2  -9   4  211.08   35.10
  -2  -9  -4  246.18   35.40
   2   9   4  159.48   46.50
  -2   9  -4  206.48   33.00
  -3  -9  -4   72.39   20.70
  -3   9  -4   72.19   26.00
   3   9   4  141.39   31.60
  -4  -9  -4  561.44   54.69
  -4   9  -4  563.84   58.49
  -4   9  -4  652.73   62.59
   4   9   4  576.44   59.79
  -6  10   4  153.18   25.60
  -5  10   4    3.60   13.30
   4 -10  -4 1472.35   72.99
  -4  10   4 1313.77   99.79
   3 -10  -4  841.02   51.99
  -3  10   4  923.11   54.69
   3  10  -4  978.40   34.20
   3  10  -4  915.81   34.90
   2 -10  -4   99.79   20.40
   2  10  -4   84.89   15.00
  -2  10   4  139.69   24.10
   2  10  -4  105.79   15.80
   1 -10  -4 1702.53   77.39
   1  10  -4 1721.63   75.19
   1  10  -4 1729.93   71.19
  -1  10   4 1619.24   76.39
   0 -10  -4 2706.33  104.99
   0  10  -4 2629.54  102.39
   0  10   4 2660.53  105.19
   1 -10   4   12.40   12.30
  -1 -10  -4   16.70   13.80
  -1  10  -4    1.00   10.30
   1  10   4    2.80   12.30
  -2 -10  -4 1441.16   76.39
  -2  10  -4 1367.56   77.59
  -3 -10  -4  399.86   44.60
  -3  10  -4  376.96   45.00
  -3  10  -4  466.05   48.40
   3  10   4  415.76   48.00
  -4 -10  -4   13.40   21.00
  -4  10  -4    6.80   20.80
  -4  10  -4   10.50   21.00
   4  10   4   50.49   21.00
  -6  11   4   92.49   24.20
  -5  11   4  603.64   52.79
   4 -11  -4   43.60   15.70
  -4  11   4   21.20   13.50
   3 -11  -4  309.27   32.70
   3  11  -4  239.78   18.50
  -3  11   4  305.27   33.50
   3  11  -4  256.97   17.80
   2 -11  -4 1903.21   84.29
   2  11  -4 1955.00   72.99
  -2  11   4 1796.32   82.09
   2  11  -4 1851.81   69.09
   1 -11  -4   36.60   15.40
   1  11  -4   62.99   15.40
   1  11  -4   43.70   13.50
  -1  11   4   33.00   15.50
   0 -11  -4  345.77   35.10
   0  11  -4  334.07   33.70
   0  11   4  340.97   35.50
   0  11  -4  320.17   33.50
  -1 -11  -4 1417.96   74.69
  -1  11  -4 1490.65   77.19
   1  11   4 1453.65   76.79
  -2 -11  -4  201.88   33.50
  -2  11  -4  206.18   35.40
  -2  11  -4  171.48   30.40
  -3 -11  -4  133.89   29.40
  -3  11  -4  129.39   31.40
   3  11   4  144.09   32.90
  -3  11  -4  164.58   33.40
  -4 -11  -4  504.35   56.89
   4  11   4  481.05   54.89
  -4  11  -4  517.85   59.29
  -4  11  -4  530.15   69.59
  -6  12   4  193.18   36.60
   4 -12  -4  634.24   48.40
  -4  12   4  775.12   53.39
   3 -12  -4 1222.08   66.99
  -3  12   4 1232.68   67.59
   3  12  -4 1200.58   45.60
   3  12  -4 1225.18   47.90
   2 -12  -4   19.80   11.90
  -2  12   4   25.10   12.30
   2  12  -4   -0.80    7.70
   2  12  -4    7.30    7.40
   1 -12  -4 1987.60   87.79
   1  12  -4 1945.91   82.09
   1  12  -4 1841.12   77.79
  -1  12   4 1835.02   85.39
   0 -12  -4 1675.23   80.79
   0  12  -4 1651.03  113.49
   0  12   4 1756.62   83.69
   0  12  -4 1675.73   79.29
  -1 -12  -4   35.70   17.30
  -1  12  -4   56.19   18.70
   1  12   4   43.80   17.70
  -1  12  -4   33.90   17.10
  -2 -12  -4 1540.75   83.29
  -2  12  -4 1336.17   79.49
  -2  12  -4 1250.07   77.09
   2  12   4 1398.26   98.49
  -3 -12  -4  365.26   45.00
  -3  12  -4  480.55   53.19
   3  12   4  497.55   52.09
  -3  12  -4  532.55   53.79
  -4 -12  -4    0.90   20.30
   4  12   4  -26.40   20.20
  -4  12  -4   30.20   25.80
   4 -13  -4   29.90   16.10
  -4  13   4   42.90   18.80
   3 -13  -4  328.17   36.90
  -3  13   4  353.06   39.00
   3  13  -4  402.96   26.80
   3  13  -4  354.06   24.10
   2 -13  -4 2235.38   95.49
   2  13  -4 2166.28   79.89
   2  13  -4 2047.80   82.29
  -2  13   4 2037.90   93.49
   1 -13  -4  316.07   34.70
   1  13  -4  304.57   31.30
  -1  13   4  304.17   35.70
   1  13  -4  285.97   30.00
   0 -13  -4 1186.48   67.39
   0  13  -4 1228.18   66.99
   0  13  -4 1198.38   67.69
  -1 -13  -4  897.61   59.59
  -1  13  -4  854.61   60.19
   1  13   4  883.71   60.49
  -1  13  -4  826.22   59.39
  -2 -13  -4  393.76   72.09
  -2  13  -4  487.25   48.70
  -2  13  -4  497.15   49.50
   2  13   4  494.95   52.39
  -3 -13  -4  434.16   48.70
   3  13   4  520.85   54.89
  -3  13  -4  376.26   48.60
  -3  13  -4  522.05   55.59
  -4 -13  -4  181.08   38.40
   4  13   4  196.28   41.20
  -4  13  -4  167.38   43.30
   4 -14  -4  699.33   54.39
  -4  14   4  710.53   54.59
   3 -14  -4  370.46   40.20
   3  14  -4  457.75   30.50
  -3  14   4  420.16   41.90
   3  14  -4  399.66   27.30
   2 -14  -4   32.50   17.10
  -2  14   4   30.90   15.70
   2  14  -4   23.90   12.00
   2  14  -4   53.09   14.80
   1 -14  -4 2061.79   93.89
   1  14  -4 2018.20   85.89
  -1  14   4 2038.10   93.99
   1  14  -4 2112.19   90.39
   0 -14  -4  389.36   39.90
   0  14  -4  369.76   39.30
   0  14   4  301.47   37.50
   0  14  -4  400.06   38.00
  -1 -14  -4   22.60   16.50
   1  14   4    1.10   14.30
  -1  14  -4   12.30   14.40
  -2 -14  -4  272.57   62.39
   2  14   4  290.97   42.40
  -2  14  -4  270.87   43.80
  -2  14  -4  299.07   43.60
  -3 -14  -4  306.27   45.30
  -3  14  -4  327.97   51.09
   3  14   4  308.47   47.20
  -3  14  -4  340.87   50.09
  -4 -14  -4   -4.40   19.90
   4  14   4  -33.50   25.50
  -4  14  -4  -33.50   23.80
  -4  15   4  -10.30   15.90
   3 -15  -4   80.69   23.10
   3  15  -4   97.39   16.40
   3  15  -4  104.69   17.30
  -3  15   4   88.39   24.70
   2 -15  -4   37.90   16.10
   2  15  -4   40.90   15.10
   2  15  -4   41.20   14.20
  -2  15   4   63.09   21.40
   1 -15  -4  603.64   49.60
  -1  15   4  613.14   50.39
   1  15  -4  570.24   45.90
   1  15  -4  590.04   44.20
   0 -15  -4  117.79   26.70
   0  15   4  126.39   28.10
   0  15  -4   93.59   23.80
   0  15  -4  139.09   27.60
  -1 -15  -4  570.04   49.99
  -1  15  -4  619.84   52.39
  -1  15  -4  551.54   50.99
   1  15   4  563.54   51.99
  -2 -15  -4  100.29   27.00
  -2  15  -4   74.49   25.60
   2  15   4  103.69   28.40
  -2  15  -4  112.49   37.10
  -3 -15  -4  191.08   36.20
  -3  15  -4  155.38   36.10
   3  15   4  232.18   42.60
  -3  15  -4  189.18   37.60
  -4 -15  -4   11.40   26.00
  -4  15  -4  -20.90   27.10
   3 -16  -4    9.50   14.80
   3  16  -4   -1.30    9.10
  -3  16   4   -5.60   14.10
   3  16  -4  -15.50    7.10
   2 -16  -4  441.36   44.20
   2  16  -4  427.36   35.20
   2  16  -4  417.06   37.40
  -2  16   4  484.35   47.00
   1  16  -4  134.89   25.20
   1  16  -4  169.88   28.80
  -1  16   4  185.18   35.90
   0 -16  -4   17.60   16.10
   0  16  -4   23.90   15.30
   0  16  -4   23.00   16.10
   0  16   4   -2.00   14.50
  -1 -16  -4   69.59   21.80
  -1  16  -4   41.60   20.80
  -1  16  -4   41.00   21.90
   1  16   4   40.40   21.10
  -2 -16  -4   62.09   24.20
  -2  16  -4   60.39   27.00
  -2  16  -4   31.60   22.10
   2  16   4   71.49   25.30
  -3 -16  -4   20.80   21.10
  -3  16  -4    6.90   21.50
  -3  16  -4   43.80   24.20
   3  16   4   71.89   24.80
  -4  16  -4    2.40   32.10
   4  17  -4   24.40    6.50
   3 -17  -4  485.45   63.69
   3  17  -4  452.25   33.80
  -3  17   4  465.55   55.09
   3  17  -4  423.56   33.90
   2 -17  -4   31.60   19.90
   2  17  -4  100.39   20.00
  -2  17   4   78.59   24.80
   2  17  -4   69.19   19.10
   1 -17  -4  161.08   31.90
   1  17  -4  107.79   25.30
  -1  17   4  121.49   28.70
   1  17  -4   94.09   22.20
   0 -17  -4   79.29   23.20
   0  17  -4   72.99   23.40
   0  17   4  109.99   27.90
   0  17  -4   95.09   24.70
  -1 -17  -4  -24.20   13.20
  -1  17  -4   10.50   15.20
   1  17   4  -11.50   13.50
  -2 -17  -4  169.18   33.50
   2  17   4  144.09   33.90
  -2  17  -4  162.08   35.40
  -2  17  -4  157.48   34.30
  -3 -17  -4   -9.80   17.90
  -3  17  -4   71.79   38.00
   3  17   4  -16.70   19.60
  -3  17  -4  -43.90   18.20
   3 -18  -4   69.89   25.40
  -3  18   4   76.89   24.60
   3  18  -4   83.59   17.30
   3  18  -4   60.89   16.80
   2 -18  -4    5.20   17.70
   2  18  -4    2.30   11.90
  -2  18   4   28.70   20.40
   2  18  -4   23.10   13.90
   1 -18  -4  311.77   41.50
   1  18  -4  414.86   42.80
   1  18  -4  387.76   39.00
  -1  18   4  469.45   46.50
   0 -18  -4   66.79   23.40
   0  18  -4   63.49   21.30
   0  18   4   63.99   22.70
   0  18  -4   61.29   22.10
  -1 -18  -4   20.80   17.90
   1  18   4   39.80   22.40
  -1  18  -4   47.40   22.90
  -1  18  -4  -12.70   15.10
  -2 -18  -4   27.70   19.40
  -2  18  -4   -9.90   20.50
  -2  18  -4   21.00   21.50
   2  18   4   30.90   22.00
  -3 -18  -4   55.39   29.40
   3  18   4   88.89   29.40
  -3  18  -4   84.19   34.20
  -3  18  -4  106.89   31.10
   3 -19  -4   11.10   19.80
   3  19  -4   15.50   12.70
  -3  19   4    8.00   17.80
   2 -19  -4 1041.50   72.09
   2  19  -4  882.71   55.89
   2  19  -4  900.81   60.89
  -2  19   4  914.51   68.09
   1 -19  -4  272.07   41.90
  -1  19   4  312.97   44.40
   1  19  -4  240.48   35.10
   1  19  -4  300.37   39.70
   0 -19  -4  146.39   33.30
   0  19  -4   97.59   43.10
   0  19   4  128.49   30.30
   0  19  -4  111.39   27.30
  -1 -19  -4  947.91   70.19
  -1  19  -4  985.90   85.39
  -1  19  -4 1089.19   75.99
   1  19   4  892.91   69.79
  -2 -19  -4   10.40   17.00
   2  19   4   20.10   22.70
  -2  19  -4    8.60   22.70
  -2  19  -4   49.40   24.90
  -3 -19  -4   72.99   33.10
   3  19   4   43.20   29.60
  -3  19  -4  144.79   33.30
   3 -20  -4  553.24   54.79
   3  20  -4  535.05   40.00
  -3  20   4  497.45   54.49
   2 -20  -4   90.49   28.60
   2  20  -4   24.00   16.50
   2  20  -4   94.49   24.20
  -2  20   4   39.50   23.20
   1 -20  -4  391.26   47.10
   1  20  -4  371.46   44.60
  -1  20   4  401.76   47.10
   1  20  -4  357.96   40.20
   0 -20  -4  809.02   66.09
   0  20   4  847.62   67.49
   0  20  -4  669.63   62.09
   0  20  -4  755.32   62.29
  -1 -20  -4   45.10   19.80
  -1  20  -4   10.20   19.80
   1  20   4   28.20   22.00
  -1  20  -4   43.40   26.90
  -2 -20  -4  248.78   42.90
  -2  20  -4  235.78   43.90
   2  20   4  259.27   44.60
  -2  20  -4  214.08   43.60
  -3 -20  -4   97.29   35.60
  -3  20  -4  100.39   37.40
  -3  20  -4  201.48   48.40
   4  21  -4  131.29   23.60
   3 -21  -4   38.00   22.30
  -3  21   4   88.89   29.90
   3  21  -4   39.30   18.50
   2 -21  -4 1300.97   86.89
  -2  21   4 1450.95   89.69
   2  21  -4 1316.67   73.49
   1 -21  -4   36.40   22.70
   1  21  -4    7.00   18.70
   1  21  -4   71.19   21.50
  -1  21   4   31.20   22.00
   0 -21  -4  335.57   43.70
   0  21  -4  258.07   41.20
   0  21   4  367.26   48.50
   0  21  -4  287.97   46.60
  -1 -21  -4  698.03   63.19
  -1  21  -4  616.94   62.89
   1  21   4  483.95   71.69
  -1  21  -4  604.74   60.19
  -2 -21  -4  160.78   37.10
  -2  21  -4   71.89   35.20
   2  21   4  135.19   36.80
  -2  21  -4  142.89   36.70
  -3  21  -4   84.59   38.80
  -3  21  -4   16.60   33.40
   4  22  -4  608.44   36.50
   3  22  -4  264.77   31.40
   2 -22  -4   92.69   30.80
   2  22  -4  115.19   26.60
  -2  22   4   42.10   27.70
   1 -22  -4  523.55   56.19
   1  22  -4  418.06   50.89
   1  22  -4  456.85   47.70
  -1  22   4  317.97   48.30
   0 -22  -4  862.01   70.49
   0  22  -4  909.21   71.39
   0  22   4  729.23   96.39
   0  22  -4  729.33   64.59
  -1 -22  -4  -13.20   19.40
  -1  22  -4   32.80   25.70
   1  22   4   45.70   25.30
  -1  22  -4   32.00   24.40
  -2 -22  -4  328.97   52.19
  -2  22  -4  320.57   56.99
  -2  22  -4  281.47   50.79
   2  22   4  272.37   47.50
  -3  22  -4  167.48   44.30
  -3  22  -4  155.38   36.10
   2 -23  -4  609.54  106.99
   2  23  -4  486.75   47.70
   1 -23  -4  251.47   41.20
   1  23  -4  184.58   35.60
  -1  23   4  226.28   44.40
   0 -23  -4  181.78   37.30
   0  23  -4  189.58   39.10
   0  23  -4  190.98   38.60
   0  23   4  162.88   36.70
  -1 -23  -4  831.02   68.99
   1  23   4  806.62   72.19
  -1  23  -4  681.33   70.19
  -1  23  -4  769.12   74.19
  -2 -23  -4   59.39   30.10
  -2  23  -4   87.49   37.60
   2  23   4   78.39   34.60
  -2  23  -4  162.48   40.40
  -3  23  -4   78.29   60.09
   3  24  -4  203.48   47.60
   2 -24  -4   27.40   22.50
   2  24  -4   21.00   18.70
  -2  24   4   -0.20   22.90
   1 -24  -4  606.94   66.59
   1  24  -4  565.14   56.89
  -1  24   4  598.84   63.39
   0 -24  -4  389.06   51.09
   0  24   4  299.77   51.89
   0  24  -4  346.07   51.89
  -1  24  -4  -14.30   25.40
  -1  24  -4    4.60   24.00
   1  24   4  -22.60   23.50
  -2  24  -4  256.17   50.29
  -2  24  -4  158.28   48.50
   2 -25  -4  280.87   50.29
  -2  25   4  221.88   45.30
   1 -25  -4   22.40   24.60
   1  25  -4    2.90   21.20
  -1  25   4   43.30   27.20
   0 -25  -4  148.79   35.20
   0  25   4  230.28   46.60
   0  25  -4   91.09   32.50
  -1 -25  -4  -38.60   23.90
   1  25   4   59.59   33.20
  -1  25  -4   80.19   33.60
  -1  25  -4   19.40   48.80
  -2  25  -4  -72.89   36.50
  -2  25  -4   26.30   32.40
   2 -26  -4   81.49   27.70
  -2  26   4   15.60   24.50
   1 -26  -4   78.69   35.80
  -1  26   4  109.19   33.90
   0 -26  -4    4.80   28.20
   0  26   4   84.79   33.60
   0  26  -4   68.79   46.20
  -1 -26  -4  -49.50   24.20
   1 -27  -4  -19.80   31.00
  -1  27   4  -20.90   26.50
   0 -27  -4   -5.40   31.40
   0  27   4  -65.29   27.00
   1 -28  -4   -9.30   49.70
  -1  28   4  -31.90   27.90
   0 -28  -4  -34.80   54.99
   1 -29  -4  -84.89   33.50
  -4   0   5   -3.00    3.50
   3   0  -5   29.50    8.70
  -3   0   5   27.50    9.10
   2   0  -5   11.70    9.00
  -2   0   5   -1.60    6.00
  -1   0   5   -4.70    6.80
   1   0  -5    0.10    6.40
   0   0  -5   -3.40   10.20
   0   0   5   19.00   10.40
  -1   0  -5    8.60   10.80
   1   0   5   15.10   11.50
  -2   0  -5   25.50   16.20
   2   0   5   -6.50   12.50
  -3   0  -5    3.00   11.40
   3   0   5  -24.70   14.70
   4   0   5  -15.10   24.20
   4  -1  -5    0.60    4.80
  -4   1   5    9.10    5.60
   3  -1  -5  986.50   43.90
  -3  -1   5  872.41   39.50
   3   1  -5  824.52   38.40
  -3   1   5  927.21   43.10
   2  -1  -5   92.89   17.50
  -2  -1   5   81.29   16.00
   2   1  -5   65.49   14.00
  -2   1   5   68.29   14.40
  -1  -1   5   41.20   13.00
   1  -1  -5   46.10   14.00
  -1   1   5   24.50   12.20
   1   1  -5   29.70   12.30
   0  -1   5 2341.27   95.09
   0  -1  -5 2281.77   92.89
   0   1  -5 2316.77   92.69
   0   1   5 2399.16   96.19
  -1  -1  -5  -10.10    9.20
  -1   1  -5   45.00   16.00
   1   1   5   19.20   13.60
   2  -1   5   80.49   23.50
  -2  -1  -5   70.59   22.40
   2   1   5   83.49   24.20
  -2   1  -5   65.09   20.90
   3  -1   5  105.69   30.20
  -3  -1  -5  128.59   28.90
   3   1   5  103.89   30.30
  -3   1  -5   94.69   26.60
  -4  -1  -5  -17.30   21.00
   4   1   5  -25.90   20.90
  -4   1  -5  -22.60   18.90
   4  -2  -5  671.03   31.00
  -4   2   5  620.04   31.40
  -3  -2   5 1715.23   58.79
   3  -2  -5 1625.74   63.39
  -3   2   5 1703.53   65.09
   3   2  -5 1616.64   57.09
  -2  -2   5  715.13   39.90
   2  -2  -5  810.22   44.50
   2   2  -5  703.53   40.50
  -2   2   5  749.42   43.10
   1  -2  -5  273.97   28.60
  -1  -2   5  223.28   25.40
   1   2  -5  221.38   25.70
  -1   2   5  223.78   26.40
   0  -2  -5  351.06   33.70
   0  -2   5  406.56   36.20
   0   2   5  445.16   38.20
   0   2  -5  389.76   34.80
  -1  -2  -5  278.17   32.50
   1  -2   5  238.78   31.70
   1   2   5  276.47   33.50
  -1   2  -5  297.87   33.00
  -2  -2  -5  160.18   30.30
   2  -2   5  112.39   27.60
  -2   2  -5  104.19   25.00
   2   2   5  134.19   28.80
   3  -2   5  201.28   40.40
  -3  -2  -5  230.98   39.60
  -3   2  -5  209.38   35.90
   3   2   5  161.08   35.40
   4  -2   5   58.99   32.50
  -4  -2  -5   21.10   23.20
  -4   2  -5   90.19   32.50
   4   2   5   68.09   30.70
   4  -3  -5 1078.09   45.20
  -4   3   5 1092.89   47.00
   3  -3  -5  110.49   17.90
  -3  -3   5  139.79   14.90
  -3   3   5  122.59   18.70
   2  -3  -5  568.74   38.00
  -2  -3   5  506.65   33.40
   2   3  -5  519.45   34.00
  -2   3   5  574.94   38.30
   1  -3  -5  983.80   54.59
  -1  -3   5 1164.78   56.79
  -1   3   5 1037.60   55.59
   1   3  -5  964.00   52.19
   0  -3  -5  491.35   39.50
   0  -3   5  431.36   38.20
   0   3   5  482.55   40.10
   0   3  -5  526.55   40.00
   1  -3   5  179.78   30.40
  -1  -3  -5  187.28   29.70
   1   3   5  174.78   28.70
  -1   3  -5  133.59   25.60
   2  -3   5  393.26   44.40
  -2  -3  -5  381.86   41.30
   2   3   5  310.87   40.70
  -2   3  -5  477.15   45.10
  -3  -3  -5  107.89   26.50
   3  -3   5   69.09   27.10
  -3   3  -5   68.09   24.60
   3   3   5  121.29   33.50
  -4  -3  -5    2.90   22.40
   4  -3   5   22.00   25.10
   4   3   5  -13.40   21.80
  -4   3  -5    6.50   24.60
  -5   4   5  299.07   19.90
  -5   4   5  285.97   19.20
   4  -4  -5   64.99   13.20
  -4   4   5   57.09   13.60
   3  -4  -5   52.89   12.90
  -3  -4   5   42.30    9.20
  -3   4   5   41.50   12.60
   3   4  -5   60.69   10.00
  -2  -4   5 2419.46   85.19
   2  -4  -5 2402.16   90.89
  -2   4   5 2393.76   90.49
   2   4  -5 2470.15   85.79
  -1  -4   5  408.06   48.70
   1  -4  -5  346.37   32.90
   1   4  -5  375.76   35.10
  -1   4   5  420.96   35.20
   0  -4   5 2589.84  102.39
   0  -4  -5 2538.85  100.79
   0   4   5 2499.85  101.69
   0   4  -5 2506.75   99.09
   1  -4   5 1635.84   83.59
  -1  -4  -5 1853.71   84.59
  -1   4  -5 1636.14   80.89
   1   4   5 1703.33   84.69
  -2  -4  -5  114.59   26.90
   2  -4   5   91.89   27.30
   2   4   5  112.39   28.10
  -2   4  -5  127.99   28.50
  -3  -4  -5  403.36   45.40
   3  -4   5  308.17   48.30
   3   4   5  343.87   50.39
  -3   4  -5  381.76   44.00
  -4  -4  -5  610.94   62.09
   4  -4   5  565.34   67.69
  -4   4  -5  634.84   62.99
   4   4   5  658.63   70.59
  -5   5   5   -0.90    8.10
  -5   5   5  -11.30    7.60
   4  -5  -5 1542.45   63.59
  -4   5   5 1703.33   67.19
   3  -5  -5 1208.98   56.59
   3   5  -5 1145.39   43.50
  -3   5   5 1209.78   57.49
   2  -5  -5 1018.90   53.89
  -2  -5   5  970.50   48.00
   2   5  -5  997.90   48.40
  -2   5   5  982.50   53.29
  -1  -5   5 2902.91  106.69
   1  -5  -5 3104.29  110.69
  -1   5   5 2912.31  109.59
   1   5  -5 3047.00  109.79
   0  -5   5  838.42   53.39
   0  -5  -5  815.62   52.19
   0   5   5  880.71   54.59
   0   5  -5  782.92   50.29
   1  -5   5   52.19   18.20
  -1  -5  -5   65.49   19.90
  -1   5  -5  120.39   24.00
   1   5   5   58.59   19.30
  -2  -5  -5 1692.63   87.39
  -2   5  -5 1754.22   89.59
   2   5   5 1709.83   92.19
  -3  -5  -5  333.17   43.70
   3  -5   5  294.67   47.00
  -3   5  -5  328.37   46.10
   3   5   5  292.77   45.90
  -4  -5  -5    3.80   19.90
  -4   5  -5   36.20   24.80
   4   5   5   42.60   29.50
  -5   6   5  814.42   45.40
  -4   6   5   29.50   14.40
   3  -6  -5  552.94   38.40
  -3   6   5  596.64   40.20
   3   6  -5  544.95   27.40
   3   6  -5  527.25   25.80
  -2  -6   5 2579.94   91.49
   2  -6  -5 2607.94   98.99
  -2   6   5 2596.04   98.79
   2   6  -5 2711.73   91.79
   1  -6  -5  467.55   38.80
  -1  -6   5  447.56   36.40
  -1   6   5  461.85   38.50
   1   6  -5  444.06   35.20
   0  -6  -5  338.67   34.20
   0  -6   5  282.47   32.50
   0   6   5  340.97   35.30
   0   6  -5  325.57   32.90
   1  -6   5 3311.77  130.59
  -1  -6  -5 3292.67  125.39
   1   6   5 3245.08  127.69
  -1   6  -5 3276.27  126.19
   2  -6   5  191.98   35.60
  -2  -6  -5  156.88   29.80
  -2   6  -5  168.48   32.20
   2   6   5  183.38   33.10
   3  -6   5  368.66   49.50
  -3  -6  -5  396.76   45.30
  -3   6  -5  437.86   49.70
   3   6   5  339.17   49.30
  -4  -6  -5  320.77   50.29
   4  -6   5  313.57   54.79
  -4   6  -5  361.36   54.29
   4   6   5  438.96   56.99
   4  -7  -5 1010.20   52.99
  -4   7   5 1150.98   59.99
   3  -7  -5 1419.46   66.19
   3   7  -5 1413.86   48.00
   3   7  -5 1342.77   49.40
  -3   7   5 1453.95   67.89
   2  -7  -5   98.49   19.90
  -2  -7   5   89.09   16.90
  -2   7   5   98.09   20.50
   2   7  -5  101.59   18.30
  -1  -7   5 2603.14  100.79
   1  -7  -5 2744.03  104.89
  -1   7   5 2646.84  103.99
   1   7  -5 2548.34   97.29
   0  -7  -5  657.93   46.70
   0  -7   5  535.05   44.50
   0   7   5  550.14   44.70
   0   7  -5  498.25   41.80
  -1  -7  -5    4.80   13.30
   1  -7   5    6.50   12.90
  -1   7  -5   15.60   14.00
   1   7   5    2.10   12.40
   2  -7   5  729.63   60.99
  -2  -7  -5  718.73   56.69
  -2   7  -5  691.93   57.09
   2   7   5  742.03   60.49
  -3  -7  -5  185.38   42.20
   3  -7   5  182.78   39.50
  -3   7  -5  185.88   36.80
   3   7   5  144.19   34.80
   4  -7   5    2.10   24.10
  -4  -7  -5   -6.60   24.60
  -4   7  -5  -43.00   19.30
   4   7   5  -25.80   22.30
  -6   8   5  159.78   31.00
   4  -8  -5    9.90   10.50
  -4   8   5   -3.00   10.90
   3  -8  -5  825.32   50.59
   3   8  -5  776.12   35.70
  -3   8   5  823.72   51.69
   3   8  -5  909.51   35.60
   2  -8  -5  727.23   49.60
   2   8  -5  772.32   43.40
  -2   8   5  799.22   51.09
   1  -8  -5  157.58   27.20
  -1  -8   5  134.49   23.40
   1   8  -5  154.78   23.50
  -1   8   5  192.08   29.20
   0  -8   5  619.24   70.59
   0  -8  -5  492.95   42.30
   0   8   5  488.45   43.20
   1  -8   5  562.14   50.09
  -1  -8  -5  493.05   45.10
   1   8   5  576.44   48.90
  -1   8  -5  558.74   47.50
   2  -8   5   33.60   21.40
  -2  -8  -5   54.59   22.20
  -2   8  -5   41.70   20.30
   2   8   5   41.60   19.70
   3   8   5  199.08   39.80
  -3   8  -5  284.37   45.30
  -4  -8  -5   11.60   25.30
   4   8   5  -52.79   20.90
  -4   8  -5   -9.20   24.40
  -6   9   5   44.20   17.70
   4  -9  -5  307.07   31.00
  -4   9   5  224.38   29.00
   3  -9  -5    6.50   10.60
   3   9  -5   27.10    8.10
   3   9  -5    8.00    7.10
  -3   9   5    2.60   10.50
   2  -9  -5    4.20   11.80
  -2   9   5    7.10   11.50
   2   9  -5   -1.30    7.80
   2   9  -5    9.30    8.60
  -1  -9   5  834.72   53.29
   1  -9  -5  896.71   58.79
  -1   9   5  959.90   88.49
   1   9  -5  917.71   53.09
   0  -9   5  121.09   25.90
   0  -9  -5  165.68   28.50
   0   9  -5  135.69   25.60
   0   9   5  133.79   26.50
  -1  -9  -5   29.10   15.60
   1  -9   5   32.40   17.50
   1   9   5   51.99   17.80
  -1   9  -5   27.10   16.70
   2  -9   5  257.77   43.30
  -2  -9  -5  192.18   34.20
  -2   9  -5  183.38   35.40
   2   9   5  229.08   39.00
   3  -9   5  283.97   50.19
  -3  -9  -5  255.67   57.09
  -3   9  -5  220.58   41.90
   3   9   5  289.77   49.00
  -4  -9  -5  -36.20   21.60
  -4   9  -5  -25.30   25.90
   4   9   5  -24.20   29.80
  -6  10   5  -55.79   25.50
   4 -10  -5  162.88   26.60
  -4  10   5  125.79   24.50
   3 -10  -5  198.08   29.60
  -3  10   5  154.48   26.80
   3  10  -5  198.68   18.20
   3  10  -5  190.38   18.30
   2 -10  -5  168.58   29.10
   2  10  -5  195.58   23.80
   2  10  -5  218.68   23.70
  -2  10   5  147.49   26.50
  -1  10   5   -5.90   10.20
   1  10  -5   17.90    9.50
   0 -10   5  543.15   47.10
   0 -10  -5  562.64   46.40
   0  10   5  474.35   44.60
   0  10  -5  449.66   41.90
   1 -10   5  174.48   40.60
  -1 -10  -5   90.19   24.40
  -1  10  -5  132.29   28.50
   1  10   5  146.09   29.60
   2 -10   5    4.00   15.80
  -2 -10  -5  -11.50   12.50
  -2  10  -5   14.70   15.20
   2  10   5   24.20   19.70
  -3 -10  -5    4.90   21.60
  -3  10  -5    3.30   20.60
   3  10   5  -49.70   21.80
  -4 -10  -5    1.40   26.70
  -4  10  -5   63.19   28.50
   4 -11  -5  126.09   24.70
  -4  11   5  116.89   24.50
   3 -11  -5   25.00   12.70
  -3  11   5   14.90   14.80
   3  11  -5   18.30    8.30
   3  11  -5   32.40   10.10
   2 -11  -5    7.50   12.80
   2  11  -5   -5.80    7.90
  -2  11   5    3.60   12.80
   2  11  -5  -14.70    6.40
   1 -11  -5  302.87   34.80
   1  11  -5  288.67   31.10
   1  11  -5  272.37   30.30
  -1  11   5  290.67   34.60
   0 -11  -5  413.26   41.10
   0  11   5  403.66   42.20
   0  11  -5  397.66   39.70
   1 -11   5   31.20   17.80
  -1 -11  -5   58.59   22.20
   1  11   5  109.29   27.20
  -1  11  -5   92.99   26.00
  -2 -11  -5   -6.70   15.50
   2  11   5   15.20   19.10
  -2  11  -5   -9.00   13.30
  -3 -11  -5   20.70   20.80
   3  11   5  -30.10   29.80
  -3  11  -5   44.40   23.80
  -3  11  -5   35.60   17.90
  -4 -11  -5    4.20   34.20
   4 -12  -5   27.10   18.70
  -4  12   5    1.90   13.80
   3 -12  -5  106.49   23.70
   3  12  -5   85.59   13.70
   3  12  -5   93.79   15.70
  -3  12   5   86.69   23.10
   2 -12  -5  155.58   29.60
   2  12  -5  193.28   24.40
   2  12  -5  150.48   23.90
  -2  12   5  167.68   29.70
   1 -12  -5  870.51   59.69
  -1  12   5  875.91   59.69
   1  12  -5  987.80   57.29
   1  12  -5  885.11   55.49
   0 -12  -5  584.44   49.80
   0  12  -5  644.54   50.09
   0  12  -5  576.34   48.60
   0  12   5  620.24   51.79
  -1 -12  -5  298.17   38.10
   1  12   5  206.98   36.60
  -1  12  -5  240.18   37.00
  -2 -12  -5  101.59   30.40
   2  12   5  104.19   29.70
  -2  12  -5  129.89   29.90
  -2  12  -5  108.79   34.30
  -3 -12  -5   97.99   30.10
  -3  12  -5  144.29   35.60
  -3  12  -5  137.09   31.30
  -4  12  -5    0.50   34.60
   3 -13  -5  229.78   35.20
   3  13  -5  223.38   28.50
   3  13  -5  232.78   21.80
  -3  13   5  199.88   34.00
   2 -13  -5  467.25   45.50
   2  13  -5  435.96   36.40
   2  13  -5  432.26   35.10
  -2  13   5  491.15   46.10
   1 -13  -5   91.09   23.50
   1  13  -5  115.49   24.20
  -1  13   5  117.19   27.60
   1  13  -5  111.79   23.70
   0 -13  -5  421.06   43.40
   0  13  -5  407.76   42.30
   0  13   5  395.66   43.70
   0  13  -5  420.66   42.80
  -1 -13  -5   29.80   17.10
  -1  13  -5   11.00   14.70
  -1  13  -5   22.80   17.40
   1  13   5    6.40   33.10
  -2 -13  -5  200.88   36.30
  -2  13  -5  196.38   38.70
  -2  13  -5  262.37   41.20
   2  13   5  143.79   34.60
  -3 -13  -5  208.68   40.70
  -3  13  -5  269.37   42.20
  -3  13  -5  282.87   47.30
   3  14  -5 1095.49   49.90
   3  14  -5 1065.39   52.49
  -3  14   5 1261.37  111.69
   2 -14  -5  747.83   57.69
   2  14  -5  826.82   51.19
  -2  14   5  740.63   57.39
   2  14  -5  729.53   46.30
   1 -14  -5   19.90   14.80
   1  14  -5   12.80   12.40
   1  14  -5    1.60   11.30
  -1  14   5   17.20   16.90
   0 -14  -5  544.35   49.90
   0  14   5  509.95   49.50
   0  14  -5  532.95   48.10
   0  14  -5  522.25   47.70
  -1 -14  -5  628.74   54.39
  -1  14  -5  552.04   53.89
   1  14   5  767.92   77.09
  -1  14  -5  639.94   56.09
  -2 -14  -5    2.50   17.50
   2  14   5   -0.40   19.10
  -2  14  -5   -9.20   17.50
  -2  14  -5   -6.70   16.60
  -3 -14  -5   32.70   26.60
  -3  14  -5   56.19   25.60
  -3  14  -5   52.19   28.50
   3 -15  -5  311.47   41.30
   3  15  -5  330.87   29.20
  -3  15   5  248.98   38.30
   3  15  -5  293.57   28.50
   2 -15  -5    0.40   14.30
   2  15  -5   -3.10    9.50
   2  15  -5   18.00   13.30
  -2  15   5   17.20   16.90
   1 -15  -5 1114.09   70.19
   1  15  -5 1060.49   63.99
   1  15  -5 1043.00   64.79
  -1  15   5 1100.89   71.89
   0 -15  -5 1032.50   70.09
   0  15  -5 1023.30   68.59
   0  15   5 1059.09   71.29
   0  15  -5 1080.59   69.79
  -1 -15  -5   84.29   27.70
   1  15   5   76.59   25.80
  -1  15  -5   96.79   29.10
  -1  15  -5   48.30   21.20
  -2 -15  -5  442.66   51.19
   2  15   5  564.14   58.79
  -2  15  -5  584.64   58.49
  -2  15  -5  438.66   54.09
  -3 -15  -5  196.58   42.30
  -3  15  -5  198.68   43.90
  -3  15  -5  182.38   41.10
   3 -16  -5  517.85   50.69
   3  16  -5  535.55   39.30
  -3  16   5  565.94   52.49
   3  16  -5  504.65   48.50
   2 -16  -5 1744.63   91.99
  -2  16   5 1695.73   90.99
   2  16  -5 1581.64   75.89
   2  16  -5 1603.84   79.79
   1 -16  -5   84.79   25.70
   1  16  -5  129.09   25.50
  -1  16   5  127.99   30.80
   1  16  -5  102.09   23.80
   0 -16  -5  140.49   31.80
   0  16  -5  173.38   31.60
   0  16  -5  129.99   30.70
   0  16   5  158.88   32.70
  -1 -16  -5 1286.67   80.59
   1  16   5 1320.27   84.69
  -1  16  -5 1255.57   81.89
  -1  16  -5 1355.26   85.69
  -2 -16  -5   92.69   27.70
   2  16   5   19.00   23.60
  -2  16  -5   74.19   30.00
  -2  16  -5   47.80   26.90
  -3 -16  -5  121.49   38.30
  -3  16  -5  198.88   41.40
   3 -17  -5  401.66   46.90
  -3  17   5  433.36   47.80
   2 -17  -5    8.70   15.70
   2  17  -5   -7.00   10.70
   2  17  -5   25.50   13.20
  -2  17   5    6.00   20.20
   1 -17  -5 1678.53   93.89
   1  17  -5 1785.12   92.69
   1  17  -5 1624.94   84.59
  -1  17   5 1937.61  100.19
   0 -17  -5  555.84   53.39
   0  17  -5  557.84   52.19
   0  17  -5  546.85   52.39
  -1 -17  -5  127.79   31.50
  -1  17  -5  130.99   31.90
  -1  17  -5  128.69   38.40
   1  17   5  106.29   31.20
  -2 -17  -5  320.97   48.00
   2  17   5  316.67   51.59
  -2  17  -5  326.37   49.50
  -2  17  -5  418.86   49.80
  -3 -17  -5  160.18   44.30
  -3  17  -5  256.67   49.00
  -3  17  -5  221.28   44.30
   3 -18  -5  449.16   51.19
  -3  18   5  460.35   51.29
   2 -18  -5  463.15   49.40
   2  18  -5  446.76   44.40
   2  18  -5  529.45   44.20
  -2  18   5  404.86   49.00
   1 -18  -5   19.30   20.00
   1  18  -5  -10.50   12.70
  -1  18   5   -0.30   16.90
   1  18  -5    8.20   13.60
   0 -18  -5  527.75   55.69
   0  18   5  387.36   48.70
   0  18  -5  393.06   75.89
   0  18  -5  352.96   46.70
  -1 -18  -5  402.46   50.39
  -1  18  -5  431.86   52.29
   1  18   5  495.65   55.29
  -1  18  -5  485.85   56.89
  -2 -18  -5   33.30   23.60
   2  18   5   32.90   25.00
  -2  18  -5    6.70   22.60
  -2  18  -5   24.50   23.80
  -3  18  -5   86.09   36.30
  -3  18  -5   47.70   31.00
   4  19  -5  347.17   20.60
   3  19  -5  114.29   22.30
   2 -19  -5  111.79   31.30
   2  19  -5  173.98   28.20
  -2  19   5   97.99   32.00
   1 -19  -5  381.76   48.40
  -1  19   5  530.55   54.49
   1  19  -5  490.55   46.40
   1  19  -5  413.26   48.00
   0 -19  -5   78.59   27.60
   0  19   5  139.89   35.20
   0  19  -5  200.48   43.80
  -1 -19  -5    9.90   17.50
  -1  19  -5   27.50   21.30
   1  19   5   22.80   22.60
  -1  19  -5   59.89   21.70
  -2 -19  -5  497.45   58.09
  -2  19  -5  476.25   62.59
  -2  19  -5  533.45   62.29
   2  19   5  549.85   62.39
  -3  19  -5   64.29   34.70
   3  20  -5  103.29   22.00
   2 -20  -5   88.29   35.10
   2  20  -5  144.99   27.10
  -2  20   5  116.69   58.09
   1 -20  -5  -13.60   17.70
   1  20  -5   -5.50   14.80
  -1  20   5  -12.50   19.80
   1  20  -5  -13.30   16.40
   0 -20  -5  104.09   31.40
   0  20   5  161.58   35.10
   0  20  -5  161.98   35.40
   0  20  -5  137.79   32.90
  -1 -20  -5   88.79   28.90
   1  20   5   70.49   29.50
  -1  20  -5  125.09   35.80
  -1  20  -5  127.99   44.00
  -2 -20  -5   -5.40   27.70
   2  20   5   37.60   29.40
  -2  20  -5  -23.10   19.90
  -2  20  -5    9.70   27.50
  -3  20  -5  -19.70   29.40
  -3  20  -5   67.89   42.10
   3  21  -5   34.70   15.40
   2 -21  -5   86.69   31.20
   2  21  -5   71.29   23.50
  -2  21   5   54.69   30.90
   1 -21  -5  111.39   29.90
   1  21  -5  150.28   33.70
  -1  21   5  162.08   38.30
   0 -21  -5   51.49   27.10
   0  21   5   20.90   19.50
   0  21  -5   10.40   19.30
   0  21  -5   40.50   19.10
  -1 -21  -5   32.10   26.20
  -1  21  -5   22.70   24.90
  -1  21  -5    9.60   24.20
   1  21   5  -28.20   20.70
  -2 -21  -5  -10.40   29.80
  -2  21  -5   98.69   33.70
   2  21   5  -18.70   26.60
   3  22  -5   14.80   17.70
   2 -22  -5   28.60   24.90
  -2  22   5   -1.50   24.50
   2  22  -5  -23.90   13.70
   1 -22  -5   -7.20   22.40
   1  22  -5    8.40   18.70
  -1  22   5  -25.60   20.70
   0 -22  -5  -22.50   20.70
   0  22  -5  -15.70   20.40
   0  22   5  -38.90   20.90
  -1 -22  -5  -34.00   24.70
  -1  22  -5  -25.00   23.60
  -1  22  -5  -40.50   22.60
  -2  22  -5   72.79   32.30
  -2  22  -5   59.39   39.90
   3  23  -5   60.29   19.60
   2 -23  -5    5.40   27.00
   2  23  -5    7.60   20.90
  -2  23   5   18.50   25.40
   1 -23  -5  283.17   49.50
  -1  23   5  251.97   48.50
   1  23  -5  276.87   44.30
   0 -23  -5  121.69   35.30
   0  23   5   15.30   26.20
   0  23  -5   29.80   28.30
  -1 -23  -5  -47.50   25.80
   1  23   5  -71.19   29.10
  -1  23  -5   -6.10   25.60
  -2  23  -5    6.90   37.00
  -2  23  -5    0.40   40.00
   1 -24  -5    2.40   23.40
   1  24  -5    7.40   21.10
  -1  24   5  128.59   35.30
   0 -24  -5    6.30   27.30
   0  24  -5   14.50   26.20
   0  24   5   44.30   27.10
   1  24   5  137.29   41.10
  -1  25   5  369.36   70.19
   0 -25  -5  101.99   36.70
   0  25   5   40.40   32.20
   1 -26  -5  -44.30   32.30
  -1  26   5   -3.50   30.30
   0 -26  -5  162.28   45.10
   0  26   5   72.59   36.50
   1 -27  -5  -26.20   35.70
  -1  27   5   43.70   37.10
  -4   0   6 1120.19   52.09
   3   0  -6   46.70   12.70
  -3   0   6   34.40   13.70
   2   0  -6  126.69   22.60
  -2   0   6   51.99   15.80
  -1   0   6 1679.93   79.59
   1   0  -6 1670.83   79.09
   0   0   6  703.63   53.09
   0   0  -6  642.44   51.69
  -1   0  -6  404.56   41.80
   1   0   6  401.76   44.80
  -2   0  -6  907.61   65.29
   2   0   6  854.01   68.49
  -3   0  -6   90.79   28.60
   3   0   6   99.69   34.30
  -4   0  -6  -49.30   28.20
  -4  -1   6   10.40    6.70
   4  -1  -6   17.80    7.60
  -4   1   6    8.40    8.70
   4   1  -6   10.20    5.90
  -3  -1   6  712.33   40.80
   3  -1  -6  713.43   42.80
  -3   1   6  787.72   44.30
   3   1  -6  714.53   41.50
   2  -1  -6 2239.08   89.09
  -2  -1   6 2072.09   85.39
  -2   1   6 2076.19   86.39
   2   1  -6 1991.20   84.89
   1  -1  -6  142.79   25.30
  -1  -1   6   84.39   19.90
  -1   1   6   86.79   20.80
   1   1  -6  109.09   21.70
   0  -1   6  853.61   58.09
   0   1  -6  862.71   57.39
   0   1   6  964.40   72.79
   1  -1   6  997.60   68.89
  -1  -1  -6  986.30   64.59
  -1   1  -6 1113.79   67.79
   1   1   6  954.20   66.79
   2  -1   6   -0.60   18.00
  -2  -1  -6    3.70   17.20
  -2   1  -6   23.10   19.40
   2   1   6  -11.40   16.20
  -3  -1  -6  235.48   41.20
   3   1   6  159.88   39.50
  -3   1  -6  134.59   32.20
  -4  -1  -6   66.99   49.99
  -4   1  -6   61.29   37.80
  -4  -2   6  638.84   26.10
   4  -2  -6  645.44   35.20
   4   2  -6  637.14   24.00
  -4   2   6  689.63   37.50
  -3  -2   6  568.14   35.90
   3  -2  -6  589.14   39.20
   3   2  -6  563.74   36.10
  -3   2   6  545.75   38.70
   2  -2  -6  338.07   33.80
  -2  -2   6  400.66   34.20
   2   2  -6  397.16   34.60
  -2   2   6  269.77   30.90
  -1  -2   6 1446.96   72.29
   1  -2  -6 1428.46   73.09
  -1   2   6 1346.77   71.59
   1   2  -6 1465.85   71.99
   0  -2  -6  456.65   74.79
   0  -2   6  462.55   43.40
   0   2   6  613.24   73.49
   0   2  -6  517.95   44.40
   1  -2   6    2.40   13.40
  -1  -2  -6   -1.00   13.00
   1   2   6   16.10   13.90
  -1   2  -6   -5.80   13.20
   2  -2   6  704.23   64.89
  -2  -2  -6  896.31   64.89
   2   2   6  744.33   64.09
  -2   2  -6  873.41   65.49
   3  -2   6  177.88   42.00
  -3  -2  -6  300.77   47.80
   3   2   6  234.38   47.50
  -3   2  -6  220.88   40.00
  -4   2  -6  -11.60   32.70
  -5   3   6   23.60    8.50
   4  -3  -6    1.70    8.30
  -4   3   6   10.00    9.90
   3  -3  -6  536.95   39.40
  -3  -3   6  575.64   35.30
   3   3  -6  623.14   37.10
  -3   3   6  562.74   40.00
  -2  -3   6  732.63   45.90
   2  -3  -6  698.03   48.00
  -2   3   6  696.73   47.70
   2   3  -6  658.83   44.70
  -1  -3   6   87.59   20.50
   1  -3  -6  106.89   22.90
  -1   3   6   61.39   18.00
   1   3  -6  112.89   21.50
   0  -3   6  446.06   43.10
   0  -3  -6  417.96   47.70
   0   3  -6  413.56   40.00
  -1  -3  -6  491.15   46.70
   1  -3   6  545.35   51.29
  -1   3  -6  572.54   49.10
   1   3   6  526.45   49.99
   2  -3   6   52.79   22.90
  -2  -3  -6   99.29   27.80
  -2   3  -6   73.99   24.70
   2   3   6  103.09   29.60
  -3  -3  -6   87.79   30.60
   3  -3   6  101.69   33.60
   3   3   6  116.09   35.70
  -3   3  -6  105.89   28.20
  -4   3  -6   34.60   53.19
   4  -4  -6  233.18   23.90
  -4   4   6  198.08   24.80
  -3  -4   6   97.99   17.10
   3  -4  -6  154.78   24.30
   3   4  -6  173.18   20.60
  -3   4   6  135.09   23.20
  -2  -4   6  160.78   24.50
   2  -4  -6  162.58   27.10
   2   4  -6  112.19   21.00
  -2   4   6  151.08   25.60
  -1  -4   6  514.85   42.30
   1  -4  -6  446.16   40.30
   1   4  -6  524.05   41.60
  -1   4   6  479.05   42.90
   0  -4   6  398.76   41.20
   0  -4  -6  414.16   41.40
   0   4   6  290.67   60.79
   0   4  -6  369.86   38.30
  -1  -4  -6  327.67   40.20
   1   4   6  361.26   43.00
  -1   4  -6  386.16   42.80
  -2  -4  -6   42.70   20.10
   2  -4   6   55.69   23.50
   2   4   6   46.40   25.30
  -2   4  -6   84.39   26.30
   3  -4   6   21.50   24.60
  -3  -4  -6  -31.00   20.00
   3   4   6   38.90   26.30
  -3   4  -6   40.40   24.90
   4  -5  -6   32.60   11.80
  -4   5   6   20.50   11.90
   3  -5  -6  516.25   40.70
  -3  -5   6  507.25   34.00
  -3   5   6  557.64   42.10
   3   5  -6  569.64   35.30
  -2  -5   6  283.87   29.50
   2  -5  -6  265.47   32.70
   2   5  -6  320.27   30.80
  -2   5   6  294.27   32.70
  -1  -5   6   -1.30   10.70
   1  -5  -6  -10.60    9.60
  -1   5   6  -12.20    8.40
   1   5  -6  -13.60    9.10
   0  -5  -6  103.09   25.30
   0  -5   6   93.99   23.20
   0   5  -6  122.89   25.90
   0   5   6  141.39   44.20
   1  -5   6  109.89   28.50
  -1  -5  -6  145.89   30.20
  -1   5  -6  205.68   35.50
   1   5   6  113.69   28.60
   2  -5   6   -0.20   17.10
  -2  -5  -6   19.90   17.90
   2   5   6   20.20   19.80
  -2   5  -6   19.50   18.20
   3  -5   6  -31.10   17.10
  -3  -5  -6   -1.20   20.50
   3   5   6  -41.70   21.40
  -3   5  -6   17.80   19.80
   4  -6  -6  212.68   26.60
  -4   6   6  173.08   25.40
  -3  -6   6   55.19   13.00
   3  -6  -6   55.69   14.70
  -3   6   6   41.10   16.50
   3   6  -6   39.10   12.20
  -2  -6   6  296.27   30.50
   2  -6  -6  255.87   30.90
  -2   6   6  352.66   36.50
   2   6  -6  231.58   27.70
  -1  -6   6   85.39   22.10
   1  -6  -6   93.99   22.70
  -1   6   6   75.69   21.40
   1   6  -6  111.39   23.00
   0  -6   6   38.30   17.70
   0  -6  -6   -2.90   13.40
   0   6  -6    3.00   13.30
   1  -6   6   21.30   17.40
  -1  -6  -6    0.80   11.90
   1   6   6   -6.40   14.20
  -1   6  -6  -11.20   13.20
  -2  -6  -6   21.20   20.20
   2  -6   6  -17.30   18.70
  -2   6  -6   25.20   20.40
   2   6   6   30.20   22.20
  -3  -6  -6  -17.60   19.60
   3  -6   6   44.70   25.20
  -3   6  -6   32.60   22.30
   3   6   6  -25.30   24.20
   4  -7  -6   -1.50   10.90
  -4   7   6   -4.20   11.10
   3  -7  -6 1314.77   68.99
  -3   7   6 1293.57   68.79
   3   7  -6 1322.17   57.09
  -2  -7   6   14.50   11.20
   2  -7  -6   12.20   13.80
   2   7  -6    2.40   10.90
  -2   7   6   17.70   14.20
   1  -7  -6   -4.10   13.10
  -1  -7   6   -3.50   11.70
  -1   7   6    7.10   14.30
   1   7  -6   -5.00   10.90
   0  -7   6  562.24   50.69
   0  -7  -6  586.84   71.89
   0   7  -6  545.85   47.60
  -1  -7  -6   16.10   16.00
   1  -7   6  -24.30   12.30
   1   7   6   13.50   16.00
  -1   7  -6   -9.50   11.20
  -2  -7  -6   12.60   21.10
   2   7   6   -8.20   22.00
  -2   7  -6    2.70   24.20
  -3  -7  -6   22.50   20.00
   3  -7   6   42.90   27.80
   3   7   6   34.10   19.30
  -3   7  -6   14.20   23.40
  -4   8   6   83.79   21.20
   3  -8  -6   87.69   21.90
  -3   8   6   70.79   20.10
   3   8  -6   65.39   13.90
   3   8  -6   81.09   15.80
   2  -8  -6  394.46   39.80
  -2  -8   6  395.16   35.90
   2   8  -6  355.06   33.80
  -2   8   6  400.06   40.00
  -1  -8   6  731.03   53.69
   1  -8  -6  728.43   55.69
   1   8  -6  735.23   51.29
  -1   8   6  710.33   54.29
   0  -8  -6 1712.63  125.29
   0  -8   6 1759.92   92.19
   0   8  -6 1754.42   87.29
   0   8   6 1761.62   95.79
   1  -8   6  565.54   55.79
  -1  -8  -6  598.44   52.69
  -1   8  -6  600.24   52.89
   1   8   6  692.73   58.19
  -2  -8  -6  205.28   37.60
   2  -8   6  198.88   39.30
   2   8   6  186.38   38.70
  -2   8  -6  256.87   41.70
   3  -8   6  150.38   38.60
  -3  -8  -6  145.99   39.10
  -3   8  -6  167.58   41.00
   3   8   6  193.58   42.10
   3   9  -6  861.31   53.19
   3   9  -6  739.63   39.40
  -3   9   6  853.31   83.19
   2  -9  -6  601.04   50.19
  -2   9   6  632.44   50.89
   2   9  -6  611.74   43.60
  -1  -9   6   78.89   21.50
   1  -9  -6  109.49   26.00
   1   9  -6   42.40   17.50
  -1   9   6   68.39   22.10
   0  -9   6   35.10   18.80
   0  -9  -6   38.30   20.10
   0   9   6   45.60   20.90
   0   9  -6   30.40   16.10
  -1  -9  -6  485.55   48.40
   1  -9   6  408.56   49.60
   1   9   6  468.35   50.39
  -1   9  -6  477.75   48.20
  -2  -9  -6  136.39   32.50
   2  -9   6   43.70   24.80
  -2   9  -6   81.89   29.30
   2   9   6   84.09   31.60
   3  -9   6   50.49   38.50
  -3  -9  -6  113.69   31.60
   3   9   6   82.49   33.50
   3 -10  -6  426.96   42.60
   3  10  -6  382.26   31.40
  -3  10   6  432.76   44.60
   3  10  -6  412.06   29.20
   2 -10  -6  274.67   35.50
  -2  10   6  261.87   38.40
   2  10  -6  250.37   30.30
   2  10  -6  232.18   31.00
  -1 -10   6 1544.45   83.89
   1 -10  -6 1606.84   85.29
  -1  10   6 1662.43   86.69
   1  10  -6 1636.84   81.09
   0 -10  -6  224.48   36.20
   0 -10   6  303.97   39.70
   0  10  -6  218.88   35.90
   0  10   6  228.88   37.50
   1 -10   6   87.69   27.00
  -1 -10  -6   88.39   24.80
  -1  10  -6   44.20   21.00
   1  10   6   94.09   28.80
   2 -10   6  754.22   70.39
  -2 -10  -6  692.83   63.39
  -2  10  -6  782.62   65.99
   2  10   6  729.13   70.29
   3 -10   6  155.48   40.70
  -3 -10  -6   89.49   35.30
   3  10   6   74.09   29.40
  -3  10  -6   78.19   27.10
   3 -11  -6  525.65   48.70
  -3  11   6  721.93   54.79
   3  11  -6  591.34   36.40
   3  11  -6  620.44   39.50
   2 -11  -6 1828.92   92.59
   2  11  -6 1812.12   80.29
   2  11  -6 1906.21   83.99
  -2  11   6 1946.41   94.59
   1 -11  -6   27.70   16.10
   1  11  -6   31.70   16.50
  -1  11   6    9.60   17.10
   0 -11   6 1026.10   72.59
   0 -11  -6 1003.30   68.89
   0  11   6 1115.39   73.79
   0  11  -6 1150.98   70.79
  -1 -11  -6 1259.07   79.69
   1 -11   6 1328.07   88.49
   1  11   6 1187.78   79.79
  -1  11  -6 1336.27   81.79
  -2 -11  -6  -31.10   17.20
   2 -11   6  -28.50   14.50
   2  11   6   22.20   20.10
  -2  11  -6  -19.10   16.70
  -3 -11  -6  228.18   42.00
  -3  11  -6  226.28   45.00
   3  11   6  226.78   46.40
   3 -12  -6  189.98   32.30
   3  12  -6  128.99   20.90
   3  12  -6  167.98   30.70
  -3  12   6  184.58   32.40
   2 -12  -6  530.65   50.39
   2  12  -6  555.14   41.80
  -2  12   6  595.34   51.79
   1 -12  -6 1049.00   69.69
  -1  12   6  862.51   64.39
   1  12  -6 1025.80   63.49
   1  12  -6  971.10   63.09
   0 -12  -6  218.48   36.40
   0  12   6  235.08   38.70
   0  12  -6  280.67   41.80
  -1 -12  -6   16.70   18.00
   1  12   6   22.80   18.40
  -2 -12  -6  412.76   52.49
   2  12   6  584.64   60.89
  -2  12  -6  601.24   59.49
  -3 -12  -6  119.39   37.20
  -3  12  -6   64.79   27.70
   3  12   6   63.19   35.00
  -3  12  -6   98.79   36.00
   3 -13  -6  156.58   32.80
  -3  13   6  144.29   29.50
   3  13  -6  163.28   23.60
   2 -13  -6  492.65   50.09
   2  13  -6  553.14   45.90
   2  13  -6  539.85   42.40
  -2  13   6  549.05   51.29
   1 -13  -6  358.06   41.20
  -1  13   6  392.96   44.80
   1  13  -6  310.97   39.40
   1  13  -6  346.97   38.50
   0 -13  -6  770.82   61.69
   0  13  -6  781.32   58.49
   0  13  -6  739.23   60.39
   0  13   6  757.82   62.69
  -1 -13  -6  345.27   48.50
  -1  13  -6  463.05   50.79
   1  13   6  422.96   50.99
  -2 -13  -6   28.10   22.80
  -2  13  -6   33.30   23.40
  -2  13  -6   18.80   17.00
   2  13   6    9.30   20.30
  -3 -13  -6   -3.00   30.40
   3  13   6   39.10   39.50
  -3  13  -6   72.89   25.50
  -3  13  -6   14.50   33.00
   3 -14  -6  190.78   35.00
   3  14  -6  166.18   32.60
  -3  14   6  215.38   36.50
   2 -14  -6   54.29   22.50
   2  14  -6   56.09   16.60
   2  14  -6   72.29   19.60
  -2  14   6   63.29   22.70
   1 -14  -6  223.58   39.30
   1  14  -6  247.48   45.30
  -1  14   6  281.87   44.40
   1  14  -6  297.47   36.90
   0 -14  -6   19.20   20.40
   0  14  -6   15.40   20.20
   0  14   6   63.29   25.40
   0  14  -6   33.10   21.00
  -1 -14  -6   -5.60   13.00
   1  14   6    8.80   20.50
  -1  14  -6    5.30   21.70
  -1  14  -6   48.60   27.80
  -2 -14  -6  167.88   39.80
  -2  14  -6  258.17   45.70
  -2  14  -6  181.48   39.50
   2  14   6  141.49   38.80
  -3 -14  -6   -6.40   29.90
  -3  14  -6  -41.70   23.80
  -3  14  -6   91.99   29.10
   3 -15  -6   16.30   20.90
   3  15  -6   38.40   12.40
  -3  15   6   -9.60   15.80
   2 -15  -6   49.50   22.90
   2  15  -6   39.90   16.70
  -2  15   6   -2.40   19.30
   2  15  -6   40.50   18.00
   1 -15  -6   -4.30   14.10
   1  15  -6    6.30   15.50
  -1  15   6   10.50   18.80
   1  15  -6   51.89   17.80
   0 -15  -6   28.90   20.60
   0  15  -6   75.79   25.10
   0  15   6   39.80   24.30
  -1 -15  -6   19.90   24.10
   1  15   6   60.59   26.30
  -1  15  -6  -11.50   18.00
  -1  15  -6   47.80   21.10
  -2 -15  -6   19.70   17.70
   2  15   6   43.20   27.10
  -2  15  -6    6.50   24.90
  -2  15  -6  -28.60   18.90
  -3  15  -6   98.59   36.30
  -3  15  -6  101.29   38.50
   3  16  -6   28.40   12.00
   2 -16  -6  153.88   50.09
   2  16  -6  162.28   37.50
  -2  16   6   74.19   32.60
   2  16  -6  154.28   28.20
   1 -16  -6   -3.00   18.20
   1  16  -6   17.00   17.30
  -1  16   6   92.69   28.60
   1  16  -6   17.70   17.50
   0 -16  -6   17.70   19.90
   0  16   6   16.20   23.40
  -1 -16  -6  -15.30   17.50
   1  16   6  -17.00   20.70
  -1  16  -6   36.30   26.70
  -1  16  -6   31.70   20.50
   2  16   6  -20.30   23.70
  -2  16  -6  -23.10   21.00
  -3  16  -6  -70.19   28.50
  -3  16  -6   61.29   29.90
   3  17  -6    2.00   11.10
   2 -17  -6  103.29   27.80
  -2  17   6  109.59   31.30
   2  17  -6  147.59   25.20
   1 -17  -6   -0.70   21.20
   1  17  -6   80.29   23.50
   1  17  -6   33.00   17.90
  -1  17   6   90.89   29.00
   0 -17  -6  -21.30   18.30
   0  17  -6   -5.60   18.50
   0  17   6  -13.10   17.10
   0  17  -6   25.40   16.40
   1  17   6  -22.30   18.00
  -1  17  -6  -42.70   27.90
  -1  17  -6   -8.60   19.70
  -2 -17  -6  -37.30   19.80
  -2  17  -6   -6.40   21.90
  -2  17  -6  -51.69   22.40
  -3  17  -6  -49.99   24.70
   2 -18  -6  123.79   32.90
   2  18  -6  144.59   29.00
  -2  18   6   87.29   28.90
   1 -18  -6  120.49   32.70
   1  18  -6   93.99   26.70
  -1  18   6   82.59   30.40
   0 -18  -6   20.10   21.50
   0  18  -6   17.10   17.40
   0  18   6  -11.80   21.60
   0  18  -6  -32.00   18.70
  -1 -18  -6   15.90   23.90
  -1  18  -6  -15.80   20.20
  -1  18  -6   58.39   24.70
   1  18   6   45.00   23.50
  -2 -18  -6  189.38   41.40
   2  18   6   73.69   35.10
  -2  18  -6  207.58   55.39
  -2  18  -6  116.79   34.60
   3  19  -6  118.79   21.30
   2 -19  -6   98.39   32.00
   2  19  -6  172.08   31.60
  -2  19   6  178.88   38.40
   1 -19  -6  116.59   33.80
   1  19  -6  126.39   30.10
  -1  19   6  135.59   37.50
   0 -19  -6  203.98   42.40
   0  19  -6  313.97   49.99
   0  19   6  311.67   50.39
   0  19  -6  326.47   50.99
  -1 -19  -6  235.38   44.50
   1  19   6  127.89   36.50
  -1  19  -6  175.08   40.30
  -1  19  -6  212.08   44.10
  -2 -19  -6  -31.70   33.40
  -2  19  -6   49.40   31.10
  -2  19  -6   37.00   29.00
   3  20  -6  181.08   26.80
   2 -20  -6  134.99   36.90
   2  20  -6  109.89   25.00
  -2  20   6   39.70   27.70
   1 -20  -6  444.96   57.89
  -1  20   6  438.16   56.49
   1  20  -6  393.16   48.00
   0 -20  -6  458.45   55.49
   0  20  -6  333.97   51.39
   0  20   6  275.57   47.20
  -1 -20  -6  108.09   29.40
  -1  20  -6   17.10   27.90
  -1  20  -6  -45.80   26.00
  -2  20  -6  196.68   48.90
  -2  20  -6  118.09   42.20
   3  21  -6  227.98   32.00
   2  21  -6  245.68   36.70
   1 -21  -6  -49.99   19.20
  -1  21   6   30.70   36.90
   1  21  -6   -1.10   14.20
   0 -21  -6  164.78   42.40
   0  21   6  210.88   47.90
   0  21  -6  346.57   52.49
  -1 -21  -6  316.77   53.89
   1  21   6  342.97   55.59
  -1  21  -6  257.57   50.59
   1 -22  -6  561.54   65.39
   1  22  -6  553.34   67.99
  -1  22   6  621.44   67.09
   0 -22  -6   75.09   33.20
   0  22   6    3.70   24.40
  -1 -22  -6   95.59   32.30
   1  22   6   47.40   36.20
   1 -23  -6   65.29   32.80
  -1  23   6  -41.00   23.90
   0 -23  -6  116.79   40.30
   0  23   6   38.00   30.20
   1 -24  -6  150.48   37.00
  -1  24   6  112.19   38.70
   0 -24  -6  -41.30   34.00
   0  24   6  -37.90   29.80
   0 -25  -6   59.29   50.19
  -4   0   7   -3.10   10.90
  -3   0   7  -23.30    8.60
   3   0  -7  -22.10   10.70
  -2   0   7  -12.90   10.20
   2   0  -7   18.00   14.70
   1   0  -7    6.00   14.90
  -1   0   7  -26.00   11.20
   0   0   7   12.40   14.50
   0   0  -7   -4.30   14.20
   1   0   7  -13.20   13.80
  -1   0  -7    3.00   16.10
   2   0   7  -11.10   19.70
  -2   0  -7   -5.20   20.00
  -3   0  -7  -64.39   24.40
   3   0   7  -38.60   25.70
  -4  -1   7   -5.20    8.80
   3  -1  -7   17.40   14.50
  -3  -1   7   -2.60   11.20
  -3   1   7   21.00   12.70
   3   1  -7   46.50   14.40
   2  -1  -7    9.20   14.90
  -2  -1   7   -1.50   11.80
   2   1  -7    3.10   11.50
  -2   1   7    7.80   13.60
  -1  -1   7  223.78   35.30
   1  -1  -7  223.48   35.10
  -1   1   7  286.87   36.90
   1   1  -7  261.57   37.50
   0  -1   7  -12.70   14.00
   0  -1  -7   35.60   18.70
   0   1  -7   18.70   14.50
   0   1   7   -0.10   15.10
   1  -1   7   59.09   24.70
  -1  -1  -7   26.30   16.70
   1   1   7   46.00   20.80
  -1   1  -7   14.80   20.70
   2  -1   7   -6.30   21.60
  -2  -1  -7   -4.80   21.00
   2   1   7    1.30   20.60
  -2   1  -7   -3.40   21.90
   3  -1   7  -16.80   49.10
  -3  -1  -7   28.60   25.80
   3   1   7  -14.10   31.40
  -3   1  -7  -26.20   24.50
  -4  -2   7    4.50    8.50
   4   2  -7    9.00    8.20
  -3  -2   7  458.35   37.40
   3  -2  -7  393.26   37.40
  -3   2   7  451.95   38.90
   3   2  -7  446.96   37.30
   2  -2  -7   14.80   14.20
  -2  -2   7    8.60   12.90
  -2   2   7    2.60   12.50
   2   2  -7    0.40   10.60
   1  -2  -7   61.19   21.10
  -1  -2   7   49.90   19.40
   1   2  -7   25.60   17.40
  -1   2   7   22.20   17.70
   0  -2  -7  288.17   38.60
   0  -2   7  270.17   41.00
   0   2  -7  391.26   43.20
   0   2   7  405.06   45.60
   1  -2   7   48.20   24.80
  -1  -2  -7   81.79   25.50
   1   2   7   90.19   28.20
  -1   2  -7   56.49   22.80
   2  -2   7   88.79   32.60
  -2  -2  -7  189.78   35.90
   2   2   7  125.59   34.80
  -2   2  -7  123.39   33.40
   3  -2   7  173.98   42.60
  -3  -2  -7  271.57   47.70
   3   2   7  137.69   44.20
  -4  -3   7  669.73   35.00
   4   3  -7  698.33   32.60
  -3  -3   7  330.07   32.30
   3  -3  -7  356.46   37.20
  -3   3   7  344.87   36.70
   3   3  -7  317.17   32.90
   2  -3  -7  684.03   52.19
  -2  -3   7  624.64   49.30
  -2   3   7  735.63   54.29
   2   3  -7  682.93   50.79
  -1  -3   7 1149.89   70.69
   1  -3  -7 1140.89   70.69
   1   3  -7 1125.69   68.09
  -1   3   7 1023.10   67.79
   0  -3   7   39.80   20.80
   0  -3  -7   34.00   17.30
   0   3   7   44.70   21.60
   0   3  -7   24.10   18.10
  -1  -3  -7  378.56   43.60
   1  -3   7  339.37   50.69
  -1   3  -7  399.66   46.70
   1   3   7  327.17   48.70
   2  -3   7   24.50   28.10
   2   3   7   55.59   27.10
  -2   3  -7   67.69   26.70
   3  -3   7   11.00   28.60
  -3  -3  -7   88.69   34.40
   3   3   7   49.30   34.70
  -3   3  -7    3.90   24.90
   4   4  -7   36.20    7.50
  -3  -4   7  519.05   39.00
   3  -4  -7  490.45   42.30
   3   4  -7  487.25   38.80
  -3   4   7  516.15   43.50
  -2  -4   7  486.65   44.20
   2  -4  -7  448.36   44.30
  -2   4   7  524.05   47.10
   2   4  -7  524.25   44.30
   1  -4  -7  348.07   41.00
  -1  -4   7  380.46   42.00
  -1   4   7  371.96   41.20
   1   4  -7  369.76   40.80
   0  -4   7  421.66   47.40
   0  -4  -7  409.96   42.40
   0   4  -7  413.06   45.40
   0   4   7  420.66   46.90
  -1  -4  -7 1262.67   80.89
   1  -4   7 1254.97   84.39
  -1   4  -7 1272.57   80.39
   1   4   7 1398.76   88.29
  -2  -4  -7   75.79   47.30
   2  -4   7   74.69   31.30
  -2   4  -7   11.30   20.40
  -3  -4  -7   67.49   29.20
   3  -4   7   21.50   32.70
  -3   4  -7   41.20   24.60
   3   4   7   48.70   33.80
   4   5  -7  653.73   27.50
   4   5  -7  618.74   27.40
  -3  -5   7  240.18   29.00
   3  -5  -7  223.28   33.70
  -3   5   7  284.87   35.00
   3   5  -7  293.47   30.90
   2  -5  -7  223.08   35.30
  -2  -5   7  240.98   31.90
  -2   5   7  284.17   36.70
   2   5  -7  230.58   33.50
   1  -5  -7  901.81   63.59
  -1  -5   7  973.40   66.09
   1   5  -7  924.21   62.29
  -1   5   7  994.90   67.49
   0  -5  -7   50.09   20.80
   0  -5   7   27.10   19.90
   0   5   7   25.20   21.10
   0   5  -7   44.90   20.70
  -1  -5  -7   15.00   15.60
   1  -5   7   19.40   19.90
  -1   5  -7   20.30   20.20
   1   5   7    7.60   20.30
  -2  -5  -7  448.86   53.29
   2  -5   7  397.86   59.59
  -2   5  -7  476.95   53.59
   3  -5   7  -31.90   30.50
  -3  -5  -7   28.10   24.90
  -3   5  -7   71.99   32.20
   3   5   7   14.70   32.30
   4   6  -7   10.80    6.50
   4   6  -7   14.40    6.00
   3  -6  -7  397.86   41.40
  -3  -6   7  416.56   35.80
  -3   6   7  351.36   39.30
   3   6  -7  452.65   36.80
  -2  -6   7 1246.88   83.19
   2  -6  -7 1239.78   74.59
  -2   6   7 1271.17   74.79
  -1  -6   7  118.09   28.70
   1  -6  -7   90.39   25.50
   1   6  -7   91.49   24.00
  -1   6   7   87.69   25.20
   0  -6  -7  777.12   60.79
   0  -6   7  708.43   60.89
   0   6  -7  699.53   57.99
   0   6   7  634.14   58.19
  -1  -6  -7  258.47   41.80
   1  -6   7  325.77   49.60
   1   6   7  278.77   46.60
  -1   6  -7  220.08   39.60
  -2  -6  -7   15.10   18.50
   2  -6   7  -38.50   16.90
  -2   6  -7  -10.10   19.40
  -3  -6  -7   87.89   36.30
   3  -6   7   11.40   28.40
  -3   6  -7   11.40   30.70
   4   7  -7  242.58   13.10
  -3  -7   7    5.00   10.70
   3  -7  -7   15.60   14.90
  -3   7   7   17.10   14.10
   3   7  -7   54.29   15.70
   2  -7  -7  241.38   38.40
  -2  -7   7  247.68   40.60
   2   7  -7  227.68   32.80
  -2   7   7  244.68   37.80
   1  -7  -7  705.83   57.19
  -1  -7   7  821.82   61.09
  -1   7   7  722.23   58.59
   1   7  -7  707.73   55.49
   0  -7   7  240.58   40.60
   0  -7  -7  270.07   41.90
   0   7  -7  224.38   37.50
   0   7   7  251.47   41.50
  -1  -7  -7   83.09   29.70
   1  -7   7   98.29   28.10
   1   7   7   57.49   24.20
  -1   7  -7  116.19   31.10
   2  -7   7  729.93   73.39
  -2  -7  -7  699.03   64.59
   2   7   7  719.33   87.49
  -2   7  -7  763.62   69.39
   3  -7   7   64.39   38.20
  -3  -7  -7  -51.99   28.60
  -3   7  -7   33.70   27.40
   3   7   7  -21.60   39.10
   4   8  -7   14.50    3.60
   4   8  -7    4.80    4.60
   3  -8  -7  418.26   42.70
  -3   8   7  456.35   46.10
   3   8  -7  449.36   37.70
   2  -8  -7  535.95   50.59
  -2  -8   7  640.54   50.59
   2   8  -7  536.75   45.80
  -2   8   7  525.25   49.90
   1  -8  -7   64.99   23.30
  -1  -8   7   39.60   19.30
   1   8  -7  115.39   26.40
  -1   8   7   77.89   24.10
   0  -8   7  558.04   56.49
   0  -8  -7  569.94   53.99
   0   8  -7  590.24   53.49
   0   8   7  442.16   50.99
  -1  -8  -7  210.98   39.50
   1  -8   7  162.88   38.00
  -1   8  -7  213.58   40.30
   1   8   7  192.38   39.60
   2  -8   7    9.90   22.90
  -2  -8  -7   -1.00   23.10
  -2   8  -7    3.50   19.40
   3  -8   7  141.29   45.00
  -3  -8  -7   49.00   38.80
  -3   8  -7    9.50   29.00
   3  -9  -7   47.60   20.00
   3   9  -7   53.59   21.70
  -3   9   7  122.19   26.20
   3   9  -7   39.90   15.30
   2  -9  -7  285.57   50.19
  -2  -9   7  321.27   37.40
  -2   9   7  285.97   43.40
   2   9  -7  320.87   37.30
  -1  -9   7   72.29   24.50
   1  -9  -7   35.10   21.20
   1   9  -7   73.79   21.40
  -1   9   7   58.09   23.50
   0  -9  -7  129.79   33.20
   0  -9   7  118.79   31.30
   0   9   7  202.58   38.40
   0   9  -7  137.39   31.60
   1  -9   7  106.29   31.10
  -1  -9  -7  151.48   35.20
  -1   9  -7  154.38   34.00
   1   9   7  200.88   40.50
   2  -9   7   17.10   25.30
  -2  -9  -7   21.80   20.30
  -2   9  -7   56.29   22.70
   3  -9   7   51.69   37.20
  -3   9  -7  -27.50   31.90
  -3  10   7    6.70   19.40
   3  10  -7   -8.40   11.40
   2 -10  -7  -11.70   20.20
   2  10  -7   -8.50   12.10
   1 -10  -7  110.09   30.10
  -1 -10   7  130.79   35.70
  -1  10   7  161.78   34.50
   1  10  -7  146.79   33.00
   0 -10  -7    7.00   18.80
   0 -10   7   17.90   17.00
   0  10  -7   10.90   18.00
   0  10   7  -41.40   15.00
   1 -10   7   19.20   21.40
  -1 -10  -7   20.40   21.90
   1  10   7   30.90   24.70
  -1  10  -7  -12.50   19.40
   2 -10   7   75.69   29.10
  -2 -10  -7   16.30   23.40
  -2  10  -7   12.70   26.50
   3 -10   7   47.30   39.10
  -3  10  -7   22.90   38.20
   2 -11  -7  144.39   30.90
   2  11  -7  122.19   25.40
  -2  11   7  137.89   30.00
   2  11  -7  133.59   26.00
  -1 -11   7   91.79   27.20
   1 -11  -7   68.49   25.00
  -1  11   7   85.09   27.60
   1  11  -7   89.39   23.60
   0 -11  -7   41.90   21.40
   0 -11   7    3.50   18.80
   0  11   7   46.40   22.40
   0  11  -7   -5.50   16.70
   1 -11   7    9.10   23.50
  -1 -11  -7   16.30   23.00
   1  11   7   -5.60   19.60
  -1  11  -7  -18.10   19.30
   2 -11   7    9.50   25.50
  -2 -11  -7  -64.59   23.20
  -2  11  -7   13.70   20.20
  -3  11  -7   42.00   31.90
   3  12  -7   34.50   15.90
   2 -12  -7    5.40   16.80
  -2  12   7  -24.60   13.10
   2  12  -7    9.20   13.80
   2  12  -7  -15.50   19.50
   1 -12  -7  299.17   46.50
  -1  12   7  349.67   46.20
   1  12  -7  323.77   41.50
   0 -12   7    5.70   19.70
   0 -12  -7  -27.60   18.30
   0  12   7   38.60   23.00
   0  12  -7   46.30   28.40
   1 -12   7  149.59   37.20
  -1 -12  -7  226.78   43.20
  -1  12  -7  187.18   40.00
   1  12   7  166.98   38.80
  -2  12  -7  -12.80   19.50
   2  12   7  -10.40   28.10
  -3  12  -7  -84.79   35.90
   3  13  -7  145.19   24.20
   2 -13  -7  107.89   32.80
   2  13  -7  130.59   27.90
  -2  13   7  140.19   32.50
   1 -13  -7  388.26   48.80
   1  13  -7  386.56   46.20
   1  13  -7  364.46   44.80
  -1  13   7  343.67   50.29
   0 -13  -7   33.00   24.20
   0  13   7   -0.10   18.60
   0  13  -7  -26.80   13.20
  -1 -13  -7  -22.40   16.10
   1  13   7   43.40   22.60
  -2 -13  -7   84.99   32.10
  -2  13  -7   93.69   29.50
   2  13   7   51.09   32.40
   3  14  -7  271.67   28.80
   2 -14  -7  298.17   46.30
   2  14  -7  318.37   37.20
  -2  14   7  251.17   43.70
   1 -14  -7   10.20   22.10
   1  14  -7   20.80   20.40
  -1  14   7  -32.00   18.00
   1  14  -7   25.30   20.00
   0 -14  -7  355.96   50.99
   0  14   7  335.57   51.89
   0  14  -7  389.96   49.70
   0  14  -7  365.76   46.70
  -1 -14  -7  107.49   35.20
  -1  14  -7  128.09   34.60
   1  14   7  123.89   39.30
  -1  14  -7   70.89   29.10
  -2 -14  -7   32.70   27.30
   2  14   7   14.50   30.10
  -2  14  -7   10.90   27.70
  -2  14  -7   55.39   23.30
   3  15  -7  184.78   21.80
   2 -15  -7   56.29   28.10
  -2  15   7  101.99   31.20
   2  15  -7   94.79   22.90
   1 -15  -7  724.93   67.09
  -1  15   7  808.22   69.79
   1  15  -7  763.92   61.99
   0 -15  -7  105.99   32.00
   0  15  -7   77.59   31.10
   0  15  -7  124.79   32.80
   0  15   7  162.58   37.00
  -1 -15  -7  257.67   43.20
  -1  15  -7  313.17   52.29
  -1  15  -7  254.27   45.10
   1  15   7  246.78   48.90
  -2 -15  -7  181.28   41.10
   2  15   7  139.09   45.60
  -2  15  -7  162.28   42.60
   3  16  -7  461.95   37.20
   2 -16  -7  210.18   42.70
  -2  16   7  194.18   43.70
   2  16  -7  245.88   35.70
   1 -16  -7   42.60   45.00
   1  16  -7   65.29   24.10
   0 -16  -7  160.58   36.70
   0  16  -7  128.79   34.00
   0  16   7  151.98   37.80
  -1 -16  -7  320.17   53.39
  -1  16  -7  308.87   53.09
   1  16   7  274.77   49.20
  -1  16  -7  411.46   59.49
  -2 -16  -7  -15.80   27.40
  -2  16  -7  -14.00   28.90
  -2  16  -7   16.60   27.80
   3  17  -7   37.00   15.70
   2  17  -7   47.80   21.00
   1 -17  -7  397.56   57.69
  -1  17   7  333.67   52.89
   1  17  -7  312.07   45.80
   0 -17  -7  195.88   41.90
   0  17  -7  265.97   46.80
   0  17   7  212.68   44.20
  -1 -17  -7  115.09   34.20
  -1  17  -7   20.40   27.10
   1  17   7   73.59   34.60
   3  18  -7  223.38   32.30
   2  18  -7  492.55   49.50
   1 -18  -7   28.70   26.10
   1  18  -7   24.30   19.40
  -1  18   7    9.30   22.20
   0 -18  -7  354.16   49.99
   0  18   7  434.76   57.39
   0  18  -7  347.27   52.69
  -1 -18  -7   10.50   29.20
   1  18   7  128.29   40.20
  -1  18  -7  110.99   46.60
   3  19  -7   64.99   32.40
   2  19  -7   56.89   21.80
   1 -19  -7  142.29   37.70
  -1  19   7  145.39   37.30
   1  19  -7   77.89   29.70
   0 -19  -7   67.79   31.50
   0  19   7   82.39   30.80
  -1 -19  -7  -10.90   32.60
   1 -20  -7  -39.20   27.90
  -1  20   7   61.09   32.50
   0 -20  -7  -12.80   36.30
   0  20   7  -17.10   25.00
  -1 -20  -7  -40.40   36.60
   0 -21  -7  -28.50   38.10
   0  21   7  -26.50   28.00
   0 -22  -7  -48.20   35.40
   0 -23  -7   75.09   57.79
  -2   0   8  162.98   32.80
   2   0  -8  194.68   34.10
   1   0  -8  590.64   56.59
  -1   0   8  597.64   61.79
   0   0   8  563.14   59.19
   0   0  -8  679.03   60.29
   1   0   8   69.59   31.00
  -1   0  -8  120.59   32.00
   2   0   8  959.80   87.79
  -2   0  -8 1151.78   86.29
  -2  -1   8  644.74   54.59
   2  -1  -8  682.23   58.49
  -2   1   8  672.83   56.59
   2   1  -8  723.73   58.79
   1  -1  -8  227.98   40.30
  -1  -1   8  198.98   36.40
  -1   1   8  189.08   44.80
   1   1  -8  355.46   43.40
   0  -1   8  369.16   45.70
   0  -1  -8  275.27   44.70
   0   1   8  397.46   50.59
   0   1  -8  441.36   49.70
  -1  -1  -8  119.89   35.00
   1  -1   8   90.09   32.30
  -1   1  -8  122.99   30.40
   1   1   8   94.29   31.70
   2  -1   8   49.20   31.30
  -2  -1  -8    0.10   27.80
   2   1   8   23.90   27.30
  -2   1  -8   26.50   24.10
   2  -2  -8  181.88   34.70
  -2  -2   8  312.27   40.60
  -2   2   8  161.68   32.80
   2   2  -8  169.78   31.70
   1  -2  -8  203.28   54.29
  -1  -2   8  226.58   38.70
   1   2  -8  144.19   29.90
   0  -2   8   42.20   20.90
   0  -2  -8   55.39   23.70
   0   2   8   10.30   22.30
   0   2  -8   61.89   24.40
   1  -2   8   84.59   33.30
  -1  -2  -8  148.29   36.60
   1   2   8  141.39   39.60
  -1   2  -8  123.09   31.80
   2  -2   8   74.49   30.40
  -2  -2  -8   66.29   30.60
   2   2   8   92.19   34.10
  -2   2  -8   61.09   28.50
  -2  -3   8    9.80   15.40
   2  -3  -8   -9.20   16.80
   2   3  -8    7.50   15.30
  -2   3   8   11.70   15.30
  -1  -3   8  114.69   27.90
   1  -3  -8   35.50   29.80
   1   3  -8   76.09   23.10
   0  -3  -8  233.68   41.30
   0  -3   8  233.98   43.70
   0   3  -8  301.87   44.80
   0   3   8  285.67   47.50
   1  -3   8   29.20   23.60
  -1  -3  -8  112.49   32.60
   1   3   8   86.59   30.40
  -1   3  -8   73.19   28.70
  -2  -3  -8    3.30   25.70
   2  -3   8   18.50   24.60
   2   3   8   68.79   19.20
  -2   3  -8   10.80   24.80
  -2  -4   8   49.70   18.10
   2  -4  -8   44.30   22.60
  -2   4   8   11.90   19.80
   2   4  -8   14.60   17.60
   1  -4  -8   84.49   34.00
  -1  -4   8  110.19   29.10
   1   4  -8  223.88   39.50
   0  -4   8   -4.60   19.60
   0  -4  -8  -11.40   19.80
   0   4   8   10.40   21.60
   0   4  -8   39.30   25.80
  -1  -4  -8   63.69   30.00
   1  -4   8   51.49   27.60
   1   4   8   45.10   30.00
  -1   4  -8   16.30   23.30
  -2  -4  -8   59.49   27.60
  -2   4  -8   31.20   25.50
   2   4   8   56.69   30.90
   2  -5  -8   26.60   21.80
  -2  -5   8    6.50   16.80
  -2   5   8   27.70   20.50
  -1  -5   8   -0.30   19.00
   1  -5  -8   32.60   25.90
  -1   5   8   21.70   21.30
   1   5  -8   -3.30   16.60
   0  -5  -8   -2.70   21.30
   0   5  -8    0.60   23.20
   0   5   8    8.30   17.60
  -1  -5  -8    3.40   20.40
   1  -5   8  -32.60   22.30
  -1   5  -8   64.19   30.70
   1   5   8   29.30   26.20
   2  -5   8  -31.20   21.00
  -2  -5  -8    3.80   24.60
  -2   5  -8  -59.29   28.40
   2   5   8   19.30   31.90
   4   6  -8   20.40   13.80
   2  -6  -8   25.60   21.10
  -2   6   8   42.00   22.40
   1  -6  -8   -4.90   20.20
  -1  -6   8  -27.40   15.00
  -1   6   8  -12.60   17.10
   1   6  -8  -11.60   16.40
   0  -6   8    6.10   19.30
   0  -6  -8   21.90   20.90
   0   6   8   21.00   23.00
   0   6  -8  -14.50   18.90
  -1  -6  -8   27.70   27.00
   1  -6   8  -21.80   19.90
   1   6   8   51.59   30.20
  -1   6  -8   67.39   25.90
   2  -6   8   36.10   26.10
  -2  -6  -8  -15.30   25.40
   2   6   8   32.40   27.50
  -2   6  -8   10.40   24.20
   2  -7  -8  218.58   39.50
  -2   7   8  166.08   34.60
  -1  -7   8   41.90   21.30
   1   7  -8   -3.10   16.10
  -1   7   8   63.59   23.10
   0  -7  -8  175.88   38.40
   0  -7   8   98.09   33.40
   0   7   8  190.48   39.50
   0   7  -8  139.59   34.00
   1  -7   8   12.10   26.10
  -1  -7  -8   23.20   28.80
   1   7   8   14.80   23.60
   2  -7   8  -25.70   26.40
  -2  -7  -8   15.20   25.50
  -2   7  -8   17.80   29.50
   2   7   8  -67.49   24.70
   4   8  -8  270.17   20.40
   2  -8  -8   71.89   28.20
  -2   8   8   85.89   25.40
   1  -8  -8   76.59   30.10
  -1  -8   8   71.39   25.00
   1   8  -8   77.69   26.00
  -1   8   8  123.89   32.60
   0  -8  -8   65.39   30.10
   0  -8   8  142.19   34.80
   0   8   8  114.79   35.70
   0   8  -8   96.59   25.50
  -1  -8  -8   28.50   26.50
   1  -8   8  -12.90   20.80
  -1   8  -8   10.40   21.70
   1   8   8   30.10   24.20
  -2  -8  -8  168.58   41.30
   2  -8   8  186.78   52.99
   2   8   8  146.39   44.30
   1  -9  -8   20.40   20.70
  -1  -9   8   -9.60   28.00
  -1   9   8  -24.50   18.40
   0  -9   8  525.55   58.19
   0  -9  -8  437.16   55.49
   0   9  -8  486.65   54.09
   0   9   8  423.96   55.79
  -1  -9  -8  116.19   31.20
   1  -9   8   51.69   26.50
  -1   9  -8   48.00   29.30
   1   9   8   48.20   27.20
   2  -9   8   53.19   32.20
  -2  -9  -8  -61.49   28.70
   2   9   8  -49.00   31.20
  -2   9  -8   40.40   34.80
   4  10  -8  517.45   35.90
   3  10  -8   28.40   17.20
   1 -10  -8  773.12   65.79
  -1  10   8  885.21   72.09
   0 -10  -8   31.80   23.30
   0 -10   8   15.10   23.10
   0  10  -8   18.20   22.40
   0  10   8  -13.20   18.90
  -1 -10  -8  118.89   31.80
   1 -10   8   52.09   33.40
  -1  10  -8  141.19   33.90
   1  10   8   84.79   32.70
   2 -10   8   52.29   30.80
  -2 -10  -8   59.99   37.70
  -2  10  -8   35.20   36.10
   2  10   8   54.79   33.30
   3  11  -8  302.67   30.10
   1 -11  -8  -18.90   20.20
  -1  11   8   15.50   22.20
   0 -11  -8  135.79   38.90
   0  11   8  221.48   42.80
   1 -11   8  264.97   53.49
  -1 -11  -8  197.68   40.60
   1  11   8  206.48   48.90
  -1  11  -8  383.96   56.69
   2 -11   8   77.99   29.60
  -2 -11  -8   43.40   38.50
  -2  11  -8   51.49   33.50
   3  12  -8   96.19   20.50
   2  12  -8   84.59   24.70
   1 -12  -8  409.66   57.79
  -1  12   8  465.45   54.29
   0 -12  -8  -18.30   22.20
   0  12   8  -12.10   23.30
  -1 -12  -8  110.69   36.00
   1  12   8   15.20   26.60
  -2  12  -8  451.25  103.19
   3  13  -8  340.07   35.30
   2  13  -8   33.90   21.40
   1 -13  -8  108.89   33.70
   1  13  -8  105.19   27.70
  -1  13   8   81.89   32.60
   0 -13  -8    8.30   51.09
  -1 -13  -8   64.89   36.70
   1  13   8  160.08   40.70
   3  14  -8   17.70   15.60
   2  14  -8  159.58   32.70
   1 -14  -8    6.90   27.10
  -1  14   8  -12.70   21.90
   1  14  -8   32.70   21.80
   0 -14  -8  117.99   37.00
   0  14  -8  130.39   34.10
   0  14   8  130.89   35.70
  -1 -14  -8   78.69   36.80
   1  14   8  153.68   39.20
   3  15  -8   47.90   21.40
   2  15  -8   30.50   21.90
   1  15  -8   -8.60   20.50
   0 -15  -8  164.78   38.40
   0  15   8  238.38   44.60
  -1 -15  -8  -10.70   36.80
   1  15   8  -42.90   28.70
   0 -16  -8   28.40   35.20
  -1 -16  -8    7.90   32.80
   1  16   8   26.90   33.50
   0 -17  -8   98.89   36.20
   0  17   8   67.79   30.40
   0 -18  -8  109.39   39.30
   0  18   8   57.29   35.90
   0   0  -9   64.49   35.50
   0   0   9   -5.70   28.50
  -1   0  -9    9.20   25.50
   1   0   9    4.20   30.70
  -2   0  -9  -48.50   35.40
   0  -1  -9    1.70   25.30
   0   1   9    4.60   22.60
  -1  -1  -9   -9.40   29.40
   1   1   9  -21.20   26.90
  -1   1  -9  -17.80   26.00
  -2  -1  -9  -36.10   36.80
   2  -1   9   80.09   53.29
  -2   1  -9  -41.60   36.90
   0  -2  -9  128.79   30.50
   0   2   9   37.70   29.90
   1  -2   9   75.69   29.20
  -1  -2  -9   -1.20   26.40
   1   2   9    3.90   27.40
  -1   2  -9    7.50   23.80
  -2  -2  -9  -83.19   38.60
   2  -2   9  150.38   55.09
  -2   2  -9   21.40   40.40
   0  -3  -9   -7.40   26.50
   0   3   9  -15.40   21.90
   1  -3   9  -16.90   25.60
  -1  -3  -9  101.79   30.90
  -1   3  -9   18.10   36.80
   1   3   9   35.50   28.60
  -2  -3  -9 -129.59   60.29
   2  -3   9  -48.10   33.00
  -2   3  -9   61.79   44.20
   0  -4  -9   75.39   34.10
   0   4   9   85.39   33.90
  -1  -4  -9  193.58   42.90
   1   4   9  276.97   44.20
  -2   4  -9  -68.19   61.59
   0  -5  -9  -23.10   26.10
   0   5   9   76.89   28.10
  -1  -5  -9  153.98   38.80
   1   5   9   73.99   38.30
   0  -6  -9   14.20   30.40
   0   6   9   97.99   31.60
  -1  -6  -9  133.09   37.30
   1   6   9  145.89   39.50
   0  -7  -9  177.28   41.70
   0   7   9  111.99   37.10
  -1  -7  -9   38.50   35.40
   0  -8  -9  136.79   41.50
  -1  -8  -9   20.50   31.90
   1   8   9    4.40   24.70
  -1  -9  -9   26.60   36.20
   1   9   9   -4.80   28.80
  -1 -10  -9  -70.09   33.10
   1  10   9  -60.69   31.70
  -1 -11  -9  -63.19   34.60
   1  11   9  -43.60   35.80
  -1 -12  -9   60.89   44.80
   0   0   0    0.00    0.00
_computing_structure_solution     'SHELXT 2014/5 (Sheldrick, 2014)'
;
_shelx_hkl_checksum              78331
_shelx_res_file
;
TITL PRIST_S4XA1_14022020_0m_a.res in P2(1)/c
    shelx.res
    created by SHELXL-2018/3 at 12:04:42 on 29-Mar-2022
CELL 0.71073 4.9225 22.7572 7.5601 90 103.003 90
ZERR 4 0.0002 0.0017 0.0005 0 0.003 0
LATT 1
SYMM -X,0.5+Y,0.5-Z
SFAC C H N O Br
UNIT 20 28 16 12 4
EQIV $1 1-X,1-Y,2-Z
EQIV $2 +X,0.5-Y,0.5+Z
EQIV $3 2-X,1-Y,1-Z
EQIV $4 1+X,0.5-Y,-0.5+Z
EQIV $5 1+X,+Y,-1+Z
DFIX 0.86 0.01 O1W H1Wa O1W H1Wb
DANG 1.39 0.02 H1Wa H1Wb
SADI 0.01 N1 H1 N3 H3 N7 H7 N9 H9
L.S. 4
PLAN  5
SIZE 0.308 0.367 0.548
TEMP 30.41
HTAB N1 O2_$1
HTAB N3 Br1_$2
HTAB N7 O1W
HTAB N9 Br1
HTAB O1W O6_$3
HTAB O1W Br1_$4
HTAB O1W O2_$5
CONF
LIST 6
BOND $H
fmap 2
acta 50.0
MORE -1
MERG 2
REM <olex2.extras>
REM <HklSrc "%.\\II.hkl">
REM </olex2.extras>
WGHT    0.015100    1.717500
FVAR       0.88226
BR1   5   -0.164537    0.204120    0.475694    11.00000    0.03065    0.02532 =
         0.04135   -0.00286    0.01087   -0.00152
O6    4    0.803267    0.478225    0.603310    11.00000    0.03174    0.03090 =
         0.03599   -0.00277    0.01470   -0.01103
C6    1    0.630109    0.446147    0.646540    11.00000    0.02309    0.02175 =
         0.02758    0.00460    0.00572   -0.00010
N1    3    0.526712    0.456421    0.798836    11.00000    0.02944    0.02530 =
         0.02919   -0.00464    0.01106   -0.00974
H1    2    0.578456    0.486667    0.854719    11.00000   -1.20000
C2    1    0.331294    0.423993    0.862835    11.00000    0.02551    0.02240 =
         0.02925    0.00420    0.00793   -0.00302
O2    4    0.254128    0.438938    0.999198    11.00000    0.04314    0.04322 =
         0.03379   -0.00790    0.02156   -0.01181
N3    3    0.227808    0.374889    0.764674    11.00000    0.02464    0.02322 =
         0.03055    0.00504    0.01281   -0.00409
H3    2    0.126264    0.354466    0.811635    11.00000   -1.20000
C4    1    0.321203    0.361660    0.614721    11.00000    0.02358    0.01931 =
         0.02720    0.00389    0.00279    0.00108
C5    1    0.510760    0.394559    0.553819    11.00000    0.02315    0.02458 =
         0.02320   -0.00081    0.00502   -0.00181
N7    3    0.550894    0.368516    0.397169    11.00000    0.02908    0.02859 =
         0.02654    0.00046    0.01093   -0.00228
H7    2    0.651177    0.380377    0.331725    11.00000   -1.20000
C8    1    0.391867    0.321682    0.365221    11.00000    0.03467    0.02768 =
         0.02798   -0.00482    0.00513   -0.00128
H8    2    0.384180    0.294724    0.264673    11.00000   -1.20000
N9    3    0.247693    0.315966    0.495634    11.00000    0.02990    0.01858 =
         0.03461   -0.00003    0.00611   -0.00402
H9    2    0.148347    0.287612    0.502715    11.00000   -1.20000
O1W   4    0.894692    0.423526    0.237424    11.00000    0.04836    0.04492 =
         0.04566   -0.01724    0.02900   -0.01993
H1WA  2    0.982675    0.452301    0.297542    11.00000   -1.50000
H1WB  2    0.980379    0.414752    0.153600    11.00000   -1.50000
HKLF 4
REM  PRIST_S4XA1_14022020_0m_a.res in P2(1)/c
REM wR2 = 0.0802, GooF = S = 1.100, Restrained GooF = 1.097 for all data
REM R1 = 0.0360 for 1418 Fo > 4sig(Fo) and 0.0621 for all 1855 data
REM 139 parameters refined using 9 restraints
END
WGHT      0.0152      1.7137
REM Highest difference peak  0.424,  deepest hole -0.620,  1-sigma level  0.112
Q1    1  -0.1735  0.2218  0.3976  11.00000  0.05    0.42
Q2    1   0.5109  0.2944  0.0583  11.00000  0.05    0.41
Q3    1   0.6750  0.2780  0.2578  11.00000  0.05    0.41
Q4    1   0.7875  0.3295  0.6056  11.00000  0.05    0.41
Q5    1   0.7794  0.3885  0.3017  11.00000  0.05    0.40
;
_shelx_res_checksum              56844
loop_
_space_group_symop_operation_xyz
'x, y, z'
'-x, y+1/2, -z+1/2'
'-x, -y, -z'
'x, -y-1/2, z-1/2'
loop_
_atom_site_type_symbol
_atom_site_label
_atom_site_fract_x
_atom_site_fract_y
_atom_site_fract_z
_atom_site_U_iso_or_equiv
_atom_site_adp_type
_atom_site_calc_flag
_atom_site_occupancy
_atom_site_disorder_assembly
_atom_site_disorder_group
Br Br1 -0.16454(8) 0.20412(2) 0.47569(6) 0.03200(14) Uani d 1 . .
O O6 0.8033(5) 0.47823(12) 0.6033(4) 0.0318(6) Uani d 1 . .
C C6 0.6301(7) 0.44615(16) 0.6465(5) 0.0241(8) Uani d 1 . .
N N1 0.5267(7) 0.45642(14) 0.7988(4) 0.0273(7) Uani d 1 . .
H H1 0.578(8) 0.4867(13) 0.855(5) 0.033 Uiso d 1 . .
C C2 0.3313(8) 0.42399(16) 0.8628(5) 0.0254(8) Uani d 1 . .
O O2 0.2541(6) 0.43894(13) 0.9992(4) 0.0380(7) Uani d 1 . .
N N3 0.2278(6) 0.37489(13) 0.7647(4) 0.0251(7) Uani d 1 . .
H H3 0.126(7) 0.3545(16) 0.812(5) 0.030 Uiso d 1 . .
C C4 0.3212(7) 0.36166(15) 0.6147(5) 0.0238(8) Uani d 1 . .
C C5 0.5108(7) 0.39456(16) 0.5538(5) 0.0237(8) Uani d 1 . .
N N7 0.5509(7) 0.36852(14) 0.3972(4) 0.0273(7) Uani d 1 . .
H H7 0.651(8) 0.3804(18) 0.332(5) 0.033 Uiso d 1 . .
C C8 0.3919(8) 0.32168(18) 0.3652(6) 0.0304(9) Uani d 1 . .
H H8 0.384(9) 0.2947(18) 0.265(6) 0.036 Uiso d 1 . .
N N9 0.2477(7) 0.31597(14) 0.4956(5) 0.0279(7) Uani d 1 . .
H H9 0.148(7) 0.2876(14) 0.503(6) 0.033 Uiso d 1 . .
O O1W 0.8947(7) 0.42353(14) 0.2374(4) 0.0434(8) Uani d 1 . .
H H1WA 0.983(9) 0.4523(16) 0.298(6) 0.065 Uiso d 1 . .
H H1WB 0.980(9) 0.415(2) 0.154(5) 0.065 Uiso d 1 . .
loop_
_atom_site_aniso_label
_atom_site_aniso_U_11
_atom_site_aniso_U_22
_atom_site_aniso_U_33
_atom_site_aniso_U_12
_atom_site_aniso_U_13
_atom_site_aniso_U_23
Br1 0.0307(2) 0.0253(2) 0.0413(2) -0.00152(17) 0.01087(16) -0.00286(18)
O6 0.0317(15) 0.0309(15) 0.0360(16) -0.0110(12) 0.0147(13) -0.0028(12)
C6 0.0231(18) 0.0217(18) 0.028(2) -0.0001(14) 0.0057(16) 0.0046(15)
N1 0.0294(17) 0.0253(17) 0.0292(19) -0.0097(14) 0.0111(15) -0.0046(14)
C2 0.0255(19) 0.0224(19) 0.029(2) -0.0030(15) 0.0079(17) 0.0042(16)
O2 0.0431(17) 0.0432(18) 0.0338(17) -0.0118(14) 0.0216(14) -0.0079(14)
N3 0.0246(16) 0.0232(16) 0.0305(18) -0.0041(12) 0.0128(14) 0.0050(13)
C4 0.0236(18) 0.0193(17) 0.027(2) 0.0011(14) 0.0028(15) 0.0039(15)
C5 0.0231(18) 0.0246(18) 0.0232(19) -0.0018(14) 0.0050(15) -0.0008(15)
N7 0.0291(17) 0.0286(17) 0.0265(18) -0.0023(14) 0.0109(14) 0.0005(14)
C8 0.035(2) 0.028(2) 0.028(2) -0.0013(17) 0.0051(18) -0.0048(17)
N9 0.0299(17) 0.0186(15) 0.0346(19) -0.0040(13) 0.0061(15) 0.0000(14)
O1W 0.0484(19) 0.0449(19) 0.046(2) -0.0199(15) 0.0290(16) -0.0172(15)
loop_
_atom_type_symbol
_atom_type_description
_atom_type_scat_dispersion_real
_atom_type_scat_dispersion_imag
_atom_type_scat_source
C C 0.0033 0.0016 'International Tables Vol C Tables 4.2.6.8 and 6.1.1.4'
H H 0.0000 0.0000 'International Tables Vol C Tables 4.2.6.8 and 6.1.1.4'
N N 0.0061 0.0033 'International Tables Vol C Tables 4.2.6.8 and 6.1.1.4'
O O 0.0106 0.0060 'International Tables Vol C Tables 4.2.6.8 and 6.1.1.4'
Br Br -0.2901 2.4595 'International Tables Vol C Tables 4.2.6.8 and 6.1.1.4'
loop_
_geom_angle_atom_site_label_1
_geom_angle_atom_site_label_2
_geom_angle_atom_site_label_3
_geom_angle_site_symmetry_1
_geom_angle_site_symmetry_3
_geom_angle
_geom_angle_publ_flag
O6 C6 N1 . . 122.2(3) ?
O6 C6 C5 . . 126.6(4) ?
N1 C6 C5 . . 111.2(3) ?
C6 N1 C2 . . 128.1(3) ?
C6 N1 H1 . . 116(3) ?
C2 N1 H1 . . 115(3) ?
O2 C2 N3 . . 122.2(3) ?
O2 C2 N1 . . 121.2(3) ?
N3 C2 N1 . . 116.6(3) ?
C4 N3 C2 . . 118.7(3) ?
C4 N3 H3 . . 126(3) ?
C2 N3 H3 . . 115(3) ?
N3 C4 C5 . . 123.6(3) ?
N3 C4 N9 . . 129.2(3) ?
C5 C4 N9 . . 107.2(3) ?
C4 C5 N7 . . 107.3(3) ?
C4 C5 C6 . . 121.8(3) ?
N7 C5 C6 . . 130.9(3) ?
C8 N7 C5 . . 108.2(3) ?
C8 N7 H7 . . 125(3) ?
C5 N7 H7 . . 127(3) ?
N7 C8 N9 . . 109.6(4) ?
N7 C8 H8 . . 125(3) ?
N9 C8 H8 . . 125(3) ?
C8 N9 C4 . . 107.7(3) ?
C8 N9 H9 . . 123(3) ?
C4 N9 H9 . . 129(3) ?
H1WA O1W H1WB . . 107(2) ?
loop_
_geom_bond_atom_site_label_1
_geom_bond_atom_site_label_2
_geom_bond_site_symmetry_2
_geom_bond_distance
_geom_bond_publ_flag
O6 C6 . 1.221(4) ?
C6 N1 . 1.380(5) ?
C6 C5 . 1.425(5) ?
N1 C2 . 1.383(5) ?
N1 H1 . 0.82(2) ?
C2 O2 . 1.224(5) ?
C2 N3 . 1.374(5) ?
N3 C4 . 1.350(5) ?
N3 H3 . 0.82(2) ?
C4 C5 . 1.355(5) ?
C4 N9 . 1.370(5) ?
C5 N7 . 1.378(5) ?
N7 C8 . 1.312(5) ?
N7 H7 . 0.82(2) ?
C8 N9 . 1.344(5) ?
C8 H8 . 0.97(4) ?
N9 H9 . 0.82(2) ?
O1W H1WA . 0.857(10) ?
O1W H1WB . 0.860(10) ?
loop_
_geom_hbond_atom_site_label_D
_geom_hbond_atom_site_label_H
_geom_hbond_atom_site_label_A
_geom_hbond_site_symmetry_A
_geom_hbond_distance_DH
_geom_hbond_distance_HA
_geom_hbond_distance_DA
_geom_hbond_angle_DHA
_geom_hbond_publ_flag
N1 H1 O2 3_667 0.82(2) 2.09(2) 2.903(4) 175(4) yes
N3 H3 Br1 4_566 0.82(2) 2.48(2) 3.301(3) 176(4) yes
N7 H7 O1W . 0.82(2) 1.81(2) 2.609(4) 163(4) yes
N9 H9 Br1 . 0.82(2) 2.43(2) 3.237(3) 172(4) yes
O1W H1WA O6 3_766 0.857(10) 1.954(14) 2.802(4) 171(5) yes
O1W H1WB Br1 4_665 0.860(10) 3.03(4) 3.490(3) 115(3) yes
O1W H1WB O2 1_654 0.860(10) 2.05(3) 2.816(4) 149(4) yes
loop_
_geom_torsion_atom_site_label_1
_geom_torsion_atom_site_label_2
_geom_torsion_atom_site_label_3
_geom_torsion_atom_site_label_4
_geom_torsion_site_symmetry_1
_geom_torsion_site_symmetry_2
_geom_torsion_site_symmetry_3
_geom_torsion_site_symmetry_4
_geom_torsion
_geom_torsion_publ_flag
O6 C6 N1 C2 . . . . 179.8(4) ?
C5 C6 N1 C2 . . . . -0.7(5) ?
C6 N1 C2 O2 . . . . -178.6(4) ?
C6 N1 C2 N3 . . . . 0.8(6) ?
O2 C2 N3 C4 . . . . 179.3(4) ?
N1 C2 N3 C4 . . . . -0.1(5) ?
C2 N3 C4 C5 . . . . -0.6(5) ?
C2 N3 C4 N9 . . . . -179.3(4) ?
N3 C4 C5 N7 . . . . -178.8(3) ?
N9 C4 C5 N7 . . . . 0.1(4) ?
N3 C4 C5 C6 . . . . 0.8(6) ?
N9 C4 C5 C6 . . . . 179.6(3) ?
O6 C6 C5 C4 . . . . 179.3(4) ?
N1 C6 C5 C4 . . . . -0.1(5) ?
O6 C6 C5 N7 . . . . -1.2(7) ?
N1 C6 C5 N7 . . . . 179.3(4) ?
C4 C5 N7 C8 . . . . -0.1(4) ?
C6 C5 N7 C8 . . . . -179.6(4) ?
C5 N7 C8 N9 . . . . 0.1(5) ?
N7 C8 N9 C4 . . . . 0.0(4) ?
N3 C4 N9 C8 . . . . 178.7(4) ?
C5 C4 N9 C8 . . . . -0.1(4) ?

_cod_database_fobs_code 2244101
