#------------------------------------------------------------------------------
#$Date: 2022-09-23 05:09:46 +0300 (Fri, 23 Sep 2022) $
#$Revision: 278105 $
#$URL: file:///home/coder/svn-repositories/cod/cif/2/24/41/2244179.cif $
#------------------------------------------------------------------------------
#
# This file is available in the Crystallography Open Database (COD),
# http://www.crystallography.net/. The original data for this entry
# were provided by IUCr Journals, http://journals.iucr.org/.
#
# The file may be used within the scientific community so long as
# proper attribution is given to the journal article from which the
# data were obtained.
#
data_2244179
loop_
_publ_author_name
'Archana, Sreeramapura D.'
'Kiran Kumar, Haruvegowda'
'Shankara Prasad, Holehundi J.'
'Yathirajan, Hemmige S.'
'Parkin, Sean'
_publ_section_title
;
 Synthesis and crystal structures of 1-benzoyl-4-(4-nitrophenyl)piperazine
 and 1-(4-bromobenzoyl)-4-phenylpiperazine at 90K
;
_journal_coeditor_code           TX2058
_journal_issue                   10
_journal_name_full               'Acta Crystallographica Section E'
_journal_page_first
;
;
_journal_paper_doi               10.1107/S2056989022009008
_journal_volume                  78
_journal_year                    2022
_chemical_absolute_configuration ad
_chemical_formula_iupac          'C17 H17 Br N2 O'
_chemical_formula_moiety         'C17 H17 Br N2 O'
_chemical_formula_sum            'C17 H17 Br N2 O'
_chemical_formula_weight         345.23
_chemical_name_systematic
;
1-(4-Bromobenzoyl)-4-phenylpiperazine
;
_space_group_crystal_system      monoclinic
_space_group_IT_number           4
_space_group_name_Hall           'P 2yb'
_space_group_name_H-M_alt        'P 1 21 1'
_atom_sites_solution_hydrogens   difmap
_atom_sites_solution_primary     direct
_atom_sites_solution_secondary   difmap
_audit_creation_method           'SHELXL-2019/2 and CIFFIX'
_cell_angle_alpha                90
_cell_angle_beta                 98.6250(10)
_cell_angle_gamma                90
_cell_formula_units_Z            2
_cell_length_a                   7.5162(3)
_cell_length_b                   6.1125(2)
_cell_length_c                   15.7249(5)
_cell_measurement_reflns_used    9856
_cell_measurement_temperature    90.0(2)
_cell_measurement_theta_max      27.47
_cell_measurement_theta_min      2.62
_cell_volume                     714.28(4)
_computing_cell_refinement
;
<i>APEX3</i> (Bruker, 2016)
;
_computing_data_collection
;
<i>APEX3</i> (Bruker, 2016)
;
_computing_data_reduction
;
<i>APEX3</i> (Bruker, 2016)
;
_computing_molecular_graphics
;
<i>XP</i> in <i>SHELXTL</i> (Sheldrick, 2008)
;
_computing_publication_material
;
<i>SHELXTL</i> (Sheldrick, 2008) and <i>publCIF</i> (Westrip,
2010)
;
_computing_structure_refinement
;
<i>SHELXL2019/2</i> (Sheldrick, 2015b)
;
_computing_structure_solution
;
<i>SHELXT</i> (Sheldrick, 2015a)
;
_diffrn_ambient_temperature      90.0(2)
_diffrn_detector_area_resol_mean 7.41
_diffrn_measured_fraction_theta_full 0.998
_diffrn_measured_fraction_theta_max 0.998
_diffrn_measurement_device_type  'Bruker D8 Venture dual source'
_diffrn_measurement_method       '\f and \w scans'
_diffrn_radiation_type           MoK\a
_diffrn_radiation_wavelength     0.71073
_diffrn_reflns_av_R_equivalents  0.0650
_diffrn_reflns_av_unetI/netI     0.0367
_diffrn_reflns_limit_h_max       9
_diffrn_reflns_limit_h_min       -9
_diffrn_reflns_limit_k_max       7
_diffrn_reflns_limit_k_min       -7
_diffrn_reflns_limit_l_max       20
_diffrn_reflns_limit_l_min       -20
_diffrn_reflns_number            6918
_diffrn_reflns_theta_full        25.242
_diffrn_reflns_theta_max         27.504
_diffrn_reflns_theta_min         2.620
_diffrn_source                   microsource
_exptl_absorpt_coefficient_mu    2.878
_exptl_absorpt_correction_T_max  0.806
_exptl_absorpt_correction_T_min  0.568
_exptl_absorpt_correction_type   multi-scan
_exptl_absorpt_process_details
;
(<i>TWINABS</i>; Sheldrick, 2012)
;
_exptl_crystal_colour            colourless
_exptl_crystal_density_diffrn    1.605
_exptl_crystal_description       'slab cut from lath'
_exptl_crystal_F_000             352
_exptl_crystal_size_max          0.350
_exptl_crystal_size_mid          0.200
_exptl_crystal_size_min          0.060
_refine_diff_density_max         0.293
_refine_diff_density_min         -0.222
_refine_ls_abs_structure_details
;
Flack <i>x</i> determined using 1306 quotients
[(<i>I</i>^+^)-(<i>I</i>^-^)]/[(<i>I</i>^+^)+(<i>I</i>^-^)]
(Parsons <i>et al.</i>,  2013)
;
_refine_ls_abs_structure_Flack   0.012(4)
_refine_ls_extinction_method     none
_refine_ls_goodness_of_fit_ref   1.044
_refine_ls_hydrogen_treatment    constr
_refine_ls_matrix_type           full
_refine_ls_number_parameters     191
_refine_ls_number_reflns         6918
_refine_ls_number_restraints     1
_refine_ls_restrained_S_all      1.044
_refine_ls_R_factor_all          0.0266
_refine_ls_R_factor_gt           0.0225
_refine_ls_shift/su_max          0.001
_refine_ls_shift/su_mean         0.000
_refine_ls_structure_factor_coef Fsqd
_refine_ls_weighting_details
'w=1/[\s^2^(Fo^2^)+(0.0158P)^2^+0.0999P] where P=(Fo^2^+2Fc^2^)/3'
_refine_ls_weighting_scheme      calc
_refine_ls_wR_factor_gt          0.0479
_refine_ls_wR_factor_ref         0.0491
_reflns_number_gt                6410
_reflns_number_total             6918
_reflns_threshold_expression     'I > 2\s(I)'
_cod_data_source_file            tx2058sup1.cif
_cod_data_source_block           II
_cod_original_sg_symbol_H-M      'P 21'
_cod_database_code               2244179
_shelx_space_group_comment
;
The symmetry employed for this shelxl refinement is uniquely defined
by the following loop, which should always be used as a source of
symmetry information in preference to the above space-group names.
They are only intended as comments.
;
_shelx_estimated_absorpt_t_min   0.432
_shelx_estimated_absorpt_t_max   0.846
_shelx_hkl_file
;
   1   0   0 201.065 4.87581   2
   1   0   0 422.570 17.8935  -2
   1   0   0 422.570 17.8935   1
   1   0   0 224.094 5.78314   1
   2   0   0 4992.35 200.349  -2
   2   0   0 4992.35 200.349   1
   2   0   0 2612.32 53.3638   1
   2   0   0 2599.53 53.1178   2
   3   0   0 4.96110 1.23779   2
   3   0   0 5.04421 1.29799   1
   4   0   0 190.307 4.98747   1
   4   0   0 178.386 4.53211   2
   5   0   0 933.898 17.7409   1
   5   0   0 921.959 18.1734   2
   6   0   0 430.196 9.79697   2
   6   0   0 449.357 10.3396   1
   7   0   0 409.487 12.2985   1
   7   0   0 368.533 11.2976   2
   8   0   0 103.086 7.76715   2
   8   0   0 110.309 7.58909   1
   9   0   0 254.907 11.8050   2
   9   0   0 245.640 12.7137   1
   0  -1   0 0.16635 0.41368   2
   0  -1   0 0.13423 0.36899   1
   0   1   0 0.63691 0.50509   2
   0   1   0 0.86699 0.45681   1
   0   1   0 1.32433 0.95269  -2
   0   1   0 1.32433 0.95269   1
  -1  -1   0 6130.51 350.543   1
  -2  -1   0 2774.50 62.8419   1
  -2  -1   0 5240.33 235.030  -2
  -2  -1   0 5240.33 235.030   1
  -2  -1   0 2652.79 52.8095   2
   2   1   0 3105.95 85.7246   1
   2   1   0 2980.21 90.9829   2
   2   1   0 6041.06 165.689  -2
   2   1   0 6041.06 165.689   1
  -3  -1   0 609.653 12.1975   1
  -3  -1   0 584.721 11.5372   2
  -3  -1   0 1199.66 73.9763  -2
  -3  -1   0 1199.66 73.9763   1
   3   1   0 579.015 12.1497   1
   3   1   0 548.695 11.4919   2
  -4  -1   0 305.788 6.92792   1
  -4  -1   0 297.476 7.22881   2
   4   1   0 267.431 6.71772   1
   4   1   0 248.916 6.47008   2
  -5  -1   0 291.703 7.38231   2
  -5  -1   0 298.282 7.45072   1
   5   1   0 270.099 6.49747   2
   5   1   0 282.470 7.38322   1
  -6  -1   0 117.148 4.37647   2
  -6  -1   0 116.466 4.77265   1
   6   1   0 103.973 4.04713   2
   6   1   0 114.802 4.55915   1
  -7  -1   0 106.102 6.95029   1
  -7  -1   0 90.1439 6.56481   2
   7   1   0 87.6401 5.39001   2
   7   1   0 101.992 5.46054   1
  -8  -1   0 496.430 16.2674   2
  -8  -1   0 520.814 17.9257   1
   8   1   0 545.799 17.9499   1
   8   1   0 518.563 14.9120   2
  -9  -1   0 291.448 12.6911   2
  -9  -1   0 300.499 13.6277   1
   9   1   0 306.235 15.1359   1
   9   1   0 269.936 12.7610   2
   0  -2   0 1079.74 26.1663   1
   0  -2   0 1032.27 24.8154   2
   0   2   0 1213.35 26.1993   1
   0   2   0 1147.02 24.8936   2
  -1  -2   0 1414.15 24.0487   1
  -1  -2   0 1345.44 22.3011   2
   1   2   0 1514.67 24.2078   1
   1   2   0 1459.50 23.1418   2
  -2  -2   0 456.027 8.83563   1
  -2  -2   0 431.492 8.37447   2
   2   2   0 492.718 8.57564   1
   2   2   0 472.052 8.19741   2
  -3  -2   0 336.269 7.29169   1
  -3  -2   0 303.063 6.45977   2
   3   2   0 350.282 7.77405   1
   3   2   0 325.196 7.22617   2
  -4  -2   0 178.990 5.14015   1
  -4  -2   0 168.101 4.72693   2
   4   2   0 209.547 9.56244   2
   4   2   0 254.951 5.77646   1
  -5  -2   0 375.618 8.86497   1
  -5  -2   0 354.609 7.85706   2
   5   2   0 323.944 7.68540   2
   5   2   0 363.654 8.42568   1
  -6  -2   0 654.252 14.8269   2
  -6  -2   0 687.288 16.2333   1
   6   2   0 667.966 14.5786   1
   6   2   0 646.447 14.2896   2
  -7  -2   0 505.992 14.2633   1
  -7  -2   0 471.727 13.6799   2
   7   2   0 477.701 13.8968   1
   7   2   0 445.967 11.8614   2
  -8  -2   0 8.73274 5.51398   1
  -8  -2   0 12.9486 5.73088   2
   8   2   0 7.03564 3.52691   2
   8   2   0 3.41959 4.21795   1
  -9  -2   0 57.6335 8.98724   2
  -9  -2   0 76.4539 12.8192   1
   9   2   0 58.9472 6.45727   2
   9   2   0 73.1516 8.61582   1
   0  -3   0 1.45329 1.12325   2
   0  -3   0 1.73832 0.92114   1
   0   3   0 1.94359 0.93406   1
   0   3   0 0.21280 1.00526   2
  -1  -3   0 180.003 4.32647   1
  -1  -3   0 170.584 4.40707   2
   1   3   0 212.019 5.22922   2
   1   3   0 216.583 5.39913   1
  -2  -3   0 986.095 18.2979   1
  -2  -3   0 956.019 15.9849   2
   2   3   0 876.866 14.9340   2
   2   3   0 947.813 16.6242   1
  -3  -3   0 568.174 12.1252   2
  -3  -3   0 596.760 11.5753   1
   3   3   0 603.270 11.2283   2
   3   3   0 638.775 11.3427   1
  -4  -3   0 245.280 5.65790   2
  -4  -3   0 257.743 6.66886   1
   4   3   0 263.479 6.15007   1
   4   3   0 252.531 5.91041   2
  -5  -3   0 286.090 7.30705   2
  -5  -3   0 305.382 7.83517   1
   5   3   0 295.318 7.81163   2
   5   3   0 316.940 7.50675   1
  -6  -3   0 6.37645 3.47403   2
  -6  -3   0 5.65279 3.52100   1
   6   3   0 11.4207 2.84205   2
   6   3   0 26.8696 3.94760   1
  -7  -3   0 311.355 10.6748   2
  -7  -3   0 321.154 11.1728   1
   7   3   0 331.366 10.3628   2
   7   3   0 375.153 11.6624   1
  -8  -3   0 334.063 12.1015   1
  -8  -3   0 343.369 14.5379   2
   8   3   0 331.177 11.5736   1
   8   3   0 319.398 15.3804   2
   0  -4   0 1724.93 39.0681   2
   0  -4   0 1744.48 43.7533   1
   0   4   0 1651.94 50.1469   2
   0   4   0 1741.39 76.2868   1
  -1  -4   0 488.228 9.49937   1
  -1  -4   0 459.110 8.78942   2
   1   4   0 390.128 11.6880   2
   1   4   0 411.303 10.6890   1
  -2  -4   0 2.46760 1.76768   2
  -2  -4   0 3.70678 1.89658   1
   2   4   0 10.1363 2.27392   1
   2   4   0 9.37187 2.15293   2
  -3  -4   0 473.253 9.05913   2
  -3  -4   0 507.966 10.3530   1
   3   4   0 478.395 9.72362   1
   3   4   0 440.021 10.7615   2
  -4  -4   0 142.110 4.44859   2
  -4  -4   0 138.443 5.14584   1
   4   4   0 197.068 5.22893   1
   4   4   0 185.911 4.34418   2
  -5  -4   0 381.670 11.0929   2
  -5  -4   0 390.110 11.9813   1
   5   4   0 491.143 11.3647   2
   5   4   0 532.623 11.8073   1
  -6  -4   0 473.667 12.7259   1
  -6  -4   0 457.996 15.3705   2
   6   4   0 431.241 12.7260   1
   6   4   0 395.898 10.4691   2
  -7  -4   0 141.187 8.74084   2
  -7  -4   0 152.691 7.56718   1
   7   4   0 149.068 7.90698   1
   7   4   0 132.995 8.44717   2
  -8  -4   0 1.22545 7.48382   2
  -8  -4   0 8.02596 6.29016   1
   8   4   0 8.14900 7.75203   2
   8   4   0 5.20250 7.57347   1
   0  -5   0 0.06625 1.38246   2
   0  -5   0 5.35011 7.06049   1
   0   5   0 -2.9526 4.76780   2
   0   5   0 -1.2947 5.45107   1
  -1  -5   0 827.354 17.1121   2
  -1  -5   0 878.587 20.3285   1
   1   5   0 845.287 24.1899   1
   1   5   0 766.411 19.0360   2
  -2  -5   0 980.735 22.5679   1
  -2  -5   0 929.919 21.7305   2
   2   5   0 825.071 22.3996   2
   2   5   0 869.477 20.4538   1
  -3  -5   0 1.54246 5.05581   1
  -3  -5   0 2.38833 3.22876   2
   3   5   0 23.9483 4.51558   2
   3   5   0 30.7820 4.20148   1
  -4  -5   0 370.198 8.81395   2
  -4  -5   0 382.977 10.2662   1
   4   5   0 494.843 12.7886   1
   4   5   0 467.785 21.0812   2
  -5  -5   0 136.734 5.23170   1
  -5  -5   0 135.773 4.84868   2
   5   5   0 119.518 4.60190   2
   5   5   0 122.226 4.97033   1
  -6  -5   0 3.34400 4.30775   1
  -6  -5   0 3.63580 4.08375   2
   6   5   0 4.25722 3.49228   1
   6   5   0 6.13757 4.14343   2
  -7  -5   0 184.170 9.69576   2
  -7  -5   0 179.437 17.9905   1
   7   5   0 143.973 9.95867   2
   7   5   0 162.737 9.75200   1
   0  -6   0 960.415 33.6573   1
   0  -6   0 915.746 32.6072   2
   0   6   0 892.422 48.9377   1
   0   6   0 857.877 44.5351   2
  -1  -6   0 493.151 11.3983   1
  -1  -6   0 465.357 12.1847   2
   1   6   0 461.013 16.3847   2
   1   6   0 503.969 19.1411   1
  -2  -6   0 23.5294 3.46695   2
  -2  -6   0 29.3784 5.23342   1
   2   6   0 55.6566 4.47275   2
   2   6   0 58.3030 5.53583   1
  -3  -6   0 14.6834 3.49745   2
  -3  -6   0 18.8286 4.22328   1
   3   6   0 11.7422 4.14097   2
   3   6   0 13.9191 5.08983   1
  -4  -6   0 115.767 5.89404   1
  -4  -6   0 104.901 5.12779   2
   4   6   0 128.203 9.93601   2
   4   6   0 135.880 8.75981   1
  -5  -6   0 170.735 7.91638   1
  -5  -6   0 182.024 7.31862   2
   5   6   0 142.434 11.7445   1
   5   6   0 128.917 14.0485   2
  -6  -6   0 107.912 7.55110   1
  -6  -6   0 92.3096 9.39043   2
   6   6   0 126.508 17.3887   2
   6   6   0 129.152 18.0538   1
   0  -7   0 3.23575 7.76363   2
   0  -7   0 -6.8511 3.92383   1
   0   7   0 -5.3846 15.1833   1
   0   7   0 0.45941 17.2064   2
  -1  -7   0 149.424 4.62061   2
  -1  -7   0 158.602 8.96578   1
   1   7   0 140.251 14.6055   1
   1   7   0 123.572 25.3179   2
  -2  -7   0 362.240 11.2468   1
  -2  -7   0 344.203 11.7323   2
   2   7   0 413.294 19.3828   1
   2   7   0 384.458 22.3410   2
  -3  -7   0 202.865 10.1496   1
  -3  -7   0 203.764 7.19012   2
   3   7   0 200.870 13.1123   2
   3   7   0 229.811 21.1275   1
  -4  -7   0 83.3094 8.19519   1
  -4  -7   0 73.3425 5.83223   2
   4   7   0 46.7738 15.1837   2
   4   7   0 69.4674 15.4233   1
  -9   0   1 110.538 8.62979   2
  -9   0   1 126.928 9.01439   1
  -8   0   1 3.86677 5.31846   2
  -8   0   1 9.53676 4.77364   1
  -7   0   1 18.2747 4.68945   1
  -7   0   1 17.7250 4.05849   2
  -6   0   1 948.347 21.2743   2
  -6   0   1 979.358 18.9992   1
  -5   0   1 1190.00 21.6875   2
  -5   0   1 1231.17 22.6377   1
  -4   0   1 1028.22 18.7781   1
  -4   0   1 992.987 17.9887   2
  -3   0   1 23.6505 1.70936   1
  -3   0   1 20.2965 1.47721   2
  -2   0   1 4351.61 174.802  -2
  -2   0   1 4351.61 174.802   1
  -2   0   1 2213.29 41.0260   1
  -2   0   1 2156.54 39.9025   2
  -1   0   1 467.966 10.0562   2
  -1   0   1 467.130 12.6915   1
  -1   0   1 910.707 22.0838  -2
  -1   0   1 910.707 22.0838   1
   1   0   1 18.3169 0.97861   1
   1   0   1 19.5301 1.01227   2
   1   0   1 34.0092 2.58966  -2
   1   0   1 34.0092 2.58966   1
   2   0   1 5905.31 236.677  -2
   2   0   1 5905.31 236.677   1
   2   0   1 2814.96 61.6216   2
   2   0   1 3193.87 69.4386   1
   3   0   1 119.202 3.84331   1
   3   0   1 110.674 3.90943   2
   4   0   1 119.357 4.26847   2
   4   0   1 127.540 4.36531   1
   5   0   1 874.930 16.9131   1
   5   0   1 832.351 16.5076   2
   6   0   1 860.687 16.8895   2
   6   0   1 890.116 18.3526   1
   7   0   1 282.644 9.71974   2
   7   0   1 303.619 10.1762   1
   8   0   1 9.05122 5.46574   1
   8   0   1 6.93819 5.68589   2
   9   0   1 32.5047 7.20824   2
   9   0   1 25.9954 6.79624   1
   9  -1  -1 222.225 11.0218   2
   9  -1  -1 209.063 10.9887   1
  -9   1   1 241.706 11.6112   1
  -9   1   1 213.266 12.1846   2
   8  -1  -1 356.789 13.3674   2
   8  -1  -1 360.733 13.1393   1
  -8   1   1 395.956 12.6046   1
  -8   1   1 362.509 10.9993   2
   7  -1  -1 164.327 8.01154   2
   7  -1  -1 171.501 8.31903   1
  -7   1   1 128.006 6.31381   2
  -7   1   1 135.996 6.57405   1
   6  -1  -1 651.326 13.9718   2
   6  -1  -1 686.859 15.4515   1
  -6   1   1 789.632 15.0395   1
  -6   1   1 747.791 14.7926   2
   5  -1  -1 88.1173 3.72004   1
   5  -1  -1 80.2575 3.48195   2
  -5   1   1 79.2196 3.79086   1
  -5   1   1 78.5809 3.04729   2
   4  -1  -1 1510.43 32.6999   2
   4  -1  -1 1583.17 32.4162   1
  -4   1   1 1820.13 31.3506   1
  -4   1   1 1749.14 31.4049   2
   3  -1  -1 3965.02 65.7890   2
   3  -1  -1 4074.32 66.5709   1
  -3   1   1 3602.36 66.2711   2
  -3   1   1 3804.97 77.1939   1
   2  -1  -1 2538.26 43.1549   2
   2  -1  -1 2654.87 42.1377   1
  -2   1   1 2169.50 45.6234   2
  -2   1   1 2267.28 51.5437   1
  -2   1   1 4233.44 172.978  -2
  -2   1   1 4233.44 172.978   1
   1  -1  -1 77.1528 1.65303   1
   1  -1  -1 71.7115 1.57974   2
  -1   1   1 392.054 17.2540  -2
  -1   1   1 392.054 17.2540   1
   0  -1  -1 194.475 3.56733   2
   0  -1  -1 208.455 3.85385   1
   0  -1  -1 401.096 26.4590  -2
   0  -1  -1 401.096 26.4590   1
   0   1   1 449.787 15.6065  -2
   0   1   1 449.787 15.6065   1
   0   1   1 225.212 5.12004   2
   0   1   1 235.991 5.33703   1
  -1  -1  -1 718.408 13.6521   1
  -1  -1  -1 686.428 14.4732   2
  -1  -1  -1 1445.71 88.5346  -2
  -1  -1  -1 1445.71 88.5346   1
   1   1   1 802.622 14.4411   1
   1   1   1 771.438 13.3389   2
   1   1   1 1589.65 66.7692  -2
   1   1   1 1589.65 66.7692   1
  -2  -1  -1 720.252 15.1513   2
  -2  -1  -1 756.094 16.5653   1
   2   1   1 1085.45 26.9426  -2
   2   1   1 1085.45 26.9426   1
   2   1   1 581.795 40.4372   2
   2   1   1 585.617 29.5944   1
  -3  -1  -1 1978.71 41.2994   1
  -3  -1  -1 1905.13 39.9616   2
  -3  -1  -1 4004.69 135.986  -2
  -3  -1  -1 4004.69 135.986   1
   3   1   1 1965.17 46.6977   2
   3   1   1 1999.46 48.3787   1
   3   1   1 4067.66 117.212  -2
   3   1   1 4067.66 117.212   1
  -4  -1  -1 1030.15 19.7820   1
  -4  -1  -1 991.625 20.0649   2
   4   1   1 1055.16 19.8691   1
   4   1   1 1038.39 19.3289   2
  -5  -1  -1 688.005 13.6916   2
  -5  -1  -1 730.800 14.4492   1
   5   1   1 656.877 14.2162   1
   5   1   1 629.963 13.5126   2
  -6  -1  -1 53.5746 3.70656   2
  -6  -1  -1 57.6632 3.89951   1
   6   1   1 69.2599 3.95334   1
   6   1   1 63.9164 3.48522   2
  -7  -1  -1 279.405 10.6204   2
  -7  -1  -1 298.073 11.2956   1
   7   1   1 289.655 9.56586   2
   7   1   1 324.024 10.0905   1
  -8  -1  -1 150.044 8.84301   2
  -8  -1  -1 161.834 9.06271   1
   8   1   1 188.816 8.88836   2
   8   1   1 199.636 9.24353   1
  -9  -1  -1 78.9019 8.34109   2
  -9  -1  -1 86.7529 8.95785   1
   9   1   1 60.9547 9.57579   1
   9   1   1 44.5019 7.69404   2
   9  -2  -1 86.1123 9.85825   2
   9  -2  -1 96.1484 9.78489   1
  -9   2   1 109.211 8.44901   1
  -9   2   1 88.1547 6.93974   2
   8  -2  -1 18.3355 5.80355   2
   8  -2  -1 23.5259 5.77023   1
  -8   2   1 14.6693 3.65201   2
  -8   2   1 11.9875 4.30274   1
   7  -2  -1 81.4444 5.82943   1
   7  -2  -1 72.7915 5.57376   2
  -7   2   1 66.8947 4.04361   2
  -7   2   1 79.5862 5.46762   1
   6  -2  -1 74.3014 4.75140   2
   6  -2  -1 67.3393 4.58161   1
  -6   2   1 76.5226 3.78305   2
  -6   2   1 86.4745 4.09271   1
   5  -2  -1 920.410 18.4301   2
   5  -2  -1 987.099 20.8536   1
  -5   2   1 1170.07 19.9348   1
  -5   2   1 1081.32 19.0711   2
   4  -2  -1 1837.85 32.0769   2
   4  -2  -1 1931.89 34.2682   1
  -4   2   1 1842.74 38.0001   1
  -4   2   1 1808.67 35.0420   2
   3  -2  -1 816.840 13.7416   1
   3  -2  -1 768.552 12.9846   2
  -3   2   1 722.416 14.0011   1
  -3   2   1 670.197 14.4323   2
   2  -2  -1 466.828 8.42419   1
   2  -2  -1 446.656 8.46160   2
  -2   2   1 484.377 8.85709   1
  -2   2   1 450.197 8.29479   2
   1  -2  -1 431.522 7.03711   1
   1  -2  -1 398.027 9.48547   2
  -1   2   1 306.396 6.97082   2
  -1   2   1 322.023 9.35605   1
   0  -2  -1 2267.19 36.6247   1
   0  -2  -1 2167.47 35.1763   2
   0   2   1 2270.48 36.3054   2
   0   2   1 2371.67 39.5862   1
  -1  -2  -1 2355.55 35.9257   2
  -1  -2  -1 2466.46 37.8937   1
   1   2   1 2144.21 38.5210   2
   1   2   1 2286.00 40.6928   1
  -2  -2  -1 424.697 7.99092   2
  -2  -2  -1 453.490 7.80201   1
   2   2   1 397.963 8.41178   1
   2   2   1 381.449 7.33914   2
  -3  -2  -1 242.485 5.80936   1
  -3  -2  -1 224.502 5.42509   2
   3   2   1 249.573 5.66651   2
   3   2   1 263.290 5.96489   1
  -4  -2  -1 81.8583 3.28388   2
  -4  -2  -1 88.7782 3.38295   1
   4   2   1 117.110 3.53415   1
   4   2   1 112.598 3.57297   2
  -5  -2  -1 713.439 13.9797   2
  -5  -2  -1 772.367 15.0816   1
   5   2   1 769.723 15.4863   1
   5   2   1 711.153 14.3902   2
  -6  -2  -1 456.771 11.5113   2
  -6  -2  -1 484.204 13.4468   1
   6   2   1 504.687 13.1974   1
   6   2   1 483.307 12.1644   2
  -7  -2  -1 479.222 13.9200   1
  -7  -2  -1 451.221 12.2449   2
   7   2   1 400.297 12.0269   2
   7   2   1 438.325 14.6380   1
  -8  -2  -1 20.2834 5.25131   1
  -8  -2  -1 10.4350 5.34359   2
   8   2   1 21.2856 4.54153   1
   8   2   1 19.3982 3.92156   2
  -9  -2  -1 -3.6762 8.40481   2
  -9  -2  -1 -6.8150 8.71618   1
   9   2   1 7.51852 6.99834   1
   9   2   1 -0.2973 5.98215   2
   9  -3  -1 293.759 34.3882   1
   9  -3  -1 275.124 29.7757   2
  -9   3   1 268.162 35.2914   2
  -9   3   1 270.667 51.0201   1
   8  -3  -1 224.531 10.5824   1
   8  -3  -1 225.352 11.1507   2
  -8   3   1 262.376 13.0740   2
  -8   3   1 288.797 14.0349   1
   7  -3  -1 16.6589 5.09727   2
   7  -3  -1 29.7955 4.97778   1
  -7   3   1 62.3900 7.79851   1
  -7   3   1 65.4720 6.40198   2
   6  -3  -1 304.620 8.41884   2
   6  -3  -1 314.941 8.78215   1
  -6   3   1 272.477 9.97425   2
  -6   3   1 287.218 9.49972   1
   5  -3  -1 197.552 5.79742   1
   5  -3  -1 188.690 5.37319   2
  -5   3   1 197.638 6.01871   2
  -5   3   1 216.843 6.34982   1
   4  -3  -1 238.865 5.31062   2
   4  -3  -1 254.416 5.82810   1
  -4   3   1 218.966 5.82160   1
  -4   3   1 208.112 6.14553   2
   3  -3  -1 806.295 14.5151   2
   3  -3  -1 817.396 15.1472   1
  -3   3   1 773.096 13.8827   2
  -3   3   1 828.574 14.5693   1
   2  -3  -1 1457.02 24.7704   1
   2  -3  -1 1372.37 24.5499   2
  -2   3   1 1433.78 24.5178   2
  -2   3   1 1502.41 26.0247   1
   1  -3  -1 1606.12 28.1526   1
   1  -3  -1 1530.08 27.8792   2
  -1   3   1 1510.34 31.1162   2
  -1   3   1 1607.76 31.2212   1
   0  -3  -1 5.07054 0.90108   2
   0  -3  -1 6.12180 0.74694   1
   0   3   1 21.4199 2.40796   1
   0   3   1 20.3400 1.57630   2
  -1  -3  -1 103.309 2.62575   1
  -1  -3  -1 97.2028 2.62149   2
   1   3   1 128.554 3.02076   1
   1   3   1 119.586 2.60797   2
  -2  -3  -1 373.694 7.45108   2
  -2  -3  -1 384.855 7.81707   1
   2   3   1 399.567 7.14791   2
   2   3   1 430.430 8.02036   1
  -3  -3  -1 1066.13 19.1334   2
  -3  -3  -1 1140.32 21.6944   1
   3   3   1 1147.14 19.0351   2
   3   3   1 1197.52 20.9769   1
  -4  -3  -1 857.104 15.9549   2
  -4  -3  -1 905.679 16.0480   1
   4   3   1 767.555 17.1861   1
   4   3   1 718.409 16.4460   2
  -5  -3  -1 219.230 6.84801   1
  -5  -3  -1 217.245 6.30786   2
   5   3   1 246.667 7.03357   2
   5   3   1 257.474 7.16944   1
  -6  -3  -1 8.83423 3.50015   2
  -6  -3  -1 7.99340 3.60786   1
   6   3   1 8.91549 3.97140   1
   6   3   1 4.54117 4.17081   2
  -7  -3  -1 79.9508 5.65510   2
  -7  -3  -1 93.6093 5.80341   1
   7   3   1 73.3134 5.29345   2
   7   3   1 85.9323 6.70165   1
  -8  -3  -1 224.123 10.4349   2
  -8  -3  -1 228.184 10.0344   1
   8   3   1 212.005 9.79631   2
   8   3   1 243.087 10.0669   1
   8  -4  -1 4.69130 6.38602   2
   8  -4  -1 4.41654 6.06148   1
  -8   4   1 -0.0931 6.98264   1
  -8   4   1 6.24042 7.71643   2
   7  -4  -1 62.6282 5.74470   1
   7  -4  -1 73.0164 6.72367   2
  -7   4   1 76.3211 7.06329   2
  -7   4   1 92.1325 6.34984   1
   6  -4  -1 71.1699 4.93845   2
   6  -4  -1 81.2538 5.33665   1
  -6   4   1 61.6224 4.70317   1
  -6   4   1 55.2858 4.57673   2
   5  -4  -1 394.958 10.2388   1
   5  -4  -1 382.964 9.98584   2
  -5   4   1 283.993 8.87066   2
  -5   4   1 293.618 9.67035   1
   4  -4  -1 1269.34 24.8739   2
   4  -4  -1 1339.64 23.9441   1
  -4   4   1 1232.32 23.4307   2
  -4   4   1 1313.07 23.8598   1
   3  -4  -1 439.637 11.0906   2
   3  -4  -1 453.570 11.1164   1
  -3   4   1 536.209 9.89272   1
  -3   4   1 511.921 13.2560   2
   2  -4  -1 67.8397 2.98835   2
   2  -4  -1 75.8336 3.25172   1
  -2   4   1 60.6600 3.58987   1
  -2   4   1 59.3861 3.31766   2
   1  -4  -1 669.650 13.1406   2
   1  -4  -1 714.916 13.8677   1
  -1   4   1 777.059 18.7781   1
  -1   4   1 752.588 16.5458   2
   0  -4  -1 659.485 10.7390   2
   0  -4  -1 677.101 12.8695   1
   0   4   1 651.531 12.2547   2
   0   4   1 710.387 17.8567   1
  -1  -4  -1 353.507 7.69633   1
  -1  -4  -1 338.350 6.81098   2
   1   4   1 384.221 9.48326   2
   1   4   1 402.538 10.0604   1
  -2  -4  -1 512.083 9.97908   2
  -2  -4  -1 532.962 11.0329   1
   2   4   1 509.520 12.8752   2
   2   4   1 552.310 13.5143   1
  -3  -4  -1 210.431 5.06673   2
  -3  -4  -1 226.135 5.44715   1
   3   4   1 228.160 5.52118   1
   3   4   1 206.016 5.13062   2
  -4  -4  -1 156.603 4.74829   2
  -4  -4  -1 167.458 6.21185   1
   4   4   1 205.351 4.97448   1
   4   4   1 192.327 4.95087   2
  -5  -4  -1 606.183 14.6018   2
  -5  -4  -1 637.213 15.1807   1
   5   4   1 552.136 13.1266   1
   5   4   1 550.149 12.1292   2
  -6  -4  -1 378.048 10.8657   2
  -6  -4  -1 390.025 11.7104   1
   6   4   1 385.104 10.4635   1
   6   4   1 363.435 9.04396   2
  -7  -4  -1 182.257 9.03298   1
  -7  -4  -1 173.252 9.71379   2
   7   4   1 185.953 7.70475   2
   7   4   1 194.850 7.06026   1
  -8  -4  -1 25.8019 8.18250   1
  -8  -4  -1 12.5423 8.31163   2
   8   4   1 47.0216 9.05178   2
   8   4   1 14.2749 7.77036   1
   7  -5  -1 341.043 12.9339   2
   7  -5  -1 355.014 23.7476   1
  -7   5   1 329.739 14.1546   2
  -7   5   1 338.043 14.0808   1
   6  -5  -1 50.1058 5.65644   1
   6  -5  -1 43.4565 4.23480   2
  -6   5   1 33.8277 4.96051   2
  -6   5   1 52.3865 4.46200   1
   5  -5  -1 14.5821 3.17655   1
   5  -5  -1 14.2004 2.66402   2
  -5   5   1 17.2853 2.98860   1
  -5   5   1 18.2754 2.74711   2
   4  -5  -1 120.787 4.70809   2
   4  -5  -1 124.944 4.19795   1
  -4   5   1 93.3283 8.91295   2
  -4   5   1 108.360 7.79275   1
   3  -5  -1 736.445 20.1164   1
   3  -5  -1 724.526 19.2386   2
  -3   5   1 648.993 18.7110   1
  -3   5   1 616.241 18.3871   2
   2  -5  -1 967.546 24.6307   1
   2  -5  -1 890.743 23.1116   2
  -2   5   1 1007.91 22.7131   2
  -2   5   1 1071.67 22.7615   1
   1  -5  -1 47.9061 2.79110   2
   1  -5  -1 59.8682 2.94207   1
  -1   5   1 85.2510 18.4250   1
  -1   5   1 100.468 15.7212   2
   0  -5  -1 118.177 2.82831   2
   0  -5  -1 120.363 8.26905   1
   0   5   1 142.330 8.19687   1
   0   5   1 135.968 4.94550   2
  -1  -5  -1 15.1180 2.21988   2
  -1  -5  -1 17.3893 2.13761   1
   1   5   1 21.3182 2.80953   2
   1   5   1 22.6795 3.50697   1
  -2  -5  -1 517.410 14.0117   2
  -2  -5  -1 538.212 14.6291   1
   2   5   1 555.594 14.9750   2
   2   5   1 596.644 15.6661   1
  -3  -5  -1 225.250 6.80349   2
  -3  -5  -1 234.104 7.24213   1
   3   5   1 283.821 9.06712   1
   3   5   1 259.368 8.68405   2
  -4  -5  -1 449.465 10.4513   2
  -4  -5  -1 457.799 11.2989   1
   4   5   1 443.223 12.5740   1
   4   5   1 406.665 12.6243   2
  -5  -5  -1 337.280 9.21009   1
  -5  -5  -1 325.040 8.72608   2
   5   5   1 283.477 7.24751   2
   5   5   1 313.358 8.97443   1
  -6  -5  -1 52.0441 4.79773   2
  -6  -5  -1 50.1526 5.67749   1
   6   5   1 44.3229 4.24213   1
   6   5   1 54.7006 4.98613   2
  -7  -5  -1 217.877 11.5547   2
  -7  -5  -1 198.212 17.2715   1
   7   5   1 197.500 11.3589   2
   7   5   1 230.499 11.3314   1
   6  -6  -1 167.198 8.95623   1
   6  -6  -1 144.161 11.7672   2
  -6   6   1 162.891 18.9901   2
  -6   6   1 184.555 19.5844   1
   5  -6  -1 249.700 9.65112   1
   5  -6  -1 237.935 8.64570   2
  -5   6   1 253.328 14.6935   1
  -5   6   1 234.928 17.3881   2
   4  -6  -1 352.161 10.3324   2
   4  -6  -1 360.715 11.3360   1
  -4   6   1 355.367 16.9187   1
  -4   6   1 341.910 16.6886   2
   3  -6  -1 59.3626 5.02429   2
   3  -6  -1 60.5386 5.07926   1
  -3   6   1 40.5311 6.33551   1
  -3   6   1 35.3986 6.31263   2
   2  -6  -1 265.384 9.40666   1
   2  -6  -1 265.076 8.32860   2
  -2   6   1 262.296 8.77838   1
  -2   6   1 236.932 9.19001   2
   1  -6  -1 159.845 5.12045   2
   1  -6  -1 177.419 5.40865   1
  -1   6   1 134.899 10.0613   1
  -1   6   1 127.813 6.08351   2
   0  -6  -1 63.5552 3.27787   2
   0  -6  -1 70.7198 3.12162   1
  -1  -6  -1 699.135 16.0073   1
  -1  -6  -1 662.951 13.6510   2
   1   6   1 746.499 22.2163   2
   1   6   1 800.798 28.3770   1
  -2  -6  -1 122.196 5.23210   2
  -2  -6  -1 120.801 6.00007   1
   2   6   1 90.5958 7.38989   2
   2   6   1 83.8366 6.85455   1
  -3  -6  -1 53.1532 2.96892   2
  -3  -6  -1 48.5939 3.32596   1
   3   6   1 42.2001 5.18084   1
   3   6   1 44.4312 5.60836   2
  -4  -6  -1 6.18444 5.67408   1
  -4  -6  -1 14.1927 3.88598   2
   4   6   1 12.4201 6.73881   2
   4   6   1 1.36400 6.18525   1
  -5  -6  -1 273.873 10.6939   1
  -5  -6  -1 265.976 10.3167   2
   5   6   1 238.193 12.0472   1
   5   6   1 254.211 23.4277   2
  -6  -6  -1 291.070 11.5724   1
  -6  -6  -1 294.705 13.1730   2
   6   6   1 326.591 25.4169   1
   6   6   1 288.518 24.9387   2
   4  -7  -1 187.877 9.21926   1
   4  -7  -1 182.906 8.07700   2
  -4   7   1 236.391 22.1984   1
  -4   7   1 228.199 21.3909   2
   3  -7  -1 175.449 9.66352   1
   3  -7  -1 184.780 9.42730   2
  -3   7   1 148.010 12.6964   2
  -3   7   1 158.933 19.1594   1
   2  -7  -1 182.125 7.74517   2
   2  -7  -1 197.277 7.02481   1
  -2   7   1 166.207 15.1674   2
  -2   7   1 163.973 15.1218   1
   1  -7  -1 86.5655 7.29996   1
   1  -7  -1 77.1894 3.27457   2
  -1   7   1 131.082 13.6843   1
  -1   7   1 115.064 16.3376   2
   0  -7  -1 11.8791 3.04959   1
   0  -7  -1 9.36622 3.11932   2
   0   7   1 3.95831 9.17369   1
   0   7   1 10.8865 8.74133   2
  -1  -7  -1 13.6425 5.24965   1
  -1  -7  -1 7.08637 3.06593   2
   1   7   1 8.44783 6.98393   2
   1   7   1 13.5451 8.39546   1
  -2  -7  -1 92.1485 4.24911   2
  -2  -7  -1 93.3114 4.86935   1
   2   7   1 117.443 7.25877   2
   2   7   1 93.3626 11.2473   1
  -3  -7  -1 210.109 7.18160   1
  -3  -7  -1 196.507 7.27339   2
   3   7   1 200.135 16.3577   1
   3   7   1 187.952 17.0487   2
  -4  -7  -1 115.582 6.64324   2
  -4  -7  -1 119.072 7.60250   1
   4   7   1 124.833 18.3352   2
   4   7   1 127.277 13.7923   1
  -9   0   2 80.2134 7.82123   1
  -9   0   2 66.8844 7.72117   2
  -8   0   2 6.68592 5.21743   1
  -8   0   2 0.48304 5.08747   2
  -7   0   2 55.8583 5.15876   1
  -7   0   2 43.2715 4.37589   2
  -6   0   2 338.011 8.76738   1
  -6   0   2 332.569 8.02599   2
  -5   0   2 668.447 13.1544   2
  -5   0   2 706.701 14.0448   1
  -4   0   2 544.053 10.5714   2
  -4   0   2 573.771 11.2698   1
  -3   0   2 1134.95 19.0711   2
  -3   0   2 1203.25 20.9250   1
  -2   0   2 663.707 10.9080   2
  -2   0   2 685.538 11.3915   1
  -1   0   2 357.590 9.18814  -2
  -1   0   2 357.590 9.18814   1
  -1   0   2 186.247 5.18832   1
  -1   0   2 179.672 4.47617   2
   0   0   2 1319.45 27.3568  -2
   0   0   2 1319.45 27.3568   1
   0   0   2 648.992 19.9592   2
   0   0   2 669.552 20.5900   1
   1   0   2 3980.17 77.0721  -2
   1   0   2 3980.17 77.0721   1
   2   0   2 3924.24 130.040   2
   2   0   2 4186.96 107.228   1
   2   0   2 8003.77 320.068  -2
   2   0   2 8003.77 320.068   1
   3   0   2 7.09407 1.76213   1
   3   0   2 8.38776 4.60672  -2
   3   0   2 8.38776 4.60672   1
   3   0   2 5.53213 1.66384   2
   4   0   2 33.6910 2.51618   1
   4   0   2 30.4320 2.59634   2
   5   0   2 45.5784 3.32372   1
   5   0   2 47.9923 3.28789   2
   6   0   2 379.821 9.37635   2
   6   0   2 404.997 10.6362   1
   7   0   2 570.261 16.6859   1
   7   0   2 544.466 16.4167   2
   8   0   2 174.910 9.42489   2
   8   0   2 189.443 9.62960   1
   9   0   2 11.0609 7.20282   2
   9   0   2 12.2452 7.75830   1
   9  -1  -2 114.609 8.47926   1
   9  -1  -2 99.2226 8.98986   2
  -9   1   2 97.4924 10.5513   2
  -9   1   2 105.130 8.68663   1
   8  -1  -2 397.735 13.5078   1
   8  -1  -2 365.138 12.8932   2
  -8   1   2 333.891 11.7797   2
  -8   1   2 365.792 12.7200   1
   7  -1  -2 278.704 9.89445   1
   7  -1  -2 264.872 10.0077   2
  -7   1   2 235.867 7.99568   1
  -7   1   2 216.804 7.44607   2
   6  -1  -2 375.435 9.05626   2
   6  -1  -2 384.260 10.1128   1
  -6   1   2 429.098 9.06916   2
  -6   1   2 456.047 10.2412   1
   5  -1  -2 105.507 3.94247   1
   5  -1  -2 95.6827 3.60291   2
  -5   1   2 73.4809 3.28843   2
  -5   1   2 76.4531 3.62894   1
   4  -1  -2 59.9392 2.66781   1
   4  -1  -2 57.1291 2.39586   2
  -4   1   2 37.9709 2.05527   2
  -4   1   2 40.5890 2.36113   1
   3  -1  -2 608.687 10.3258   1
   3  -1  -2 592.456 10.3496   2
  -3   1   2 494.032 10.2425   1
  -3   1   2 458.329 9.47047   2
   2  -1  -2 2719.58 50.5998   1
   2  -1  -2 2605.34 47.5023   2
  -2   1   2 3057.53 50.6368   1
  -2   1   2 2883.49 49.9461   2
   1  -1  -2 2494.48 41.2244   2
   1  -1  -2 2612.35 44.0873   1
  -1   1   2 2553.87 62.0834   1
  -1   1   2 2426.70 53.5787   2
  -1   1   2 4986.50 287.270  -2
  -1   1   2 4986.50 287.270   1
   0  -1  -2 208.682 4.66026   1
   0  -1  -2 399.716 17.2573  -2
   0  -1  -2 399.716 17.2573   1
   0  -1  -2 196.178 3.87416   2
   0   1   2 283.929 7.62269   1
  -1  -1  -2 350.409 6.76578   1
  -1  -1  -2 338.553 6.52648   2
  -1  -1  -2 718.173 40.7458  -2
  -1  -1  -2 718.173 40.7458   1
   1   1   2 351.236 7.02629   1
   1   1   2 332.658 7.58378   2
   1   1   2 668.521 28.4226  -2
   1   1   2 668.521 28.4226   1
  -2  -1  -2 264.145 6.88460   1
  -2  -1  -2 508.882 13.5633  -2
  -2  -1  -2 508.882 13.5633   1
  -2  -1  -2 263.389 6.85897   2
   2   1   2 208.246 7.87187   2
   2   1   2 416.749 12.1500  -2
   2   1   2 416.749 12.1500   1
   2   1   2 213.079 8.12948   1
  -3  -1  -2 1852.54 49.0421   2
  -3  -1  -2 3831.79 99.2780  -2
  -3  -1  -2 3831.79 99.2780   1
  -3  -1  -2 1862.69 50.3787   1
   3   1   2 3826.12 99.1930  -2
   3   1   2 3826.12 99.1930   1
   3   1   2 1971.07 56.0933   1
   3   1   2 1868.99 54.3293   2
  -4  -1  -2 838.608 17.2461   1
  -4  -1  -2 790.699 17.0514   2
  -4  -1  -2 1715.35 93.8932  -2
  -4  -1  -2 1715.35 93.8932   1
   4   1   2 685.726 17.8947   2
   4   1   2 1426.92 45.6062  -2
   4   1   2 1426.92 45.6062   1
   4   1   2 728.821 20.4717   1
  -5  -1  -2 373.987 9.26076   2
  -5  -1  -2 397.554 10.0892   1
   5   1   2 436.866 9.78928   1
   5   1   2 439.590 9.49727   2
  -6  -1  -2 189.555 7.12578   2
  -6  -1  -2 196.754 6.95682   1
   6   1   2 235.552 7.20291   1
   6   1   2 222.130 6.75639   2
  -7  -1  -2 79.7149 6.14429   2
  -7  -1  -2 80.1154 6.04807   1
   7   1   2 87.8119 5.29211   2
   7   1   2 106.268 6.05867   1
  -8  -1  -2 74.1692 7.21989   2
  -8  -1  -2 73.2702 6.93225   1
   8   1   2 70.4692 7.14440   1
   8   1   2 60.3723 6.72520   2
  -9  -1  -2 164.074 10.3539   1
  -9  -1  -2 147.708 13.0317   2
   9   1   2 109.395 10.1745   2
   9   1   2 127.091 9.36821   1
   9  -2  -2 384.953 15.3948   1
   9  -2  -2 398.324 20.0164   2
  -9   2   2 342.400 14.0076   1
  -9   2   2 325.546 17.3848   2
   8  -2  -2 220.768 10.0101   1
   8  -2  -2 203.552 9.65840   2
  -8   2   2 207.517 8.33221   1
  -8   2   2 208.914 8.05344   2
   7  -2  -2 39.5586 5.37626   1
   7  -2  -2 48.1602 5.16008   2
  -7   2   2 48.0279 3.87891   2
  -7   2   2 45.9334 3.94070   1
   6  -2  -2 688.996 16.8998   2
   6  -2  -2 707.947 16.3994   1
  -6   2   2 640.450 14.2207   2
  -6   2   2 665.271 15.8049   1
   5  -2  -2 384.959 8.31357   1
   5  -2  -2 368.248 7.91282   2
  -5   2   2 337.478 7.60202   1
  -5   2   2 319.775 8.31286   2
   4  -2  -2 655.144 12.5457   2
   4  -2  -2 684.824 13.1351   1
  -4   2   2 667.111 14.4661   1
  -4   2   2 637.504 13.0906   2
   3  -2  -2 1510.05 26.6508   1
   3  -2  -2 1429.32 27.5934   2
  -3   2   2 1680.88 29.0329   1
  -3   2   2 1594.42 27.5858   2
   2  -2  -2 79.5795 1.98266   1
   2  -2  -2 75.3521 2.05513   2
  -2   2   2 53.7514 2.05124   2
  -2   2   2 58.4921 2.27653   1
   1  -2  -2 76.1848 1.83670   2
   1  -2  -2 77.1241 1.83003   1
  -1   2   2 63.4692 1.73635   2
  -1   2   2 67.7343 2.02734   1
   0  -2  -2 998.133 15.8166   1
   0  -2  -2 952.490 14.2825   2
   0   2   2 968.563 19.0326   1
   0   2   2 944.348 18.3858   2
  -1  -2  -2 2931.56 41.8922   2
  -1  -2  -2 3082.48 46.0596   1
   1   2   2 2951.62 53.9118   1
   1   2   2 2743.26 46.3253   2
  -2  -2  -2 760.188 14.2912   1
  -2  -2  -2 719.827 13.0165   2
  -2  -2  -2 1466.76 82.2119  -2
  -2  -2  -2 1466.76 82.2119   1
   2   2   2 648.948 12.4551   2
   2   2   2 693.444 13.1246   1
   2   2   2 1323.01 80.9492  -2
   2   2   2 1323.01 80.9492   1
  -3  -2  -2 337.253 7.62829   2
  -3  -2  -2 349.048 7.53614   1
   3   2   2 391.795 8.42106   2
   3   2   2 382.906 8.82977   1
   3   2   2 805.795 49.8320  -2
   3   2   2 805.795 49.8320   1
  -4  -2  -2 112.507 3.71773   1
  -4  -2  -2 108.403 3.52429   2
   4   2   2 107.077 3.74453   1
   4   2   2 100.932 3.62112   2
  -5  -2  -2 394.295 9.02428   2
  -5  -2  -2 393.976 8.88323   1
   5   2   2 365.896 8.89516   2
   5   2   2 382.726 9.21781   1
  -6  -2  -2 273.173 8.37387   2
  -6  -2  -2 282.076 8.50489   1
   6   2   2 348.508 9.42586   2
   6   2   2 372.744 12.4724   1
  -7  -2  -2 447.294 12.6482   1
  -7  -2  -2 411.902 11.6954   2
   7   2   2 379.982 13.4957   2
   7   2   2 399.695 13.5393   1
  -8  -2  -2 189.496 8.31152   1
  -8  -2  -2 184.983 8.48988   2
   8   2   2 175.249 7.08868   2
   8   2   2 185.741 7.63754   1
  -9  -2  -2 23.6503 9.70903   1
  -9  -2  -2 10.7457 9.01174   2
   9   2   2 3.14729 7.60968   2
   9   2   2 12.0559 8.04583   1
   9  -3  -2 29.2277 9.55385   1
   9  -3  -2 25.1226 8.28878   2
  -9   3   2 4.97621 9.50196   2
  -9   3   2 7.52164 11.4894   1
   8  -3  -2 393.451 13.9240   1
   8  -3  -2 371.125 14.1738   2
  -8   3   2 398.953 15.9375   1
  -8   3   2 367.188 16.0439   2
   7  -3  -2 967.577 23.7852   1
   7  -3  -2 912.586 22.7126   2
  -7   3   2 902.931 26.0783   2
  -7   3   2 929.190 38.7049   1
   6  -3  -2 189.532 7.40878   1
   6  -3  -2 176.486 6.75204   2
  -6   3   2 222.952 7.74624   1
  -6   3   2 198.499 7.90795   2
   5  -3  -2 1.59958 2.17073   2
   5  -3  -2 4.17652 2.67548   1
  -5   3   2 21.8881 2.84406   1
  -5   3   2 20.4200 2.77315   2
   4  -3  -2 61.6726 2.70272   2
   4  -3  -2 66.9595 2.89204   1
  -4   3   2 79.4280 3.29779   1
  -4   3   2 74.4915 3.17479   2
   3  -3  -2 403.539 7.92096   2
   3  -3  -2 406.198 7.95987   1
  -3   3   2 405.218 8.90054   2
  -3   3   2 428.620 8.74551   1
   2  -3  -2 1387.96 22.2472   1
   2  -3  -2 1336.58 23.9894   2
  -2   3   2 1261.28 25.2692   2
  -2   3   2 1343.25 26.3543   1
   1  -3  -2 1265.08 21.8522   2
   1  -3  -2 1297.17 22.5648   1
  -1   3   2 1243.36 25.1167   1
  -1   3   2 1184.84 25.7271   2
   0  -3  -2 91.9447 2.30637   1
   0  -3  -2 86.0480 1.99026   2
   0   3   2 120.162 4.85752   2
   0   3   2 122.394 8.86229   1
  -1  -3  -2 254.921 4.97893   1
  -1  -3  -2 240.954 4.58906   2
   1   3   2 253.891 5.19165   1
   1   3   2 249.076 5.74110   2
  -2  -3  -2 549.677 10.0268   2
  -2  -3  -2 585.486 10.2891   1
   2   3   2 534.121 11.0580   1
   2   3   2 507.794 9.47829   2
  -3  -3  -2 1403.79 25.8086   1
  -3  -3  -2 1360.07 23.8897   2
   3   3   2 1446.68 26.0461   2
   3   3   2 1514.42 25.8106   1
  -4  -3  -2 617.353 12.6032   1
  -4  -3  -2 570.315 11.8998   2
   4   3   2 500.890 10.7614   2
   4   3   2 528.768 12.5574   1
  -5  -3  -2 161.597 6.35361   2
  -5  -3  -2 167.927 5.54054   1
   5   3   2 188.282 5.71094   2
   5   3   2 200.919 6.24388   1
  -6  -3  -2 83.4315 4.65584   1
  -6  -3  -2 79.8092 5.08522   2
   6   3   2 77.8214 5.85037   1
   6   3   2 73.5526 5.24422   2
  -7  -3  -2 33.5299 5.11302   2
  -7  -3  -2 23.9239 5.04236   1
   7   3   2 22.4702 6.92706   2
   7   3   2 19.2107 5.15332   1
  -8  -3  -2 161.441 8.56096   1
  -8  -3  -2 149.332 9.63480   2
   8   3   2 159.274 8.96760   1
   8   3   2 133.839 9.63556   2
   8  -4  -2 73.0846 7.46459   1
   8  -4  -2 65.2291 7.47377   2
  -8   4   2 76.0485 8.88275   2
  -8   4   2 74.1131 8.31161   1
   7  -4  -2 13.5931 4.98400   2
   7  -4  -2 14.6918 4.80543   1
  -7   4   2 1.84379 4.72085   1
  -7   4   2 7.72134 5.27957   2
   6  -4  -2 321.928 9.11815   2
   6  -4  -2 347.354 11.3590   1
  -6   4   2 356.261 10.1998   1
  -6   4   2 326.421 11.0016   2
   5  -4  -2 361.289 10.6957   1
   5  -4  -2 339.520 9.06960   2
  -5   4   2 469.663 11.6864   1
  -5   4   2 440.200 10.4117   2
   4  -4  -2 810.524 15.6500   1
   4  -4  -2 784.450 15.4950   2
  -4   4   2 767.242 15.6800   1
  -4   4   2 721.846 14.8729   2
   3  -4  -2 360.429 8.60624   2
   3  -4  -2 374.650 8.61114   1
  -3   4   2 420.678 9.06978   1
  -3   4   2 414.492 10.0935   2
   2  -4  -2 91.0036 3.50433   2
   2  -4  -2 90.0609 3.39028   1
  -2   4   2 77.8428 4.07060   2
  -2   4   2 85.7367 3.94063   1
   1  -4  -2 377.809 8.47196   2
   1  -4  -2 403.984 9.15265   1
  -1   4   2 428.150 9.98717   2
  -1   4   2 440.652 9.84964   1
   0  -4  -2 398.867 7.11615   1
   0  -4  -2 385.213 6.16017   2
   0   4   2 319.838 7.89169   2
   0   4   2 327.058 9.37843   1
  -1  -4  -2 841.110 14.4007   2
  -1  -4  -2 876.762 15.0357   1
   1   4   2 818.236 19.0814   1
   1   4   2 770.680 16.3791   2
  -2  -4  -2 1032.11 17.8565   2
  -2  -4  -2 1063.39 18.4577   1
   2   4   2 1173.66 20.0453   1
   2   4   2 1119.43 19.4881   2
  -3  -4  -2 99.4358 3.26556   2
  -3  -4  -2 104.358 3.53401   1
   3   4   2 116.091 3.91589   2
   3   4   2 122.658 3.98927   1
  -4  -4  -2 100.413 4.14688   1
  -4  -4  -2 103.936 4.32166   2
   4   4   2 120.580 3.77491   1
   4   4   2 112.868 3.56653   2
  -5  -4  -2 363.723 9.85684   2
  -5  -4  -2 379.206 9.69858   1
   5   4   2 367.697 9.41523   1
   5   4   2 334.899 8.30712   2
  -6  -4  -2 167.022 6.71835   2
  -6  -4  -2 172.579 8.43028   1
   6   4   2 182.001 6.12137   1
   6   4   2 170.410 6.39446   2
  -7  -4  -2 237.326 10.1815   1
  -7  -4  -2 235.993 8.91961   2
   7   4   2 226.881 8.61069   2
   7   4   2 244.521 9.73413   1
  -8  -4  -2 110.395 9.71083   2
  -8  -4  -2 111.589 13.5362   1
   8   4   2 128.284 10.7796   2
   8   4   2 115.067 11.7265   1
   7  -5  -2 136.254 9.90677   2
   7  -5  -2 145.550 9.59130   1
  -7   5   2 156.143 9.15194   1
  -7   5   2 143.013 9.35321   2
   6  -5  -2 178.174 6.44971   2
   6  -5  -2 172.278 8.27783   1
  -6   5   2 225.753 7.82549   1
  -6   5   2 214.831 8.80993   2
   5  -5  -2 121.375 5.70148   1
   5  -5  -2 127.240 4.59488   2
  -5   5   2 123.923 5.14120   1
  -5   5   2 102.953 5.39208   2
   4  -5  -2 138.531 5.36268   2
   4  -5  -2 145.780 4.93784   1
  -4   5   2 152.531 8.46031   1
  -4   5   2 147.579 9.36911   2
   3  -5  -2 245.900 8.98291   2
   3  -5  -2 267.080 9.86568   1
  -3   5   2 243.298 9.18441   2
  -3   5   2 258.727 10.3364   1
   2  -5  -2 392.879 11.7484   2
   2  -5  -2 412.567 12.3600   1
  -2   5   2 484.117 13.3078   2
  -2   5   2 530.162 13.1427   1
   1  -5  -2 629.453 14.1897   1
   1  -5  -2 612.707 14.0801   2
  -1   5   2 557.548 14.6224   2
  -1   5   2 566.601 14.8349   1
   0  -5  -2 367.428 6.68750   2
   0  -5  -2 386.709 9.46348   1
   0   5   2 345.601 9.61359   2
   0   5   2 356.334 16.5228   1
  -1  -5  -2 2.99144 1.20581   2
  -1  -5  -2 3.80867 1.86426   1
   1   5   2 2.26203 2.56307   1
   1   5   2 1.06779 2.64368   2
  -2  -5  -2 227.590 6.48272   2
  -2  -5  -2 236.490 7.52333   1
   2   5   2 212.356 7.77575   2
   2   5   2 223.938 11.8901   1
  -3  -5  -2 464.681 11.0682   1
  -3  -5  -2 441.580 10.4570   2
   3   5   2 540.510 15.4365   1
   3   5   2 516.851 15.0792   2
  -4  -5  -2 430.136 10.8567   2
  -4  -5  -2 449.312 11.3579   1
   4   5   2 399.058 10.8778   2
   4   5   2 432.007 10.8813   1
  -5  -5  -2 108.627 5.21202   1
  -5  -5  -2 100.958 5.13039   2
   5   5   2 112.886 4.21287   2
   5   5   2 113.581 5.07756   1
  -6  -5  -2 29.7648 5.72922   1
  -6  -5  -2 42.3723 4.84080   2
   6   5   2 35.4967 3.95973   1
   6   5   2 38.5881 3.93773   2
  -7  -5  -2 21.1204 6.25479   1
  -7  -5  -2 20.9641 7.04576   2
   7   5   2 37.5504 7.27208   1
   7   5   2 33.8457 7.96080   2
   6  -6  -2 24.8662 6.30953   2
   6  -6  -2 18.8322 4.52836   1
  -6   6   2 31.7588 14.3677   1
  -6   6   2 23.9382 10.8912   2
   5  -6  -2 135.216 7.24603   1
   5  -6  -2 122.859 6.08792   2
  -5   6   2 127.141 11.6644   1
  -5   6   2 139.653 16.7294   2
   4  -6  -2 347.904 11.1768   1
   4  -6  -2 324.669 9.79554   2
  -4   6   2 355.215 16.5373   2
  -4   6   2 372.430 16.2897   1
   3  -6  -2 208.869 8.52444   2
   3  -6  -2 219.758 8.89881   1
  -3   6   2 214.117 11.5249   1
  -3   6   2 194.745 8.95907   2
   2  -6  -2 7.57082 3.34231   2
   2  -6  -2 4.30989 3.11816   1
  -2   6   2 4.83979 3.65261   1
  -2   6   2 5.30349 3.99720   2
   1  -6  -2 25.3877 3.20377   1
   1  -6  -2 18.9383 3.38605   2
  -1   6   2 23.4948 3.97160   2
  -1   6   2 18.7227 3.89318   1
   0  -6  -2 293.804 7.37745   2
   0  -6  -2 299.210 8.90684   1
   0   6   2 338.119 16.1529   1
   0   6   2 303.023 14.8868   2
  -1  -6  -2 475.925 11.2298   1
  -1  -6  -2 451.359 9.91646   2
   1   6   2 454.348 15.9055   2
   1   6   2 512.515 21.1395   1
  -2  -6  -2 107.375 5.15157   1
  -2  -6  -2 99.2202 4.14107   2
   2   6   2 79.2431 8.21084   2
   2   6   2 83.1453 7.38889   1
  -3  -6  -2 165.681 5.47646   1
  -3  -6  -2 160.641 5.35287   2
   3   6   2 160.282 7.34082   2
   3   6   2 159.641 11.5506   1
  -4  -6  -2 18.6874 4.15995   2
  -4  -6  -2 14.5966 4.24017   1
   4   6   2 20.4844 5.21675   2
   4   6   2 9.98330 7.06502   1
  -5  -6  -2 160.668 8.25867   2
  -5  -6  -2 164.571 6.43377   1
   5   6   2 187.573 10.3762   2
   5   6   2 188.071 10.1139   1
  -6  -6  -2 144.084 9.48318   2
  -6  -6  -2 145.269 7.95407   1
   6   6   2 151.373 20.3919   2
   6   6   2 173.952 11.7093   1
   4  -7  -2 4.42557 4.97118   1
   4  -7  -2 8.28617 3.77344   2
  -4   7   2 7.84259 12.6516   1
  -4   7   2 -4.9560 12.5632   2
   3  -7  -2 56.1467 6.37472   2
   3  -7  -2 77.1924 7.60748   1
  -3   7   2 96.3167 9.76691   2
  -3   7   2 94.0588 8.85958   1
   2  -7  -2 274.052 9.87957   2
   2  -7  -2 288.826 10.2391   1
  -2   7   2 250.426 15.0847   2
  -2   7   2 288.213 20.1878   1
   1  -7  -2 228.205 11.3742   1
   1  -7  -2 205.375 5.41116   2
  -1   7   2 219.837 15.9441   2
  -1   7   2 245.850 18.4750   1
   0  -7  -2 47.0844 3.67319   1
   0  -7  -2 41.5706 3.93110   2
   0   7   2 32.7839 9.30767   2
   0   7   2 32.8744 13.2170   1
  -1  -7  -2 3.81971 3.34840   2
  -1  -7  -2 5.60341 3.08857   1
   1   7   2 7.00732 8.56707   1
   1   7   2 8.26522 7.18105   2
  -2  -7  -2 7.07775 2.58709   2
  -2  -7  -2 10.9577 2.47357   1
   2   7   2 10.9758 9.07468   1
   2   7   2 14.0226 5.37415   2
  -3  -7  -2 181.630 6.47446   1
  -3  -7  -2 179.492 8.75033   2
   3   7   2 192.935 15.7968   1
   3   7   2 155.611 10.6021   2
  -4  -7  -2 120.828 7.45944   1
  -4  -7  -2 96.9849 7.48549   2
   4   7   2 137.231 14.3040   1
   4   7   2 125.398 11.3725   2
  -9   0   3 37.1208 7.32047   2
  -9   0   3 44.4627 6.86038   1
  -8   0   3 389.672 12.3153   2
  -8   0   3 406.311 13.0083   1
  -7   0   3 271.772 10.8312   2
  -7   0   3 303.115 10.1471   1
  -6   0   3 170.808 5.20627   2
  -6   0   3 174.857 5.67367   1
  -5   0   3 1048.54 19.6117   1
  -5   0   3 1009.54 19.4112   2
  -4   0   3 1289.13 24.2162   1
  -4   0   3 1263.92 22.4496   2
  -3   0   3 967.851 16.6448   2
  -3   0   3 993.861 17.9875   1
  -2   0   3 724.837 11.8866   2
  -2   0   3 760.695 12.5825   1
  -1   0   3 140.868 3.29620   1
  -1   0   3 267.648 7.94847  -2
  -1   0   3 267.648 7.94847   1
  -1   0   3 136.366 3.71219   2
   0   0   3 122.708 4.64446   2
   0   0   3 246.468 5.78369  -2
   0   0   3 246.468 5.78369   1
   0   0   3 120.463 4.58864   1
   2   0   3 4207.13 81.2891  -2
   2   0   3 4207.13 81.2891   1
   2   0   3 3305.65 190.575   1
   2   0   3 2191.24 129.487   2
   3   0   3 127.339 4.28909   1
   3   0   3 114.033 4.67509   2
   3   0   3 227.410 12.7710  -2
   3   0   3 227.410 12.7710   1
   4   0   3 126.773 4.59365   2
   4   0   3 133.448 4.77944   1
   4   0   3 284.161 23.2247  -2
   4   0   3 284.161 23.2247   1
   5   0   3 45.5702 3.58760   2
   5   0   3 50.0338 3.65474   1
   6   0   3 390.962 11.4150   2
   6   0   3 386.137 10.3467   1
   7   0   3 400.933 13.0598   1
   7   0   3 367.767 12.7401   2
   8   0   3 521.821 16.6321   1
   8   0   3 496.396 16.2275   2
   9   0   3 69.2279 7.39992   2
   9   0   3 82.6987 8.89790   1
   9  -1  -3 11.6470 6.49577   1
   9  -1  -3 -4.7212 6.29875   2
  -9   1   3 21.8950 6.74670   1
  -9   1   3 18.9291 7.54406   2
   8  -1  -3 111.094 7.39253   1
   8  -1  -3 105.384 7.39949   2
  -8   1   3 102.436 5.66292   2
  -8   1   3 117.070 7.10214   1
   7  -1  -3 458.249 14.0889   2
   7  -1  -3 502.518 15.2726   1
  -7   1   3 492.929 12.7356   1
  -7   1   3 468.320 12.9138   2
   6  -1  -3 831.135 17.9394   1
   6  -1  -3 786.906 16.0090   2
  -6   1   3 900.315 17.0933   1
  -6   1   3 852.394 15.9307   2
   5  -1  -3 699.141 13.1506   2
   5  -1  -3 710.102 13.5603   1
  -5   1   3 686.449 13.6163   1
  -5   1   3 633.540 12.7827   2
   4  -1  -3 149.329 4.13219   2
   4  -1  -3 159.665 4.44150   1
  -4   1   3 156.078 3.90796   2
  -4   1   3 167.142 4.23720   1
   3  -1  -3 446.139 8.44106   1
   3  -1  -3 433.071 7.96882   2
  -3   1   3 425.990 8.94297   1
  -3   1   3 409.650 8.12856   2
   2  -1  -3 1533.99 26.6773   1
   2  -1  -3 1451.14 25.4078   2
  -2   1   3 1744.25 27.8919   1
  -2   1   3 1659.53 26.4130   2
   1  -1  -3 3089.76 57.6765   2
   1  -1  -3 3241.90 65.7452   1
  -1   1   3 2882.27 51.7637   2
  -1   1   3 3073.91 57.5444   1
   0  -1  -3 2328.87 51.9551   2
   0  -1  -3 2484.22 48.5567   1
   0  -1  -3 4888.05 172.441  -2
   0  -1  -3 4888.05 172.441   1
   0   1   3 2623.86 44.4509   2
   0   1   3 2749.27 46.6310   1
   0   1   3 5435.30 287.423  -2
   0   1   3 5435.30 287.423   1
  -1  -1  -3 87.2119 2.59872   1
  -1  -1  -3 83.8243 2.38148   2
   1   1   3 242.121 9.16109  -2
   1   1   3 242.121 9.16109   1
   1   1   3 123.029 4.27220   1
  -2  -1  -3 183.320 7.26081  -2
  -2  -1  -3 183.320 7.26081   1
  -2  -1  -3 88.5406 3.48224   2
  -2  -1  -3 86.8816 3.98146   1
   2   1   3 114.300 3.90352   2
   2   1   3 111.716 4.78000   1
   2   1   3 250.316 6.96906  -2
   2   1   3 250.316 6.96906   1
  -3  -1  -3 1511.81 50.3772  -2
  -3  -1  -3 1511.81 50.3772   1
  -3  -1  -3 791.394 21.4643   1
  -3  -1  -3 745.724 20.6186   2
   3   1   3 1815.71 45.6775  -2
   3   1   3 1815.71 45.6775   1
   3   1   3 916.891 23.6018   1
   3   1   3 886.102 22.6143   2
  -4  -1  -3 1410.53 36.9310   2
  -4  -1  -3 1487.88 38.4632   1
  -4  -1  -3 2899.91 80.6513  -2
  -4  -1  -3 2899.91 80.6513   1
   4   1   3 2599.82 66.3224  -2
   4   1   3 2599.82 66.3224   1
   4   1   3 1318.94 37.9706   1
   4   1   3 1266.54 36.3186   2
  -5  -1  -3 553.311 13.2680   1
  -5  -1  -3 516.169 12.8656   2
  -5  -1  -3 1059.10 74.4349  -2
  -5  -1  -3 1059.10 74.4349   1
   5   1   3 560.687 14.2487   1
   5   1   3 555.466 13.5018   2
   5   1   3 1128.76 42.2318  -2
   5   1   3 1128.76 42.2318   1
  -6  -1  -3 303.477 10.6818   1
  -6  -1  -3 291.204 10.6397   2
  -6  -1  -3 525.893 44.8731  -2
  -6  -1  -3 525.893 44.8731   1
   6   1   3 334.255 9.33721   1
   6   1   3 321.966 9.18727   2
  -7  -1  -3 21.1848 4.93875   1
  -7  -1  -3 16.1590 5.24119   2
   7   1   3 16.0867 4.24018   1
   7   1   3 9.30605 3.89618   2
  -8  -1  -3 56.3148 6.48896   1
  -8  -1  -3 43.8120 6.68273   2
   8   1   3 25.3489 5.60616   1
   8   1   3 28.5551 5.91594   2
  -9  -1  -3 264.145 12.9166   1
  -9  -1  -3 243.464 12.8182   2
   9   1   3 252.595 11.3274   1
   9   1   3 236.615 14.5889   2
   9  -2  -3 127.317 10.8593   2
   9  -2  -3 128.742 9.71860   1
  -9   2   3 146.756 11.4497   2
  -9   2   3 157.487 11.3422   1
   8  -2  -3 92.3543 7.37065   2
   8  -2  -3 91.2043 7.27119   1
  -8   2   3 101.267 4.96836   2
  -8   2   3 116.596 7.26951   1
   7  -2  -3 157.336 7.31551   2
   7  -2  -3 158.515 7.79785   1
  -7   2   3 157.158 5.05945   2
  -7   2   3 172.242 7.61355   1
   6  -2  -3 73.4443 4.67183   1
   6  -2  -3 80.4956 4.91911   2
  -6   2   3 79.3876 2.94610   2
  -6   2   3 83.6089 4.74435   1
   5  -2  -3 810.075 15.9525   1
   5  -2  -3 766.170 14.3877   2
  -5   2   3 770.316 16.3805   2
  -5   2   3 822.074 14.9574   1
   4  -2  -3 1097.37 19.0472   1
   4  -2  -3 1056.72 19.3051   2
  -4   2   3 1024.11 21.5084   1
  -4   2   3 956.294 19.1734   2
   3  -2  -3 1414.52 26.7571   1
   3  -2  -3 1338.95 24.3159   2
  -3   2   3 1586.87 26.6448   2
  -3   2   3 1679.34 29.2562   1
   2  -2  -3 26.7556 1.06406   2
   2  -2  -3 27.2745 1.23262   1
  -2   2   3 37.1095 1.65709   1
  -2   2   3 34.3051 1.64460   2
   1  -2  -3 102.277 2.31620   2
   1  -2  -3 107.907 2.17171   1
  -1   2   3 105.349 2.58126   1
  -1   2   3 99.8551 2.49833   2
   0  -2  -3 111.449 2.39861   1
   0  -2  -3 106.369 2.14866   2
   0   2   3 140.771 7.45782   2
  -1  -2  -3 902.776 16.0366   1
  -1  -2  -3 867.828 16.1631   2
   1   2   3 1058.94 22.3878   1
   1   2   3 1007.76 20.4032   2
   1   2   3 2098.73 120.194  -2
   1   2   3 2098.73 120.194   1
  -2  -2  -3 1142.79 21.6893   2
  -2  -2  -3 1204.58 21.0585   1
   2   2   3 1215.73 20.9812   2
   2   2   3 1283.43 21.9756   1
   2   2   3 2426.45 139.383  -2
   2   2   3 2426.45 139.383   1
  -3  -2  -3 1481.67 25.8950   2
  -3  -2  -3 1549.57 30.8608   1
   3   2   3 1490.35 28.8111   1
   3   2   3 2842.65 122.832  -2
   3   2   3 2842.65 122.832   1
   3   2   3 1440.98 27.8346   2
  -4  -2  -3 5.06734 2.19473   1
  -4  -2  -3 4.34554 1.91696   2
   4   2   3 9.79674 1.94967   2
   4   2   3 18.6011 11.0566  -2
   4   2   3 18.6011 11.0566   1
   4   2   3 10.7973 2.10235   1
  -5  -2  -3 185.059 5.58630   2
  -5  -2  -3 198.871 5.79558   1
   5   2   3 170.581 5.34216   2
   5   2   3 184.651 5.69611   1
  -6  -2  -3 297.005 9.53235   1
  -6  -2  -3 284.873 9.55983   2
   6   2   3 364.210 9.68567   1
   6   2   3 334.216 8.98390   2
  -7  -2  -3 185.543 7.37065   2
  -7  -2  -3 191.536 7.48596   1
   7   2   3 168.730 9.08127   2
   7   2   3 178.812 8.07666   1
  -8  -2  -3 337.128 11.6791   1
  -8  -2  -3 309.143 11.1985   2
   8   2   3 331.740 15.4099   2
   8   2   3 339.603 11.4509   1
  -9  -2  -3 85.6748 10.4469   1
  -9  -2  -3 93.5032 10.7182   2
   9   2   3 77.7619 10.6897   2
   9   2   3 95.8885 9.54581   1
   9  -3  -3 28.8767 8.69403   2
   9  -3  -3 44.1095 10.7547   1
  -9   3   3 15.7271 11.7372   1
  -9   3   3 20.6760 9.72605   2
   8  -3  -3 31.6808 6.44045   2
   8  -3  -3 29.3847 6.26760   1
  -8   3   3 55.8754 7.19783   1
  -8   3   3 61.8159 7.10818   2
   7  -3  -3 438.848 13.1516   2
   7  -3  -3 457.068 13.6164   1
  -7   3   3 441.186 15.1841   2
  -7   3   3 456.290 17.6375   1
   6  -3  -3 522.441 13.2375   1
   6  -3  -3 494.257 12.1833   2
  -6   3   3 543.663 14.3259   1
  -6   3   3 531.674 15.0963   2
   5  -3  -3 207.065 5.84821   2
   5  -3  -3 205.221 6.02082   1
  -5   3   3 205.880 6.16997   2
  -5   3   3 215.680 6.16309   1
   4  -3  -3 40.0385 2.67660   1
   4  -3  -3 37.6596 2.17001   2
  -4   3   3 32.2094 2.41716   2
  -4   3   3 36.4668 2.58823   1
   3  -3  -3 328.334 6.14659   2
   3  -3  -3 344.071 6.69387   1
  -3   3   3 310.682 7.15178   1
  -3   3   3 302.926 6.90460   2
   2  -3  -3 1105.42 17.2733   2
   2  -3  -3 1166.48 18.5564   1
  -2   3   3 1071.42 20.6672   1
  -2   3   3 986.360 18.5006   2
   1  -3  -3 572.345 10.3958   1
   1  -3  -3 556.696 9.24174   2
  -1   3   3 672.177 12.2230   1
  -1   3   3 634.724 12.3755   2
   0  -3  -3 269.291 4.47522   2
   0  -3  -3 275.688 4.73624   1
  -1  -3  -3 742.793 11.5600   2
  -1  -3  -3 770.181 11.8427   1
   1   3   3 783.504 17.4455   1
   1   3   3 727.373 15.9046   2
  -2  -3  -3 4.45522 1.41526   1
  -2  -3  -3 1.02962 1.36700   2
   2   3   3 6.77407 1.09664   1
   2   3   3 4.17206 1.16566   2
  -3  -3  -3 643.676 12.7880   1
  -3  -3  -3 615.451 12.2384   2
   3   3   3 665.538 12.3637   2
   3   3   3 697.029 13.4118   1
  -4  -3  -3 765.486 16.8682   1
  -4  -3  -3 751.742 15.7463   2
   4   3   3 764.957 14.8054   1
   4   3   3 723.184 14.2765   2
  -5  -3  -3 288.222 8.60559   2
  -5  -3  -3 299.089 9.48153   1
   5   3   3 315.040 8.54203   2
   5   3   3 343.050 10.5711   1
  -6  -3  -3 129.634 6.66902   1
  -6  -3  -3 129.357 5.97779   2
   6   3   3 111.082 7.20318   2
   6   3   3 104.895 6.88825   1
  -7  -3  -3 7.39306 5.17012   1
  -7  -3  -3 21.7992 4.94705   2
   7   3   3 17.7494 6.38452   2
   7   3   3 18.8307 4.99999   1
  -8  -3  -3 24.0528 8.05280   2
  -8  -3  -3 12.9236 7.04264   1
   8   3   3 18.2916 6.36738   1
   8   3   3 20.0718 6.75556   2
   8  -4  -3 84.1817 7.84972   1
   8  -4  -3 84.4890 7.60148   2
  -8   4   3 99.8751 10.3476   1
  -8   4   3 104.803 9.65495   2
   7  -4  -3 76.7725 5.90802   1
   7  -4  -3 80.2654 6.37781   2
  -7   4   3 69.8593 6.12855   1
  -7   4   3 68.2900 6.63953   2
   6  -4  -3 105.696 4.87947   2
   6  -4  -3 110.488 6.09733   1
  -6   4   3 102.076 6.60381   2
  -6   4   3 124.396 5.86410   1
   5  -4  -3 349.772 9.50553   1
   5  -4  -3 350.492 8.53804   2
  -5   4   3 367.370 10.0050   1
  -5   4   3 330.536 9.43708   2
   4  -4  -3 615.742 12.2467   2
   4  -4  -3 660.017 13.9832   1
  -4   4   3 519.723 11.9951   2
  -4   4   3 560.418 12.4546   1
   3  -4  -3 424.963 8.83903   1
   3  -4  -3 384.416 10.0800   2
  -3   4   3 500.220 10.8402   1
  -3   4   3 464.263 10.4527   2
   2  -4  -3 204.433 5.48483   1
   2  -4  -3 202.950 5.38955   2
  -2   4   3 164.443 6.31820   2
  -2   4   3 175.002 6.41538   1
   1  -4  -3 87.4620 3.03685   2
   1  -4  -3 92.2874 3.33095   1
  -1   4   3 89.0739 3.82373   1
  -1   4   3 86.7219 3.75676   2
   0  -4  -3 87.6992 2.09060   2
   0  -4  -3 94.1117 2.15610   1
   0   4   3 99.7393 3.32041   2
   0   4   3 102.884 3.76843   1
  -1  -4  -3 552.322 9.58136   2
  -1  -4  -3 590.685 9.94259   1
   1   4   3 561.897 12.7646   1
   1   4   3 550.997 13.1560   2
  -2  -4  -3 676.645 11.9574   1
  -2  -4  -3 667.529 12.2795   2
   2   4   3 642.304 12.5369   2
   2   4   3 689.360 14.9716   1
  -3  -4  -3 138.887 4.33067   1
  -3  -4  -3 130.116 4.16495   2
   3   4   3 141.003 4.27749   2
   3   4   3 148.665 4.37153   1
  -4  -4  -3 144.565 4.86399   2
  -4  -4  -3 152.950 5.03062   1
   4   4   3 159.981 4.78893   1
   4   4   3 151.257 4.78831   2
  -5  -4  -3 110.960 4.96187   2
  -5  -4  -3 113.643 5.26227   1
   5   4   3 110.659 4.63833   2
   5   4   3 113.533 4.88937   1
  -6  -4  -3 132.042 6.60665   2
  -6  -4  -3 152.780 7.13539   1
   6   4   3 188.054 6.30915   1
   6   4   3 173.857 5.82582   2
  -7  -4  -3 212.058 9.93500   1
  -7  -4  -3 205.584 8.26458   2
   7   4   3 187.560 8.35207   1
   7   4   3 175.657 10.0983   2
  -8  -4  -3 101.754 27.2904   2
  -8  -4  -3 94.2185 26.6177   1
   8   4   3 147.081 15.4311   2
   8   4   3 134.992 15.1779   1
   7  -5  -3 112.055 9.60059   2
   7  -5  -3 106.795 7.28645   1
  -7   5   3 124.257 9.28778   2
  -7   5   3 107.628 8.24600   1
   6  -5  -3 501.040 13.1833   1
   6  -5  -3 474.277 13.6932   2
  -6   5   3 453.179 13.2060   2
  -6   5   3 493.346 16.3985   1
   5  -5  -3 251.821 7.51015   2
   5  -5  -3 263.269 7.70477   1
  -5   5   3 226.246 8.58857   1
  -5   5   3 220.554 7.83430   2
   4  -5  -3 142.447 5.82533   1
   4  -5  -3 135.675 5.23323   2
  -4   5   3 130.744 7.72388   2
  -4   5   3 139.739 9.28178   1
   3  -5  -3 144.531 6.72183   2
   3  -5  -3 151.155 7.27963   1
  -3   5   3 162.050 7.98377   1
  -3   5   3 153.064 7.88753   2
   2  -5  -3 16.2305 2.93550   1
   2  -5  -3 15.6794 2.64310   2
  -2   5   3 53.6299 5.64585   2
  -2   5   3 49.2257 6.64596   1
   1  -5  -3 968.013 22.7511   2
   1  -5  -3 979.854 21.7614   1
  -1   5   3 947.020 22.8636   1
  -1   5   3 899.433 22.0619   2
   0  -5  -3 562.357 9.84368   2
   0  -5  -3 608.316 11.0030   1
   0   5   3 598.117 17.2413   1
   0   5   3 549.771 14.0735   2
  -1  -5  -3 2.48816 1.45804   2
  -1  -5  -3 3.10954 1.24190   1
   1   5   3 0.45597 1.86688   2
   1   5   3 0.14187 2.71315   1
  -2  -5  -3 44.8040 2.06350   1
  -2  -5  -3 45.9431 2.23149   2
   2   5   3 35.5737 4.89700   1
   2   5   3 35.0460 2.36763   2
  -3  -5  -3 243.642 6.81617   2
  -3  -5  -3 253.726 6.98761   1
   3   5   3 273.777 6.41166   1
   3   5   3 252.835 6.17685   2
  -4  -5  -3 310.225 8.15931   2
  -4  -5  -3 318.622 8.50767   1
   4   5   3 290.622 10.3960   2
   4   5   3 302.524 8.99725   1
  -5  -5  -3 74.9039 5.25253   1
  -5  -5  -3 72.0311 5.05481   2
   5   5   3 91.6558 4.76047   1
   5   5   3 83.6429 4.62309   2
  -6  -5  -3 110.320 7.50993   1
  -6  -5  -3 102.030 7.58629   2
   6   5   3 93.6424 5.45812   2
   6   5   3 108.071 5.32644   1
  -7  -5  -3 56.2800 7.89737   2
  -7  -5  -3 59.3753 7.06383   1
   7   5   3 47.0375 6.56682   1
   7   5   3 51.1438 9.41142   2
   6  -6  -3 9.65860 4.10560   1
   6  -6  -3 5.71398 6.23109   2
  -6   6   3 15.3051 11.8766   2
  -6   6   3 20.5548 13.5920   1
   5  -6  -3 256.558 9.51038   2
   5  -6  -3 251.230 9.93683   1
  -5   6   3 248.382 21.8800   2
  -5   6   3 263.880 17.7151   1
   4  -6  -3 316.280 11.5360   1
   4  -6  -3 299.648 10.9693   2
  -4   6   3 288.336 14.4958   1
  -4   6   3 283.474 17.3035   2
   3  -6  -3 189.159 7.52558   1
   3  -6  -3 175.467 7.11688   2
  -3   6   3 160.597 8.87771   1
  -3   6   3 154.825 8.68155   2
   2  -6  -3 106.805 5.03764   1
   2  -6  -3 102.516 5.35218   2
  -2   6   3 114.516 6.19090   1
  -2   6   3 109.522 7.34940   2
   1  -6  -3 31.6518 3.02313   1
   1  -6  -3 24.4266 3.08045   2
  -1   6   3 20.5000 4.83049   2
  -1   6   3 25.7398 3.47982   1
   0  -6  -3 327.746 8.74240   2
   0  -6  -3 337.074 9.95585   1
   0   6   3 342.296 13.1311   2
   0   6   3 344.493 16.9393   1
  -1  -6  -3 325.317 7.70411   1
  -1  -6  -3 304.501 7.35245   2
   1   6   3 300.525 12.9960   2
   1   6   3 356.067 19.5529   1
  -2  -6  -3 254.315 6.79543   1
  -2  -6  -3 237.333 6.21950   2
   2   6   3 248.379 10.9663   2
   2   6   3 275.229 11.7554   1
  -3  -6  -3 218.825 8.27986   2
  -3  -6  -3 241.465 7.18016   1
   3   6   3 219.303 13.3304   1
   3   6   3 208.441 12.2540   2
  -4  -6  -3 8.21340 4.43943   1
  -4  -6  -3 4.31956 4.16122   2
   4   6   3 17.3751 6.08662   2
   4   6   3 7.58998 8.99488   1
  -5  -6  -3 79.5664 5.14644   1
  -5  -6  -3 73.6094 4.97874   2
   5   6   3 69.3237 5.94293   2
   5   6   3 84.2698 5.09668   1
   4  -7  -3 2.21165 6.36950   1
   4  -7  -3 -1.6297 5.55964   2
  -4   7   3 -2.7963 10.7340   1
  -4   7   3 -3.5910 13.1818   2
   3  -7  -3 46.4675 7.53819   2
   3  -7  -3 47.9454 6.98531   1
  -3   7   3 23.0006 8.75799   1
  -3   7   3 27.9571 8.47604   2
   2  -7  -3 178.501 8.41834   1
   2  -7  -3 160.882 7.56960   2
  -2   7   3 142.631 15.4555   1
  -2   7   3 128.884 10.2843   2
   1  -7  -3 341.909 15.1712   1
   1  -7  -3 341.493 9.29258   2
  -1   7   3 422.576 23.5573   1
  -1   7   3 414.743 21.6411   2
   0  -7  -3 115.248 5.84229   1
   0  -7  -3 108.042 6.24257   2
   0   7   3 112.890 12.6913   2
   0   7   3 121.755 12.2182   1
  -1  -7  -3 79.8869 6.21739   2
  -1  -7  -3 83.8859 5.49794   1
   1   7   3 76.4120 10.6640   1
   1   7   3 91.2210 9.67042   2
  -2  -7  -3 17.2260 2.79364   2
  -2  -7  -3 24.2189 2.90866   1
   2   7   3 29.3226 9.53342   1
   2   7   3 29.0975 6.25122   2
  -3  -7  -3 241.341 9.29837   1
  -3  -7  -3 224.319 9.02404   2
   3   7   3 232.085 15.4753   2
   3   7   3 225.825 18.2195   1
  -4  -7  -3 210.296 10.0848   2
  -4  -7  -3 216.067 9.64784   1
   4   7   3 208.161 17.2175   1
   4   7   3 168.807 14.4962   2
  -9   0   4 235.304 12.8862   2
  -9   0   4 254.812 11.4486   1
  -8   0   4 894.048 22.8995   1
  -8   0   4 798.119 20.5807   2
  -7   0   4 26.0972 4.38796   1
  -7   0   4 22.3911 3.71054   2
  -6   0   4 91.0573 4.69106   1
  -6   0   4 83.8939 4.00503   2
  -5   0   4 552.124 11.9937   1
  -5   0   4 532.985 10.9051   2
  -4   0   4 781.555 13.9418   2
  -4   0   4 798.253 14.0845   1
  -3   0   4 1460.29 23.7515   1
  -3   0   4 1385.84 23.3439   2
  -2   0   4 136.648 3.35522   1
  -2   0   4 129.362 3.06997   2
  -1   0   4 3.85085 0.65492   2
  -1   0   4 2.43514 0.67282   1
   0   0   4 1509.51 31.3501  -2
   0   0   4 1509.51 31.3501   1
   0   0   4 791.748 24.9011   1
   0   0   4 739.858 23.2980   2
   2   0   4 1971.32 41.2842  -2
   2   0   4 1971.32 41.2842   1
   2   0   4 1379.58 81.7138   2
   3   0   4 596.762 19.3474  -2
   3   0   4 596.762 19.3474   1
   3   0   4 333.174 25.7162   2
   3   0   4 325.644 11.9930   1
   4   0   4 516.462 13.7094   1
   4   0   4 511.395 13.6336   2
   4   0   4 955.542 35.0884  -2
   4   0   4 955.542 35.0884   1
   5   0   4 14.0730 3.02396   1
   5   0   4 16.0391 2.85831   2
   6   0   4 627.690 16.4143   1
   6   0   4 575.557 15.5606   2
   7   0   4 238.178 9.78761   1
   7   0   4 228.044 8.76219   2
   8   0   4 159.306 8.13604   2
   8   0   4 168.707 8.05218   1
   9   0   4 77.1607 7.68065   2
   9   0   4 82.7648 9.39420   1
   9  -1  -4 24.2029 6.64371   1
   9  -1  -4 25.9197 6.88708   2
  -9   1   4 33.7509 7.12833   1
  -9   1   4 16.4997 7.38526   2
   8  -1  -4 225.755 10.1063   2
   8  -1  -4 237.006 10.3540   1
  -8   1   4 227.190 7.82759   2
  -8   1   4 240.284 9.62538   1
   7  -1  -4 923.376 22.7533   1
   7  -1  -4 863.952 24.7353   2
  -7   1   4 822.563 20.4539   2
  -7   1   4 909.085 20.6369   1
   6  -1  -4 359.790 9.61021   1
   6  -1  -4 348.574 8.70162   2
  -6   1   4 415.983 8.76943   2
  -6   1   4 434.478 9.29725   1
   5  -1  -4 463.841 9.97797   2
   5  -1  -4 481.807 10.7406   1
  -5   1   4 550.122 9.95436   2
  -5   1   4 588.431 11.1908   1
   4  -1  -4 111.394 3.96687   1
   4  -1  -4 107.322 4.24797   2
  -4   1   4 70.3807 2.81852   2
  -4   1   4 76.3335 3.08993   1
   3  -1  -4 1122.63 19.9794   2
   3  -1  -4 1192.77 22.3529   1
  -3   1   4 1315.59 23.1399   1
  -3   1   4 1240.95 20.7041   2
   2  -1  -4 1192.77 18.6067   1
   2  -1  -4 1137.81 17.6163   2
  -2   1   4 927.762 18.8256   2
  -2   1   4 987.870 18.9698   1
   1  -1  -4 2294.08 34.5627   2
   1  -1  -4 2428.30 35.6657   1
  -1   1   4 2085.96 38.1531   1
  -1   1   4 1945.01 34.4489   2
   0  -1  -4 4892.49 214.040   1
   0  -1  -4 9999.99 563.813  -2
   0  -1  -4 9999.99 563.813   1
   0   1   4 5159.30 133.797   2
   0   1   4 5541.31 179.036   1
  -1  -1  -4 25.5020 1.56079   2
  -1  -1  -4 25.3293 1.56914   1
  -1  -1  -4 51.3549 3.28657  -2
  -1  -1  -4 51.3549 3.28657   1
  -2  -1  -4 37.6855 2.78515   2
  -2  -1  -4 39.5559 2.74119   1
  -2  -1  -4 75.4733 4.51015  -2
  -2  -1  -4 75.4733 4.51015   1
   2   1   4 31.5109 2.22204   2
   2   1   4 65.0477 4.12346  -2
   2   1   4 65.0477 4.12346   1
   2   1   4 32.4218 2.39011   1
  -3  -1  -4 76.1736 5.00052  -2
  -3  -1  -4 76.1736 5.00052   1
  -3  -1  -4 41.4624 2.70516   1
  -3  -1  -4 45.1028 5.45923   2
   3   1   4 116.298 5.51293  -2
   3   1   4 116.298 5.51293   1
   3   1   4 50.2446 3.01245   2
   3   1   4 58.9367 3.56644   1
  -4  -1  -4 564.665 17.0526   1
  -4  -1  -4 1099.51 34.4640  -2
  -4  -1  -4 1099.51 34.4640   1
  -4  -1  -4 526.762 16.2045   2
   4   1   4 1064.51 28.2181  -2
   4   1   4 1064.51 28.2181   1
   4   1   4 548.476 16.6629   2
   4   1   4 538.615 19.0422   1
  -5  -1  -4 1674.41 47.8322  -2
  -5  -1  -4 1674.41 47.8322   1
  -5  -1  -4 852.935 26.2189   1
  -5  -1  -4 823.842 22.9738   2
   5   1   4 926.884 26.4456   1
   5   1   4 1759.81 44.1172  -2
   5   1   4 1759.81 44.1172   1
   5   1   4 859.731 24.7447   2
  -6  -1  -4 564.362 16.1611   2
  -6  -1  -4 596.247 16.6119   1
   6   1   4 539.709 13.8219   1
   6   1   4 533.784 13.8943   2
  -7  -1  -4 10.5586 4.04099   2
  -7  -1  -4 6.15977 4.87099   1
   7   1   4 4.31943 4.04941   2
   7   1   4 4.36005 4.51141   1
  -8  -1  -4 19.0225 6.25407   1
  -8  -1  -4 6.52862 4.78697   2
   8   1   4 18.2238 5.55286   1
   8   1   4 16.2825 5.41364   2
  -9  -1  -4 64.7108 9.17718   2
  -9  -1  -4 67.1098 7.73562   1
   9   1   4 103.054 8.64758   2
   9   1   4 104.221 8.99628   1
   9  -2  -4 433.746 17.4610   1
   9  -2  -4 409.771 18.1141   2
  -9   2   4 451.835 15.3596   1
  -9   2   4 420.019 17.9172   2
   8  -2  -4 168.812 8.87687   2
   8  -2  -4 180.450 9.15188   1
  -8   2   4 179.992 8.88173   1
  -8   2   4 164.862 6.47371   2
   7  -2  -4 114.473 6.58618   1
   7  -2  -4 103.208 6.32597   2
  -7   2   4 96.3768 4.29944   2
  -7   2   4 105.315 5.52833   1
   6  -2  -4 20.8744 3.40720   2
   6  -2  -4 15.8564 3.46258   1
  -6   2   4 19.3054 2.16288   2
  -6   2   4 18.2946 3.28490   1
   5  -2  -4 476.299 11.3204   1
   5  -2  -4 450.461 9.69271   2
  -5   2   4 523.760 11.9851   2
  -5   2   4 561.725 10.3862   1
   4  -2  -4 311.300 7.13645   2
   4  -2  -4 337.830 8.62965   1
  -4   2   4 410.829 8.20012   2
  -4   2   4 443.613 8.45046   1
   3  -2  -4 606.788 10.4755   1
   3  -2  -4 578.162 9.52308   2
  -3   2   4 550.981 11.5866   1
  -3   2   4 513.874 10.9164   2
   2  -2  -4 2178.51 31.5401   2
   2  -2  -4 2298.14 32.4459   1
  -2   2   4 2042.01 37.7673   2
  -2   2   4 2174.08 40.0205   1
   1  -2  -4 699.755 11.1552   2
   1  -2  -4 724.334 11.6662   1
  -1   2   4 732.822 14.1815   1
  -1   2   4 689.417 13.6350   2
   0  -2  -4 845.641 14.6293   1
   0  -2  -4 805.021 13.4317   2
   0   2   4 844.493 17.7421   2
   0   2   4 878.689 16.5492   1
  -1  -2  -4 1673.73 27.6356   2
  -1  -2  -4 1790.45 29.1533   1
   1   2   4 1739.49 35.7365   1
   1   2   4 1678.42 31.8530   2
   1   2   4 3285.38 187.280  -2
   1   2   4 3285.38 187.280   1
  -2  -2  -4 849.390 16.0690   1
  -2  -2  -4 1676.01 88.5056  -2
  -2  -2  -4 1676.01 88.5056   1
  -2  -2  -4 804.179 15.3117   2
   2   2   4 705.486 13.5332   2
   2   2   4 746.014 14.8145   1
   2   2   4 1406.37 64.9952  -2
   2   2   4 1406.37 64.9952   1
  -3  -2  -4 717.209 17.8800   1
  -3  -2  -4 1378.20 42.4934  -2
  -3  -2  -4 1378.20 42.4934   1
  -3  -2  -4 706.741 18.9801   2
   3   2   4 735.386 16.3612   1
   3   2   4 695.812 14.9627   2
   3   2   4 1398.91 50.2938  -2
   3   2   4 1398.91 50.2938   1
  -4  -2  -4 137.037 5.02887   1
  -4  -2  -4 124.514 4.41425   2
  -4  -2  -4 272.594 28.7283  -2
  -4  -2  -4 272.594 28.7283   1
   4   2   4 328.017 11.1568  -2
   4   2   4 328.017 11.1568   1
   4   2   4 156.224 5.41985   2
   4   2   4 170.556 6.02217   1
  -5  -2  -4 28.2949 3.23244   2
  -5  -2  -4 26.1814 3.29857   1
  -5  -2  -4 81.8572 21.0546  -2
  -5  -2  -4 81.8572 21.0546   1
   5   2   4 27.6456 4.00101   1
   5   2   4 59.3776 8.96490  -2
   5   2   4 59.3776 8.96490   1
   5   2   4 29.8794 3.08255   2
  -6  -2  -4 214.925 8.52205   1
  -6  -2  -4 198.008 8.70622   2
  -6  -2  -4 425.347 41.0956  -2
  -6  -2  -4 425.347 41.0956   1
   6   2   4 226.586 7.86214   1
   6   2   4 216.373 7.03096   2
  -7  -2  -4 166.995 7.19694   1
  -7  -2  -4 158.124 9.47049   2
   7   2   4 179.407 7.40437   2
   7   2   4 192.336 7.56507   1
  -8  -2  -4 283.435 17.5185   2
  -8  -2  -4 328.574 12.0144   1
   8   2   4 293.925 13.1101   2
   8   2   4 319.016 11.9279   1
   9  -3  -4 25.9955 10.3262   1
   9  -3  -4 26.8582 8.39911   2
  -9   3   4 14.1448 9.33530   2
  -9   3   4 17.3668 10.3753   1
   8  -3  -4 131.382 8.52595   1
   8  -3  -4 139.658 8.78110   2
  -8   3   4 136.739 8.85678   2
  -8   3   4 145.260 9.61131   1
   7  -3  -4 337.014 11.0629   1
   7  -3  -4 320.236 10.7100   2
  -7   3   4 298.618 12.0223   2
  -7   3   4 333.348 14.4066   1
   6  -3  -4 206.537 7.71387   1
   6  -3  -4 209.516 6.82999   2
  -6   3   4 222.962 9.11917   2
  -6   3   4 241.530 8.10076   1
   5  -3  -4 462.863 9.67794   2
   5  -3  -4 475.678 10.3796   1
  -5   3   4 481.495 11.2457   2
  -5   3   4 507.130 11.7749   1
   4  -3  -4 108.110 3.74248   1
   4  -3  -4 111.230 3.56169   2
  -4   3   4 108.001 3.80016   2
  -4   3   4 118.354 4.52560   1
   3  -3  -4 8.53760 1.32064   2
   3  -3  -4 9.35482 1.54966   1
  -3   3   4 15.3933 1.71541   2
  -3   3   4 14.6557 1.93180   1
   2  -3  -4 67.4711 2.22415   2
   2  -3  -4 70.0483 2.08305   1
  -2   3   4 108.165 17.3833   1
   1  -3  -4 2334.37 35.2714   1
   1  -3  -4 2273.61 38.6908   2
  -1   3   4 2213.91 44.9708   2
  -1   3   4 2336.22 42.4035   1
   0  -3  -4 2647.80 37.2248   1
   0  -3  -4 2500.95 36.4561   2
   0   3   4 2510.76 49.3521   1
   0   3   4 2400.74 46.9094   2
  -1  -3  -4 110.731 2.49264   2
  -1  -3  -4 117.709 2.66883   1
   1   3   4 75.0388 3.11220   2
   1   3   4 84.8839 3.64768   1
  -2  -3  -4 20.5913 1.93652   2
  -2  -3  -4 27.0920 2.06240   1
   2   3   4 27.5311 1.62377   2
   2   3   4 28.8566 1.87866   1
  -3  -3  -4 62.3637 3.00951   2
  -3  -3  -4 63.4045 2.94519   1
   3   3   4 61.7325 2.55240   2
   3   3   4 63.8270 2.76021   1
  -4  -3  -4 457.775 10.5567   2
  -4  -3  -4 480.496 11.0439   1
   4   3   4 543.997 11.3024   1
   4   3   4 510.152 10.6810   2
  -5  -3  -4 370.040 9.60290   2
  -5  -3  -4 382.827 10.3441   1
   5   3   4 347.004 9.82866   2
   5   3   4 358.114 10.7955   1
  -6  -3  -4 270.855 9.82692   1
  -6  -3  -4 267.968 8.60467   2
   6   3   4 265.965 8.89109   1
   6   3   4 236.021 8.88968   2
  -7  -3  -4 106.501 7.34596   1
  -7  -3  -4 102.021 7.92211   2
   7   3   4 115.880 7.10069   1
   7   3   4 110.783 6.92096   2
  -8  -3  -4 12.1612 7.61663   2
  -8  -3  -4 0.23625 9.74499   1
   8   3   4 8.10627 6.62667   2
   8   3   4 -5.2955 6.25548   1
   8  -4  -4 206.410 10.0208   2
   8  -4  -4 208.938 10.7722   1
  -8   4   4 211.553 19.1353   2
  -8   4   4 234.091 13.9362   1
   7  -4  -4 16.9393 4.79808   1
   7  -4  -4 29.1368 4.89748   2
  -7   4   4 16.3878 5.13234   1
  -7   4   4 17.1091 6.96548   2
   6  -4  -4 31.9001 3.63767   2
   6  -4  -4 37.8605 4.49385   1
  -6   4   4 40.8643 5.06415   2
  -6   4   4 37.3668 4.37791   1
   5  -4  -4 132.342 7.57729   1
   5  -4  -4 133.146 4.76102   2
  -5   4   4 92.4477 4.62320   1
  -5   4   4 83.5475 7.10985   2
   4  -4  -4 258.433 6.18079   1
   4  -4  -4 256.183 5.69274   2
  -4   4   4 205.665 6.45293   1
  -4   4   4 190.793 5.77484   2
   3  -4  -4 941.258 18.0622   2
   3  -4  -4 1006.53 19.1582   1
  -3   4   4 1107.49 22.6031   2
  -3   4   4 1174.86 23.1472   1
   2  -4  -4 1084.00 18.6592   1
   2  -4  -4 1039.88 21.1865   2
  -2   4   4 1054.54 24.4558   2
  -2   4   4 1073.04 29.1677   1
   1  -4  -4 119.334 2.86604   1
   1  -4  -4 116.671 3.07714   2
  -1   4   4 106.520 4.61582   2
  -1   4   4 118.881 3.61581   1
   0  -4  -4 152.840 3.45629   1
   0  -4  -4 141.233 3.10939   2
   0   4   4 161.791 4.52423   1
   0   4   4 157.127 4.46467   2
  -1  -4  -4 812.814 13.7116   1
  -1  -4  -4 756.659 11.9990   2
   1   4   4 756.323 15.8627   2
   1   4   4 816.448 17.5229   1
  -2  -4  -4 508.235 10.2614   2
  -2  -4  -4 530.141 10.8324   1
   2   4   4 534.965 12.0574   1
   2   4   4 486.116 12.5044   2
  -3  -4  -4 174.565 5.47398   2
  -3  -4  -4 189.414 5.09515   1
   3   4   4 146.865 4.84005   2
   3   4   4 147.336 4.86008   1
  -4  -4  -4 526.229 12.2801   2
  -4  -4  -4 543.956 12.1619   1
   4   4   4 547.558 11.4949   2
   4   4   4 590.750 12.8272   1
  -5  -4  -4 0.23139 3.75066   1
  -5  -4  -4 1.34119 3.42117   2
   5   4   4 4.11725 2.98258   1
   5   4   4 3.35382 2.96762   2
  -6  -4  -4 135.443 7.01459   1
  -6  -4  -4 141.063 6.99525   2
   6   4   4 140.976 7.02403   2
   6   4   4 151.041 6.58667   1
  -7  -4  -4 291.826 11.5553   1
  -7  -4  -4 269.060 10.8346   2
   7   4   4 212.989 11.0582   2
   7   4   4 239.824 13.4469   1
   7  -5  -4 222.887 9.97006   2
   7  -5  -4 225.189 9.76688   1
  -7   5   4 200.352 10.8503   2
  -7   5   4 220.816 11.0889   1
   6  -5  -4 384.665 10.5274   2
   6  -5  -4 420.034 11.2254   1
  -6   5   4 390.605 11.8442   1
  -6   5   4 352.212 11.2439   2
   5  -5  -4 94.7209 4.47615   2
   5  -5  -4 102.502 4.37687   1
  -5   5   4 94.0915 4.49686   2
  -5   5   4 97.8491 5.30694   1
   4  -5  -4 185.175 6.67281   2
   4  -5  -4 187.438 5.75530   1
  -4   5   4 222.597 10.1310   2
  -4   5   4 241.925 12.0153   1
   3  -5  -4 51.0329 4.32489   2
   3  -5  -4 44.9836 3.34361   1
  -3   5   4 63.8582 5.66918   1
  -3   5   4 59.1428 5.47970   2
   2  -5  -4 67.6119 3.99068   1
   2  -5  -4 63.9489 3.96290   2
  -2   5   4 67.4345 4.91796   2
  -2   5   4 71.8741 5.12552   1
   1  -5  -4 700.257 17.9110   1
   1  -5  -4 670.779 15.7578   2
  -1   5   4 704.938 17.4969   1
  -1   5   4 669.367 18.4697   2
   0  -5  -4 387.527 7.52655   2
   0  -5  -4 426.577 7.74408   1
   0   5   4 425.324 9.89535   2
   0   5   4 462.062 11.7008   1
  -1  -5  -4 283.725 6.01421   2
  -1  -5  -4 304.960 7.42353   1
   1   5   4 314.418 8.43592   1
   1   5   4 294.386 8.91086   2
  -2  -5  -4 26.0903 2.34807   2
  -2  -5  -4 27.5210 2.27163   1
   2   5   4 26.9032 2.48886   2
   2   5   4 24.6635 2.08749   1
  -3  -5  -4 116.801 4.72963   2
  -3  -5  -4 120.458 5.58627   1
   3   5   4 133.059 4.91291   1
   3   5   4 121.872 5.22029   2
  -4  -5  -4 140.785 5.33113   1
  -4  -5  -4 136.633 5.77282   2
   4   5   4 115.978 5.37987   2
   4   5   4 115.828 5.42459   1
  -5  -5  -4 310.343 9.90172   2
  -5  -5  -4 316.628 9.64388   1
   5   5   4 343.477 10.9892   2
   5   5   4 352.699 11.0517   1
  -6  -5  -4 274.059 10.5594   2
  -6  -5  -4 289.192 10.9848   1
   6   5   4 292.180 9.47507   1
   6   5   4 269.707 11.3280   2
   6  -6  -4 97.5123 5.79038   1
   6  -6  -4 92.7623 9.22082   2
  -6   6   4 75.1562 15.4841   1
  -6   6   4 65.4200 15.0899   2
   5  -6  -4 172.793 7.31380   2
   5  -6  -4 190.290 9.39109   1
  -5   6   4 215.042 15.0313   1
  -5   6   4 200.530 14.8356   2
   4  -6  -4 170.655 7.23107   1
   4  -6  -4 164.643 6.28759   2
  -4   6   4 215.686 12.6203   2
  -4   6   4 218.622 13.2704   1
   3  -6  -4 291.049 7.76589   1
   3  -6  -4 289.133 10.3480   2
  -3   6   4 220.648 11.8602   2
  -3   6   4 255.243 12.3124   1
   2  -6  -4 172.592 6.82134   1
   2  -6  -4 175.110 6.37164   2
  -2   6   4 167.259 8.75593   1
  -2   6   4 158.697 9.22091   2
   1  -6  -4 31.1116 2.15864   1
   1  -6  -4 21.8385 3.15586   2
  -1   6   4 42.4847 5.96281   1
  -1   6   4 23.0613 4.77219   2
   0  -6  -4 61.6418 2.95358   2
   0  -6  -4 64.5250 3.13948   1
   0   6   4 51.8068 4.90849   2
   0   6   4 46.7978 4.12595   1
  -1  -6  -4 131.100 3.61722   2
  -1  -6  -4 143.364 4.14035   1
   1   6   4 120.487 10.7580   1
   1   6   4 125.647 5.17812   2
  -2  -6  -4 475.267 11.4945   1
  -2  -6  -4 455.621 9.71907   2
   2   6   4 555.107 20.1499   1
   2   6   4 506.002 18.6670   2
  -3  -6  -4 57.8491 3.24217   2
  -3  -6  -4 63.1201 4.46021   1
   3   6   4 59.7715 7.59250   1
   3   6   4 64.2777 6.60664   2
  -4  -6  -4 145.031 5.47976   1
  -4  -6  -4 124.362 5.43260   2
   4   6   4 149.360 11.7605   2
   4   6   4 145.398 11.1724   1
  -5  -6  -4 22.7483 4.40517   2
  -5  -6  -4 24.4651 4.79008   1
   5   6   4 30.1371 6.99302   2
   5   6   4 26.1252 6.19551   1
   4  -7  -4 23.7444 4.10352   2
   4  -7  -4 22.3623 7.02905   1
  -4   7   4 4.91041 9.93987   2
  -4   7   4 4.14003 10.8480   1
   3  -7  -4 47.0947 6.39708   2
   3  -7  -4 51.2770 3.74577   1
  -3   7   4 50.2036 12.0511   1
  -3   7   4 46.5587 13.3558   2
   2  -7  -4 70.6100 6.33184   2
   2  -7  -4 70.0457 5.77527   1
  -2   7   4 43.5549 8.15671   2
  -2   7   4 48.1784 9.49615   1
   1  -7  -4 285.271 7.78128   1
   1  -7  -4 276.521 8.16535   2
  -1   7   4 325.605 20.8597   1
  -1   7   4 283.230 13.7530   2
   0  -7  -4 254.236 7.97071   2
   0  -7  -4 246.365 11.2416   1
   0   7   4 216.093 14.9068   2
   0   7   4 236.388 17.9861   1
  -1  -7  -4 44.8116 2.85597   2
  -1  -7  -4 44.4117 3.89269   1
   1   7   4 38.5970 10.5990   1
   1   7   4 35.5318 8.18930   2
  -2  -7  -4 31.0135 3.56326   2
  -2  -7  -4 29.6745 3.58943   1
   2   7   4 26.7547 6.69829   2
   2   7   4 38.8064 11.5789   1
  -3  -7  -4 25.6432 5.03963   1
  -3  -7  -4 26.9828 4.96483   2
   3   7   4 14.4803 9.24938   1
   3   7   4 8.30530 7.65100   2
  -9   0   5 315.024 12.9248   1
  -9   0   5 293.201 14.4200   2
  -8   0   5 59.2768 6.45782   1
  -8   0   5 66.0452 5.76170   2
  -7   0   5 25.7360 4.31853   1
  -7   0   5 16.6685 4.47754   2
  -6   0   5 1192.94 23.2921   2
  -6   0   5 1300.73 24.2870   1
  -5   0   5 6.62007 1.79034   2
  -5   0   5 10.4387 2.22591   1
  -4   0   5 1347.14 22.2286   2
  -4   0   5 1418.41 24.5586   1
  -3   0   5 1636.99 28.7489   1
  -3   0   5 1569.34 26.3128   2
  -2   0   5 625.057 11.0428   1
  -2   0   5 589.227 10.4079   2
  -1   0   5 293.553 5.52509   2
  -1   0   5 311.706 5.88194   1
   0   0   5 447.207 13.2507  -2
   0   0   5 447.207 13.2507   1
   0   0   5 210.594 5.77989   2
   0   0   5 239.844 6.51033   1
   1   0   5 922.139 33.0399   1
   1   0   5 1771.50 43.1615  -2
   1   0   5 1771.50 43.1615   1
   1   0   5 896.714 37.8739   2
   2   0   5 604.490 13.1088  -2
   2   0   5 604.490 13.1088   1
   3   0   5 2522.25 147.824   2
   3   0   5 3397.78 70.4566  -2
   3   0   5 3397.78 70.4566   1
   4   0   5 453.322 14.6936  -2
   4   0   5 453.322 14.6936   1
   4   0   5 263.500 11.1579   1
   4   0   5 312.755 18.0238   2
   5   0   5 46.8451 3.52766   1
   5   0   5 43.8705 3.51108   2
   5   0   5 98.3579 11.9770  -2
   5   0   5 98.3579 11.9770   1
   6   0   5 19.2315 3.58477   2
   6   0   5 23.6089 3.78788   1
   7   0   5 59.3475 5.54202   1
   7   0   5 38.3564 5.62148   2
   8   0   5 205.713 8.97435   2
   8   0   5 216.616 9.18081   1
   9   0   5 178.309 15.2823   1
   9   0   5 191.238 30.1320   2
   9  -1  -5 15.0674 6.68313   1
   9  -1  -5 10.6073 6.98215   2
  -9   1   5 12.6257 6.80955   1
  -9   1   5 4.16044 6.62004   2
   8  -1  -5 61.8667 6.51030   1
   8  -1  -5 65.0617 6.67975   2
  -8   1   5 47.1926 6.72288   1
  -8   1   5 56.5326 4.60974   2
   7  -1  -5 111.467 6.93669   1
   7  -1  -5 105.117 6.27716   2
  -7   1   5 97.2512 4.81949   2
  -7   1   5 108.894 5.90796   1
   6  -1  -5 208.020 27.6822   1
  -6   1   5 133.677 4.62334   2
  -6   1   5 141.700 5.58476   1
   5  -1  -5 1307.60 25.0048   2
   5  -1  -5 1383.98 25.4743   1
  -5   1   5 1408.39 25.4509   1
  -5   1   5 1304.21 23.6477   2
   4  -1  -5 903.152 16.3863   2
   4  -1  -5 941.965 16.9452   1
  -4   1   5 1046.46 18.2974   1
  -4   1   5 963.455 18.7931   2
   3  -1  -5 114.886 3.17951   1
   3  -1  -5 106.597 2.93541   2
  -3   1   5 89.3804 2.73812   2
  -3   1   5 98.3089 3.08048   1
   2  -1  -5 1119.97 18.3460   1
   2  -1  -5 1069.93 17.2969   2
  -2   1   5 1022.32 19.1074   1
  -2   1   5 962.142 17.8944   2
   1  -1  -5 668.341 10.8289   2
   1  -1  -5 705.338 11.9709   1
  -1   1   5 629.599 11.7170   2
  -1   1   5 671.169 13.0332   1
   0  -1  -5 2928.49 51.9500   1
   0  -1  -5 2740.56 47.9916   2
   0  -1  -5 5596.39 325.596  -2
   0  -1  -5 5596.39 325.596   1
   0   1   5 2891.23 50.0071   2
   0   1   5 3165.16 51.7053   1
   0   1   5 5895.71 325.902  -2
   0   1   5 5895.71 325.902   1
  -1  -1  -5 131.727 4.45676   2
  -1  -1  -5 130.632 4.69215   1
   1   1   5 201.124 6.25114  -2
   1   1   5 201.124 6.25114   1
   1   1   5 100.828 4.54668   2
   1   1   5 96.6315 4.12847   1
  -2  -1  -5 386.999 11.8940   2
  -2  -1  -5 399.707 11.9050   1
  -2  -1  -5 829.031 22.4097  -2
  -2  -1  -5 829.031 22.4097   1
   2   1   5 370.732 10.5618   2
   2   1   5 751.054 25.2380  -2
   2   1   5 751.054 25.2380   1
   2   1   5 366.849 10.6784   1
  -3  -1  -5 8.52539 3.03360  -2
  -3  -1  -5 8.52539 3.03360   1
  -3  -1  -5 1.63116 2.61735   1
  -3  -1  -5 5.44582 2.80112   2
   3   1   5 0.42725 2.06341   2
   3   1   5 6.85106 2.76026  -2
   3   1   5 6.85106 2.76026   1
   3   1   5 1.60993 2.33282   1
  -4  -1  -5 346.219 15.2330   1
  -4  -1  -5 311.468 14.6087   2
  -4  -1  -5 656.607 20.5242  -2
  -4  -1  -5 656.607 20.5242   1
   4   1   5 335.928 10.2898   2
   4   1   5 672.740 18.7627  -2
   4   1   5 672.740 18.7627   1
   4   1   5 342.779 11.8345   1
  -5  -1  -5 835.505 24.9822  -2
  -5  -1  -5 835.505 24.9822   1
  -5  -1  -5 442.676 12.6933   1
  -5  -1  -5 414.972 18.0854   2
   5   1   5 762.247 22.4835  -2
   5   1   5 762.247 22.4835   1
   5   1   5 395.181 14.2919   1
   5   1   5 380.243 13.4551   2
  -6  -1  -5 539.469 14.5166   1
  -6  -1  -5 541.881 16.7619   2
   6   1   5 513.390 16.3566   1
   6   1   5 476.183 15.2849   2
   6   1   5 1040.27 72.6375  -2
   6   1   5 1040.27 72.6375   1
  -7  -1  -5 160.788 9.35249   2
  -7  -1  -5 190.479 8.13842   1
   7   1   5 189.590 8.51597   1
   7   1   5 169.159 8.36051   2
  -8  -1  -5 15.9301 6.65963   2
  -8  -1  -5 3.61194 4.37065   1
   8   1   5 -1.9405 5.92724   1
   8   1   5 7.70565 5.36412   2
   9  -2  -5 116.379 9.98945   2
   9  -2  -5 130.160 10.7901   1
  -9   2   5 116.813 9.64695   2
  -9   2   5 132.153 9.25976   1
   8  -2  -5 379.037 13.4115   2
   8  -2  -5 401.467 13.8385   1
  -8   2   5 371.433 10.7877   2
  -8   2   5 384.681 12.7070   1
   7  -2  -5 377.132 12.3652   2
   7  -2  -5 388.675 12.6757   1
  -7   2   5 366.026 11.3779   1
  -7   2   5 318.554 9.10883   2
   6  -2  -5 35.1825 3.83367   1
   6  -2  -5 22.1114 3.32484   2
  -6   2   5 18.3524 2.13119   2
  -6   2   5 21.6436 3.25732   1
   5  -2  -5 75.1418 3.18728   2
   5  -2  -5 89.2818 3.73679   1
  -5   2   5 60.9527 3.62355   2
  -5   2   5 62.9084 3.04267   1
   4  -2  -5 462.391 8.65518   2
   4  -2  -5 473.455 9.48018   1
  -4   2   5 378.819 9.06370   2
  -4   2   5 397.472 8.66164   1
   3  -2  -5 2194.28 32.4481   2
   3  -2  -5 2294.11 38.0709   1
  -3   2   5 2132.47 41.0083   2
  -3   2   5 2270.84 41.0813   1
   2  -2  -5 1453.49 23.7593   1
   2  -2  -5 1398.53 23.4523   2
  -2   2   5 1509.24 26.3387   2
  -2   2   5 1595.67 26.4713   1
   1  -2  -5 3.18180 0.99862   1
   1  -2  -5 3.58569 0.90430   2
  -1   2   5 4.01983 1.21427   2
  -1   2   5 5.82486 1.29493   1
   0  -2  -5 28.8555 1.40071   1
   0  -2  -5 27.4787 1.27347   2
   0   2   5 26.4040 1.38587   1
   0   2   5 28.3656 1.60528   2
  -1  -2  -5 53.9148 2.08134   1
  -1  -2  -5 50.1305 1.95558   2
   1   2   5 264.161 18.1584  -2
   1   2   5 264.161 18.1584   1
  -2  -2  -5 1220.73 23.6738   2
  -2  -2  -5 1275.23 26.1281   1
  -2  -2  -5 2423.47 136.937  -2
  -2  -2  -5 2423.47 136.937   1
   2   2   5 1190.06 23.4643   2
   2   2   5 1248.06 22.2856   1
   2   2   5 2318.31 101.574  -2
   2   2   5 2318.31 101.574   1
  -3  -2  -5 1950.98 50.3559  -2
  -3  -2  -5 1950.98 50.3559   1
  -3  -2  -5 929.764 25.9750   2
  -3  -2  -5 987.393 27.4250   1
   3   2   5 944.336 24.2811   1
   3   2   5 876.572 22.7148   2
   3   2   5 1749.73 56.8891  -2
   3   2   5 1749.73 56.8891   1
  -4  -2  -5 531.301 26.6581  -2
  -4  -2  -5 531.301 26.6581   1
  -4  -2  -5 251.452 9.71343   1
  -4  -2  -5 246.584 9.41771   2
   4   2   5 444.674 14.3700  -2
   4   2   5 444.674 14.3700   1
   4   2   5 246.393 9.21856   1
   4   2   5 221.664 8.19273   2
  -5  -2  -5 253.406 9.07543   2
  -5  -2  -5 274.560 9.32426   1
  -5  -2  -5 540.979 44.4696  -2
  -5  -2  -5 540.979 44.4696   1
   5   2   5 270.857 11.3321   1
   5   2   5 269.764 10.3291   2
   5   2   5 537.457 18.6208  -2
   5   2   5 537.457 18.6208   1
  -6  -2  -5 100.871 5.81500   1
  -6  -2  -5 211.981 32.2588  -2
  -6  -2  -5 211.981 32.2588   1
  -6  -2  -5 88.6603 7.22100   2
   6   2   5 98.1246 5.33765   2
   6   2   5 93.0835 5.20500   1
  -7  -2  -5 206.301 9.11769   1
  -7  -2  -5 193.884 12.6906   2
  -7  -2  -5 350.095 43.3939  -2
  -7  -2  -5 350.095 43.3939   1
   7   2   5 230.756 8.51867   1
   7   2   5 218.205 7.62045   2
  -8  -2  -5 372.024 15.8867   1
  -8  -2  -5 326.384 15.2437   2
   8   2   5 303.957 11.5000   1
   8   2   5 295.352 11.6067   2
   8  -3  -5 7.24559 5.89374   2
   8  -3  -5 2.67822 5.76530   1
  -8   3   5 6.74955 5.87188   2
  -8   3   5 6.61272 5.75194   1
   7  -3  -5 422.767 12.3600   1
   7  -3  -5 400.092 12.4675   2
  -7   3   5 355.938 13.4413   2
  -7   3   5 386.568 20.3340   1
   6  -3  -5 496.240 12.5465   1
   6  -3  -5 484.013 12.0646   2
  -6   3   5 491.392 14.2898   2
  -6   3   5 494.012 15.5078   1
   5  -3  -5 611.544 12.6697   1
   5  -3  -5 589.110 12.2434   2
  -5   3   5 664.072 14.4173   1
  -5   3   5 615.754 13.6286   2
   4  -3  -5 628.249 11.9638   1
   4  -3  -5 604.966 13.3961   2
  -4   3   5 602.601 12.7686   1
  -4   3   5 559.153 12.5493   2
   3  -3  -5 12.3901 1.52658   1
   3  -3  -5 11.6295 1.43802   2
  -3   3   5 12.5504 1.87285   1
  -3   3   5 13.5189 1.87039   2
   2  -3  -5 753.226 11.7058   1
   2  -3  -5 712.791 10.8386   2
  -2   3   5 738.208 13.8042   1
  -2   3   5 682.677 13.4801   2
   1  -3  -5 563.347 9.00442   1
   1  -3  -5 537.915 8.83140   2
  -1   3   5 480.618 11.2148   1
  -1   3   5 466.531 9.94520   2
   0  -3  -5 671.771 10.1416   2
   0  -3  -5 714.273 10.3978   1
   0   3   5 613.634 13.6279   2
   0   3   5 633.362 14.1945   1
  -1  -3  -5 502.183 9.68064   2
  -1  -3  -5 527.322 10.1474   1
   1   3   5 573.777 11.7116   2
   1   3   5 591.386 12.5835   1
  -2  -3  -5 309.183 6.58178   2
  -2  -3  -5 324.922 6.91458   1
   2   3   5 329.197 7.27261   1
   2   3   5 315.847 7.31857   2
  -3  -3  -5 9.86224 2.28431   1
  -3  -3  -5 8.10553 2.21297   2
   3   3   5 1.78673 2.21643   1
   3   3   5 5.20171 1.77399   2
  -4  -3  -5 525.537 13.4524   1
  -4  -3  -5 485.697 12.7068   2
   4   3   5 601.116 11.8729   1
   4   3   5 566.885 11.2756   2
  -5  -3  -5 535.544 14.3792   2
  -5  -3  -5 567.828 14.6026   1
   5   3   5 456.283 13.1310   2
   5   3   5 499.564 13.2017   1
  -6  -3  -5 407.287 11.5348   1
  -6  -3  -5 393.021 12.3962   2
   6   3   5 394.812 12.8454   1
   6   3   5 375.007 11.6470   2
   6   3   5 775.884 60.7534  -2
   6   3   5 775.884 60.7534   1
  -7  -3  -5 217.838 10.2613   1
  -7  -3  -5 189.009 10.4478   2
   7   3   5 214.888 9.28597   1
   7   3   5 195.504 9.80573   2
  -8  -3  -5 15.7516 7.38362   2
  -8  -3  -5 18.7638 7.70406   1
   8   3   5 12.3915 8.57416   2
   8   3   5 27.6619 8.09143   1
   8  -4  -5 196.615 10.4534   1
   8  -4  -5 175.235 9.72166   2
  -8   4   5 222.936 14.8857   1
  -8   4   5 207.343 12.3967   2
   7  -4  -5 101.697 6.52502   1
   7  -4  -5 110.735 6.56725   2
  -7   4   5 134.618 7.65724   1
  -7   4   5 106.978 8.51382   2
   6  -4  -5 62.0099 4.87041   1
   6  -4  -5 62.0117 4.21994   2
  -6   4   5 67.6052 4.95152   1
  -6   4   5 64.6477 5.29059   2
   5  -4  -5 44.1525 3.27404   2
   5  -4  -5 52.1386 3.82767   1
  -5   4   5 60.7086 4.08235   2
  -5   4   5 69.3442 4.21939   1
   4  -4  -5 610.969 14.0074   1
   4  -4  -5 596.348 12.3869   2
  -4   4   5 633.925 14.0789   2
  -4   4   5 684.970 15.0581   1
   3  -4  -5 1122.34 18.4387   2
   3  -4  -5 1186.74 19.1219   1
  -3   4   5 1058.15 26.0357   1
  -3   4   5 989.383 19.9151   2
   2  -4  -5 535.882 9.65724   2
   2  -4  -5 543.941 9.32777   1
  -2   4   5 530.519 11.2713   1
  -2   4   5 508.853 14.7531   2
   1  -4  -5 79.0853 2.16483   2
   1  -4  -5 78.1926 2.19466   1
  -1   4   5 119.305 6.58464   2
  -1   4   5 122.645 11.6114   1
   0  -4  -5 36.1477 1.74674   1
   0  -4  -5 31.7172 1.68576   2
   0   4   5 37.3773 2.43823   1
   0   4   5 33.0788 2.48180   2
  -1  -4  -5 193.090 4.42411   1
  -1  -4  -5 192.127 4.40564   2
   1   4   5 183.597 6.04950   1
   1   4   5 164.198 5.86907   2
  -2  -4  -5 574.599 11.3888   2
  -2  -4  -5 596.968 11.8820   1
   2   4   5 527.590 12.1518   2
   2   4   5 558.563 12.5143   1
  -3  -4  -5 460.224 10.5138   1
  -3  -4  -5 426.876 10.4846   2
   3   4   5 495.229 12.0076   2
   3   4   5 528.113 12.8582   1
  -4  -4  -5 450.530 14.4451   1
  -4  -4  -5 426.181 13.8743   2
   4   4   5 509.035 11.8773   1
   4   4   5 479.629 10.3684   2
  -5  -4  -5 69.5621 4.97973   2
  -5  -4  -5 72.3437 4.99845   1
   5   4   5 51.7640 4.00890   2
   5   4   5 53.0018 4.08001   1
  -6  -4  -5 20.2808 5.20198   2
  -6  -4  -5 33.4828 5.17716   1
   6   4   5 36.3486 4.74619   1
   6   4   5 25.6650 5.08589   2
  -7  -4  -5 222.333 11.8730   2
  -7  -4  -5 225.612 12.7974   1
   7   4   5 224.188 10.3886   1
   7   4   5 194.384 9.76351   2
   7  -5  -5 36.4775 5.04693   2
   7  -5  -5 42.1959 6.27151   1
  -7   5   5 86.1185 9.47431   1
  -7   5   5 88.2965 16.8101   2
   6  -5  -5 180.364 6.44648   2
   6  -5  -5 193.246 7.36849   1
  -6   5   5 234.180 7.77276   1
  -6   5   5 228.768 7.92212   2
   5  -5  -5 481.773 11.3824   1
   5  -5  -5 462.604 11.5361   2
  -5   5   5 473.005 14.2143   1
  -5   5   5 429.466 12.0537   2
   4  -5  -5 539.169 13.1737   1
   4  -5  -5 526.316 15.5855   2
  -4   5   5 543.464 18.7281   1
  -4   5   5 525.728 19.5445   2
   3  -5  -5 112.433 4.13222   2
   3  -5  -5 111.557 4.29877   1
  -3   5   5 113.798 6.88006   2
  -3   5   5 109.244 6.94784   1
   2  -5  -5 220.004 7.23060   2
   2  -5  -5 228.738 6.13360   1
  -2   5   5 187.442 8.80436   2
  -2   5   5 176.142 9.56906   1
   1  -5  -5 401.906 9.10336   2
   1  -5  -5 414.568 8.56663   1
  -1   5   5 445.349 12.9977   2
  -1   5   5 492.259 13.5936   1
   0  -5  -5 363.614 7.23261   1
   0  -5  -5 330.714 6.78133   2
   0   5   5 384.285 9.23457   2
   0   5   5 391.320 9.02415   1
  -1  -5  -5 604.546 11.7261   1
  -1  -5  -5 574.843 10.8908   2
   1   5   5 576.031 14.4801   1
   1   5   5 550.462 15.5099   2
  -2  -5  -5 79.8836 3.57960   2
  -2  -5  -5 86.8220 4.33595   1
   2   5   5 74.1492 4.26143   2
   2   5   5 83.7809 3.99313   1
  -3  -5  -5 79.5585 3.79484   2
  -3  -5  -5 72.7086 3.95225   1
   3   5   5 71.0932 4.60474   1
   3   5   5 73.9683 4.93750   2
  -4  -5  -5 148.993 5.67685   1
  -4  -5  -5 128.076 5.82630   2
   4   5   5 166.710 8.45310   1
   4   5   5 159.390 6.09715   2
  -5  -5  -5 243.184 8.86897   2
  -5  -5  -5 268.732 9.20052   1
   5   5   5 267.858 10.2196   2
   5   5   5 276.992 11.9234   1
  -6  -5  -5 115.016 7.79541   2
  -6  -5  -5 110.011 7.56860   1
   6   5   5 101.362 8.10662   2
   6   5   5 114.490 7.31222   1
   6  -6  -5 35.1339 9.00707   1
   6  -6  -5 23.1400 8.13797   2
  -6   6   5 18.9003 12.3350   2
  -6   6   5 18.1205 11.4296   1
   5  -6  -5 9.67069 5.53804   1
   5  -6  -5 10.3387 4.03794   2
  -5   6   5 17.3633 9.24025   1
  -5   6   5 26.9123 7.80773   2
   4  -6  -5 144.284 8.61195   1
   4  -6  -5 127.245 5.82862   2
  -4   6   5 123.738 10.3437   2
  -4   6   5 128.450 11.5198   1
   3  -6  -5 351.121 9.63694   1
   3  -6  -5 378.699 16.8135   2
  -3   6   5 379.864 21.0228   1
  -3   6   5 379.606 16.9758   2
   2  -6  -5 420.351 10.3948   1
   2  -6  -5 410.835 12.1079   2
  -2   6   5 440.808 18.1297   2
  -2   6   5 471.510 18.3606   1
   1  -6  -5 69.9499 3.11431   2
   1  -6  -5 61.6290 3.46656   1
  -1   6   5 53.4129 5.51515   2
  -1   6   5 62.5295 5.22852   1
   0  -6  -5 9.20097 1.71346   1
   0  -6  -5 9.70187 1.67326   2
   0   6   5 8.99315 4.05116   2
   0   6   5 6.20565 7.44854   1
  -1  -6  -5 36.9333 2.54587   2
  -1  -6  -5 37.1442 2.38326   1
   1   6   5 35.9249 3.37427   2
   1   6   5 37.8325 5.43881   1
  -2  -6  -5 567.411 12.5856   1
  -2  -6  -5 523.971 11.9036   2
   2   6   5 647.458 21.0477   1
   2   6   5 590.066 14.0368   2
  -3  -6  -5 79.7842 4.27378   2
  -3  -6  -5 85.7670 4.11983   1
   3   6   5 68.4778 4.85119   2
   3   6   5 76.8771 7.72766   1
  -4  -6  -5 117.208 5.67933   2
  -4  -6  -5 137.368 5.69701   1
   4   6   5 116.730 7.69331   2
   4   6   5 119.008 9.08547   1
  -5  -6  -5 50.2607 5.98896   1
  -5  -6  -5 37.4821 6.39548   2
   5   6   5 51.0839 11.3299   1
   5   6   5 30.8988 9.30590   2
   4  -7  -5 163.255 8.55712   1
   4  -7  -5 141.116 7.71302   2
  -4   7   5 218.377 24.2510   1
  -4   7   5 191.106 19.7596   2
   3  -7  -5 7.54213 5.81181   2
   3  -7  -5 -1.9748 4.14111   1
  -3   7   5 10.0190 11.3295   2
  -3   7   5 7.85029 17.5200   1
   2  -7  -5 39.7668 3.35932   1
   2  -7  -5 35.6062 5.62230   2
  -2   7   5 22.5004 7.98934   2
  -2   7   5 46.4524 9.80651   1
   1  -7  -5 129.973 5.16800   1
   1  -7  -5 124.834 5.26308   2
  -1   7   5 138.810 11.6873   2
  -1   7   5 162.551 15.8643   1
   0  -7  -5 142.385 6.29016   1
   0  -7  -5 156.627 5.38314   2
   0   7   5 194.024 13.5987   1
   0   7   5 174.327 12.7082   2
  -1  -7  -5 197.657 7.21506   1
  -1  -7  -5 170.638 6.15366   2
   1   7   5 221.707 17.3437   2
   1   7   5 233.117 15.1270   1
  -2  -7  -5 30.4972 3.98976   2
  -2  -7  -5 33.9693 4.02709   1
   2   7   5 8.35748 9.51256   1
   2   7   5 16.8587 6.64657   2
  -3  -7  -5 13.5743 5.49003   2
  -3  -7  -5 9.26291 5.80100   1
   3   7   5 29.4193 8.42995   2
   3   7   5 6.85544 9.32732   1
  -9   0   6 136.870 9.02015   1
  -9   0   6 120.088 9.21140   2
  -8   0   6 452.631 13.6560   2
  -8   0   6 492.908 15.8619   1
  -7   0   6 464.603 13.3277   1
  -7   0   6 416.870 12.9754   2
  -6   0   6 876.047 18.6708   2
  -6   0   6 915.878 20.6097   1
  -5   0   6 183.213 5.55260   1
  -5   0   6 182.825 4.97416   2
  -4   0   6 437.805 8.66463   2
  -4   0   6 461.743 9.35980   1
  -3   0   6 751.311 13.1852   2
  -3   0   6 800.437 13.8199   1
  -2   0   6 1547.88 27.0872   1
  -2   0   6 1421.51 27.1031   2
  -1   0   6 474.495 9.01531   2
  -1   0   6 504.528 9.15387   1
   0   0   6 244.656 5.50645   1
   0   0   6 221.393 5.03400   2
   0   0   6 457.770 31.5511  -2
   0   0   6 457.770 31.5511   1
   1   0   6 819.793 21.0786  -2
   1   0   6 819.793 21.0786   1
   1   0   6 427.271 14.5325   1
   1   0   6 410.959 13.9154   2
   2   0   6 834.773 21.8594  -2
   2   0   6 834.773 21.8594   1
   3   0   6 6495.89 133.469  -2
   3   0   6 6495.89 133.469   1
   4   0   6 412.409 12.0351  -2
   4   0   6 412.409 12.0351   1
   4   0   6 269.044 15.9205   2
   4   0   6 232.387 15.5989   1
   5   0   6 260.519 10.2551   1
   5   0   6 516.115 26.5604  -2
   5   0   6 516.115 26.5604   1
   5   0   6 240.827 13.3599   2
   6   0   6 71.9250 4.88292   2
   6   0   6 69.2612 4.93126   1
   7   0   6 258.133 10.0649   1
   7   0   6 247.483 9.62608   2
   8   0   6 231.590 10.4740   1
   8   0   6 185.453 11.8250   2
   9  -1  -6 221.588 11.5046   1
   9  -1  -6 221.001 11.2297   2
  -9   1   6 226.374 11.5108   1
  -9   1   6 195.047 11.6887   2
   8  -1  -6 62.6271 6.78105   1
   8  -1  -6 73.0581 6.90311   2
  -8   1   6 56.0656 5.41691   2
  -8   1   6 67.6592 7.24528   1
   7  -1  -6 167.286 7.74661   1
   7  -1  -6 167.180 8.02446   2
  -7   1   6 150.722 7.32898   1
  -7   1   6 148.502 6.61568   2
   6  -1  -6 730.362 14.8669   2
   6  -1  -6 769.389 17.1133   1
  -6   1   6 711.237 16.6205   2
  -6   1   6 734.678 16.4723   1
   5  -1  -6 903.041 19.7877   1
   5  -1  -6 877.038 17.6994   2
  -5   1   6 1108.98 19.2077   1
  -5   1   6 1047.56 19.8098   2
   4  -1  -6 472.399 8.84502   2
   4  -1  -6 500.404 9.17426   1
  -4   1   6 497.088 9.66642   1
  -4   1   6 473.155 9.40750   2
   3  -1  -6 437.928 7.67282   2
   3  -1  -6 451.627 8.28483   1
  -3   1   6 381.363 8.52726   2
  -3   1   6 422.169 8.52233   1
   2  -1  -6 161.870 3.78634   1
   2  -1  -6 151.135 3.46882   2
  -2   1   6 143.488 3.59185   2
  -2   1   6 151.532 3.58532   1
   1  -1  -6 296.436 6.43982   2
   1  -1  -6 315.986 7.26237   1
  -1   1   6 381.536 7.09777   1
  -1   1   6 356.573 6.92632   2
   0  -1  -6 1447.01 24.4578   2
   0  -1  -6 1546.66 25.1817   1
   0   1   6 1438.63 25.7427   1
   0   1   6 1335.15 23.2952   2
  -1  -1  -6 1316.59 29.2389   1
  -1  -1  -6 2612.47 74.9737  -2
  -1  -1  -6 2612.47 74.9737   1
  -1  -1  -6 1230.13 29.8700   2
   1   1   6 1138.01 32.6604   2
   1   1   6 1223.12 29.2678   1
   1   1   6 2389.19 87.3709  -2
   1   1   6 2389.19 87.3709   1
  -2  -1  -6 1244.26 35.3452   2
  -2  -1  -6 1284.01 37.2430   1
  -2  -1  -6 2649.14 63.9530  -2
  -2  -1  -6 2649.14 63.9530   1
   2   1   6 2617.61 92.1574  -2
   2   1   6 2617.61 92.1574   1
   2   1   6 1387.33 33.2328   1
   2   1   6 1306.05 34.2914   2
  -3  -1  -6 160.526 7.05127   1
  -3  -1  -6 158.710 7.16694   2
  -3  -1  -6 314.998 11.5617  -2
  -3  -1  -6 314.998 11.5617   1
   3   1   6 368.808 10.7064  -2
   3   1   6 368.808 10.7064   1
   3   1   6 187.164 7.24677   2
   3   1   6 187.161 7.58059   1
  -4  -1  -6 252.601 10.1297   1
  -4  -1  -6 262.870 10.3509   2
  -4  -1  -6 550.110 19.6411  -2
  -4  -1  -6 550.110 19.6411   1
   4   1   6 506.162 21.7899  -2
   4   1   6 506.162 21.7899   1
   4   1   6 277.103 9.34810   1
   4   1   6 261.668 8.87086   2
  -5  -1  -6 396.018 16.6677   2
  -5  -1  -6 385.941 18.6867   1
  -5  -1  -6 798.983 28.4564  -2
  -5  -1  -6 798.983 28.4564   1
   5   1   6 436.661 13.6216   1
   5   1   6 409.462 12.7761   2
   5   1   6 820.281 28.2152  -2
   5   1   6 820.281 28.2152   1
  -6  -1  -6 406.588 17.8649   2
  -6  -1  -6 408.154 18.5019   1
  -6  -1  -6 768.525 64.8611  -2
  -6  -1  -6 768.525 64.8611   1
   6   1   6 431.673 13.5870   2
   6   1   6 457.851 15.4526   1
   6   1   6 929.888 45.6647  -2
   6   1   6 929.888 45.6647   1
  -7  -1  -6 670.564 50.6414  -2
  -7  -1  -6 670.564 50.6414   1
  -7  -1  -6 341.894 17.5748   2
  -7  -1  -6 370.200 17.6245   1
   7   1   6 392.801 13.6613   1
   7   1   6 725.599 54.1899  -2
   7   1   6 725.599 54.1899   1
   7   1   6 342.266 11.8983   2
  -8  -1  -6 17.2296 7.80067   1
  -8  -1  -6 17.2599 11.3386   2
   8   1   6 12.7211 5.64639   1
   8   1   6 15.2624 7.05249   2
   9  -2  -6 96.2659 9.44420   2
   9  -2  -6 118.408 11.3713   1
  -9   2   6 128.419 8.03121   1
  -9   2   6 124.864 10.5832   2
   8  -2  -6 367.748 13.3086   2
   8  -2  -6 386.278 13.6572   1
  -8   2   6 371.957 11.8936   2
  -8   2   6 398.045 11.9442   1
   7  -2  -6 293.036 10.1527   2
   7  -2  -6 307.337 10.3943   1
  -7   2   6 290.731 8.23407   2
  -7   2   6 321.764 10.3153   1
   6  -2  -6 140.271 5.96241   1
   6  -2  -6 132.298 5.55334   2
  -6   2   6 165.283 4.82842   2
  -6   2   6 171.256 5.64243   1
   5  -2  -6 3.86741 2.00446   2
   5  -2  -6 4.03845 2.38182   1
  -5   2   6 2.89170 2.05057   1
  -5   2   6 5.59149 2.26841   2
   4  -2  -6 192.396 4.93970   2
   4  -2  -6 201.956 5.41789   1
  -4   2   6 221.414 5.84067   2
  -4   2   6 235.102 5.18361   1
   3  -2  -6 845.508 14.2851   2
   3  -2  -6 880.325 16.3267   1
  -3   2   6 869.275 15.9217   1
  -3   2   6 804.582 16.7262   2
   2  -2  -6 1349.00 22.0088   2
   2  -2  -6 1408.69 24.0931   1
  -2   2   6 1570.13 27.0660   1
  -2   2   6 1476.05 25.7825   2
   1  -2  -6 429.014 7.78666   1
   1  -2  -6 406.684 7.09978   2
  -1   2   6 428.231 8.27412   1
  -1   2   6 401.236 8.36839   2
   0  -2  -6 105.615 3.14606   1
   0  -2  -6 94.6497 2.90784   2
   0   2   6 125.667 3.02614   2
   0   2   6 128.456 3.05221   1
  -1  -2  -6 129.107 3.60823   1
  -1  -2  -6 116.457 3.31316   2
   1   2   6 161.834 3.44919   1
   1   2   6 150.802 3.61045   2
  -2  -2  -6 918.369 19.0550   1
  -2  -2  -6 848.703 17.9577   2
  -2  -2  -6 1777.64 71.1670  -2
  -2  -2  -6 1777.64 71.1670   1
   2   2   6 848.665 18.5250   1
   2   2   6 805.942 17.4351   2
   2   2   6 1647.71 59.4803  -2
   2   2   6 1647.71 59.4803   1
  -3  -2  -6 1301.01 36.0555   1
  -3  -2  -6 1247.20 34.4573   2
  -3  -2  -6 2610.85 68.4565  -2
  -3  -2  -6 2610.85 68.4565   1
   3   2   6 2537.62 70.1573  -2
   3   2   6 2537.62 70.1573   1
   3   2   6 1194.11 33.2230   2
   3   2   6 1269.99 40.0755   1
  -4  -2  -6 715.644 22.3401   1
  -4  -2  -6 1419.11 44.8672  -2
  -4  -2  -6 1419.11 44.8672   1
  -4  -2  -6 689.863 21.7679   2
   4   2   6 755.728 21.8482   1
   4   2   6 1448.31 51.8765  -2
   4   2   6 1448.31 51.8765   1
   4   2   6 718.041 20.4851   2
  -5  -2  -6 110.258 7.74043   2
  -5  -2  -6 257.180 20.9573  -2
  -5  -2  -6 257.180 20.9573   1
  -5  -2  -6 113.510 7.62755   1
   5   2   6 356.422 14.0035  -2
   5   2   6 356.422 14.0035   1
   5   2   6 169.703 8.74005   1
   5   2   6 169.496 8.27357   2
  -6  -2  -6 95.4733 6.62782   1
  -6  -2  -6 87.5658 6.73157   2
  -6  -2  -6 166.038 31.2497  -2
  -6  -2  -6 166.038 31.2497   1
   6   2   6 98.7305 6.88019   1
   6   2   6 98.9502 6.12653   2
   6   2   6 228.631 21.6643  -2
   6   2   6 228.631 21.6643   1
  -7  -2  -6 47.9375 7.53018   1
  -7  -2  -6 42.3051 6.16573   2
   7   2   6 72.7989 5.57068   2
   7   2   6 87.1049 5.93976   1
  -8  -2  -6 34.9752 7.97243   2
  -8  -2  -6 40.6761 8.47856   1
   8   2   6 63.0940 6.81994   1
   8   2   6 56.6342 6.52854   2
   8  -3  -6 2.90970 5.95134   2
   8  -3  -6 3.83631 5.49743   1
  -8   3   6 -0.7061 5.74101   2
  -8   3   6 7.46189 5.55495   1
   7  -3  -6 49.3405 5.31843   1
   7  -3  -6 48.7338 4.93119   2
  -7   3   6 27.4136 5.36928   2
  -7   3   6 29.9726 6.67281   1
   6  -3  -6 331.459 9.61470   2
   6  -3  -6 340.651 10.5252   1
  -6   3   6 380.060 11.7659   1
  -6   3   6 347.910 11.1950   2
   5  -3  -6 423.093 10.2004   1
   5  -3  -6 419.569 9.34099   2
  -5   3   6 424.045 10.4293   2
  -5   3   6 451.814 12.4310   1
   4  -3  -6 480.025 9.93374   1
   4  -3  -6 465.750 9.70970   2
  -4   3   6 501.668 10.8005   1
  -4   3   6 460.740 10.1220   2
   3  -3  -6 156.239 3.86722   1
   3  -3  -6 143.350 3.41479   2
  -3   3   6 193.094 4.92623   1
  -3   3   6 178.016 4.88440   2
   2  -3  -6 96.0206 2.76241   1
   2  -3  -6 93.1782 2.59773   2
  -2   3   6 103.023 3.33423   2
  -2   3   6 109.733 3.48576   1
   1  -3  -6 302.381 5.55196   2
   1  -3  -6 315.856 5.68383   1
  -1   3   6 289.977 6.94054   1
  -1   3   6 280.893 6.24919   2
   0  -3  -6 910.956 14.1836   1
   0  -3  -6 834.553 13.6693   2
   0   3   6 865.468 18.4155   1
   0   3   6 843.958 17.8118   2
  -1  -3  -6 570.847 11.5549   1
  -1  -3  -6 537.833 11.0733   2
   1   3   6 656.880 14.8791   1
   1   3   6 633.698 12.8437   2
  -2  -3  -6 662.956 12.7161   1
  -2  -3  -6 627.874 12.3904   2
   2   3   6 635.629 12.9273   1
   2   3   6 614.307 13.1349   2
  -3  -3  -6 52.3528 3.32182   1
  -3  -3  -6 49.2427 3.01517   2
   3   3   6 52.6330 2.59608   1
   3   3   6 51.9815 2.53083   2
   3   3   6 124.472 14.5711  -2
   3   3   6 124.472 14.5711   1
  -4  -3  -6 443.772 10.9721   2
  -4  -3  -6 479.599 11.4972   1
   4   3   6 462.093 14.0193   2
   4   3   6 491.379 14.8850   1
   4   3   6 1020.21 63.8088  -2
   4   3   6 1020.21 63.8088   1
  -5  -3  -6 584.257 14.3646   1
  -5  -3  -6 548.455 13.7940   2
   5   3   6 542.277 16.0149   1
   5   3   6 514.802 16.3285   2
   5   3   6 1023.40 49.0470  -2
   5   3   6 1023.40 49.0470   1
  -6  -3  -6 36.1882 5.31735   1
  -6  -3  -6 48.3239 9.57536   2
   6   3   6 104.427 6.33826   2
   6   3   6 228.928 19.1367  -2
   6   3   6 228.928 19.1367   1
  -7  -3  -6 37.3342 6.39011   1
  -7  -3  -6 45.7336 6.40079   2
   7   3   6 46.7442 6.06717   1
   7   3   6 40.0457 5.88529   2
  -8  -3  -6 124.343 10.8831   1
  -8  -3  -6 112.773 10.1955   2
   8   3   6 133.020 13.6601   1
   8   3   6 94.0690 11.3267   2
   8  -4  -6 201.156 10.1166   1
   8  -4  -6 189.125 9.86343   2
  -8   4   6 177.369 13.6178   1
  -8   4   6 176.309 11.8606   2
   7  -4  -6 225.017 8.88761   1
   7  -4  -6 228.381 8.44422   2
  -7   4   6 247.607 9.82891   1
  -7   4   6 232.668 11.4774   2
   6  -4  -6 96.6554 5.22451   2
   6  -4  -6 85.7540 5.37931   1
  -6   4   6 91.4374 5.51156   1
  -6   4   6 80.1360 6.05711   2
   5  -4  -6 39.1351 3.41333   2
   5  -4  -6 33.4752 3.73147   1
  -5   4   6 28.5208 3.64274   1
  -5   4   6 35.1593 3.81254   2
   4  -4  -6 115.947 4.28991   1
   4  -4  -6 112.225 4.03757   2
  -4   4   6 99.7842 4.01392   2
  -4   4   6 114.807 4.69339   1
   3  -4  -6 373.125 6.74919   2
   3  -4  -6 398.310 7.26870   1
  -3   4   6 282.116 8.61199   2
  -3   4   6 301.869 8.62280   1
   2  -4  -6 721.795 12.5106   2
   2  -4  -6 759.098 13.8521   1
  -2   4   6 879.123 21.3248   2
  -2   4   6 920.487 19.4970   1
   1  -4  -6 474.449 8.07613   2
   1  -4  -6 501.057 8.84255   1
  -1   4   6 514.298 11.5328   1
  -1   4   6 478.086 10.9732   2
   0  -4  -6 65.5627 2.33182   2
   0  -4  -6 76.9878 2.66865   1
   0   4   6 42.7734 3.17575   2
   0   4   6 46.3574 4.24341   1
  -1  -4  -6 13.9049 2.00366   1
  -1  -4  -6 13.7811 1.82399   2
   1   4   6 13.8972 2.41986   1
   1   4   6 7.96548 2.45221   2
  -2  -4  -6 315.952 7.35146   2
  -2  -4  -6 325.356 7.62244   1
   2   4   6 325.122 8.18802   1
   2   4   6 308.798 8.51045   2
  -3  -4  -6 595.122 12.8586   1
  -3  -4  -6 570.336 12.4044   2
   3   4   6 605.862 12.7471   2
   3   4   6 632.744 15.4187   1
  -4  -4  -6 269.441 7.87766   1
  -4  -4  -6 258.962 8.21296   2
   4   4   6 211.980 7.43660   1
   4   4   6 190.755 6.79084   2
  -5  -4  -6 40.7413 5.01739   1
  -5  -4  -6 51.2072 5.41054   2
   5   4   6 32.6750 4.06943   1
   5   4   6 25.3780 4.38085   2
  -6  -4  -6 20.6879 5.42799   1
  -6  -4  -6 27.9708 5.60349   2
   6   4   6 30.8503 5.76886   1
   6   4   6 27.7819 5.81412   2
  -7  -4  -6 33.5303 7.14787   2
  -7  -4  -6 33.6075 7.34497   1
   7   4   6 40.6117 8.69779   2
   7   4   6 26.3374 9.85025   1
   7  -5  -6 87.6686 6.20476   2
   7  -5  -6 87.1804 7.60415   1
  -7   5   6 103.285 8.36681   1
  -7   5   6 100.374 8.55407   2
   6  -5  -6 276.105 8.81026   1
   6  -5  -6 268.788 8.49202   2
  -6   5   6 256.478 8.94926   2
  -6   5   6 253.841 8.77866   1
   5  -5  -6 214.922 7.12508   1
   5  -5  -6 204.572 6.25785   2
  -5   5   6 185.652 7.33906   2
  -5   5   6 212.133 8.36745   1
   4  -5  -6 486.058 11.4598   1
   4  -5  -6 487.609 10.7984   2
  -4   5   6 502.278 15.1933   1
  -4   5   6 484.558 15.3072   2
   3  -5  -6 4.32365 1.83375   2
   3  -5  -6 1.82399 1.72319   1
  -3   5   6 1.90756 5.45161   1
  -3   5   6 6.63634 5.73028   2
   2  -5  -6 69.2605 2.29341   1
   2  -5  -6 72.0733 3.05396   2
  -2   5   6 63.9790 6.77413   2
  -2   5   6 64.7749 6.38834   1
   1  -5  -6 162.334 4.27658   1
   1  -5  -6 153.871 3.63061   2
  -1   5   6 220.875 10.8337   2
  -1   5   6 222.943 12.1676   1
   0  -5  -6 171.634 3.72733   2
   0  -5  -6 187.920 4.69469   1
   0   5   6 155.441 5.86665   2
   0   5   6 166.356 6.15584   1
  -1  -5  -6 632.024 11.9625   2
  -1  -5  -6 697.734 13.5032   1
   1   5   6 651.488 17.9583   1
   1   5   6 599.455 16.7721   2
  -2  -5  -6 200.135 6.06065   1
  -2  -5  -6 196.540 6.16751   2
   2   5   6 200.387 6.74388   1
   2   5   6 190.422 7.62425   2
  -3  -5  -6 1.02020 2.81887   2
  -3  -5  -6 4.64562 3.04450   1
   3   5   6 2.03792 3.15664   1
   3   5   6 -1.0287 4.30380   2
  -4  -5  -6 46.2058 4.31710   2
  -4  -5  -6 59.6187 4.61623   1
   4   5   6 65.4825 5.36474   1
   4   5   6 64.4677 5.29074   2
  -5  -5  -6 217.519 9.19650   1
  -5  -5  -6 209.293 9.59801   2
   5   5   6 179.381 9.89547   1
   5   5   6 147.463 10.1296   2
  -6  -5  -6 122.724 9.61244   1
  -6  -5  -6 112.363 10.4685   2
   6   5   6 100.322 10.5633   2
   6   5   6 89.6901 7.44096   1
   6  -6  -6 10.4256 6.55276   2
   6  -6  -6 5.13552 6.68496   1
  -6   6   6 12.5171 9.55516   2
  -6   6   6 15.6547 13.0092   1
   5  -6  -6 4.23911 4.72454   2
   5  -6  -6 22.5576 6.75878   1
  -5   6   6 23.8467 9.16245   1
  -5   6   6 5.85727 8.91929   2
   4  -6  -6 134.978 6.63336   1
   4  -6  -6 134.556 6.00686   2
  -4   6   6 141.135 10.6753   2
  -4   6   6 156.379 12.0541   1
   3  -6  -6 292.826 9.47009   1
   3  -6  -6 286.302 9.01151   2
  -3   6   6 326.889 17.7687   2
  -3   6   6 308.888 19.0922   1
   2  -6  -6 309.294 7.20487   2
   2  -6  -6 301.098 7.98182   1
  -2   6   6 309.533 14.6129   1
  -2   6   6 282.902 13.1577   2
   1  -6  -6 93.2615 3.70633   2
   1  -6  -6 99.1544 4.23874   1
  -1   6   6 68.4317 8.06517   2
  -1   6   6 75.7593 9.19559   1
   0  -6  -6 31.2484 1.56422   2
   0  -6  -6 32.4076 2.06356   1
   0   6   6 22.7765 5.06808   2
   0   6   6 36.9301 4.55308   1
  -1  -6  -6 5.21648 2.39976   2
  -1  -6  -6 5.15427 2.28166   1
   1   6   6 5.42771 2.86837   1
   1   6   6 10.6317 3.64279   2
  -2  -6  -6 227.876 6.34675   1
  -2  -6  -6 214.457 6.15518   2
   2   6   6 204.086 7.29091   2
   2   6   6 218.376 7.85266   1
  -3  -6  -6 208.587 6.70651   1
  -3  -6  -6 191.369 6.33127   2
   3   6   6 159.871 8.67374   2
   3   6   6 171.240 8.51289   1
  -4  -6  -6 219.319 7.58565   1
  -4  -6  -6 198.977 7.10894   2
   4   6   6 199.106 9.05172   2
   4   6   6 222.767 10.6992   1
  -5  -6  -6 91.4616 6.88707   1
  -5  -6  -6 92.2800 7.52440   2
   5   6   6 114.589 11.1181   1
   5   6   6 103.378 9.48194   2
  -4   7   6 248.862 39.2444   1
  -4   7   6 211.541 33.6946   2
   3  -7  -6 64.3737 4.84984   2
   3  -7  -6 49.1080 9.14048   1
  -3   7   6 36.4615 17.0882   1
  -3   7   6 28.7312 13.1481   2
   2  -7  -6 4.90134 2.95695   2
   2  -7  -6 4.82321 3.75976   1
  -2   7   6 8.36216 8.99212   2
  -2   7   6 21.8053 15.4987   1
   1  -7  -6 79.6672 5.45789   2
   1  -7  -6 82.6837 4.77796   1
  -1   7   6 72.9911 10.2481   2
  -1   7   6 53.6926 12.5353   1
   0  -7  -6 158.365 6.45199   2
   0  -7  -6 171.652 6.40831   1
   0   7   6 223.039 14.8254   1
   0   7   6 213.481 13.4155   2
  -1  -7  -6 149.546 6.09865   1
  -1  -7  -6 142.636 4.87682   2
   1   7   6 148.375 13.4621   1
   1   7   6 133.866 8.35308   2
  -2  -7  -6 160.107 6.22096   2
  -2  -7  -6 173.582 8.43027   1
   2   7   6 146.016 13.1296   1
   2   7   6 127.512 15.0032   2
  -3  -7  -6 95.9388 7.18933   2
  -3  -7  -6 83.8832 7.16966   1
   3   7   6 101.736 10.7496   2
   3   7   6 93.3488 11.3765   1
  -9   0   7 194.904 10.5274   1
  -9   0   7 178.696 11.1962   2
  -8   0   7 226.642 10.2111   1
  -8   0   7 214.283 9.89390   2
  -7   0   7 391.507 12.9928   1
  -7   0   7 349.444 12.1605   2
  -6   0   7 556.260 12.9214   2
  -6   0   7 595.482 14.5024   1
  -5   0   7 0.88161 2.04787   2
  -5   0   7 5.12694 2.36956   1
  -4   0   7 60.4740 2.71793   2
  -4   0   7 63.1330 2.67809   1
  -3   0   7 421.716 8.31476   1
  -3   0   7 392.327 8.53887   2
  -2   0   7 1225.47 24.0640   1
  -2   0   7 1157.04 20.6174   2
  -1   0   7 2808.25 47.9904   2
  -1   0   7 3050.00 54.4580   1
   0   0   7 592.954 11.2145   2
   0   0   7 640.318 12.1249   1
   1   0   7 208.649 6.53948   1
   1   0   7 208.894 6.48174   2
   1   0   7 396.201 16.1951  -2
   1   0   7 396.201 16.1951   1
   2   0   7 814.743 35.8859   2
   2   0   7 1772.49 34.1915  -2
   2   0   7 1772.49 34.1915   1
   2   0   7 981.691 42.8482   1
   3   0   7 1844.01 39.3303  -2
   3   0   7 1844.01 39.3303   1
   4   0   7 478.167 14.8173  -2
   4   0   7 478.167 14.8173   1
   4   0   7 369.357 29.6017   1
   5   0   7 240.664 17.9788   2
   5   0   7 508.974 20.0276  -2
   5   0   7 508.974 20.0276   1
   5   0   7 297.484 13.8792   1
   6   0   7 47.3155 6.05082   2
   6   0   7 49.6292 7.15240   1
   6   0   7 94.0955 16.0009  -2
   6   0   7 94.0955 16.0009   1
   7   0   7 30.2914 6.29945   1
   7   0   7 29.6627 6.36124   2
   8   0   7 13.9341 8.00637   1
   8   0   7 26.0191 6.87308   2
   9  -1  -7 187.898 10.6830   2
   9  -1  -7 194.715 12.4909   1
  -9   1   7 137.413 10.1914   1
  -9   1   7 129.063 9.33892   2
   8  -1  -7 107.281 8.45120   1
   8  -1  -7 104.342 7.46819   2
  -8   1   7 103.337 8.68820   1
  -8   1   7 89.9922 6.05332   2
   7  -1  -7 5.76421 5.05520   2
   7  -1  -7 2.05939 4.03475   1
  -7   1   7 6.01227 3.95480   2
  -7   1   7 11.2685 4.07372   1
   6  -1  -7 522.920 13.9436   1
   6  -1  -7 523.266 12.5529   2
  -6   1   7 507.927 11.8982   2
  -6   1   7 541.464 13.4028   1
   5  -1  -7 613.682 12.7413   1
   5  -1  -7 563.934 11.1146   2
  -5   1   7 646.832 12.1818   2
  -5   1   7 697.713 12.7756   1
   4  -1  -7 570.330 10.1483   2
   4  -1  -7 606.765 10.5571   1
  -4   1   7 473.141 9.76910   2
  -4   1   7 500.250 10.2027   1
   3  -1  -7 629.652 11.3412   2
   3  -1  -7 662.476 12.7099   1
  -3   1   7 729.864 12.9210   1
  -3   1   7 682.189 13.1212   2
   2  -1  -7 161.996 3.54280   2
   2  -1  -7 166.332 4.05936   1
  -2   1   7 161.002 4.09774   1
  -2   1   7 147.732 3.96345   2
   1  -1  -7 150.059 4.04121   2
   1  -1  -7 154.449 4.26135   1
  -1   1   7 193.230 4.08037   2
  -1   1   7 212.030 4.38111   1
   0  -1  -7 2668.91 42.4726   1
   0  -1  -7 2579.76 40.4282   2
   0   1   7 2451.37 42.1280   1
   0   1   7 2295.75 40.1428   2
  -1  -1  -7 3360.85 84.8700   1
  -1  -1  -7 2988.50 72.1468   2
  -1  -1  -7 6365.52 199.345  -2
  -1  -1  -7 6365.52 199.345   1
   1   1   7 3452.03 67.3095   2
   1   1   7 6915.64 195.738  -2
   1   1   7 6915.64 195.738   1
   1   1   7 3631.40 73.1131   1
  -2  -1  -7 512.117 15.8671  -2
  -2  -1  -7 512.117 15.8671   1
  -2  -1  -7 270.866 9.48943   1
  -2  -1  -7 245.287 9.08606   2
  -3  -1  -7 233.169 8.62582   2
  -3  -1  -7 504.738 16.3300  -2
  -3  -1  -7 504.738 16.3300   1
   3   1   7 171.364 6.86419   2
   3   1   7 168.368 6.82439   1
  -4  -1  -7 136.200 7.51994   2
  -4  -1  -7 149.249 7.69685   1
  -4  -1  -7 298.366 11.8986  -2
  -4  -1  -7 298.366 11.8986   1
   4   1   7 168.635 7.93840   1
   4   1   7 326.579 11.6986  -2
   4   1   7 326.579 11.6986   1
   4   1   7 156.388 7.24878   2
  -5  -1  -7 212.955 10.6539   1
  -5  -1  -7 185.997 10.3205   2
  -5  -1  -7 439.326 17.2275  -2
  -5  -1  -7 439.326 17.2275   1
   5   1   7 141.841 7.17926   2
   5   1   7 312.179 17.1458  -2
   5   1   7 312.179 17.1458   1
   5   1   7 148.817 7.93720   1
  -6  -1  -7 501.003 21.3300  -2
  -6  -1  -7 501.003 21.3300   1
  -6  -1  -7 267.538 16.0828   1
  -6  -1  -7 226.301 15.9697   2
   6   1   7 252.137 12.2303   2
   6   1   7 460.993 22.1073  -2
   6   1   7 460.993 22.1073   1
   6   1   7 247.319 14.8235   1
  -7  -1  -7 347.009 14.2522   1
  -7  -1  -7 349.463 14.7780   2
  -7  -1  -7 652.585 48.2677  -2
  -7  -1  -7 652.585 48.2677   1
   7   1   7 349.532 13.6066   2
   7   1   7 355.508 13.3644   1
  -8  -1  -7 183.100 11.7547   1
  -8  -1  -7 164.727 11.9059   2
   8   1   7 140.297 9.38130   1
   8   1   7 126.329 8.73767   2
   9  -2  -7 11.6388 9.09790   1
   9  -2  -7 0.60357 8.53827   2
  -9   2   7 29.6944 7.73470   2
  -9   2   7 16.6703 6.96124   1
   8  -2  -7 228.649 10.6095   2
   8  -2  -7 246.229 10.7600   1
  -8   2   7 265.876 9.30643   1
  -8   2   7 247.397 11.6368   2
   7  -2  -7 438.198 12.4979   2
   7  -2  -7 466.218 13.4043   1
  -7   2   7 438.436 11.0994   2
  -7   2   7 468.186 12.9118   1
   6  -2  -7 467.662 12.2373   1
   6  -2  -7 454.273 11.2139   2
  -6   2   7 484.433 12.0053   1
  -6   2   7 433.336 10.3328   2
   5  -2  -7 59.3451 3.06951   2
   5  -2  -7 67.2968 3.56350   1
  -5   2   7 45.2377 2.52474   2
  -5   2   7 54.6900 3.07968   1
   4  -2  -7 189.105 5.29045   1
   4  -2  -7 178.372 4.38375   2
  -4   2   7 210.326 5.14553   1
  -4   2   7 191.270 5.87572   2
   3  -2  -7 214.693 4.85649   1
   3  -2  -7 203.495 4.58183   2
  -3   2   7 156.819 4.51996   1
  -3   2   7 158.757 5.43234   2
   2  -2  -7 947.019 16.8389   2
   2  -2  -7 995.259 17.2330   1
  -2   2   7 1011.95 19.5904   2
  -2   2   7 1074.85 18.5833   1
   1  -2  -7 1132.11 18.4186   2
   1  -2  -7 1201.95 19.7210   1
  -1   2   7 1172.91 21.0185   1
  -1   2   7 1082.74 19.6163   2
   0  -2  -7 261.279 5.84930   2
   0  -2  -7 270.305 6.21276   1
   0   2   7 317.917 6.22207   2
   0   2   7 338.917 6.83997   1
  -1  -2  -7 52.2328 2.43143   1
  -1  -2  -7 47.4358 2.24952   2
   1   2   7 51.1456 2.18240   1
   1   2   7 46.1490 2.01908   2
  -2  -2  -7 460.293 12.9854   2
  -2  -2  -7 505.594 13.6974   1
  -2  -2  -7 929.878 35.4304  -2
  -2  -2  -7 929.878 35.4304   1
   2   2   7 538.938 12.1143   1
   2   2   7 1038.41 59.3125  -2
   2   2   7 1038.41 59.3125   1
   2   2   7 507.945 11.3022   2
  -3  -2  -7 313.158 12.0943   1
  -3  -2  -7 302.809 14.0184   2
  -3  -2  -7 612.360 20.7428  -2
  -3  -2  -7 612.360 20.7428   1
   3   2   7 414.633 12.5143   1
   3   2   7 399.719 11.0548   2
   3   2   7 796.140 27.5517  -2
   3   2   7 796.140 27.5517   1
  -4  -2  -7 532.965 16.3505   1
  -4  -2  -7 509.081 18.1896   2
  -4  -2  -7 1055.61 44.5553  -2
  -4  -2  -7 1055.61 44.5553   1
   4   2   7 437.621 14.4038   1
   4   2   7 417.313 14.6978   2
   4   2   7 849.066 30.1327  -2
   4   2   7 849.066 30.1327   1
  -5  -2  -7 606.511 27.2544  -2
  -5  -2  -7 606.511 27.2544   1
  -5  -2  -7 295.159 13.8298   1
  -5  -2  -7 297.440 14.0071   2
   5   2   7 289.707 11.3139   1
   5   2   7 279.339 10.6731   2
   5   2   7 550.662 29.9740  -2
   5   2   7 550.662 29.9740   1
  -6  -2  -7 161.142 11.4814   2
  -6  -2  -7 175.905 11.4802   1
  -6  -2  -7 380.445 21.5958  -2
  -6  -2  -7 380.445 21.5958   1
   6   2   7 179.639 8.88815   2
   6   2   7 176.939 9.27011   1
   6   2   7 379.141 34.1792  -2
   6   2   7 379.141 34.1792   1
  -7  -2  -7 33.6245 6.46408   2
  -7  -2  -7 24.4788 6.16766   1
   7   2   7 52.2872 7.40818   1
   7   2   7 33.2867 6.35781   2
   7   2   7 92.2789 15.2752  -2
   7   2   7 92.2789 15.2752   1
  -8  -2  -7 165.803 11.8150   1
  -8  -2  -7 132.168 14.4591   2
   8   2   7 139.279 10.5194   2
   8   2   7 320.207 37.8731  -2
   8   2   7 320.207 37.8731   1
   8   2   7 136.965 12.2725   1
   8  -3  -7 127.736 8.12311   1
   8  -3  -7 116.446 8.82510   2
  -8   3   7 130.043 8.64339   2
  -8   3   7 134.326 8.59723   1
   7  -3  -7 50.7520 5.21373   2
   7  -3  -7 51.2659 5.43100   1
  -7   3   7 63.7381 5.75448   2
  -7   3   7 70.5466 9.51980   1
   6  -3  -7 441.689 11.7097   1
   6  -3  -7 442.598 11.1334   2
  -6   3   7 431.334 13.3040   2
  -6   3   7 441.516 13.5450   1
   5  -3  -7 482.647 11.0211   2
   5  -3  -7 494.172 11.9969   1
  -5   3   7 487.112 12.1821   2
  -5   3   7 529.789 13.4684   1
   4  -3  -7 416.687 9.01589   1
   4  -3  -7 409.153 8.75154   2
  -4   3   7 421.751 9.58126   1
  -4   3   7 399.070 9.28519   2
   3  -3  -7 420.459 8.45442   2
   3  -3  -7 455.755 8.94415   1
  -3   3   7 450.607 11.1223   2
  -3   3   7 491.223 11.5090   1
   2  -3  -7 244.357 5.73528   1
   2  -3  -7 237.843 4.83662   2
  -2   3   7 226.187 6.70331   1
  -2   3   7 211.357 5.65581   2
   1  -3  -7 173.028 3.82569   2
   1  -3  -7 177.476 4.03719   1
  -1   3   7 172.007 4.93769   1
  -1   3   7 160.328 4.49766   2
   0  -3  -7 637.478 10.8644   2
   0  -3  -7 672.112 11.8384   1
   0   3   7 630.726 12.9297   2
   0   3   7 667.903 14.6953   1
  -1  -3  -7 505.718 9.75767   2
  -1  -3  -7 527.974 10.1213   1
   1   3   7 477.935 12.0743   2
   1   3   7 503.355 12.4111   1
  -2  -3  -7 550.356 10.3661   2
  -2  -3  -7 589.285 11.5317   1
   2   3   7 550.258 12.5553   1
   2   3   7 505.729 11.2437   2
  -3  -3  -7 180.106 5.75481   1
  -3  -3  -7 170.252 5.77957   2
  -3  -3  -7 366.549 30.6544  -2
  -3  -3  -7 366.549 30.6544   1
   3   3   7 182.619 5.22451   2
   3   3   7 214.389 6.62785   1
   3   3   7 423.732 29.3613  -2
   3   3   7 423.732 29.3613   1
  -4  -3  -7 12.3537 3.58242   2
  -4  -3  -7 20.6370 3.69856   1
  -4  -3  -7 64.6770 16.9554  -2
  -4  -3  -7 64.6770 16.9554   1
   4   3   7 23.8760 3.50770   1
   4   3   7 50.7644 9.07945  -2
   4   3   7 50.7644 9.07945   1
   4   3   7 25.3063 3.17886   2
  -5  -3  -7 53.4195 5.85002   2
  -5  -3  -7 67.7923 5.54025   1
   5   3   7 88.9968 7.16127   1
   5   3   7 92.5606 6.37719   2
   5   3   7 175.728 15.9884  -2
   5   3   7 175.728 15.9884   1
  -6  -3  -7 495.652 51.8070  -2
  -6  -3  -7 495.652 51.8070   1
  -6  -3  -7 264.504 11.5976   1
  -6  -3  -7 234.028 11.0569   2
   6   3   7 296.538 12.9764   1
   6   3   7 554.094 46.1869  -2
   6   3   7 554.094 46.1869   1
   6   3   7 279.415 11.8406   2
  -7  -3  -7 540.037 18.2148   1
  -7  -3  -7 487.984 15.8753   2
  -7  -3  -7 806.591 74.2787  -2
  -7  -3  -7 806.591 74.2787   1
   7   3   7 382.424 17.0602   2
   7   3   7 441.034 24.1485   1
   7   3   7 805.575 58.7734  -2
   7   3   7 805.575 58.7734   1
   8  -4  -7 112.397 7.60077   2
   8  -4  -7 98.6148 9.25163   1
  -8   4   7 122.070 12.2968   2
  -8   4   7 146.817 12.1203   1
   7  -4  -7 373.145 12.0618   1
   7  -4  -7 372.957 11.4326   2
  -7   4   7 411.840 13.3952   1
  -7   4   7 402.678 14.2685   2
   6  -4  -7 280.550 8.60126   2
   6  -4  -7 288.165 8.93646   1
  -6   4   7 306.940 9.73077   1
  -6   4   7 289.010 10.5634   2
   5  -4  -7 6.87587 3.40491   1
   5  -4  -7 10.2941 2.99283   2
  -5   4   7 3.69299 3.25362   2
  -5   4   7 6.10678 3.30569   1
   4  -4  -7 19.9089 2.91470   1
   4  -4  -7 17.5300 2.47733   2
  -4   4   7 24.1073 3.22479   2
  -4   4   7 21.8729 3.32285   1
   3  -4  -7 98.8608 3.02480   2
   3  -4  -7 97.1512 5.56527   1
  -3   4   7 60.8995 3.41574   1
  -3   4   7 62.2401 4.83606   2
   2  -4  -7 576.551 11.5522   1
   2  -4  -7 566.247 10.3229   2
  -2   4   7 710.524 14.8937   1
  -2   4   7 672.406 13.0933   2
   1  -4  -7 1342.50 20.3477   2
   1  -4  -7 1421.08 23.6957   1
  -1   4   7 1278.63 28.2641   2
  -1   4   7 1316.06 29.1526   1
   0  -4  -7 87.0179 2.93057   2
   0  -4  -7 96.4655 3.30009   1
   0   4   7 80.4078 3.85309   1
   0   4   7 81.6909 4.03914   2
  -1  -4  -7 3.66689 2.01726   1
  -1  -4  -7 2.33984 1.87430   2
   1   4   7 0.50436 2.51679   2
   1   4   7 3.27605 2.39854   1
  -2  -4  -7 148.221 4.68185   1
  -2  -4  -7 138.927 4.45408   2
   2   4   7 100.611 4.94617   1
   2   4   7 98.3440 5.47859   2
  -3  -4  -7 339.972 8.64320   2
  -3  -4  -7 351.513 8.94953   1
   3   4   7 317.744 8.40907   1
   3   4   7 304.770 7.86458   2
  -4  -4  -7 162.755 6.61514   2
  -4  -4  -7 175.507 7.06065   1
   4   4   7 218.727 7.32029   2
   4   4   7 237.969 7.47501   1
  -5  -4  -7 335.112 10.9747   2
  -5  -4  -7 377.937 11.8447   1
   5   4   7 407.717 10.3173   1
   5   4   7 393.224 11.1053   2
  -6  -4  -7 129.911 7.60805   1
  -6  -4  -7 115.073 7.66986   2
   6   4   7 90.3958 7.23591   2
   6   4   7 97.2066 6.56330   1
  -7  -4  -7 -1.3887 7.86177   1
  -7  -4  -7 0.93388 8.37979   2
   7   4   7 9.54922 7.27576   1
   7   4   7 15.0227 10.1962   2
   7  -5  -7 7.29046 5.47745   1
   7  -5  -7 5.40342 4.73553   2
  -7   5   7 0.32439 5.90713   2
  -7   5   7 9.72644 6.46063   1
   6  -5  -7 43.1886 4.06023   2
   6  -5  -7 47.2443 5.02032   1
  -6   5   7 49.3207 4.80591   2
  -6   5   7 52.2238 5.11428   1
   5  -5  -7 262.556 7.89225   1
   5  -5  -7 262.964 7.25615   2
  -5   5   7 303.701 10.7010   1
  -5   5   7 271.529 8.93915   2
   4  -5  -7 437.818 9.40761   2
   4  -5  -7 443.748 10.2204   1
  -4   5   7 423.435 13.0755   2
  -4   5   7 430.132 14.3209   1
   3  -5  -7 61.1781 3.08543   1
   3  -5  -7 61.8987 2.55187   2
  -3   5   7 61.3218 8.81988   2
  -3   5   7 80.6012 4.73259   1
   2  -5  -7 69.9950 2.25133   2
   2  -5  -7 76.0912 2.85633   1
  -2   5   7 62.1559 7.00838   2
  -2   5   7 73.5399 4.04667   1
   1  -5  -7 0.69559 1.90768   1
   1  -5  -7 0.14202 1.61052   2
  -1   5   7 4.58059 2.52854   2
  -1   5   7 -4.2663 3.24760   1
   0  -5  -7 589.069 11.0231   1
   0  -5  -7 517.030 10.5767   2
   0   5   7 506.675 15.4858   1
   0   5   7 497.835 14.5436   2
  -1  -5  -7 663.312 15.2038   1
  -1  -5  -7 645.430 14.5074   2
   1   5   7 669.415 17.8950   2
   1   5   7 691.432 18.3898   1
  -2  -5  -7 98.7702 4.69834   1
  -2  -5  -7 91.4941 4.44682   2
   2   5   7 113.348 5.58703   2
   2   5   7 112.369 6.37263   1
  -3  -5  -7 104.921 5.14251   2
  -3  -5  -7 108.644 5.09496   1
   3   5   7 140.212 5.87190   1
   3   5   7 127.976 6.09248   2
  -4  -5  -7 5.11013 3.98752   1
  -4  -5  -7 1.58708 3.71799   2
   4   5   7 6.43570 6.17863   2
   4   5   7 5.61362 4.77982   1
  -5  -5  -7 203.382 8.69726   1
  -5  -5  -7 203.099 8.39729   2
   5   5   7 208.107 11.3960   2
   5   5   7 227.332 10.4606   1
  -6  -5  -7 26.0702 6.75337   2
  -6  -5  -7 20.5662 6.70031   1
   6   5   7 44.7768 8.38841   2
   6   5   7 34.7117 10.1247   1
   5  -6  -7 47.8832 5.66039   2
   5  -6  -7 45.5203 5.06130   1
  -5   6   7 55.8773 15.2537   1
  -5   6   7 55.0068 9.09409   2
   4  -6  -7 106.352 6.44355   1
   4  -6  -7 127.221 6.11008   2
  -4   6   7 147.441 15.1692   1
  -4   6   7 111.654 16.2598   2
   3  -6  -7 50.4004 4.25349   1
   3  -6  -7 57.9086 3.73283   2
  -3   6   7 64.9581 9.74309   2
  -3   6   7 92.3092 12.1844   1
   2  -6  -7 138.085 6.96574   1
   2  -6  -7 125.954 4.63798   2
  -2   6   7 88.2814 14.9720   2
  -2   6   7 93.9222 16.9046   1
   1  -6  -7 587.549 12.0563   1
   1  -6  -7 537.259 12.7784   2
  -1   6   7 555.028 20.0060   1
  -1   6   7 520.993 17.9098   2
   0  -6  -7 298.985 6.77897   1
   0  -6  -7 271.807 6.58053   2
   0   6   7 316.388 12.3761   1
   0   6   7 299.986 9.59626   2
  -1  -6  -7 69.2120 3.70020   2
  -1  -6  -7 73.5270 3.66408   1
   1   6   7 83.8737 4.51651   1
   1   6   7 74.3828 5.42440   2
  -2  -6  -7 186.127 6.05988   1
  -2  -6  -7 178.792 6.21126   2
   2   6   7 187.742 8.60519   1
   2   6   7 174.209 7.68760   2
  -3  -6  -7 153.988 6.44354   1
  -3  -6  -7 153.903 6.21567   2
   3   6   7 202.886 7.91694   1
   3   6   7 198.899 8.20861   2
  -4  -6  -7 114.523 6.77062   2
  -4  -6  -7 118.464 7.50045   1
   4   6   7 111.400 10.1124   2
   4   6   7 96.4312 7.78660   1
   3  -7  -7 72.6515 6.71384   1
   3  -7  -7 68.8805 7.34474   2
  -3   7   7 77.7342 15.6803   2
  -3   7   7 96.9160 20.7259   1
   2  -7  -7 4.82982 4.41228   1
   2  -7  -7 8.76321 4.76734   2
  -2   7   7 14.5265 11.9147   2
  -2   7   7 -17.737 22.6887   1
   1  -7  -7 15.7923 3.03115   1
   1  -7  -7 13.2153 2.57327   2
  -1   7   7 6.93039 10.6620   1
  -1   7   7 -2.3846 9.54826   2
   0  -7  -7 229.801 7.95921   1
   0  -7  -7 222.561 8.84184   2
   0   7   7 226.365 11.6516   2
   0   7   7 254.122 11.4674   1
  -1  -7  -7 234.619 7.21376   1
  -1  -7  -7 210.566 6.22886   2
   1   7   7 241.723 15.1462   2
   1   7   7 277.354 17.3125   1
  -2  -7  -7 88.0237 5.16068   2
  -2  -7  -7 93.7238 6.68452   1
   2   7   7 129.052 12.8677   1
   2   7   7 127.541 11.5530   2
  -9   0   8 53.8203 8.21734   1
  -9   0   8 52.3433 8.20078   2
  -8   0   8 136.487 8.46640   1
  -8   0   8 129.019 9.46247   2
  -7   0   8 334.438 12.0834   2
  -7   0   8 364.003 12.5833   1
  -6   0   8 166.201 5.93658   2
  -6   0   8 172.550 6.19026   1
  -5   0   8 656.313 13.0412   1
  -5   0   8 635.000 12.9124   2
  -4   0   8 50.9770 2.46197   1
  -4   0   8 44.8872 2.48198   2
  -3   0   8 1028.90 18.2908   1
  -3   0   8 978.540 17.8948   2
  -2   0   8 1278.12 24.0063   2
  -2   0   8 1330.62 24.5079   1
  -1   0   8 14.2361 1.89889   1
  -1   0   8 13.0182 1.66085   2
   0   0   8 82.3285 3.00649   1
   0   0   8 76.1827 3.09153   2
   1   0   8 914.274 16.2929   2
   1   0   8 1013.64 19.4697   1
   2   0   8 6.61655 3.83472   1
   2   0   8 4.01664 2.87571  -2
   2   0   8 4.01664 2.87571   1
   2   0   8 -0.0551 3.56068   2
   3   0   8 651.726 14.3546  -2
   3   0   8 651.726 14.3546   1
   4   0   8 1036.15 22.9199  -2
   4   0   8 1036.15 22.9199   1
   5   0   8 1153.30 31.9634  -2
   5   0   8 1153.30 31.9634   1
   6   0   8 142.886 10.5186   1
   6   0   8 237.014 21.9610  -2
   6   0   8 237.014 21.9610   1
   6   0   8 146.277 11.5316   2
   7   0   8 81.8388 6.97569   2
   7   0   8 88.3636 7.39542   1
   7   0   8 185.131 35.9530  -2
   7   0   8 185.131 35.9530   1
   8   0   8 2.27843 6.31117   2
   8   0   8 2.23546 7.44222   1
   9  -1  -8 287.976 13.3183   1
   9  -1  -8 225.796 14.1125   2
  -9   1   8 232.518 10.4535   2
  -9   1   8 219.728 14.7267   1
   8  -1  -8 136.656 8.52200   1
   8  -1  -8 146.465 8.65698   2
  -8   1   8 174.982 9.59199   1
  -8   1   8 153.003 6.71309   2
   7  -1  -8 26.7148 5.27534   2
   7  -1  -8 32.8948 4.55285   1
  -7   1   8 15.8426 3.63879   2
  -7   1   8 17.6775 4.29656   1
   6  -1  -8 116.333 5.50341   1
   6  -1  -8 99.3490 4.23514   2
  -6   1   8 82.5087 4.02112   2
  -6   1   8 85.6534 4.35599   1
   5  -1  -8 303.231 6.73354   2
   5  -1  -8 329.274 7.38238   1
  -5   1   8 308.180 6.86425   2
  -5   1   8 330.083 7.99895   1
   4  -1  -8 987.792 17.5077   2
   4  -1  -8 1032.21 18.6423   1
  -4   1   8 986.252 18.4160   2
  -4   1   8 1029.05 18.6859   1
   3  -1  -8 867.985 16.1024   1
   3  -1  -8 825.788 15.0328   2
  -3   1   8 860.827 15.1202   2
  -3   1   8 923.885 16.2431   1
   2  -1  -8 406.941 8.00440   1
   2  -1  -8 378.514 6.78984   2
  -2   1   8 304.894 7.33474   1
  -2   1   8 284.808 6.55940   2
   1  -1  -8 42.2473 2.29826   1
   1  -1  -8 41.0005 2.20669   2
  -1   1   8 42.6926 2.25536   1
  -1   1   8 36.9198 2.00444   2
   0   1   8 81.5550 2.80355   1
   0   1   8 72.9740 2.75282   2
  -1  -1  -8 1368.33 29.1181   2
  -1  -1  -8 1473.03 30.8052   1
  -1  -1  -8 2833.82 99.5749  -2
  -1  -1  -8 2833.82 99.5749   1
   1   1   8 1434.66 27.5060   2
   1   1   8 3030.28 170.307  -2
   1   1   8 3030.28 170.307   1
   1   1   8 1514.76 30.9989   1
  -2  -1  -8 1269.38 30.4047  -2
  -2  -1  -8 1269.38 30.4047   1
  -2  -1  -8 649.314 17.9384   1
  -2  -1  -8 592.177 16.9182   2
   2   1   8 505.335 17.3837   1
   2   1   8 472.207 15.3756   2
   2   1   8 992.067 42.5515  -2
   2   1   8 992.067 42.5515   1
  -3  -1  -8 374.126 13.4114   2
  -3  -1  -8 408.184 13.8844   1
  -3  -1  -8 821.180 27.0354  -2
  -3  -1  -8 821.180 27.0354   1
   3   1   8 780.620 26.8210  -2
   3   1   8 780.620 26.8210   1
   3   1   8 388.886 11.7462   2
   3   1   8 415.441 12.8089   1
  -4  -1  -8 133.906 7.94948   2
  -4  -1  -8 275.705 11.3769  -2
  -4  -1  -8 275.705 11.3769   1
  -4  -1  -8 132.582 8.53790   1
   4   1   8 286.493 12.6865  -2
   4   1   8 286.493 12.6865   1
   4   1   8 147.467 7.82117   1
   4   1   8 136.262 6.53346   2
  -5  -1  -8 66.2830 8.08432   2
  -5  -1  -8 139.772 12.7633  -2
  -5  -1  -8 139.772 12.7633   1
  -5  -1  -8 67.4733 7.71738   1
   5   1   8 71.9310 6.49361   1
   5   1   8 59.0061 5.56607   2
   5   1   8 111.456 12.7455  -2
   5   1   8 111.456 12.7455   1
  -6  -1  -8 351.084 17.0666   2
  -6  -1  -8 372.865 17.4351   1
  -6  -1  -8 741.068 38.4919  -2
  -6  -1  -8 741.068 38.4919   1
   6   1   8 392.012 16.9990   1
   6   1   8 751.595 31.3983  -2
   6   1   8 751.595 31.3983   1
   6   1   8 366.872 15.5915   2
  -7  -1  -8 160.703 11.4022   2
  -7  -1  -8 294.276 25.2710  -2
  -7  -1  -8 294.276 25.2710   1
  -7  -1  -8 169.915 11.1561   1
   7   1   8 162.401 9.44013   1
   7   1   8 157.693 10.0887   2
   7   1   8 312.013 33.5842  -2
   7   1   8 312.013 33.5842   1
  -8  -1  -8 67.4710 9.04515   1
  -8  -1  -8 82.3365 10.1691   2
   8   1   8 50.1270 5.85122   1
   8   1   8 36.4846 7.49498   2
   9  -2  -8 38.2244 10.7222   1
   9  -2  -8 28.5476 10.1822   2
  -9   2   8 18.0105 8.10942   1
  -9   2   8 10.6451 8.06019   2
   8  -2  -8 391.152 14.2201   1
   8  -2  -8 387.427 14.0596   2
  -8   2   8 387.928 14.7743   2
  -8   2   8 417.327 13.1609   1
   7  -2  -8 297.209 9.43130   2
   7  -2  -8 306.833 9.64060   1
  -7   2   8 289.649 10.3269   1
  -7   2   8 265.119 7.86022   2
   6  -2  -8 305.726 9.10542   1
   6  -2  -8 295.917 8.05757   2
  -6   2   8 291.608 8.66471   1
  -6   2   8 277.311 7.61946   2
   5  -2  -8 407.996 9.79748   1
   5  -2  -8 400.004 8.47560   2
  -5   2   8 436.247 9.86408   1
  -5   2   8 393.499 8.82534   2
   4  -2  -8 36.4028 2.20703   2
   4  -2  -8 39.2984 2.52020   1
  -4   2   8 36.1300 2.61375   1
  -4   2   8 33.3397 2.00078   2
   3  -2  -8 72.0857 2.75124   2
   3  -2  -8 76.7148 3.07159   1
  -3   2   8 81.9933 3.13195   1
  -3   2   8 81.1641 2.76568   2
   2  -2  -8 610.267 10.2784   1
   2  -2  -8 582.937 10.4395   2
  -2   2   8 521.315 10.5730   2
  -2   2   8 558.900 10.8761   1
   1  -2  -8 1832.20 29.2273   1
   1  -2  -8 1716.62 27.3578   2
  -1   2   8 1746.01 31.1002   1
  -1   2   8 1628.54 27.0749   2
   0  -2  -8 789.881 14.5531   2
   0  -2  -8 820.111 15.2717   1
   0   2   8 892.901 15.8408   1
   0   2   8 841.637 15.1689   2
  -1  -2  -8 114.512 3.60560   1
  -1  -2  -8 105.992 4.75591   2
   1   2   8 76.0254 3.19262   1
   1   2   8 65.6566 2.61207   2
  -2  -2  -8 5.65229 4.90917  -2
  -2  -2  -8 5.65229 4.90917   1
  -2  -2  -8 4.50523 2.60713   1
  -2  -2  -8 1.93308 2.47088   2
   2   2   8 0.20172 2.02197   1
   2   2   8 0.85067 4.30884  -2
   2   2   8 0.85067 4.30884   1
   2   2   8 -0.1111 2.08122   2
  -3  -2  -8 123.472 6.79777   2
  -3  -2  -8 133.285 6.63783   1
  -3  -2  -8 261.939 9.60273  -2
  -3  -2  -8 261.939 9.60273   1
   3   2   8 105.307 5.78182   1
   3   2   8 96.1911 5.80838   2
   3   2   8 202.475 11.6652  -2
   3   2   8 202.475 11.6652   1
  -4  -2  -8 2264.69 67.0838  -2
  -4  -2  -8 2264.69 67.0838   1
  -4  -2  -8 1112.85 32.6878   1
  -4  -2  -8 1046.65 30.7715   2
   4   2   8 2108.78 60.5969  -2
   4   2   8 2108.78 60.5969   1
   4   2   8 1116.19 31.7963   1
   4   2   8 1004.48 29.2322   2
  -5  -2  -8 651.028 25.1661  -2
  -5  -2  -8 651.028 25.1661   1
  -5  -2  -8 341.430 16.5359   1
  -5  -2  -8 296.249 16.5171   2
   5   2   8 314.556 11.7106   2
   5   2   8 673.510 27.8204  -2
   5   2   8 673.510 27.8204   1
   5   2   8 348.377 13.0320   1
  -6  -2  -8 98.1287 10.6562   2
  -6  -2  -8 232.729 20.7993  -2
  -6  -2  -8 232.729 20.7993   1
  -6  -2  -8 102.553 11.6077   1
   6   2   8 118.076 7.26741   2
   6   2   8 124.432 8.14895   1
   6   2   8 220.054 18.7670  -2
   6   2   8 220.054 18.7670   1
  -7  -2  -8 21.9687 8.06639   2
  -7  -2  -8 28.3775 7.87883   1
  -7  -2  -8 56.4229 20.9414  -2
  -7  -2  -8 56.4229 20.9414   1
   7   2   8 37.5044 8.91352   1
   7   2   8 25.8015 6.78238   2
   7   2   8 38.8936 15.4900  -2
   7   2   8 38.8936 15.4900   1
   8  -3  -8 115.764 7.97978   1
   8  -3  -8 108.548 7.86752   2
  -8   3   8 111.909 8.49452   2
  -8   3   8 113.720 10.9319   1
   7  -3  -8 14.7080 5.07932   1
   7  -3  -8 21.6803 4.50215   2
  -7   3   8 4.70027 5.25867   1
  -7   3   8 7.80313 5.51651   2
   6  -3  -8 150.151 6.89428   1
   6  -3  -8 146.765 5.56447   2
  -6   3   8 144.407 8.58019   1
  -6   3   8 131.541 6.80290   2
   5  -3  -8 175.607 5.89197   2
   5  -3  -8 178.220 7.03058   1
  -5   3   8 174.208 6.77430   2
  -5   3   8 192.747 6.89093   1
   4  -3  -8 663.062 13.0391   1
   4  -3  -8 615.116 12.4673   2
  -4   3   8 627.421 14.7654   2
  -4   3   8 678.954 15.8339   1
   3  -3  -8 755.134 13.6999   1
   3  -3  -8 705.530 12.6470   2
  -3   3   8 790.522 16.4841   1
  -3   3   8 727.231 15.3113   2
   2  -3  -8 243.559 5.32476   2
   2  -3  -8 258.442 5.53653   1
  -2   3   8 216.219 6.37205   2
  -2   3   8 228.126 7.34141   1
   1  -3  -8 11.8670 1.76644   1
   1  -3  -8 9.45766 1.63387   2
  -1   3   8 7.84147 2.11847   1
  -1   3   8 7.53276 2.05308   2
   0  -3  -8 470.558 9.62724   1
   0  -3  -8 438.725 8.77396   2
   0   3   8 474.209 11.1329   1
   0   3   8 438.980 9.65078   2
  -1  -3  -8 824.428 14.6128   1
  -1  -3  -8 777.528 13.9186   2
   1   3   8 736.883 13.7088   2
   1   3   8 763.502 14.2186   1
  -2  -3  -8 401.582 8.73697   1
  -2  -3  -8 377.782 7.99942   2
   2   3   8 380.145 8.10928   1
   2   3   8 364.289 8.18866   2
  -3  -3  -8 296.478 9.97792   2
  -3  -3  -8 337.434 8.56831   1
  -3  -3  -8 638.138 44.9934  -2
  -3  -3  -8 638.138 44.9934   1
   3   3   8 321.810 10.4037   2
   3   3   8 669.226 31.1967  -2
   3   3   8 669.226 31.1967   1
   3   3   8 335.171 9.99004   1
  -4  -3  -8 154.486 6.96695   1
  -4  -3  -8 140.755 7.13344   2
  -4  -3  -8 321.639 29.7030  -2
  -4  -3  -8 321.639 29.7030   1
   4   3   8 138.250 4.85667   2
   4   3   8 142.925 5.60352   1
   4   3   8 286.742 19.1461  -2
   4   3   8 286.742 19.1461   1
  -5  -3  -8 208.941 9.42297   2
  -5  -3  -8 226.729 9.88516   1
  -5  -3  -8 412.344 22.7722  -2
  -5  -3  -8 412.344 22.7722   1
   5   3   8 201.100 7.49383   1
   5   3   8 193.575 7.31631   2
   5   3   8 390.317 16.4755  -2
   5   3   8 390.317 16.4755   1
  -6  -3  -8 307.923 11.8005   1
  -6  -3  -8 288.555 11.4089   2
   6   3   8 289.242 16.8682   1
   6   3   8 546.607 26.1313  -2
   6   3   8 546.607 26.1313   1
   6   3   8 270.649 17.2026   2
  -7  -3  -8 159.826 13.3877   1
  -7  -3  -8 120.224 10.2030   2
   7   3   8 90.2522 10.3514   2
   7   3   8 82.7718 9.63606   1
   7   3   8 211.786 21.1891  -2
   7   3   8 211.786 21.1891   1
   8  -4  -8 158.111 18.8371   1
   8  -4  -8 155.080 16.4288   2
  -8   4   8 173.174 16.4463   2
  -8   4   8 187.695 17.0738   1
   7  -4  -8 285.347 10.2980   2
   7  -4  -8 283.601 11.0843   1
  -7   4   8 311.935 12.1454   2
  -7   4   8 314.148 12.7685   1
   6  -4  -8 212.589 7.39581   2
   6  -4  -8 229.621 8.43865   1
  -6   4   8 209.101 9.62561   2
  -6   4   8 227.501 9.16953   1
   5  -4  -8 201.978 6.40558   2
   5  -4  -8 211.974 7.82468   1
  -5   4   8 178.702 7.66440   2
  -5   4   8 198.115 7.35023   1
   4  -4  -8 26.7585 2.94509   2
   4  -4  -8 27.7198 3.36216   1
  -4   4   8 33.8062 4.17733   2
  -4   4   8 29.1226 4.23104   1
   3  -4  -8 292.200 6.41427   1
   3  -4  -8 279.450 5.84583   2
  -3   4   8 262.311 9.67603   1
  -3   4   8 242.063 9.00341   2
   2  -4  -8 386.125 8.85947   2
   2  -4  -8 398.302 8.10705   1
  -2   4   8 433.365 9.98732   2
  -2   4   8 444.501 11.7485   1
   1  -4  -8 840.351 13.9797   2
   1  -4  -8 905.591 16.7422   1
  -1   4   8 876.712 21.4271   1
  -1   4   8 795.884 21.3744   2
   0  -4  -8 258.364 5.89648   2
   0  -4  -8 286.811 6.39531   1
   0   4   8 316.816 8.77890   1
   0   4   8 312.961 8.62653   2
  -1  -4  -8 84.9516 3.72510   1
  -1  -4  -8 84.1553 3.40561   2
   1   4   8 83.1593 4.90105   1
   1   4   8 78.4372 5.12828   2
  -2  -4  -8 41.3760 3.38331   2
  -2  -4  -8 45.7716 3.54447   1
   2   4   8 59.8119 4.34551   1
   2   4   8 57.6635 5.03896   2
  -3  -4  -8 323.697 9.35451   1
  -3  -4  -8 297.540 8.36562   2
   3   4   8 306.450 8.26377   2
   3   4   8 325.201 8.54386   1
  -4  -4  -8 239.569 8.39555   2
  -4  -4  -8 253.330 8.74898   1
   4   4   8 205.895 8.44145   2
   4   4   8 211.024 8.48573   1
  -5  -4  -8 427.608 13.0874   1
  -5  -4  -8 374.931 12.0832   2
   5   4   8 371.875 10.9979   2
   5   4   8 424.806 14.4546   1
  -6  -4  -8 52.6446 6.36696   2
  -6  -4  -8 57.4064 6.60427   1
   6   4   8 57.7197 6.33480   2
   6   4   8 66.7925 6.05175   1
   6   4   8 122.447 17.9750  -2
   6   4   8 122.447 17.9750   1
   7  -5  -8 20.1370 5.15140   2
   7  -5  -8 17.3252 6.26479   1
  -7   5   8 25.1801 7.26411   1
  -7   5   8 19.1099 6.74018   2
   6  -5  -8 8.41903 3.83433   2
   6  -5  -8 8.97721 4.96045   1
  -6   5   8 31.2730 5.14819   1
  -6   5   8 23.5654 4.93901   2
   5  -5  -8 222.318 6.84346   2
   5  -5  -8 242.182 8.49190   1
  -5   5   8 254.283 8.45588   1
  -5   5   8 222.766 7.65775   2
   4  -5  -8 603.751 12.8536   1
   4  -5  -8 576.363 11.8782   2
  -4   5   8 529.302 19.0200   1
  -4   5   8 518.626 15.5849   2
   3  -5  -8 515.773 11.4909   2
   3  -5  -8 510.885 10.5946   1
  -3   5   8 590.423 17.7452   1
  -3   5   8 580.339 25.7459   2
   2  -5  -8 11.4769 2.40583   1
   2  -5  -8 12.1142 2.08748   2
  -2   5   8 22.5141 4.71023   1
  -2   5   8 15.0061 3.71525   2
   1  -5  -8 48.0888 2.50961   1
   1  -5  -8 45.7904 2.27702   2
  -1   5   8 42.5564 4.34067   2
  -1   5   8 48.8291 4.87114   1
   0  -5  -8 96.8027 4.08687   2
   0  -5  -8 104.337 4.12257   1
   0   5   8 130.570 7.07807   1
   0   5   8 106.900 5.91308   2
  -1  -5  -8 212.212 6.52555   1
  -1  -5  -8 187.598 6.00184   2
   1   5   8 255.700 9.01912   2
   1   5   8 275.193 11.6042   1
  -2  -5  -8 444.944 10.7434   2
  -2  -5  -8 459.562 11.0260   1
   2   5   8 432.216 13.3113   2
   2   5   8 458.785 12.7902   1
  -3  -5  -8 237.895 7.46969   1
  -3  -5  -8 219.827 7.12580   2
   3   5   8 186.389 7.54626   1
   3   5   8 188.825 9.25610   2
  -4  -5  -8 29.0920 4.79798   2
  -4  -5  -8 27.2587 5.41301   1
   4   5   8 33.5674 5.92208   1
   4   5   8 23.8838 5.92713   2
  -5  -5  -8 49.5053 5.83562   2
  -5  -5  -8 54.8031 6.07751   1
   5   5   8 48.3441 7.24099   2
   5   5   8 43.0791 7.25943   1
   5  -6  -8 88.6666 7.33403   1
   5  -6  -8 89.7585 7.87211   2
  -5   6   8 110.229 21.4226   1
  -5   6   8 109.413 13.7893   2
   4  -6  -8 13.5071 3.48636   1
   4  -6  -8 3.88673 3.70286   2
  -4   6   8 -14.443 10.5598   1
  -4   6   8 2.36557 11.2878   2
   3  -6  -8 63.9265 3.67221   2
   3  -6  -8 63.9953 4.76793   1
  -3   6   8 95.6696 12.9124   1
  -3   6   8 85.3408 10.4232   2
   2  -6  -8 207.473 6.33124   2
   2  -6  -8 214.912 6.05382   1
  -2   6   8 218.192 19.0322   1
  -2   6   8 180.836 15.8199   2
   1  -6  -8 380.451 8.10493   1
   1  -6  -8 368.705 9.88051   2
  -1   6   8 437.602 21.4144   1
  -1   6   8 440.387 16.3519   2
   0  -6  -8 84.1767 3.90518   1
   0  -6  -8 78.1198 3.65164   2
   0   6   8 78.3391 6.59933   1
   0   6   8 97.1712 8.65108   2
  -1  -6  -8 41.3721 3.79209   2
  -1  -6  -8 43.9433 3.97649   1
   1   6   8 26.3939 5.44281   2
   1   6   8 25.2143 4.74542   1
  -2  -6  -8 -0.2412 3.78957   1
  -2  -6  -8 5.17713 3.73148   2
   2   6   8 0.03120 4.36453   1
   2   6   8 0.54161 4.81551   2
  -3  -6  -8 101.376 6.26910   2
  -3  -6  -8 120.970 6.22610   1
   3   6   8 102.300 6.95355   2
   3   6   8 115.057 7.76526   1
  -4  -6  -8 95.4786 6.80317   2
  -4  -6  -8 97.6488 6.50194   1
   4   6   8 89.2344 9.54982   1
   4   6   8 67.5373 9.78200   2
   3  -7  -8 168.613 8.87284   1
   3  -7  -8 175.291 8.86803   2
  -3   7   8 148.158 22.7296   1
  -3   7   8 130.625 19.3313   2
   2  -7  -8 41.3203 7.06502   1
   2  -7  -8 32.6221 4.68088   2
  -2   7   8 21.3502 16.4864   1
  -2   7   8 22.9055 12.6842   2
   1  -7  -8 5.28348 5.14325   1
   1  -7  -8 8.54576 5.38198   2
  -1   7   8 8.64064 8.89524   2
  -1   7   8 16.8326 11.4126   1
   0  -7  -8 101.461 5.24187   1
   0  -7  -8 96.0588 7.07253   2
   0   7   8 128.949 12.3049   2
   0   7   8 141.999 13.1074   1
  -1  -7  -8 54.0683 4.96554   2
  -1  -7  -8 65.7219 4.68588   1
   1   7   8 55.3636 8.21207   2
   1   7   8 78.8037 11.4510   1
  -9   0   9 12.7033 7.47362   2
  -9   0   9 7.64152 7.96741   1
  -8   0   9 140.757 8.96418   2
  -8   0   9 131.211 8.53090   1
  -7   0   9 455.066 13.4057   2
  -7   0   9 476.902 14.5049   1
  -6   0   9 37.7910 3.74072   2
  -6   0   9 29.2370 4.51937   1
  -5   0   9 1425.50 25.1239   2
  -5   0   9 1491.90 27.5495   1
  -4   0   9 242.475 6.48209   1
  -4   0   9 223.214 5.64395   2
  -3   0   9 109.720 3.52094   2
  -3   0   9 113.436 3.82784   1
  -2   0   9 546.584 10.5261   1
  -2   0   9 511.072 9.76473   2
  -1   0   9 917.599 17.1120   1
  -1   0   9 859.184 16.0378   2
   0   0   9 1533.28 28.5356   1
   0   0   9 1435.88 25.6002   2
   1   0   9 325.151 7.00533   1
   1   0   9 303.948 6.61628   2
   2   0   9 6.41265 2.38280   1
   2   0   9 8.17194 2.23762   2
   2   0   9 12.6695 8.05056  -2
   2   0   9 12.6695 8.05056   1
   3   0   9 58.8283 8.63541   2
   3   0   9 117.468 6.06757  -2
   3   0   9 117.468 6.06757   1
   3   0   9 64.1083 9.38800   1
   4   0   9 838.109 22.2545  -2
   4   0   9 838.109 22.2545   1
   5   0   9 510.126 15.9166  -2
   5   0   9 510.126 15.9166   1
   6   0   9 1247.02 47.4691  -2
   6   0   9 1247.02 47.4691   1
   6   0   9 673.467 52.1091   1
   6   0   9 619.682 46.3490   2
   7   0   9 95.5276 9.44022   1
   7   0   9 65.2563 11.3732   2
   7   0   9 126.580 23.7077  -2
   7   0   9 126.580 23.7077   1
   8   0   9 62.5333 9.20127   2
   8   0   9 64.8811 10.5581   1
   9  -1  -9 223.883 13.1524   1
   9  -1  -9 214.112 12.8633   2
  -9   1   9 308.562 13.1772   1
  -9   1   9 266.277 13.6663   2
   8  -1  -9 329.534 11.6683   1
   8  -1  -9 284.727 10.6848   2
  -8   1   9 321.425 11.6702   1
  -8   1   9 290.729 9.32233   2
   7  -1  -9 111.724 6.11436   1
   7  -1  -9 116.418 6.64487   2
  -7   1   9 87.2481 5.09311   1
  -7   1   9 78.1379 4.54478   2
   6  -1  -9 22.9456 2.97588   2
   6  -1  -9 29.4788 3.79182   1
  -6   1   9 26.8547 4.20545   1
  -6   1   9 20.3426 2.93484   2
   5  -1  -9 259.325 6.30125   1
   5  -1  -9 247.652 5.62981   2
  -5   1   9 196.934 6.47727   2
  -5   1   9 215.707 6.93762   1
   4  -1  -9 655.357 12.4592   1
   4  -1  -9 618.901 11.6833   2
  -4   1   9 695.497 13.2171   1
  -4   1   9 675.211 13.6139   2
   3  -1  -9 1110.33 22.4791   2
   3  -1  -9 1152.84 21.6009   1
  -3   1   9 1328.23 22.0709   1
  -3   1   9 1259.12 21.6852   2
   2  -1  -9 949.334 16.1588   2
   2  -1  -9 1036.15 19.1689   1
  -2   1   9 927.338 17.3949   1
  -2   1   9 872.238 16.1273   2
   1  -1  -9 19.9305 2.15114   1
   1  -1  -9 16.3470 1.89602   2
  -1   1   9 17.6267 1.85184   2
  -1   1   9 21.4094 1.97070   1
   0  -1  -9 61.6936 3.46939   1
   0  -1  -9 58.7359 2.48280   2
   0   1   9 32.4405 2.42238   2
   0   1   9 31.7399 2.24342   1
  -1  -1  -9 1111.81 20.5923   2
  -1  -1  -9 1155.17 20.7915   1
   1   1   9 1134.63 21.4543   2
   1   1   9 1212.23 22.6086   1
   1   1   9 2389.07 142.905  -2
   1   1   9 2389.07 142.905   1
  -2  -1  -9 698.627 20.1306   1
  -2  -1  -9 1393.83 33.4900  -2
  -2  -1  -9 1393.83 33.4900   1
  -2  -1  -9 664.484 18.0774   2
   2   1   9 1178.72 36.3379  -2
   2   1   9 1178.72 36.3379   1
   2   1   9 616.035 19.4327   1
   2   1   9 589.386 18.3366   2
  -3  -1  -9 1015.40 27.8686  -2
  -3  -1  -9 1015.40 27.8686   1
  -3  -1  -9 477.067 17.1864   2
  -3  -1  -9 515.319 18.0208   1
   3   1   9 602.184 17.0056   1
   3   1   9 535.683 15.0225   2
   3   1   9 1109.81 39.3682  -2
   3   1   9 1109.81 39.3682   1
  -4  -1  -9 152.719 9.88279  -2
  -4  -1  -9 152.719 9.88279   1
  -4  -1  -9 74.6387 7.27889   1
  -4  -1  -9 71.1432 9.58770   2
   4   1   9 123.730 7.58992   1
   4   1   9 107.756 5.92815   2
  -5  -1  -9 48.4598 7.42952   1
  -5  -1  -9 43.7036 7.93198   2
  -5  -1  -9 102.423 12.2881  -2
  -5  -1  -9 102.423 12.2881   1
   5   1   9 91.0545 13.4980  -2
   5   1   9 91.0545 13.4980   1
   5   1   9 36.7733 6.99924   1
   5   1   9 38.2202 6.18981   2
  -6  -1  -9 65.9084 10.9602   2
  -6  -1  -9 115.051 13.3092  -2
  -6  -1  -9 115.051 13.3092   1
  -6  -1  -9 48.0491 8.87152   1
   6   1   9 81.9879 8.68403   1
   6   1   9 85.0813 7.79073   2
   6   1   9 152.513 16.0844  -2
   6   1   9 152.513 16.0844   1
  -7  -1  -9 297.213 17.5094   2
  -7  -1  -9 611.285 36.5392  -2
  -7  -1  -9 611.285 36.5392   1
  -7  -1  -9 330.137 17.5047   1
   7   1   9 339.338 15.6005   2
   7   1   9 320.093 16.6581   1
   7   1   9 626.577 36.9183  -2
   7   1   9 626.577 36.9183   1
   8  -2  -9 82.9225 7.51072   2
   8  -2  -9 89.3325 7.52350   1
  -8   2   9 97.6560 6.87748   2
  -8   2   9 87.6320 6.25316   1
   7  -2  -9 241.210 8.60829   1
   7  -2  -9 237.731 9.35005   2
  -7   2   9 249.823 8.63753   1
  -7   2   9 232.662 7.07389   2
   6  -2  -9 370.490 11.2269   1
   6  -2  -9 361.851 10.2406   2
  -6   2   9 351.896 8.85766   2
  -6   2   9 394.111 11.0489   1
   5  -2  -9 409.193 9.26240   2
   5  -2  -9 422.334 10.0038   1
  -5   2   9 432.391 10.6643   2
  -5   2   9 475.903 12.3491   1
   4  -2  -9 91.6656 3.51696   1
   4  -2  -9 81.1922 3.05312   2
  -4   2   9 89.5418 4.10983   1
  -4   2   9 85.5907 3.24456   2
   3  -2  -9 3.01208 1.87830   2
   3  -2  -9 5.04296 2.03324   1
  -3   2   9 3.71159 1.79581   2
  -3   2   9 5.12387 2.19641   1
   2  -2  -9 807.121 13.8384   1
   2  -2  -9 756.947 12.6580   2
  -2   2   9 769.876 14.9145   1
  -2   2   9 729.800 13.0256   2
   1  -2  -9 866.538 14.8713   2
   1  -2  -9 939.238 17.3541   1
  -1   2   9 923.886 18.1929   1
  -1   2   9 848.611 16.0251   2
   0  -2  -9 657.105 12.8110   2
   0  -2  -9 685.557 13.1631   1
   0   2   9 733.137 13.1182   1
   0   2   9 677.058 12.9046   2
  -1  -2  -9 66.1963 3.02227   2
  -1  -2  -9 67.4141 3.42429   1
   1   2   9 92.5044 3.17587   2
   1   2   9 95.6335 3.58671   1
  -2  -2  -9 170.850 9.48969  -2
  -2  -2  -9 170.850 9.48969   1
  -2  -2  -9 97.1476 4.74646   1
  -2  -2  -9 81.3504 4.58243   2
   2   2   9 88.4460 4.47221   1
   2   2   9 83.9719 3.55759   2
   2   2   9 163.534 10.5826  -2
   2   2   9 163.534 10.5826   1
  -3  -2  -9 303.599 10.8391  -2
  -3  -2  -9 303.599 10.8391   1
  -3  -2  -9 139.125 7.80474   2
  -3  -2  -9 152.698 7.57299   1
   3   2   9 130.351 6.16777   2
   3   2   9 133.569 6.53412   1
   3   2   9 238.174 14.0364  -2
   3   2   9 238.174 14.0364   1
  -4  -2  -9 1198.52 46.6170  -2
  -4  -2  -9 1198.52 46.6170   1
  -4  -2  -9 543.884 21.4253   2
  -4  -2  -9 560.084 21.5378   1
   4   2   9 585.087 18.6250   1
   4   2   9 1212.07 55.8545  -2
   4   2   9 1212.07 55.8545   1
   4   2   9 548.245 17.5168   2
  -5  -2  -9 104.660 9.87228   2
  -5  -2  -9 130.424 9.85527   1
  -5  -2  -9 224.168 13.3414  -2
  -5  -2  -9 224.168 13.3414   1
   5   2   9 139.018 9.13778   1
   5   2   9 113.663 7.27074   2
   5   2   9 230.351 16.7498  -2
   5   2   9 230.351 16.7498   1
  -6  -2  -9 223.839 14.0234   2
  -6  -2  -9 217.304 13.5967   1
  -6  -2  -9 444.897 21.2677  -2
  -6  -2  -9 444.897 21.2677   1
   6   2   9 235.562 10.5624   2
   6   2   9 245.468 11.3528   1
   6   2   9 469.409 27.5239  -2
   6   2   9 469.409 27.5239   1
  -7  -2  -9 27.2461 10.0068   2
  -7  -2  -9 45.6121 17.5491  -2
  -7  -2  -9 45.6121 17.5491   1
  -7  -2  -9 21.7168 9.27113   1
   7   2   9 28.8981 9.82194   2
   7   2   9 68.1033 16.7350  -2
   7   2   9 68.1033 16.7350   1
   7   2   9 26.8458 13.3283   1
   8  -3  -9 134.771 9.64863   1
   8  -3  -9 116.149 9.13174   2
  -8   3   9 152.142 10.6297   2
  -8   3   9 140.817 8.29048   1
   7  -3  -9 72.3640 6.47480   1
   7  -3  -9 65.4907 5.67616   2
  -7   3   9 79.2168 5.96618   1
  -7   3   9 70.0155 6.01847   2
   6  -3  -9 19.0741 4.79517   1
   6  -3  -9 20.8148 3.95814   2
  -6   3   9 12.3907 4.07203   2
  -6   3   9 19.2627 4.50935   1
   5  -3  -9 106.098 4.95514   1
   5  -3  -9 109.496 4.67993   2
  -5   3   9 125.588 6.00719   2
  -5   3   9 131.404 7.97050   1
   4  -3  -9 458.616 9.33679   2
   4  -3  -9 492.326 10.2952   1
  -4   3   9 457.017 12.4009   2
  -4   3   9 508.450 15.7158   1
   3  -3  -9 874.547 16.0061   1
   3  -3  -9 820.660 14.1196   2
  -3   3   9 766.213 16.9346   2
  -3   3   9 842.103 19.3375   1
   2  -3  -9 299.607 6.64835   1
   2  -3  -9 274.979 6.84431   2
  -2   3   9 339.661 7.93718   1
  -2   3   9 301.013 7.64582   2
   1  -3  -9 3.68634 1.72527   2
   1  -3  -9 3.05375 1.92955   1
  -1   3   9 3.24115 2.23273   1
  -1   3   9 -0.1894 2.08661   2
   0  -3  -9 61.5693 3.25448   2
   0  -3  -9 70.9092 3.06029   1
   0   3   9 74.2250 2.84434   1
   0   3   9 65.0775 3.66944   2
  -1  -3  -9 476.512 9.38520   1
  -1  -3  -9 452.442 9.15770   2
   1   3   9 413.215 9.07887   1
   1   3   9 398.460 8.50565   2
  -2  -3  -9 487.562 11.0808   2
  -2  -3  -9 533.527 11.4098   1
   2   3   9 546.218 11.3636   1
   2   3   9 515.628 12.2402   2
  -3  -3  -9 227.484 7.63253   1
  -3  -3  -9 433.183 35.4709  -2
  -3  -3  -9 433.183 35.4709   1
  -3  -3  -9 195.761 7.71018   2
   3   3   9 494.915 24.7601  -2
   3   3   9 494.915 24.7601   1
   3   3   9 240.506 8.67959   2
   3   3   9 246.979 8.82215   1
  -4  -3  -9 132.255 8.12682   1
  -4  -3  -9 126.340 8.85586   2
  -4  -3  -9 222.886 19.6760  -2
  -4  -3  -9 222.886 19.6760   1
   4   3   9 121.302 5.81492   2
   4   3   9 278.019 12.5459  -2
   4   3   9 278.019 12.5459   1
   4   3   9 127.225 5.51785   1
  -5  -3  -9 48.3011 8.38268   2
  -5  -3  -9 50.4409 7.82641   1
  -5  -3  -9 85.3947 13.1093  -2
  -5  -3  -9 85.3947 13.1093   1
   5   3   9 48.1400 4.83328   1
   5   3   9 53.9856 5.27868   2
   5   3   9 113.032 10.1276  -2
   5   3   9 113.032 10.1276   1
  -6  -3  -9 78.7257 8.38455   2
  -6  -3  -9 76.8882 8.46191   1
  -6  -3  -9 148.166 22.4391  -2
  -6  -3  -9 148.166 22.4391   1
   6   3   9 78.3591 6.77281   1
   6   3   9 68.7671 5.59743   2
   6   3   9 168.405 11.7839  -2
   6   3   9 168.405 11.7839   1
  -7  -3  -9 24.9612 8.57636   1
  -7  -3  -9 4.87379 8.45811   2
   7   3   9 5.25106 12.3751   1
   7   3   9 32.1586 12.6761  -2
   7   3   9 32.1586 12.6761   1
   7   3   9 16.7107 12.3350   2
   7  -4  -9 294.351 10.6753   2
   7  -4  -9 294.394 11.3459   1
  -7   4   9 308.482 12.2370   1
  -7   4   9 307.564 12.4302   2
   6  -4  -9 219.615 8.07938   2
   6  -4  -9 230.799 8.82549   1
  -6   4   9 264.738 11.2103   1
  -6   4   9 253.768 10.1860   2
   5  -4  -9 186.107 6.70482   2
   5  -4  -9 188.174 7.12751   1
  -5   4   9 194.102 9.77950   2
  -5   4   9 191.555 8.75317   1
   4  -4  -9 90.3778 4.00280   2
   4  -4  -9 93.5043 4.37639   1
  -4   4   9 75.4974 5.27910   1
  -4   4   9 67.3011 5.46586   2
   3  -4  -9 142.269 4.14836   2
   3  -4  -9 148.027 4.49214   1
  -3   4   9 132.505 5.95385   2
  -3   4   9 145.138 6.29330   1
   2  -4  -9 133.587 3.93434   1
   2  -4  -9 122.286 3.70960   2
  -2   4   9 86.8612 4.46345   2
  -2   4   9 87.0670 4.35633   1
   1  -4  -9 479.101 9.19375   2
   1  -4  -9 505.973 9.69922   1
  -1   4   9 480.585 12.8647   2
  -1   4   9 489.695 17.3695   1
   0  -4  -9 509.612 10.1919   1
   0  -4  -9 468.115 9.76328   2
   0   4   9 553.687 16.3619   1
   0   4   9 532.163 15.7501   2
  -1  -4  -9 228.544 6.33543   2
  -1  -4  -9 242.256 6.38441   1
   1   4   9 207.469 9.08060   2
   1   4   9 243.541 8.74432   1
  -2  -4  -9 10.8858 3.26327   1
  -2  -4  -9 16.3767 2.82479   2
   2   4   9 19.4546 4.38505   2
   2   4   9 12.6039 3.44280   1
  -3  -4  -9 183.086 7.91147   2
  -3  -4  -9 192.960 7.55889   1
   3   4   9 192.707 6.93428   1
   3   4   9 185.679 6.35729   2
  -4  -4  -9 75.0401 5.93646   1
  -4  -4  -9 75.7038 5.64195   2
   4   4   9 117.525 6.52860   1
   4   4   9 110.965 6.45430   2
  -5  -4  -9 152.855 7.51280   2
  -5  -4  -9 178.829 8.20935   1
   5   4   9 252.505 17.2737  -2
   5   4   9 252.505 17.2737   1
   5   4   9 119.435 16.6294   2
   5   4   9 139.788 10.7217   1
  -6  -4  -9 79.9059 8.06980   2
  -6  -4  -9 100.560 8.72878   1
   6   4   9 72.7297 6.90774   1
   6   4   9 78.2354 8.81326   2
   6   4   9 175.573 19.4387  -2
   6   4   9 175.573 19.4387   1
   6  -5  -9 4.54767 4.50013   2
   6  -5  -9 6.00598 5.49423   1
  -6   5   9 3.23879 5.62459   2
  -6   5   9 0.51736 7.33702   1
   5  -5  -9 115.920 6.19803   1
   5  -5  -9 111.743 5.16644   2
  -5   5   9 101.181 6.17933   1
  -5   5   9 102.671 7.00634   2
   4  -5  -9 147.080 5.02425   2
   4  -5  -9 162.913 6.12554   1
  -4   5   9 163.843 6.84600   2
  -4   5   9 157.853 8.37961   1
   3  -5  -9 550.129 11.5869   2
   3  -5  -9 553.156 12.1479   1
  -3   5   9 609.512 19.5630   1
  -3   5   9 530.704 20.2920   2
   2  -5  -9 174.736 4.64664   2
   2  -5  -9 175.140 5.05914   1
  -2   5   9 130.211 8.22393   1
  -2   5   9 134.014 11.2135   2
   1  -5  -9 2.21211 2.32030   2
   1  -5  -9 2.95718 1.89822   1
  -1   5   9 11.2932 4.44848   2
  -1   5   9 8.77001 4.44674   1
   0  -5  -9 19.4785 2.97834   1
   0  -5  -9 19.8143 2.94974   2
   0   5   9 16.7522 5.13373   2
   0   5   9 16.3445 4.55936   1
  -1  -5  -9 98.6362 4.83036   1
  -1  -5  -9 89.9198 4.40335   2
   1   5   9 84.0378 6.17333   2
   1   5   9 79.9157 5.92936   1
  -2  -5  -9 529.666 13.1270   2
  -2  -5  -9 554.892 13.0309   1
   2   5   9 512.074 15.6984   2
   2   5   9 564.253 15.1155   1
  -3  -5  -9 85.7776 6.71928   2
  -3  -5  -9 78.7914 6.10066   1
   3   5   9 91.0063 5.91349   1
   3   5   9 92.8766 7.06340   2
  -4  -5  -9 21.8037 5.20463   1
  -4  -5  -9 20.8016 5.02748   2
   4   5   9 9.68584 6.22470   1
   4   5   9 23.4316 6.35697   2
  -5  -5  -9 41.7101 6.41022   2
  -5  -5  -9 50.5829 6.57067   1
   5   5   9 45.4947 8.59636   2
   5   5   9 43.4336 8.33575   1
   5  -6  -9 71.9396 6.40345   1
   5  -6  -9 76.5277 8.74415   2
  -5   6   9 71.3957 19.4952   1
  -5   6   9 85.0515 15.9040   2
   4  -6  -9 84.5642 5.00188   1
   4  -6  -9 94.3469 5.47378   2
  -4   6   9 89.4504 11.9518   2
  -4   6   9 118.843 15.7334   1
   3  -6  -9 53.9763 3.74912   2
   3  -6  -9 44.4894 3.70681   1
  -3   6   9 63.7621 12.5034   1
  -3   6   9 88.4862 10.8778   2
   2  -6  -9 123.847 4.14074   1
   2  -6  -9 123.276 5.76046   2
  -2   6   9 117.704 11.6853   2
  -2   6   9 145.312 11.9416   1
   1  -6  -9 242.996 7.28415   1
   1  -6  -9 223.390 6.16604   2
  -1   6   9 239.911 13.2550   2
  -1   6   9 265.503 13.0685   1
   0  -6  -9 222.036 6.89011   1
   0  -6  -9 206.028 6.81705   2
   0   6   9 164.598 12.6611   1
   0   6   9 158.739 10.4182   2
  -1  -6  -9 121.403 5.91781   2
  -1  -6  -9 131.049 5.68616   1
   1   6   9 136.026 7.43631   1
   1   6   9 114.724 7.83393   2
  -2  -6  -9 32.0793 4.52282   2
  -2  -6  -9 35.9337 4.79861   1
   2   6   9 33.4635 5.98736   1
   2   6   9 42.7096 6.79477   2
  -3  -6  -9 117.706 7.11158   1
  -3  -6  -9 105.466 6.92345   2
   3   6   9 107.335 9.02578   2
   3   6   9 128.729 9.23033   1
  -4  -6  -9 42.7925 7.10266   2
  -4  -6  -9 51.7398 6.67597   1
   4   6   9 55.1030 9.09232   1
   4   6   9 78.5086 10.3449   2
   2  -7  -9 63.4454 6.43524   2
   2  -7  -9 67.3212 7.34619   1
  -2   7   9 38.1644 14.4798   2
  -2   7   9 79.8936 20.4213   1
   1  -7  -9 -0.0136 5.44115   2
   1  -7  -9 3.02902 6.45580   1
  -1   7   9 -0.7763 10.3926   2
  -1   7   9 6.98424 11.8078   1
   0  -7  -9 7.50104 3.64045   2
   0  -7  -9 12.2690 4.54641   1
   0   7   9 6.36187 9.49729   2
   0   7   9 -7.8316 12.1560   1
   1   7   9 22.9087 14.8538   1
   1   7   9 0.07001 10.5826   2
  -9   0  10 27.2686 8.95496   2
  -9   0  10 40.9358 8.51943   1
  -8   0  10 36.9341 5.17570   2
  -8   0  10 39.6604 5.49113   1
  -7   0  10 327.983 9.79254   2
  -7   0  10 346.015 10.6373   1
  -6   0  10 170.617 6.44123   1
  -6   0  10 158.961 6.68400   2
  -5   0  10 1365.16 26.3113   2
  -5   0  10 1403.65 27.4092   1
  -4   0  10 97.9278 4.08327   1
  -4   0  10 89.1429 3.47419   2
  -3   0  10 0.84421 1.92064   2
  -3   0  10 1.19031 2.19789   1
  -2   0  10 116.611 3.70015   1
  -2   0  10 110.403 3.76857   2
  -1   0  10 718.149 13.9354   2
  -1   0  10 781.209 14.4233   1
   0   0  10 1782.66 31.7318   1
   0   0  10 1632.09 30.1429   2
   1   0  10 202.127 5.18117   2
   1   0  10 211.280 5.85170   1
   2   0  10 157.955 5.34854   1
   2   0  10 154.788 5.41345   2
   3   0  10 1.76040 3.75191   1
   3   0  10 -1.1636 7.04336  -2
   3   0  10 -1.1636 7.04336   1
   3   0  10 0.48703 3.52260   2
   4   0  10 1410.10 98.4411   1
   4   0  10 1345.70 85.9262   2
   4   0  10 2165.07 47.8336  -2
   4   0  10 2165.07 47.8336   1
   5   0  10 487.827 18.8531  -2
   5   0  10 487.827 18.8531   1
   6   0  10 25.4285 10.6618  -2
   6   0  10 25.4285 10.6618   1
   6   0  10 -4.7198 12.0300   1
   6   0  10 -2.0996 11.3747   2
   7   0  10 121.371 13.4954   2
   7   0  10 220.903 18.4323  -2
   7   0  10 220.903 18.4323   1
   7   0  10 104.686 12.1620   1
   9  -1 -10 129.121 12.6552   2
   9  -1 -10 146.866 12.5784   1
  -9   1  10 180.563 9.71229   2
  -9   1  10 185.292 12.8231   1
   8  -1 -10 343.852 11.6772   1
   8  -1 -10 315.469 12.9211   2
  -8   1  10 297.352 10.2960   2
  -8   1  10 301.151 10.7200   1
   7  -1 -10 298.926 9.82143   1
   7  -1 -10 288.767 9.25750   2
  -7   1  10 254.270 8.91154   2
  -7   1  10 271.092 11.1685   1
   6  -1 -10 124.476 5.56831   2
   6  -1 -10 127.046 5.66464   1
  -6   1  10 128.193 6.57956   1
  -6   1  10 128.537 5.75068   2
   5  -1 -10 343.468 9.44026   1
   5  -1 -10 314.181 7.57925   2
  -5   1  10 314.450 9.18488   1
  -5   1  10 307.334 8.84575   2
   4  -1 -10 586.569 11.6279   1
   4  -1 -10 557.221 11.1377   2
  -4   1  10 558.033 11.1063   2
  -4   1  10 590.912 11.9655   1
   3  -1 -10 454.585 10.2756   2
   3  -1 -10 466.030 10.8322   1
  -3   1  10 494.199 10.0742   1
  -3   1  10 467.086 9.79248   2
   2  -1 -10 623.578 11.8255   2
   2  -1 -10 681.006 12.1907   1
  -2   1  10 641.484 12.0846   2
  -2   1  10 685.523 12.9248   1
   1  -1 -10 126.669 4.05410   2
   1  -1 -10 141.861 4.45470   1
  -1   1  10 146.320 4.23687   1
  -1   1  10 138.455 3.98286   2
   0  -1 -10 33.1063 2.54843   1
   0  -1 -10 39.1331 2.45562   2
   0   1  10 41.0687 2.58826   1
   0   1  10 34.2491 2.42060   2
  -1  -1 -10 251.404 6.09782   2
  -1  -1 -10 265.778 6.48535   1
   1   1  10 293.807 6.88094   1
   1   1  10 270.333 6.72282   2
  -2  -1 -10 757.111 19.2556   2
  -2  -1 -10 1661.32 47.4106  -2
  -2  -1 -10 1661.32 47.4106   1
  -2  -1 -10 817.969 21.8031   1
   2   1  10 905.075 21.7380   1
   2   1  10 876.762 20.5824   2
   2   1  10 1784.87 73.3581  -2
   2   1  10 1784.87 73.3581   1
  -3  -1 -10 2220.79 55.6319  -2
  -3  -1 -10 2220.79 55.6319   1
  -3  -1 -10 1118.68 33.1264   1
  -3  -1 -10 989.911 30.8316   2
   3   1  10 1151.96 30.2923   1
   3   1  10 2197.69 67.0029  -2
   3   1  10 2197.69 67.0029   1
   3   1  10 1067.35 27.4474   2
  -4  -1 -10 295.503 13.0038   1
  -4  -1 -10 582.772 20.1062  -2
  -4  -1 -10 582.772 20.1062   1
  -4  -1 -10 243.508 26.5174   2
   4   1  10 177.334 9.58866   2
   4   1  10 206.813 10.7493   1
  -5  -1 -10 14.3118 8.50683   2
  -5  -1 -10 7.88425 7.56909  -2
  -5  -1 -10 7.88425 7.56909   1
  -5  -1 -10 0.25449 6.81483   1
   5   1  10 -1.3934 5.03954   2
   5   1  10 3.93818 6.10243   1
   5   1  10 -0.7971 10.3531  -2
   5   1  10 -0.7971 10.3531   1
  -6  -1 -10 119.725 13.2262  -2
  -6  -1 -10 119.725 13.2262   1
  -6  -1 -10 64.1327 9.24220   1
  -6  -1 -10 62.0864 10.2559   2
   6   1  10 43.9025 8.50372   1
   6   1  10 61.5538 7.87001   2
   6   1  10 82.7547 14.9473  -2
   6   1  10 82.7547 14.9473   1
  -7  -1 -10 46.6585 14.1113  -2
  -7  -1 -10 46.6585 14.1113   1
  -7  -1 -10 23.4874 11.8329   2
  -7  -1 -10 22.7436 11.5242   1
   7   1  10 37.9615 10.2544   1
   7   1  10 3.70021 8.54871   2
   7   1  10 77.3388 17.6959  -2
   7   1  10 77.3388 17.6959   1
   8  -2 -10 24.6424 5.87912   2
   8  -2 -10 17.5358 6.98270   1
  -8   2  10 20.2650 4.96653   2
  -8   2  10 19.7456 5.71258   1
   7  -2 -10 159.068 7.08510   2
   7  -2 -10 156.218 7.85162   1
  -7   2  10 189.984 8.68383   1
  -7   2  10 161.788 5.52332   2
   6  -2 -10 747.023 17.6199   1
   6  -2 -10 717.731 16.7923   2
  -6   2  10 716.553 16.7426   2
  -6   2  10 752.948 22.2764   1
   5  -2 -10 471.447 10.7486   2
   5  -2 -10 502.868 12.5473   1
  -5   2  10 478.363 12.2231   2
  -5   2  10 512.343 13.7362   1
   4  -2 -10 200.368 5.92489   1
   4  -2 -10 182.032 4.91717   2
  -4   2  10 162.562 5.29015   2
  -4   2  10 187.891 7.13775   1
   3  -2 -10 3.40802 2.23867   1
   3  -2 -10 4.68027 2.01284   2
  -3   2  10 5.74605 2.41329   1
  -3   2  10 3.91869 2.03985   2
   2  -2 -10 421.731 9.35464   2
   2  -2 -10 439.855 8.99638   1
  -2   2  10 420.148 8.31912   2
  -2   2  10 436.336 9.54130   1
   1  -2 -10 186.257 5.05619   2
   1  -2 -10 201.160 5.53305   1
  -1   2  10 258.759 6.04001   1
  -1   2  10 241.633 6.22971   2
   0  -2 -10 349.646 7.43405   2
   0  -2 -10 357.609 7.80345   1
   0   2  10 339.367 7.37420   2
   0   2  10 358.826 8.03174   1
  -1  -2 -10 487.059 11.4507   2
  -1  -2 -10 516.232 13.3450   1
   1   2  10 630.759 12.9419   1
   1   2  10 589.485 12.1884   2
  -2  -2 -10 754.133 16.1687   1
  -2  -2 -10 681.235 14.3146   2
  -2  -2 -10 1494.66 87.7981  -2
  -2  -2 -10 1494.66 87.7981   1
   2   2  10 666.376 14.5139   2
   2   2  10 714.721 16.5259   1
   2   2  10 1392.77 87.7829  -2
   2   2  10 1392.77 87.7829   1
  -3  -2 -10 222.428 10.5264   1
  -3  -2 -10 439.598 15.0033  -2
  -3  -2 -10 439.598 15.0033   1
  -3  -2 -10 202.800 11.6506   2
   3   2  10 460.339 16.0302  -2
   3   2  10 460.339 16.0302   1
   3   2  10 238.050 9.85573   1
   3   2  10 229.720 9.30049   2
  -4  -2 -10 335.967 18.6838   2
  -4  -2 -10 383.328 21.6385   1
  -4  -2 -10 747.599 27.3923  -2
  -4  -2 -10 747.599 27.3923   1
   4   2  10 352.582 13.0070   2
   4   2  10 387.250 14.5738   1
   4   2  10 755.719 51.6470  -2
   4   2  10 755.719 51.6470   1
  -5  -2 -10 381.537 17.3364   2
  -5  -2 -10 753.665 30.7233  -2
  -5  -2 -10 753.665 30.7233   1
  -5  -2 -10 382.815 23.7181   1
   5   2  10 586.083 34.2131  -2
   5   2  10 586.083 34.2131   1
   5   2  10 308.066 14.5366   2
   5   2  10 284.932 12.8003   1
  -6  -2 -10 268.459 15.2245   1
  -6  -2 -10 243.118 15.3081   2
  -6  -2 -10 534.221 26.8589  -2
  -6  -2 -10 534.221 26.8589   1
   6   2  10 264.076 13.4198   2
   6   2  10 577.256 31.7799  -2
   6   2  10 577.256 31.7799   1
   6   2  10 311.267 14.9594   1
  -7  -2 -10 19.9979 17.9069   1
  -7  -2 -10 29.1424 13.3197   2
  -7  -2 -10 74.9152 27.7568  -2
  -7  -2 -10 74.9152 27.7568   1
   7   2  10 41.5011 9.33899   2
   7   2  10 103.136 16.6427  -2
   7   2  10 103.136 16.6427   1
   7   2  10 75.8068 10.5573   1
   8  -3 -10 157.394 9.68236   2
   8  -3 -10 158.152 10.7175   1
  -8   3  10 171.993 13.2166   1
  -8   3  10 150.201 9.28254   2
   7  -3 -10 327.595 12.3831   2
   7  -3 -10 319.801 11.9192   1
  -7   3  10 306.615 12.3042   2
  -7   3  10 306.470 14.8616   1
   6  -3 -10 92.4344 5.48928   2
   6  -3 -10 85.3453 6.01799   1
  -6   3  10 81.0528 7.81717   2
  -6   3  10 93.9203 9.14673   1
   5  -3 -10 144.206 5.81206   2
   5  -3 -10 148.147 6.38294   1
  -5   3  10 146.876 7.85933   2
  -5   3  10 140.567 9.27940   1
   4  -3 -10 316.918 8.57414   1
   4  -3 -10 313.597 7.19625   2
  -4   3  10 332.885 13.2835   1
  -4   3  10 301.928 10.2332   2
   3  -3 -10 560.650 10.6689   1
   3  -3 -10 536.340 10.6833   2
  -3   3  10 526.698 16.5549   1
  -3   3  10 510.868 14.6826   2
   2  -3 -10 541.956 10.6576   2
   2  -3 -10 579.757 11.5193   1
  -2   3  10 715.735 15.0359   1
  -2   3  10 654.627 14.4024   2
   1  -3 -10 69.5579 3.24400   1
   1  -3 -10 63.9274 2.97981   2
  -1   3  10 36.5251 4.49570   1
  -1   3  10 28.4221 2.94476   2
   0  -3 -10 58.2751 3.08750   1
   0  -3 -10 58.9561 3.43802   2
   0   3  10 56.6580 4.01091   2
   0   3  10 61.5521 3.03138   1
  -1  -3 -10 13.0910 2.67086   2
  -1  -3 -10 11.4811 3.06657   1
   1   3  10 35.9907 3.14401   1
   1   3  10 31.5488 2.98884   2
  -2  -3 -10 364.036 8.55176   2
  -2  -3 -10 405.043 9.56087   1
   2   3  10 358.730 9.51260   2
   2   3  10 377.911 10.8603   1
  -3  -3 -10 710.105 18.0397   1
  -3  -3 -10 639.327 21.1025   2
   3   3  10 681.642 17.0005   1
   3   3  10 596.325 16.0601   2
  -4  -3 -10 668.188 25.6573  -2
  -4  -3 -10 668.188 25.6573   1
  -4  -3 -10 303.009 15.4214   2
  -4  -3 -10 318.922 14.9219   1
   4   3  10 329.037 10.9480   1
   4   3  10 317.547 11.1006   2
   4   3  10 692.667 33.3912  -2
   4   3  10 692.667 33.3912   1
  -5  -3 -10 47.6472 8.95413   2
  -5  -3 -10 56.2983 8.15634   1
  -5  -3 -10 125.991 14.5428  -2
  -5  -3 -10 125.991 14.5428   1
   5   3  10 39.0677 4.97245   2
   5   3  10 42.4583 5.93394   1
   5   3  10 97.1560 11.8372  -2
   5   3  10 97.1560 11.8372   1
  -6  -3 -10 51.2217 9.51890   1
  -6  -3 -10 105.764 15.7740  -2
  -6  -3 -10 105.764 15.7740   1
  -6  -3 -10 62.0498 10.3801   2
   6   3  10 58.2460 7.13147   1
   6   3  10 104.916 12.0874  -2
   6   3  10 104.916 12.0874   1
   6   3  10 50.9882 6.72466   2
   7  -4 -10 87.5232 7.31809   2
   7  -4 -10 101.987 8.26942   1
  -7   4  10 95.7062 9.79562   2
  -7   4  10 107.179 11.0347   1
   6  -4 -10 307.121 10.5098   1
   6  -4 -10 305.256 10.7563   2
  -6   4  10 310.574 12.9646   2
  -6   4  10 320.486 13.0453   1
   5  -4 -10 373.651 10.4757   2
   5  -4 -10 396.665 11.5592   1
  -5   4  10 404.202 12.9222   1
  -5   4  10 384.519 15.0808   2
   4  -4 -10 142.175 5.19567   1
   4  -4 -10 131.035 4.59934   2
  -4   4  10 111.627 6.65733   2
  -4   4  10 126.435 6.74066   1
   3  -4 -10 19.6991 2.51883   2
   3  -4 -10 23.4963 2.79634   1
  -3   4  10 18.5483 4.04731   1
  -3   4  10 17.9344 3.83412   2
   2  -4 -10 98.7836 3.93901   1
   2  -4 -10 93.7622 3.95544   2
  -2   4  10 54.5339 4.23051   2
  -2   4  10 63.5279 6.59721   1
   1  -4 -10 236.635 6.20401   2
   1  -4 -10 265.927 6.62401   1
  -1   4  10 312.466 12.7316   2
  -1   4  10 333.762 10.4151   1
   0  -4 -10 337.646 8.18504   2
   0  -4 -10 365.629 8.81966   1
   0   4  10 407.043 14.6432   1
   0   4  10 377.214 9.86010   2
  -1  -4 -10 373.476 8.65907   2
  -1  -4 -10 394.753 8.88385   1
   1   4  10 324.896 15.8354   1
   1   4  10 303.774 11.2979   2
  -2  -4 -10 180.188 6.78017   1
  -2  -4 -10 159.661 6.59945   2
   2   4  10 150.135 8.14157   2
   2   4  10 187.184 8.85989   1
  -3  -4 -10 171.605 7.02973   1
  -3  -4 -10 166.650 7.04661   2
   3   4  10 157.122 6.58642   1
   3   4  10 142.868 6.64748   2
  -4  -4 -10 168.986 7.68943   2
  -4  -4 -10 185.545 7.89499   1
   4   4  10 188.735 9.95214   2
   4   4  10 203.742 8.97343   1
  -5  -4 -10 263.979 10.5005   1
  -5  -4 -10 264.188 10.3473   2
   5   4  10 307.898 17.6249   1
   5   4  10 227.765 26.3405   2
   5   4  10 514.425 39.5514  -2
   5   4  10 514.425 39.5514   1
  -6  -4 -10 33.2017 7.54207   2
  -6  -4 -10 47.4156 7.91010   1
   6   4  10 44.4339 16.2863   1
   6   4  10 25.0737 16.6060   2
   6  -5 -10 10.7073 5.34396   2
   6  -5 -10 1.05940 7.67882   1
  -6   5  10 14.7003 8.43258   1
  -6   5  10 16.7047 7.15084   2
   5  -5 -10 11.0619 3.84051   2
   5  -5 -10 9.83987 5.00072   1
  -5   5  10 14.5168 5.17517   1
  -5   5  10 13.4876 6.04808   2
   4  -5 -10 101.683 4.51699   2
   4  -5 -10 94.2182 4.55534   1
  -4   5  10 87.1048 5.64550   2
  -4   5  10 115.462 8.96264   1
   3  -5 -10 456.930 10.0506   2
   3  -5 -10 473.300 10.0485   1
  -3   5  10 416.324 12.9795   2
  -3   5  10 451.268 17.6546   1
   2  -5 -10 186.124 5.13477   2
   2  -5 -10 195.332 6.51787   1
  -2   5  10 193.349 9.35869   1
  -2   5  10 187.454 9.09533   2
   1  -5 -10 115.903 4.47006   2
   1  -5 -10 133.328 5.00902   1
  -1   5  10 158.127 9.38896   1
  -1   5  10 133.647 9.02103   2
   0  -5 -10 15.4027 3.26264   2
   0  -5 -10 18.9390 3.40247   1
   0   5  10 20.7240 4.99018   2
   0   5  10 16.1923 5.21022   1
  -1  -5 -10 29.1663 3.46802   1
  -1  -5 -10 41.0497 3.84281   2
   1   5  10 25.0799 5.15623   2
   1   5  10 31.8622 4.96814   1
  -2  -5 -10 334.159 10.4069   1
  -2  -5 -10 307.853 9.74609   2
   2   5  10 274.018 11.7028   2
   2   5  10 287.947 12.6298   1
  -3  -5 -10 193.431 8.04965   2
  -3  -5 -10 226.137 8.76720   1
   3   5  10 209.737 10.6359   1
   3   5  10 187.929 10.2519   2
  -4  -5 -10 142.831 7.55355   2
  -4  -5 -10 155.006 8.01892   1
   4   5  10 170.726 9.39046   1
   4   5  10 171.182 11.0132   2
  -5  -5 -10 -2.1449 7.08463   2
  -5  -5 -10 0.00111 6.91901   1
   5   5  10 30.2738 14.7566   2
   5   5  10 5.98038 9.46123   1
   4  -6 -10 179.989 7.43201   1
   4  -6 -10 185.345 9.25490   2
  -4   6  10 248.504 27.1169   1
  -4   6  10 190.837 19.0804   2
   3  -6 -10 15.2314 3.51060   1
   3  -6 -10 12.9199 3.62917   2
  -3   6  10 27.0148 12.4491   2
  -3   6  10 15.0978 12.1192   1
   2  -6 -10 12.4630 3.12209   1
   2  -6 -10 14.2907 2.42425   2
  -2   6  10 20.0617 9.08874   1
  -2   6  10 12.8879 8.81512   2
   1  -6 -10 82.5650 4.77243   1
   1  -6 -10 87.7495 4.53860   2
  -1   6  10 111.357 11.0687   1
  -1   6  10 96.1183 9.84261   2
   0  -6 -10 355.774 10.3046   2
   0  -6 -10 385.106 10.2711   1
   0   6  10 322.277 15.2872   1
   0   6  10 354.561 13.3971   2
  -1  -6 -10 222.659 8.28565   2
  -1  -6 -10 245.731 9.52276   1
   1   6  10 290.456 12.2274   1
   1   6  10 275.132 12.6983   2
  -2  -6 -10 23.3452 4.99376   1
  -2  -6 -10 15.3447 4.54560   2
   2   6  10 15.2228 6.41360   1
   2   6  10 15.2616 8.01763   2
  -3  -6 -10 51.0304 5.64369   2
  -3  -6 -10 64.0431 6.70033   1
   3   6  10 66.4824 8.10796   1
   3   6  10 48.3915 8.21430   2
  -8   0  11 8.90874 6.08825   2
  -8   0  11 5.05531 3.91097   1
  -7   0  11 167.424 7.97962   1
  -7   0  11 170.660 8.00035   2
  -6   0  11 370.260 11.5876   1
  -6   0  11 365.342 10.8345   2
  -5   0  11 360.090 9.16483   2
  -5   0  11 357.094 10.1954   1
  -4   0  11 178.104 5.30431   2
  -4   0  11 190.552 5.85373   1
  -3   0  11 468.150 10.0788   2
  -3   0  11 497.806 11.4355   1
  -2   0  11 256.401 6.03153   2
  -2   0  11 265.201 6.43429   1
  -1   0  11 307.498 7.26074   2
  -1   0  11 332.590 7.35787   1
   0   0  11 199.130 5.48593   2
   0   0  11 214.405 5.90383   1
   1   0  11 565.463 11.3155   1
   1   0  11 542.112 10.8958   2
   2   0  11 174.075 5.56149   1
   2   0  11 157.009 5.42740   2
   3   0  11 5.99521 3.78601   1
   3   0  11 31.0399 17.2801  -2
   3   0  11 31.0399 17.2801   1
   3   0  11 5.78568 3.49882   2
   4   0  11 3.63939 5.57410   2
   4   0  11 5.03947 6.67463   1
   4   0  11 11.0623 9.43229  -2
   4   0  11 11.0623 9.43229   1
   5   0  11 138.143 25.8268   1
   5   0  11 144.036 9.49265  -2
   5   0  11 144.036 9.49265   1
   5   0  11 102.928 17.6419   2
   6   0  11 968.708 31.5111  -2
   6   0  11 968.708 31.5111   1
   7   0  11 360.975 23.9921  -2
   7   0  11 360.975 23.9921   1
   7   0  11 203.975 17.0059   2
   7   0  11 243.475 19.8418   1
   8  -1 -11 339.775 13.9179   2
   8  -1 -11 337.560 13.2089   1
  -8   1  11 343.176 13.5304   1
  -8   1  11 290.778 13.0713   2
   7  -1 -11 269.072 9.45036   2
   7  -1 -11 297.839 9.55821   1
  -7   1  11 291.085 9.29410   2
  -7   1  11 313.289 13.8274   1
   6  -1 -11 113.160 6.11233   1
   6  -1 -11 120.014 4.97926   2
  -6   1  11 126.304 6.10685   2
  -6   1  11 132.724 6.57949   1
   5  -1 -11 88.4649 4.56702   1
   5  -1 -11 95.8996 4.80522   2
  -5   1  11 81.5485 4.41031   2
  -5   1  11 83.6506 5.01743   1
   4  -1 -11 177.766 6.15049   1
   4  -1 -11 172.655 5.39319   2
  -4   1  11 254.124 6.97660   1
  -4   1  11 241.731 6.07666   2
   3  -1 -11 342.347 7.67910   1
   3  -1 -11 312.201 7.24791   2
  -3   1  11 253.231 7.10653   1
  -3   1  11 243.307 6.66879   2
   2  -1 -11 960.404 17.8765   1
   2  -1 -11 901.925 15.9875   2
  -2   1  11 849.487 16.6838   2
  -2   1  11 896.694 17.7934   1
   1  -1 -11 374.358 8.01329   2
   1  -1 -11 394.973 8.96961   1
  -1   1  11 365.020 7.97708   2
  -1   1  11 399.498 8.49805   1
   0  -1 -11 193.673 5.21251   2
   0  -1 -11 208.436 5.68227   1
   0   1  11 155.143 4.69009   2
   0   1  11 170.157 5.00938   1
  -1  -1 -11 90.9461 3.54883   2
  -1  -1 -11 93.0501 3.72003   1
   1   1  11 76.2226 3.83862   2
   1   1  11 84.5016 3.82982   1
  -2  -1 -11 749.912 15.1875   1
  -2  -1 -11 698.103 13.7889   2
  -2  -1 -11 1547.72 83.3141  -2
  -2  -1 -11 1547.72 83.3141   1
   2   1  11 654.840 17.0100   1
   2   1  11 1137.28 82.8233  -2
   2   1  11 1137.28 82.8233   1
   2   1  11 615.386 16.1252   2
  -3  -1 -11 198.505 11.8758   2
  -3  -1 -11 401.052 14.5827  -2
  -3  -1 -11 401.052 14.5827   1
  -3  -1 -11 179.472 10.6749   1
   3   1  11 480.682 20.8453  -2
   3   1  11 480.682 20.8453   1
   3   1  11 240.691 9.68655   1
   3   1  11 223.801 8.75056   2
  -4  -1 -11 194.771 13.0338  -2
  -4  -1 -11 194.771 13.0338   1
  -4  -1 -11 94.2544 9.53955   2
  -4  -1 -11 104.911 10.0266   1
   4   1  11 263.715 20.5641  -2
   4   1  11 263.715 20.5641   1
   4   1  11 155.131 9.91815   1
   4   1  11 143.202 8.74011   2
  -5  -1 -11 277.333 15.5280   2
  -5  -1 -11 331.805 16.4028   1
  -5  -1 -11 662.939 28.6799  -2
  -5  -1 -11 662.939 28.6799   1
   5   1  11 590.664 34.3218  -2
   5   1  11 590.664 34.3218   1
   5   1  11 297.495 13.9349   2
   5   1  11 343.566 16.2375   1
  -6  -1 -11 0.16239 9.44408   2
  -6  -1 -11 20.2465 13.8715  -2
  -6  -1 -11 20.2465 13.8715   1
  -6  -1 -11 -4.5661 8.59056   1
   6   1  11 21.0792 13.5445  -2
   6   1  11 21.0792 13.5445   1
   6   1  11 -3.1409 6.38795   2
   6   1  11 13.0033 8.22122   1
  -7  -1 -11 112.265 13.3232   1
  -7  -1 -11 202.888 25.6006  -2
  -7  -1 -11 202.888 25.6006   1
  -7  -1 -11 100.988 18.0656   2
   7   1  11 93.8782 11.2753   2
   7   1  11 102.816 12.5196   1
   7   1  11 191.212 31.3633  -2
   7   1  11 191.212 31.3633   1
   8  -2 -11 12.6422 7.77908   2
   8  -2 -11 13.3411 7.41718   1
  -8   2  11 15.6449 7.48712   2
  -8   2  11 17.8089 6.60810   1
   7  -2 -11 150.352 7.42277   1
   7  -2 -11 141.425 6.86067   2
  -7   2  11 138.109 7.30179   1
  -7   2  11 148.823 6.12996   2
   6  -2 -11 369.280 9.33940   2
   6  -2 -11 384.870 9.99362   1
  -6   2  11 366.069 12.3429   1
  -6   2  11 349.830 10.6519   2
   5  -2 -11 215.728 7.39854   1
   5  -2 -11 209.842 6.63872   2
  -5   2  11 296.111 13.7771   2
  -5   2  11 300.164 13.5939   1
   4  -2 -11 275.899 7.19390   1
   4  -2 -11 257.162 6.51556   2
  -4   2  11 243.423 7.77455   1
  -4   2  11 229.056 8.11564   2
   3  -2 -11 405.099 8.95873   1
   3  -2 -11 380.858 8.42895   2
  -3   2  11 326.199 8.19499   2
  -3   2  11 340.753 8.75911   1
   2  -2 -11 184.400 4.93762   2
   2  -2 -11 207.149 5.65425   1
  -2   2  11 210.992 5.95761   1
  -2   2  11 189.702 5.29090   2
   1  -2 -11 375.760 8.20765   1
   1  -2 -11 346.297 7.91408   2
  -1   2  11 292.332 7.27943   2
  -1   2  11 306.948 8.95397   1
   0  -2 -11 2718.54 43.8178   2
   0  -2 -11 2807.01 48.3857   1
   0   2  11 2653.23 45.6232   1
   0   2  11 2439.76 49.7551   2
  -1  -2 -11 313.860 8.03998   1
  -1  -2 -11 288.858 7.52905   2
   1   2  11 306.481 7.50427   1
   1   2  11 291.455 7.09284   2
  -2  -2 -11 5.19215 3.25442   2
  -2  -2 -11 3.70802 3.06841   1
   2   2  11 1.22033 3.08564   1
   2   2  11 1.48625 2.55378   2
   2   2  11 5.69480 16.0621  -2
   2   2  11 5.69480 16.0621   1
  -3  -2 -11 100.627 9.83810   2
  -3  -2 -11 81.0152 7.76150   1
  -3  -2 -11 164.610 12.1549  -2
  -3  -2 -11 164.610 12.1549   1
   3   2  11 191.856 14.5628  -2
   3   2  11 191.856 14.5628   1
   3   2  11 106.011 7.78941   1
   3   2  11 88.2467 6.35919   2
  -4  -2 -11 15.5469 6.41322   1
  -4  -2 -11 23.1929 7.49961   2
  -4  -2 -11 29.1785 8.73600  -2
  -4  -2 -11 29.1785 8.73600   1
   4   2  11 41.8576 5.56373   2
   4   2  11 49.8009 6.15947   1
   4   2  11 98.6699 13.6391  -2
   4   2  11 98.6699 13.6391   1
  -5  -2 -11 459.113 20.2129  -2
  -5  -2 -11 459.113 20.2129   1
  -5  -2 -11 241.082 13.7878   1
  -5  -2 -11 221.196 13.9427   2
   5   2  11 421.609 25.7330  -2
   5   2  11 421.609 25.7330   1
   5   2  11 208.523 11.5676   2
   5   2  11 239.404 12.8291   1
  -6  -2 -11 154.592 13.3783   2
  -6  -2 -11 160.350 12.4047   1
  -6  -2 -11 340.961 22.6469  -2
  -6  -2 -11 340.961 22.6469   1
   6   2  11 156.403 12.2695   2
   6   2  11 318.126 16.5172  -2
   6   2  11 318.126 16.5172   1
   6   2  11 167.212 12.8216   1
   8  -3 -11 282.849 17.3560   1
   8  -3 -11 259.453 12.9600   2
  -8   3  11 281.249 16.7947   2
  -8   3  11 281.579 26.1663   1
   7  -3 -11 112.730 7.40367   1
   7  -3 -11 114.175 7.09342   2
  -7   3  11 111.286 8.82705   1
  -7   3  11 106.376 9.58675   2
   6  -3 -11 150.582 7.07303   1
   6  -3 -11 146.066 6.80867   2
  -6   3  11 139.577 9.04149   1
  -6   3  11 139.309 8.59413   2
   5  -3 -11 32.5150 4.43350   1
   5  -3 -11 34.1134 3.43398   2
  -5   3  11 28.8670 5.43679   2
  -5   3  11 29.1069 6.10777   1
   4  -3 -11 37.1270 3.53492   2
   4  -3 -11 36.1665 3.59625   1
  -4   3  11 44.4652 5.48393   1
  -4   3  11 32.2489 5.05456   2
   3  -3 -11 26.5677 2.60463   1
   3  -3 -11 28.0027 2.60120   2
  -3   3  11 36.9283 4.77567   1
  -3   3  11 37.4732 4.42637   2
   2  -3 -11 1193.23 21.8534   1
   2  -3 -11 1120.00 22.2920   2
  -2   3  11 1187.45 24.9424   2
  -2   3  11 1303.93 30.1983   1
   1  -3 -11 2216.33 36.8286   1
   1  -3 -11 2043.39 33.8933   2
  -1   3  11 1902.52 43.0177   2
  -1   3  11 2089.49 41.0409   1
   0  -3 -11 24.0071 2.82732   1
   0  -3 -11 27.5252 3.33923   2
   0   3  11 40.3686 2.89796   2
   0   3  11 43.8887 3.85108   1
  -1  -3 -11 612.988 12.7588   1
  -1  -3 -11 586.466 12.0550   2
   1   3  11 553.270 15.0737   2
   1   3  11 602.354 13.9945   1
  -2  -3 -11 229.086 8.73753   1
  -2  -3 -11 218.023 7.62686   2
   2   3  11 215.925 6.78110   2
   2   3  11 228.943 7.49906   1
  -3  -3 -11 155.732 7.14069   1
  -3  -3 -11 134.169 6.91641   2
  -3  -3 -11 263.746 26.0538  -2
  -3  -3 -11 263.746 26.0538   1
   3   3  11 136.021 7.74219   2
   3   3  11 129.151 7.47825   1
   3   3  11 264.732 19.2756  -2
   3   3  11 264.732 19.2756   1
  -4  -3 -11 183.404 11.6971   1
  -4  -3 -11 193.437 12.6019   2
  -4  -3 -11 409.706 18.2182  -2
  -4  -3 -11 409.706 18.2182   1
   4   3  11 359.322 21.4700  -2
   4   3  11 359.322 21.4700   1
   4   3  11 199.411 8.19930   2
   4   3  11 208.326 8.21765   1
  -5  -3 -11 83.9136 9.48711   1
  -5  -3 -11 85.3322 10.4171   2
  -5  -3 -11 182.989 13.1740  -2
  -5  -3 -11 182.989 13.1740   1
   5   3  11 71.0399 6.83668   2
   5   3  11 150.188 14.7751  -2
   5   3  11 150.188 14.7751   1
   5   3  11 75.3272 7.29203   1
  -6  -3 -11 3.16206 11.7670   1
  -6  -3 -11 -12.601 22.6548  -2
  -6  -3 -11 -12.601 22.6548   1
  -6  -3 -11 10.9532 14.4417   2
   6   3  11 -0.4863 7.61538   2
   6   3  11 6.89270 11.1071  -2
   6   3  11 6.89270 11.1071   1
   6   3  11 16.2693 6.58484   1
   7  -4 -11 53.7854 6.45796   2
   7  -4 -11 52.1775 7.68581   1
  -7   4  11 35.8340 10.2770   1
  -7   4  11 30.9286 9.74770   2
   6  -4 -11 207.485 9.03146   2
   6  -4 -11 208.385 10.1018   1
  -6   4  11 235.006 10.9007   2
  -6   4  11 235.362 12.2478   1
   5  -4 -11 320.341 10.0617   1
   5  -4 -11 292.616 9.35056   2
  -5   4  11 277.164 11.1811   1
  -5   4  11 268.441 11.5320   2
   4  -4 -11 218.378 7.40920   1
   4  -4 -11 207.095 6.20481   2
  -4   4  11 213.601 8.57302   2
  -4   4  11 223.480 9.88507   1
   3  -4 -11 119.341 4.57676   2
   3  -4 -11 134.590 4.97756   1
  -3   4  11 171.493 8.08354   1
  -3   4  11 165.314 7.60815   2
   2  -4 -11 26.8981 3.30881   1
   2  -4 -11 24.2048 3.20133   2
  -2   4  11 24.1835 3.81945   2
  -2   4  11 33.0228 4.22973   1
   1  -4 -11 212.579 6.24357   2
   1  -4 -11 232.811 6.63421   1
  -1   4  11 251.415 7.77097   1
  -1   4  11 248.997 8.25588   2
   0  -4 -11 1093.52 22.4285   1
   0  -4 -11 1053.40 22.1905   2
   0   4  11 939.772 25.2804   2
   0   4  11 1038.13 29.7961   1
  -1  -4 -11 400.912 11.1983   2
  -1  -4 -11 419.696 12.3845   1
   1   4  11 460.209 13.7957   2
   1   4  11 502.802 23.1021   1
  -2  -4 -11 42.7071 4.83088   1
  -2  -4 -11 31.4446 4.06876   2
   2   4  11 51.3745 6.32634   1
   2   4  11 52.0901 5.78893   2
  -3  -4 -11 51.3752 5.12748   1
  -3  -4 -11 48.2362 5.01462   2
   3   4  11 38.4740 3.70356   2
   3   4  11 40.8684 4.84521   1
  -4  -4 -11 60.5569 6.22358   1
  -4  -4 -11 54.8414 5.89162   2
   4   4  11 53.6162 7.17210   1
   4   4  11 66.8132 6.20311   2
  -5  -4 -11 94.5530 9.48414   2
  -5  -4 -11 128.136 10.6217   1
  -5  -4 -11 227.187 31.3421  -2
  -5  -4 -11 227.187 31.3421   1
   5   4  11 86.3312 11.4286   1
   5   4  11 85.9209 12.1345   2
   5   4  11 169.251 25.1247  -2
   5   4  11 169.251 25.1247   1
   6  -5 -11 2.62073 6.10240   1
   6  -5 -11 3.35272 5.72395   2
  -6   5  11 12.8136 7.49969   2
  -6   5  11 26.1497 9.20647   1
   5  -5 -11 2.26559 4.73327   1
   5  -5 -11 5.40020 4.78198   2
  -5   5  11 3.38652 5.62363   2
  -5   5  11 9.95627 5.88173   1
   4  -5 -11 29.6898 4.48273   1
   4  -5 -11 35.8453 3.80827   2
  -4   5  11 31.5335 7.58394   1
  -4   5  11 42.1146 5.58742   2
   3  -5 -11 432.750 9.96137   1
   3  -5 -11 418.660 10.0057   2
  -3   5  11 394.987 15.4064   2
  -3   5  11 399.863 17.8572   1
   2  -5 -11 297.972 6.98351   2
   2  -5 -11 311.920 8.65641   1
  -2   5  11 344.478 13.6254   2
  -2   5  11 371.798 15.1441   1
   1  -5 -11 120.442 5.33244   2
   1  -5 -11 125.288 5.24590   1
  -1   5  11 131.090 8.05422   2
  -1   5  11 141.674 8.64741   1
   0  -5 -11 17.5574 3.89093   1
   0  -5 -11 17.4501 3.45108   2
   0   5  11 11.7024 5.44681   1
   0   5  11 20.8416 5.81219   2
  -1  -5 -11 11.4051 4.30508   1
  -1  -5 -11 5.27640 4.43165   2
   1   5  11 6.71835 6.90068   2
   1   5  11 5.16395 6.06546   1
  -2  -5 -11 224.083 8.60495   2
  -2  -5 -11 226.859 9.24297   1
   2   5  11 248.845 12.4976   2
   2   5  11 267.669 11.4375   1
  -3  -5 -11 98.5379 6.53353   2
  -3  -5 -11 108.131 6.91727   1
   3   5  11 123.803 7.92360   2
   3   5  11 123.318 8.68582   1
  -4  -5 -11 110.797 7.79155   1
  -4  -5 -11 94.0278 7.42535   2
   4   5  11 95.4775 10.0784   2
   4   5  11 106.848 9.64089   1
   4  -6 -11 171.462 10.6018   1
   4  -6 -11 171.527 9.00094   2
  -4   6  11 216.068 21.4222   2
  -4   6  11 240.013 26.7927   1
   3  -6 -11 16.7387 3.33121   2
   3  -6 -11 10.9903 4.15144   1
  -3   6  11 18.8794 13.3617   2
  -3   6  11 11.4542 22.1495   1
   2  -6 -11 13.1993 3.03810   1
   2  -6 -11 10.1094 3.71358   2
  -2   6  11 10.4554 7.40446   1
  -2   6  11 8.23506 9.37041   2
   1  -6 -11 24.0070 4.50132   1
   1  -6 -11 19.8805 3.89446   2
  -1   6  11 24.6768 7.10988   2
  -1   6  11 19.1823 8.07846   1
   0  -6 -11 160.874 7.49410   1
   0  -6 -11 146.000 7.39260   2
   0   6  11 154.428 9.76137   2
   0   6  11 156.396 12.8566   1
  -1  -6 -11 177.665 7.70195   2
  -1  -6 -11 189.070 8.62150   1
   1   6  11 211.236 17.6570   1
   1   6  11 189.305 13.5972   2
  -2  -6 -11 26.9247 5.06047   2
  -2  -6 -11 28.7927 5.50971   1
   2   6  11 34.3713 8.23271   2
   2   6  11 26.1300 7.86539   1
  -8   0  12 4.38882 6.54201   1
  -8   0  12 6.38701 5.82221   2
  -7   0  12 6.56771 5.30161   1
  -7   0  12 10.7509 5.06669   2
  -6   0  12 28.2053 5.43675   1
  -6   0  12 26.6758 4.51723   2
  -5   0  12 304.963 9.50352   2
  -5   0  12 318.665 10.5848   1
  -4   0  12 841.426 18.7674   1
  -4   0  12 812.745 16.9441   2
  -3   0  12 736.481 15.4928   2
  -3   0  12 786.749 15.9046   1
  -2   0  12 2.06443 2.08759   1
  -2   0  12 1.59578 1.95213   2
  -1   0  12 146.438 4.56303   1
  -1   0  12 136.029 4.55758   2
   0   0  12 340.689 8.19081   1
   0   0  12 311.889 7.55231   2
   1   0  12 748.062 14.4629   1
   1   0  12 699.633 13.5730   2
   2   0  12 261.994 8.19390   1
   2   0  12 240.690 8.02398   2
   3   0  12 178.403 7.29307   1
   3   0  12 161.035 6.70905   2
   4   0  12 1.44130 6.18767   1
   4   0  12 2.25138 11.0545  -2
   4   0  12 2.25138 11.0545   1
   4   0  12 1.02447 5.55272   2
   5   0  12 127.884 12.1429   1
   5   0  12 108.491 10.5160   2
   5   0  12 221.223 15.1131  -2
   5   0  12 221.223 15.1131   1
   6   0  12 368.793 17.6523  -2
   6   0  12 368.793 17.6523   1
   6   0  12 210.383 19.2605   2
   6   0  12 272.745 31.0187   1
   8  -1 -12 147.507 10.9154   1
   8  -1 -12 135.910 10.0350   2
  -8   1  12 143.017 10.8139   1
  -8   1  12 130.608 9.75176   2
   7  -1 -12 99.2186 6.00693   1
   7  -1 -12 110.839 7.45119   2
  -7   1  12 112.954 6.51534   2
  -7   1  12 122.916 8.38521   1
   6  -1 -12 584.962 18.3088   2
   6  -1 -12 598.297 15.4902   1
  -6   1  12 468.176 13.2364   2
  -6   1  12 503.867 16.0734   1
   5  -1 -12 321.500 11.6981   2
   5  -1 -12 325.570 10.2264   1
  -5   1  12 373.681 10.5467   1
  -5   1  12 358.571 10.3707   2
   4  -1 -12 294.377 8.28814   2
   4  -1 -12 319.551 8.60901   1
  -4   1  12 255.373 7.78453   2
  -4   1  12 260.813 8.56903   1
   3  -1 -12 571.481 12.0359   2
   3  -1 -12 606.140 12.9110   1
  -3   1  12 597.116 12.3842   1
  -3   1  12 572.036 12.0784   2
   2  -1 -12 722.093 15.5819   2
   2  -1 -12 785.029 16.5771   1
  -2   1  12 941.671 17.7158   1
  -2   1  12 885.229 15.2830   2
   1  -1 -12 427.842 9.12108   2
   1  -1 -12 453.247 9.97951   1
  -1   1  12 382.719 8.80529   2
  -1   1  12 423.606 9.34036   1
   0  -1 -12 139.459 4.53129   2
   0  -1 -12 159.642 5.01561   1
   0   1  12 157.012 5.61223   1
   0   1  12 138.670 4.90582   2
  -1  -1 -12 120.551 4.29267   2
  -1  -1 -12 120.149 4.48679   1
   1   1  12 115.543 4.98881   2
   1   1  12 121.748 4.96044   1
  -2  -1 -12 197.342 6.96484   2
  -2  -1 -12 204.934 7.14344   1
   2   1  12 246.397 7.34520   1
   2   1  12 524.530 41.9065  -2
   2   1  12 524.530 41.9065   1
   2   1  12 226.780 7.74106   2
  -3  -1 -12 347.846 11.1797   2
  -3  -1 -12 373.591 11.4692   1
  -3  -1 -12 711.794 52.1871  -2
  -3  -1 -12 711.794 52.1871   1
   3   1  12 346.146 13.3157   2
   3   1  12 702.636 38.6310  -2
   3   1  12 702.636 38.6310   1
   3   1  12 354.871 13.9137   1
  -4  -1 -12 394.218 18.5502   2
  -4  -1 -12 442.418 21.0804   1
  -4  -1 -12 835.784 26.9485  -2
  -4  -1 -12 835.784 26.9485   1
   4   1  12 786.731 33.8658  -2
   4   1  12 786.731 33.8658   1
   4   1  12 360.873 15.9628   2
   4   1  12 383.680 17.4349   1
  -5  -1 -12 140.929 11.7006   1
  -5  -1 -12 126.056 12.0469   2
  -5  -1 -12 298.933 19.3444  -2
  -5  -1 -12 298.933 19.3444   1
   5   1  12 344.628 19.5101  -2
   5   1  12 344.628 19.5101   1
   5   1  12 180.026 12.0938   1
   5   1  12 171.088 10.3155   2
  -6  -1 -12 52.1125 11.5912  -2
  -6  -1 -12 52.1125 11.5912   1
  -6  -1 -12 28.1179 9.60148   1
  -6  -1 -12 23.7783 10.9643   2
   6   1  12 19.8906 7.59484   2
   6   1  12 28.6619 16.7705  -2
   6   1  12 28.6619 16.7705   1
   6   1  12 12.4804 9.12521   1
   8  -2 -12 91.9226 11.5539   1
   8  -2 -12 73.6610 9.24473   2
  -8   2  12 116.175 11.3506   2
  -8   2  12 110.498 9.40368   1
   7  -2 -12 38.5906 5.71854   1
   7  -2 -12 40.1071 4.97796   2
  -7   2  12 54.5738 5.97932   1
  -7   2  12 41.5151 4.05627   2
   6  -2 -12 165.844 6.04362   2
   6  -2 -12 176.367 6.50004   1
  -6   2  12 141.444 7.22812   1
  -6   2  12 128.658 7.11887   2
   5  -2 -12 355.645 8.97576   2
   5  -2 -12 378.575 9.53167   1
  -5   2  12 300.780 10.7140   1
  -5   2  12 286.393 11.4133   2
   4  -2 -12 1272.41 27.3379   1
   4  -2 -12 1170.13 27.8907   2
  -4   2  12 1282.10 26.7005   1
  -4   2  12 1194.84 25.6630   2
   3  -2 -12 213.283 6.81174   2
   3  -2 -12 229.522 7.45187   1
  -3   2  12 297.693 8.60502   2
  -3   2  12 321.959 8.06451   1
   2  -2 -12 111.267 4.17784   1
   2  -2 -12 106.959 4.04040   2
  -2   2  12 101.909 4.23783   1
  -2   2  12 93.7015 4.15786   2
   1  -2 -12 69.1858 3.61460   2
   1  -2 -12 75.9037 3.81437   1
  -1   2  12 66.1444 3.86937   1
  -1   2  12 59.0840 3.43399   2
   0  -2 -12 114.770 4.09336   2
   0  -2 -12 119.110 4.52549   1
   0   2  12 83.5262 3.89658   1
   0   2  12 73.3707 3.63954   2
  -1  -2 -12 538.112 14.5293   2
  -1  -2 -12 577.554 15.6482   1
   1   2  12 671.265 14.0034   2
   1   2  12 703.474 14.2383   1
  -2  -2 -12 338.223 9.54091   1
  -2  -2 -12 327.249 8.76065   2
   2   2  12 318.389 9.19688   1
   2   2  12 310.895 8.89898   2
  -3  -2 -12 161.540 9.47947   1
  -3  -2 -12 135.442 11.1638   2
  -3  -2 -12 305.402 15.8997  -2
  -3  -2 -12 305.402 15.8997   1
   3   2  12 139.201 7.31279   2
   3   2  12 143.064 8.50435   1
   3   2  12 296.745 16.6977  -2
   3   2  12 296.745 16.6977   1
  -4  -2 -12 56.5812 9.46037  -2
  -4  -2 -12 56.5812 9.46037   1
  -4  -2 -12 21.6619 8.33318   2
  -4  -2 -12 18.5679 6.90041   1
   4   2  12 28.4843 6.32165   2
   4   2  12 47.6296 8.21095   1
   4   2  12 54.2630 22.0265  -2
   4   2  12 54.2630 22.0265   1
  -5  -2 -12 370.404 18.7505   2
  -5  -2 -12 848.670 30.8402  -2
  -5  -2 -12 848.670 30.8402   1
  -5  -2 -12 428.511 18.8700   1
   5   2  12 760.416 34.2069  -2
   5   2  12 760.416 34.2069   1
   5   2  12 370.958 17.5818   1
   5   2  12 345.474 16.1059   2
  -6  -2 -12 168.678 21.0061   2
  -6  -2 -12 181.161 19.2604   1
  -6  -2 -12 338.930 22.4035  -2
  -6  -2 -12 338.930 22.4035   1
   6   2  12 346.474 19.9113  -2
   6   2  12 346.474 19.9113   1
   6   2  12 186.006 14.0025   1
   6   2  12 175.067 13.4223   2
   7  -3 -12 296.602 12.1430   1
   7  -3 -12 280.223 12.0889   2
  -7   3  12 286.390 13.5357   1
  -7   3  12 291.879 18.5428   2
   6  -3 -12 235.319 9.66748   1
   6  -3 -12 238.214 9.65345   2
  -6   3  12 230.465 12.4519   1
  -6   3  12 223.061 11.0518   2
   5  -3 -12 13.3160 3.18655   2
   5  -3 -12 11.7992 3.60864   1
  -5   3  12 12.5437 5.30209   2
  -5   3  12 14.7553 5.93578   1
   4  -3 -12 65.7274 4.42782   1
   4  -3 -12 61.0183 4.03808   2
  -4   3  12 79.8806 6.78190   1
  -4   3  12 62.9732 6.08718   2
   3  -3 -12 711.689 14.4739   1
   3  -3 -12 679.324 14.4057   2
  -3   3  12 660.045 17.6633   1
  -3   3  12 619.978 20.4072   2
   2  -3 -12 439.805 10.6398   1
   2  -3 -12 398.865 10.1266   2
  -2   3  12 485.776 10.9704   1
  -2   3  12 456.203 13.0088   2
   1  -3 -12 22.5954 2.87544   2
   1  -3 -12 27.5022 3.20099   1
  -1   3  12 43.7229 3.54335   1
  -1   3  12 40.5689 4.58972   2
   0  -3 -12 113.898 4.89831   1
   0  -3 -12 109.461 5.37778   2
   0   3  12 164.015 8.43357   1
   0   3  12 153.600 5.42850   2
  -1  -3 -12 176.279 6.68427   2
  -1  -3 -12 193.471 7.72953   1
   1   3  12 192.225 7.00574   1
   1   3  12 180.680 6.99559   2
  -2  -3 -12 62.0529 4.96115   1
  -2  -3 -12 63.0598 4.54167   2
   2   3  12 59.2741 4.41539   1
   2   3  12 51.2243 3.96909   2
  -3  -3 -12 216.755 9.25043   2
  -3  -3 -12 243.680 11.6060   1
  -3  -3 -12 530.632 40.7642  -2
  -3  -3 -12 530.632 40.7642   1
   3   3  12 221.200 8.80020   1
   3   3  12 200.412 7.33342   2
  -4  -3 -12 570.882 22.0410  -2
  -4  -3 -12 570.882 22.0410   1
  -4  -3 -12 313.198 15.2873   1
  -4  -3 -12 272.138 15.6304   2
   4   3  12 277.616 9.49382   2
   4   3  12 306.978 11.6171   1
   4   3  12 604.327 32.9544  -2
   4   3  12 604.327 32.9544   1
  -5  -3 -12 261.463 14.8179   1
  -5  -3 -12 567.622 24.1130  -2
  -5  -3 -12 567.622 24.1130   1
  -5  -3 -12 276.076 16.9288   2
   5   3  12 263.693 14.0761   1
   5   3  12 251.331 13.2295   2
   5   3  12 525.372 25.1657  -2
   5   3  12 525.372 25.1657   1
  -6  -3 -12 -0.6237 10.1183   1
  -6  -3 -12 13.9327 21.3744  -2
  -6  -3 -12 13.9327 21.3744   1
  -6  -3 -12 3.49832 11.0123   2
   6   3  12 48.2478 23.7713  -2
   6   3  12 48.2478 23.7713   1
   6   3  12 11.9207 14.8391   1
   6   3  12 -6.6475 11.7523   2
   6  -4 -12 163.957 8.48677   2
   6  -4 -12 189.785 10.0479   1
  -6   4  12 228.757 11.6702   2
  -6   4  12 221.147 13.3185   1
   5  -4 -12 420.696 12.5565   2
   5  -4 -12 444.513 13.4615   1
  -5   4  12 513.694 16.3931   2
  -5   4  12 541.576 17.5150   1
   4  -4 -12 361.522 8.92197   2
   4  -4 -12 391.997 11.1642   1
  -4   4  12 325.645 12.1041   1
  -4   4  12 315.554 12.7171   2
   3  -4 -12 155.102 5.42769   2
   3  -4 -12 168.394 5.88076   1
  -3   4  12 109.660 6.69930   2
  -3   4  12 115.851 7.10650   1
   2  -4 -12 64.4996 4.18107   2
   2  -4 -12 79.1115 4.23908   1
  -2   4  12 62.1871 4.92309   2
  -2   4  12 70.9796 5.70630   1
   1  -4 -12 21.6126 3.12916   1
   1  -4 -12 15.2496 2.43914   2
  -1   4  12 10.1627 4.41871   2
  -1   4  12 13.2495 4.77208   1
   0  -4 -12 116.651 5.96711   1
   0  -4 -12 104.995 5.58117   2
   0   4  12 114.928 6.14057   2
   0   4  12 107.439 8.47534   1
  -1  -4 -12 253.389 8.65514   2
  -1  -4 -12 268.870 8.49112   1
   1   4  12 256.473 9.03186   2
   1   4  12 286.129 11.8483   1
  -2  -4 -12 282.857 9.15745   1
  -2  -4 -12 259.077 8.28709   2
   2   4  12 245.150 8.35929   1
   2   4  12 229.378 11.4223   2
  -3  -4 -12 46.4434 5.30801   2
  -3  -4 -12 56.4813 5.87275   1
   3   4  12 57.9514 5.21690   2
   3   4  12 67.1094 6.46158   1
  -4  -4 -12 15.0464 5.39792   2
  -4  -4 -12 18.6936 5.68795   1
   4   4  12 2.64919 6.36031   1
   4   4  12 7.90570 6.09852   2
  -5  -4 -12 69.9627 10.7499   2
  -5  -4 -12 87.8051 11.3947   1
  -5  -4 -12 196.117 29.3300  -2
  -5  -4 -12 196.117 29.3300   1
   5   4  12 74.9945 17.0955   2
   5   4  12 154.631 27.2738  -2
   5   4  12 154.631 27.2738   1
   5   4  12 85.4043 16.6443   1
   5  -5 -12 116.272 7.72677   2
   5  -5 -12 145.168 9.37549   1
  -5   5  12 126.813 12.1334   1
  -5   5  12 108.763 9.72764   2
   4  -5 -12 98.0647 4.74938   2
   4  -5 -12 104.492 6.62844   1
  -4   5  12 101.885 6.79680   2
  -4   5  12 117.884 11.6055   1
   3  -5 -12 149.247 5.24385   2
   3  -5 -12 155.518 7.01891   1
  -3   5  12 139.023 9.00572   2
  -3   5  12 124.723 10.0849   1
   2  -5 -12 191.684 5.68003   2
   2  -5 -12 212.459 7.58444   1
  -2   5  12 204.484 11.7667   2
  -2   5  12 212.134 14.0092   1
   1  -5 -12 420.355 11.2848   2
   1  -5 -12 458.619 13.1266   1
  -1   5  12 416.761 20.3277   1
  -1   5  12 402.626 19.7706   2
   0  -5 -12 24.5315 4.93261   2
   0  -5 -12 21.7442 4.67547   1
   0   5  12 8.55998 6.89996   2
   0   5  12 3.67670 6.79063   1
  -1  -5 -12 10.2815 4.41963   2
  -1  -5 -12 3.93213 4.59259   1
   1   5  12 0.87452 6.31313   1
   1   5  12 4.36230 6.52330   2
  -2  -5 -12 14.8832 5.14068   1
  -2  -5 -12 19.5905 4.99579   2
   2   5  12 6.33010 7.58551   2
   2   5  12 21.8172 5.81482   1
  -3  -5 -12 195.602 11.1891   1
  -3  -5 -12 155.414 10.8135   2
   3   5  12 193.664 9.89186   2
   3   5  12 202.362 12.3697   1
  -4  -5 -12 115.232 9.71125   1
  -4  -5 -12 105.263 9.27758   2
   4   5  12 81.4580 13.1571   2
   4   5  12 113.134 14.3410   1
   3  -6 -12 93.3270 6.13019   1
   3  -6 -12 88.9550 6.27113   2
  -3   6  12 117.002 22.8170   1
  -3   6  12 103.401 16.7553   2
   2  -6 -12 22.2373 5.09489   2
   2  -6 -12 30.9347 5.04748   1
  -2   6  12 28.0346 11.4599   2
  -2   6  12 20.9560 12.4551   1
   1  -6 -12 34.8557 5.27861   1
   1  -6 -12 30.9735 4.66237   2
  -1   6  12 28.3108 10.7490   2
  -1   6  12 20.0956 14.3981   1
   0  -6 -12 201.443 9.03517   1
   0  -6 -12 194.875 8.49865   2
   0   6  12 205.983 16.7311   2
   0   6  12 218.407 18.3067   1
  -1  -6 -12 89.0517 6.46271   2
  -1  -6 -12 103.092 6.82287   1
   1   6  12 134.862 14.9852   1
   1   6  12 117.659 13.1791   2
  -8   0  13 377.124 14.2486   2
  -8   0  13 419.547 15.7105   1
  -7   0  13 23.5172 5.45689   2
  -7   0  13 13.5045 5.65215   1
  -6   0  13 414.478 12.2641   2
  -6   0  13 422.676 13.1671   1
  -5   0  13 29.3177 4.40103   2
  -5   0  13 33.4052 5.12457   1
  -4   0  13 583.401 15.4156   1
  -4   0  13 553.352 15.0887   2
  -3   0  13 709.978 16.5733   1
  -3   0  13 674.419 14.6288   2
  -2   0  13 43.4963 3.27084   1
  -2   0  13 42.8287 3.06845   2
  -1   0  13 15.2399 2.75710   1
  -1   0  13 15.1380 2.62164   2
   0   0  13 106.367 4.71977   1
   0   0  13 103.107 4.51905   2
   1   0  13 1006.82 20.5163   2
   1   0  13 1096.76 22.2292   1
   2   0  13 237.758 8.39669   2
   2   0  13 236.175 8.30626   1
   3   0  13 115.193 5.72065   2
   3   0  13 137.089 6.63653   1
   4   0  13 3.27317 5.45140   2
   4   0  13 0.54196 6.02007   1
   4   0  13 2.34038 13.2185  -2
   4   0  13 2.34038 13.2185   1
   5   0  13 41.8723 7.32374   2
   5   0  13 58.8149 9.61966   1
   5   0  13 78.5259 18.3990  -2
   5   0  13 78.5259 18.3990   1
   6   0  13 95.9213 13.1882   1
   6   0  13 99.3722 10.3727   2
   6   0  13 122.368 23.2666  -2
   6   0  13 122.368 23.2666   1
   8  -1 -13 224.063 12.4833   1
   8  -1 -13 200.069 13.6337   2
  -8   1  13 227.545 13.2732   2
  -8   1  13 262.774 12.4627   1
   7  -1 -13 468.102 13.9065   2
   7  -1 -13 495.380 15.6294   1
  -7   1  13 517.754 17.1322   2
  -7   1  13 552.972 17.5475   1
   6  -1 -13 137.360 6.89274   2
   6  -1 -13 154.969 8.39218   1
  -6   1  13 119.723 6.29308   2
  -6   1  13 134.796 8.26404   1
   5  -1 -13 224.176 8.43759   1
   5  -1 -13 217.921 8.58715   2
  -5   1  13 222.549 8.27925   2
  -5   1  13 242.731 9.26960   1
   4  -1 -13 38.8971 5.54779   1
   4  -1 -13 34.7868 3.80935   2
  -4   1  13 27.4723 3.73281   2
  -4   1  13 37.0997 4.46115   1
   3  -1 -13 151.817 6.27929   1
   3  -1 -13 145.705 6.05334   2
  -3   1  13 149.499 6.33118   1
  -3   1  13 147.939 6.10165   2
   2  -1 -13 364.644 9.34882   1
   2  -1 -13 355.016 8.73511   2
  -2   1  13 378.821 8.75982   2
  -2   1  13 392.923 9.20134   1
   1  -1 -13 616.976 12.9765   2
   1  -1 -13 659.737 14.6674   1
  -1   1  13 591.067 12.4173   1
  -1   1  13 536.692 11.7678   2
   0  -1 -13 302.190 8.08128   2
   0  -1 -13 326.573 8.75967   1
   0   1  13 303.010 7.75029   2
   0   1  13 331.066 8.21752   1
  -1  -1 -13 149.270 5.56603   2
  -1  -1 -13 160.838 6.22501   1
   1   1  13 176.056 6.19392   1
   1   1  13 159.163 5.92001   2
  -2  -1 -13 75.4903 4.80493   2
  -2  -1 -13 83.3886 5.16719   1
   2   1  13 78.2854 4.93564   2
   2   1  13 87.6323 5.07391   1
  -3  -1 -13 257.090 8.53079   1
  -3  -1 -13 244.608 8.21429   2
   3   1  13 263.561 10.6867   1
   3   1  13 255.309 11.4812   2
   3   1  13 536.717 44.4187  -2
   3   1  13 536.717 44.4187   1
  -4  -1 -13 363.940 18.3057   2
  -4  -1 -13 775.477 29.6846  -2
  -4  -1 -13 775.477 29.6846   1
  -4  -1 -13 383.112 17.8508   1
   4   1  13 404.327 17.9584   1
   4   1  13 366.422 16.1920   2
   4   1  13 751.388 33.3216  -2
   4   1  13 751.388 33.3216   1
  -5  -1 -13 44.9558 10.5256   2
  -5  -1 -13 85.3676 11.2556  -2
  -5  -1 -13 85.3676 11.2556   1
  -5  -1 -13 48.8452 9.00133   1
   5   1  13 39.9776 8.54821   2
   5   1  13 13.4879 8.60940   1
   5   1  13 52.3382 15.3103  -2
   5   1  13 52.3382 15.3103   1
  -6  -1 -13 103.636 12.7592   1
  -6  -1 -13 93.3589 13.9054   2
  -6  -1 -13 186.489 22.6294  -2
  -6  -1 -13 186.489 22.6294   1
   6   1  13 76.3743 12.4284   1
   6   1  13 84.5515 11.0109   2
   6   1  13 185.316 31.8531  -2
   6   1  13 185.316 31.8531   1
   7  -2 -13 5.02453 6.09986   1
   7  -2 -13 8.00610 5.71330   2
  -7   2  13 0.90056 4.32492   2
  -7   2  13 10.1060 6.46337   1
   6  -2 -13 37.3715 4.56133   2
   6  -2 -13 37.8083 4.42994   1
  -6   2  13 19.7301 4.82514   2
  -6   2  13 33.4367 5.45983   1
   5  -2 -13 301.373 9.89095   1
   5  -2 -13 285.706 9.15901   2
  -5   2  13 362.630 10.8810   2
  -5   2  13 357.280 11.0258   1
   4  -2 -13 355.351 10.8743   2
   4  -2 -13 364.916 10.7836   1
  -4   2  13 392.277 11.8748   2
  -4   2  13 407.538 11.5912   1
   3  -2 -13 229.893 8.54457   2
   3  -2 -13 254.018 8.45703   1
  -3   2  13 226.801 7.66750   1
  -3   2  13 224.086 7.35870   2
   2  -2 -13 354.018 8.85616   1
   2  -2 -13 319.778 7.82431   2
  -2   2  13 298.443 8.49671   2
  -2   2  13 327.132 8.55067   1
   1  -2 -13 24.4675 3.17791   2
   1  -2 -13 22.1210 3.56326   1
  -1   2  13 17.9496 3.19309   2
  -1   2  13 19.9862 3.53287   1
   0  -2 -13 161.391 5.68890   2
   0  -2 -13 167.167 6.14123   1
   0   2  13 135.324 5.93695   1
   0   2  13 124.081 4.96477   2
  -1  -2 -13 511.665 15.6116   2
  -1  -2 -13 550.992 15.5642   1
   1   2  13 557.802 13.6990   1
   1   2  13 539.946 13.0630   2
  -2  -2 -13 274.047 9.99120   1
  -2  -2 -13 271.349 8.38372   2
   2   2  13 311.604 9.47953   2
   2   2  13 323.527 9.36820   1
  -3  -2 -13 127.131 7.49716   2
  -3  -2 -13 142.705 7.58685   1
  -3  -2 -13 274.962 21.2915  -2
  -3  -2 -13 274.962 21.2915   1
   3   2  13 168.341 9.30514   1
   3   2  13 149.168 7.59041   2
   3   2  13 334.789 23.0394  -2
   3   2  13 334.789 23.0394   1
  -4  -2 -13 30.1105 9.38537   2
  -4  -2 -13 90.4620 12.8919  -2
  -4  -2 -13 90.4620 12.8919   1
  -4  -2 -13 44.9054 8.30957   1
   4   2  13 37.2701 7.00181   2
   4   2  13 58.5783 11.9987  -2
   4   2  13 58.5783 11.9987   1
   4   2  13 30.7672 7.33609   1
  -5  -2 -13 78.0049 11.3949   2
  -5  -2 -13 75.0845 10.1380   1
  -5  -2 -13 137.313 16.8608  -2
  -5  -2 -13 137.313 16.8608   1
   5   2  13 83.0240 10.7524   1
   5   2  13 155.252 14.6558  -2
   5   2  13 155.252 14.6558   1
   5   2  13 63.6688 10.0055   2
  -6  -2 -13 43.8401 10.6998  -2
  -6  -2 -13 43.8401 10.6998   1
  -6  -2 -13 19.2756 11.8694   1
  -6  -2 -13 17.1887 12.9447   2
   6   2  13 17.2541 13.5435  -2
   6   2  13 17.2541 13.5435   1
   6   2  13 23.6874 9.96420   2
   6   2  13 21.4844 19.4723   1
   7  -3 -13 86.2351 8.85487   1
   7  -3 -13 91.0105 8.47055   2
  -7   3  13 105.165 12.3298   2
  -7   3  13 98.6337 10.5003   1
   6  -3 -13 195.786 8.30274   1
   6  -3 -13 180.721 8.68854   2
  -6   3  13 183.473 11.4176   2
  -6   3  13 214.943 12.2485   1
   5  -3 -13 101.171 5.62823   1
   5  -3 -13 86.0331 4.75891   2
  -5   3  13 101.207 8.50666   1
  -5   3  13 83.8870 8.37350   2
   4  -3 -13 14.0842 3.82131   1
   4  -3 -13 20.2259 4.34825   2
  -4   3  13 17.3371 7.76779   2
  -4   3  13 19.7773 6.31608   1
   3  -3 -13 31.6141 4.31352   1
   3  -3 -13 27.6293 3.35837   2
  -3   3  13 32.1086 6.28471   2
  -3   3  13 31.5985 4.90300   1
   2  -3 -13 256.946 7.07341   2
   2  -3 -13 268.010 7.87514   1
  -2   3  13 290.919 7.91133   1
  -2   3  13 251.648 8.93515   2
   1  -3 -13 624.730 14.1497   1
   1  -3 -13 578.703 12.9321   2
  -1   3  13 586.835 12.9952   2
  -1   3  13 633.588 14.8559   1
   0  -3 -13 175.197 7.94256   2
   0  -3 -13 197.379 6.93503   1
   0   3  13 192.585 6.94015   2
   0   3  13 204.690 6.88556   1
  -1  -3 -13 124.490 5.90437   2
  -1  -3 -13 137.869 6.38325   1
   1   3  13 100.677 6.72182   2
   1   3  13 101.252 5.70412   1
  -2  -3 -13 27.5700 5.05787   1
  -2  -3 -13 16.2716 4.40300   2
   2   3  13 12.1350 4.15053   1
   2   3  13 9.09051 3.73875   2
  -3  -3 -13 149.727 7.51864   2
  -3  -3 -13 149.929 7.45751   1
   3   3  13 150.921 6.99454   2
   3   3  13 139.796 6.77446   1
  -4  -3 -13 105.647 10.1524   1
  -4  -3 -13 219.195 14.4755  -2
  -4  -3 -13 219.195 14.4755   1
  -4  -3 -13 90.6702 10.7048   2
   4   3  13 123.488 6.37047   1
   4   3  13 115.770 5.16094   2
   4   3  13 249.179 33.2346  -2
   4   3  13 249.179 33.2346   1
  -5  -3 -13 134.858 19.6092   1
  -5  -3 -13 253.048 24.9628  -2
  -5  -3 -13 253.048 24.9628   1
  -5  -3 -13 134.651 27.9785   2
   5   3  13 123.202 10.4337   2
   5   3  13 127.214 10.4330   1
   5   3  13 280.515 16.8831  -2
   5   3  13 280.515 16.8831   1
   6  -4 -13 69.4316 8.19888   1
   6  -4 -13 73.7312 7.78181   2
  -6   4  13 76.9689 11.6523   1
  -6   4  13 63.3537 9.54232   2
   5  -4 -13 67.8874 5.82340   2
   5  -4 -13 65.2268 6.47959   1
  -5   4  13 68.6636 9.04842   1
  -5   4  13 58.6653 7.32826   2
   4  -4 -13 169.885 6.86357   1
   4  -4 -13 167.628 6.80888   2
  -4   4  13 181.939 8.96858   1
  -4   4  13 168.710 9.25008   2
   3  -4 -13 485.797 11.9907   1
   3  -4 -13 459.726 11.1923   2
  -3   4  13 522.231 14.7196   1
  -3   4  13 471.505 14.5541   2
   2  -4 -13 31.0391 3.94921   2
   2  -4 -13 35.8518 4.14509   1
  -2   4  13 17.4031 4.60623   2
  -2   4  13 14.1701 5.23788   1
   1  -4 -13 -1.6108 3.19590   1
   1  -4 -13 4.55611 3.75624   2
  -1   4  13 5.33609 4.04786   1
  -1   4  13 -2.5542 4.37294   2
   0  -4 -13 64.8028 4.79601   2
   0  -4 -13 65.0496 5.09846   1
   0   4  13 59.1591 5.80657   2
   0   4  13 57.1072 4.89701   1
  -1  -4 -13 180.237 7.08284   2
  -1  -4 -13 195.587 7.49176   1
   1   4  13 184.197 7.78201   2
   1   4  13 201.456 10.6309   1
  -2  -4 -13 304.328 10.2618   2
  -2  -4 -13 348.639 11.1215   1
   2   4  13 271.980 11.7378   1
   2   4  13 279.747 10.4790   2
  -3  -4 -13 54.0705 6.28595   1
  -3  -4 -13 60.3025 5.85831   2
   3   4  13 62.2434 6.40918   2
   3   4  13 62.8335 6.94526   1
  -4  -4 -13 44.2750 8.48426   1
  -4  -4 -13 30.8958 8.08236   2
   4   4  13 29.5571 7.60272   2
   4   4  13 22.6187 7.48761   1
   5  -5 -13 33.5612 6.39870   1
   5  -5 -13 21.8168 5.80678   2
  -5   5  13 30.6473 8.63687   2
  -5   5  13 44.8272 10.7709   1
   4  -5 -13 11.9285 5.10456   1
   4  -5 -13 10.7892 4.78158   2
  -4   5  13 8.72178 7.06259   2
  -4   5  13 3.46151 7.67051   1
   3  -5 -13 20.1035 3.78117   2
   3  -5 -13 18.2361 4.14147   1
  -3   5  13 49.8033 7.36920   2
  -3   5  13 34.5709 11.4091   1
   2  -5 -13 190.360 6.30128   2
   2  -5 -13 208.235 7.73922   1
  -2   5  13 197.017 8.24672   2
  -2   5  13 213.358 12.8958   1
   1  -5 -13 302.862 10.2874   1
   1  -5 -13 274.633 9.28221   2
  -1   5  13 228.552 12.4985   2
  -1   5  13 236.626 16.1677   1
   0  -5 -13 53.0328 5.65682   1
   0  -5 -13 59.8277 5.46924   2
   0   5  13 61.8996 9.70057   1
   0   5  13 56.2545 7.47095   2
  -1  -5 -13 27.6648 5.81235   1
  -1  -5 -13 39.4277 5.25182   2
   1   5  13 35.4045 7.62799   1
   1   5  13 21.3747 7.39994   2
  -2  -5 -13 0.86876 6.20859   1
  -2  -5 -13 9.04574 6.23466   2
   2   5  13 -4.4647 7.44351   1
   2   5  13 6.89253 9.97226   2
  -3  -5 -13 140.509 11.9404   2
  -3  -5 -13 151.310 10.4902   1
   3   5  13 145.035 17.9439   2
   3   5  13 109.994 17.1971   1
   2  -6 -13 19.8829 5.82001   1
   2  -6 -13 25.3423 5.68669   2
  -2   6  13 13.0643 12.7847   1
  -2   6  13 15.6768 11.5454   2
   1  -6 -13 3.52148 5.00366   2
   1  -6 -13 0.79109 5.97003   1
  -1   6  13 23.2152 11.9484   1
  -1   6  13 -1.9115 10.2141   2
   0  -6 -13 8.89389 5.73552   1
   0  -6 -13 20.4147 5.95258   2
   0   6  13 14.2507 10.3192   2
   0   6  13 19.6594 11.8092   1
  -8   0  14 133.061 10.4680   1
  -8   0  14 114.518 10.1920   2
  -7   0  14 86.4629 7.77170   1
  -7   0  14 86.8864 7.12387   2
  -6   0  14 10.3607 5.57180   1
  -6   0  14 19.6965 4.91339   2
  -5   0  14 88.9447 5.86012   2
  -5   0  14 93.1100 6.81243   1
  -4   0  14 543.203 14.2597   2
  -4   0  14 595.626 17.7611   1
  -3   0  14 279.709 9.27308   2
  -3   0  14 299.591 10.5456   1
  -2   0  14 134.972 5.40883   1
  -2   0  14 129.493 4.97392   2
  -1   0  14 -0.8601 2.81011   2
  -1   0  14 4.55532 3.13958   1
   0   0  14 -0.8816 3.05704   2
   0   0  14 3.49959 3.73522   1
   1   0  14 203.148 7.46932   2
   1   0  14 216.911 7.26975   1
   2   0  14 232.189 8.59445   2
   2   0  14 264.291 9.27659   1
   3   0  14 332.284 11.2487   1
   3   0  14 292.156 11.1275   2
   4   0  14 41.6706 6.21694   1
   4   0  14 42.1341 6.22289   2
   5   0  14 3.50206 6.63217   2
   5   0  14 -1.9456 7.36308   1
   5   0  14 24.5845 18.5155  -2
   5   0  14 24.5845 18.5155   1
   6   0  14 19.8427 11.1952   1
   6   0  14 30.0908 8.71973   2
   6   0  14 66.5981 21.0158  -2
   6   0  14 66.5981 21.0158   1
   7  -1 -14 190.351 10.2020   1
   7  -1 -14 195.536 8.69854   2
  -7   1  14 206.615 10.4230   2
  -7   1  14 205.775 11.9588   1
   6  -1 -14 315.882 10.2612   2
   6  -1 -14 315.445 11.0664   1
  -6   1  14 264.427 11.7598   1
  -6   1  14 259.002 10.5783   2
   5  -1 -14 484.404 15.3163   1
   5  -1 -14 477.638 14.4768   2
  -5   1  14 510.009 12.8294   2
  -5   1  14 487.838 14.4925   1
   4  -1 -14 27.9233 4.96141   1
   4  -1 -14 24.4531 4.00945   2
  -4   1  14 15.3163 3.88417   2
  -4   1  14 19.9791 5.42052   1
   3  -1 -14 47.3649 4.70327   1
   3  -1 -14 42.8238 4.26723   2
  -3   1  14 43.4458 4.30598   2
  -3   1  14 43.8911 4.90876   1
   2  -1 -14 199.895 6.05187   2
   2  -1 -14 216.724 6.69403   1
  -2   1  14 181.492 6.78329   1
  -2   1  14 174.548 6.23446   2
   1  -1 -14 295.538 8.54969   2
   1  -1 -14 313.435 9.10785   1
  -1   1  14 294.988 8.81162   1
  -1   1  14 286.980 8.30173   2
   0  -1 -14 200.104 6.86404   2
   0  -1 -14 213.840 7.20387   1
   0   1  14 224.870 7.36074   1
   0   1  14 203.487 6.83034   2
  -1  -1 -14 168.432 6.38267   1
  -1  -1 -14 161.187 5.99839   2
   1   1  14 172.800 6.94531   1
   1   1  14 148.180 6.43902   2
  -2  -1 -14 33.2750 4.22833   2
  -2  -1 -14 37.5809 4.56809   1
   2   1  14 40.8046 4.52028   2
   2   1  14 42.6393 6.05454   1
  -3  -1 -14 82.6009 5.65871   2
  -3  -1 -14 89.4101 5.88750   1
   3   1  14 68.0363 6.94991   2
   3   1  14 130.351 16.8632  -2
   3   1  14 130.351 16.8632   1
   3   1  14 74.5318 7.49427   1
  -4  -1 -14 399.664 13.4568   1
  -4  -1 -14 357.935 12.5047   2
   4   1  14 434.082 18.9288   1
   4   1  14 375.322 16.8633   2
   4   1  14 793.898 35.1421  -2
   4   1  14 793.898 35.1421   1
  -5  -1 -14 54.1684 10.1011   1
  -5  -1 -14 94.0178 13.4278  -2
  -5  -1 -14 94.0178 13.4278   1
  -5  -1 -14 48.7101 11.5232   2
   5   1  14 58.8307 14.2111  -2
   5   1  14 58.8307 14.2111   1
   5   1  14 17.2480 7.74565   2
   5   1  14 22.9930 9.16975   1
   7  -2 -14 191.157 9.39853   2
   7  -2 -14 211.835 13.3722   1
  -7   2  14 176.374 12.7961   2
  -7   2  14 187.105 10.6658   1
   6  -2 -14 10.0423 4.40927   2
   6  -2 -14 7.10124 5.16670   1
  -6   2  14 -5.4793 4.65211   2
  -6   2  14 -5.0125 6.04088   1
   5  -2 -14 421.605 12.2581   2
   5  -2 -14 444.624 12.6016   1
  -5   2  14 459.347 15.3237   1
  -5   2  14 426.977 14.2999   2
   4  -2 -14 185.828 7.26752   2
   4  -2 -14 199.434 8.17757   1
  -4   2  14 201.286 8.52973   2
  -4   2  14 193.054 8.09653   1
   3  -2 -14 199.003 7.24670   1
   3  -2 -14 196.624 7.35633   2
  -3   2  14 141.263 6.57639   1
  -3   2  14 140.874 8.28989   2
   2  -2 -14 498.426 11.6729   2
   2  -2 -14 557.766 13.2447   1
  -2   2  14 534.285 14.1344   1
  -2   2  14 482.787 12.4476   2
   1  -2 -14 10.5935 3.74654   2
   1  -2 -14 14.2489 4.16571   1
  -1   2  14 10.4236 3.49105   2
  -1   2  14 12.2603 4.02624   1
   0  -2 -14 37.7061 4.12086   2
   0  -2 -14 38.0564 4.39566   1
   0   2  14 37.8051 4.72732   1
   0   2  14 38.5651 4.05778   2
  -1  -2 -14 464.205 15.3213   1
  -1  -2 -14 416.037 12.2271   2
   1   2  14 381.050 11.3991   2
   1   2  14 426.155 15.6790   1
  -2  -2 -14 141.156 6.59217   2
  -2  -2 -14 157.661 7.29570   1
   2   2  14 158.188 6.79663   1
   2   2  14 161.385 7.29778   2
  -3  -2 -14 189.692 8.52794   1
  -3  -2 -14 188.707 8.19486   2
   3   2  14 470.495 44.1775  -2
   3   2  14 470.495 44.1775   1
   3   2  14 214.274 9.16289   1
   3   2  14 209.603 11.3413   2
  -4  -2 -14 32.3768 9.76398   2
  -4  -2 -14 62.1584 9.46644   1
  -4  -2 -14 117.636 14.1177  -2
  -4  -2 -14 117.636 14.1177   1
   4   2  14 42.3181 8.34479   1
   4   2  14 44.2739 7.91758   2
   4   2  14 117.497 13.6756  -2
   4   2  14 117.497 13.6756   1
  -5  -2 -14 31.0498 15.2014  -2
  -5  -2 -14 31.0498 15.2014   1
  -5  -2 -14 13.9365 10.2065   1
  -5  -2 -14 19.9241 13.9052   2
   5   2  14 21.4804 8.74762   2
   5   2  14 17.0102 10.5742   1
   5   2  14 21.1826 13.1440  -2
   5   2  14 21.1826 13.1440   1
   7  -3 -14 228.846 16.9036   2
   7  -3 -14 173.261 29.8274   1
  -7   3  14 207.334 21.6624   2
  -7   3  14 193.033 25.7607   1
   6  -3 -14 368.974 13.2978   2
   6  -3 -14 371.053 13.6297   1
  -6   3  14 391.645 16.2264   1
  -6   3  14 382.090 17.1530   2
   5  -3 -14 252.142 9.31671   1
   5  -3 -14 237.126 8.53178   2
  -5   3  14 243.233 12.4106   1
  -5   3  14 232.549 13.0392   2
   4  -3 -14 -1.3952 4.74323   1
   4  -3 -14 3.43160 4.07410   2
  -4   3  14 0.51313 6.37978   2
  -4   3  14 5.76744 6.42248   1
   3  -3 -14 10.8556 4.37976   1
   3  -3 -14 8.21655 2.91440   2
  -3   3  14 5.45376 5.28952   2
  -3   3  14 12.9048 3.30109   1
   2  -3 -14 35.3125 3.72088   1
   2  -3 -14 32.7074 3.65320   2
  -2   3  14 12.2529 4.18387   1
  -2   3  14 11.6254 4.83092   2
   1  -3 -14 715.939 15.7680   1
   1  -3 -14 685.143 16.7192   2
  -1   3  14 716.953 16.8886   1
  -1   3  14 688.737 16.9546   2
   0  -3 -14 599.530 15.6650   1
   0  -3 -14 572.471 15.0457   2
   0   3  14 537.846 13.9523   1
   0   3  14 527.351 14.1491   2
  -1  -3 -14 34.8809 5.18687   1
  -1  -3 -14 25.7555 4.57887   2
   1   3  14 10.4623 4.42439   2
   1   3  14 11.2536 4.45743   1
  -2  -3 -14 7.34114 4.88800   1
  -2  -3 -14 6.14942 4.40236   2
   2   3  14 6.52529 3.76927   2
   2   3  14 9.47139 4.06865   1
  -3  -3 -14 54.6128 6.09819   1
  -3  -3 -14 49.9244 5.70373   2
   3   3  14 31.3598 5.99304   1
   3   3  14 41.5810 5.79760   2
  -4  -3 -14 144.463 9.75724   1
  -4  -3 -14 125.542 9.53694   2
  -4  -3 -14 206.694 40.3113  -2
  -4  -3 -14 206.694 40.3113   1
   4   3  14 122.713 7.11025   1
   4   3  14 234.776 35.1923  -2
   4   3  14 234.776 35.1923   1
   4   3  14 128.606 10.5444   2
  -5  -3 -14 139.630 27.0560   1
  -5  -3 -14 199.192 28.3505  -2
  -5  -3 -14 199.192 28.3505   1
  -5  -3 -14 71.6467 27.1469   2
   5   3  14 74.4366 12.4182   2
   5   3  14 105.009 23.2378   1
   6  -4 -14 -0.7063 6.83175   2
   6  -4 -14 -1.4697 12.0445   1
  -6   4  14 1.89818 9.46247   2
  -6   4  14 -3.5594 12.6587   1
   5  -4 -14 86.4989 5.65209   1
   5  -4 -14 80.9244 5.58109   2
  -5   4  14 87.7991 9.79362   2
  -5   4  14 83.1616 10.5065   1
   4  -4 -14 285.408 9.20412   2
   4  -4 -14 319.254 11.3504   1
  -4   4  14 271.823 12.3096   2
  -4   4  14 267.840 14.5604   1
   3  -4 -14 397.992 12.1801   1
   3  -4 -14 377.417 9.93060   2
  -3   4  14 391.212 15.6324   2
  -3   4  14 408.001 12.8810   1
   2  -4 -14 51.8322 4.54176   1
   2  -4 -14 45.4417 4.50443   2
  -2   4  14 45.3511 5.48475   2
  -2   4  14 56.5729 6.07933   1
   1  -4 -14 34.2868 4.84098   2
   1  -4 -14 40.1960 4.12973   1
  -1   4  14 32.0125 6.70423   1
  -1   4  14 51.0855 6.43752   2
   0  -4 -14 23.7165 4.89752   1
   0  -4 -14 20.1216 4.50909   2
   0   4  14 25.4174 5.09010   1
   0   4  14 20.7256 5.60371   2
  -1  -4 -14 119.647 7.24070   1
  -1  -4 -14 114.122 6.80004   2
   1   4  14 152.833 6.51165   1
   1   4  14 147.075 7.61179   2
  -2  -4 -14 373.470 12.3826   1
  -2  -4 -14 336.066 11.3391   2
   2   4  14 342.211 11.6844   2
   2   4  14 356.224 14.8308   1
  -3  -4 -14 166.444 8.48392   2
  -3  -4 -14 181.442 9.39734   1
   3   4  14 169.110 10.5154   1
   3   4  14 144.390 11.8840   2
  -4  -4 -14 25.3086 7.99656   1
  -4  -4 -14 15.0126 7.42947   2
   4   4  14 34.5729 9.84385   2
   4   4  14 23.9292 12.0854   1
   4  -5 -14 48.6086 6.78658   2
   4  -5 -14 47.4782 6.93436   1
  -4   5  14 63.5551 19.7850   1
  -4   5  14 44.9288 8.71827   2
   3  -5 -14 8.60295 6.01084   1
   3  -5 -14 15.8174 5.61480   2
  -3   5  14 15.8766 11.3083   2
  -3   5  14 32.5403 12.3185   1
   2  -5 -14 177.289 8.25559   1
   2  -5 -14 153.365 7.46046   2
  -2   5  14 151.788 13.1530   1
  -2   5  14 145.247 8.35394   2
   1  -5 -14 124.676 7.01457   2
   1  -5 -14 135.699 7.75596   1
  -1   5  14 161.277 10.7686   2
  -1   5  14 175.652 13.8078   1
   0  -5 -14 129.774 7.25469   2
   0  -5 -14 138.255 7.83209   1
   0   5  14 176.872 10.8079   2
   0   5  14 189.870 13.4590   1
  -1  -5 -14 125.279 8.53189   2
  -1  -5 -14 120.235 8.95529   1
   1   5  14 128.851 11.3172   2
   1   5  14 125.320 13.0829   1
  -2  -5 -14 26.0358 7.40808   1
  -2  -5 -14 33.0771 6.68962   2
   2   5  14 43.5012 10.2838   1
   2   5  14 21.5494 9.40306   2
  -7   0  15 44.9464 6.57714   2
  -7   0  15 69.5528 8.34733   1
  -6   0  15 27.7110 5.42945   2
  -6   0  15 23.9631 6.10333   1
  -5   0  15 30.3588 5.71884   1
  -5   0  15 30.9505 4.95340   2
  -4   0  15 84.8878 7.04067   1
  -4   0  15 82.6853 5.76715   2
  -3   0  15 73.5938 6.45761   1
  -3   0  15 78.9195 5.82158   2
  -2   0  15 1276.50 26.8056   1
  -2   0  15 1184.36 25.1065   2
  -1   0  15 240.090 7.57288   1
  -1   0  15 229.622 7.12802   2
   0   0  15 51.9864 4.65070   1
   0   0  15 54.8028 4.26439   2
   1   0  15 166.441 6.48656   1
   1   0  15 149.914 6.05060   2
   2   0  15 196.606 7.94698   2
   2   0  15 200.441 8.18703   1
   3   0  15 113.159 7.52328   2
   3   0  15 137.873 8.08979   1
   4   0  15 67.0444 7.24889   1
   4   0  15 60.7899 7.00723   2
   5   0  15 44.4027 8.42803   1
   5   0  15 55.3282 7.94303   2
   7  -1 -15 130.888 8.56159   2
   7  -1 -15 141.394 9.57581   1
  -7   1  15 138.456 9.05948   2
  -7   1  15 147.421 11.0781   1
   6  -1 -15 153.768 7.57883   2
   6  -1 -15 153.586 8.34613   1
  -6   1  15 83.3035 8.75523   2
  -6   1  15 83.0884 8.87071   1
   5  -1 -15 334.731 12.3465   1
   5  -1 -15 320.000 11.0050   2
  -5   1  15 304.360 12.2679   1
  -5   1  15 285.659 10.6780   2
   4  -1 -15 137.674 7.88472   1
   4  -1 -15 136.678 6.74944   2
  -4   1  15 176.194 7.26043   2
  -4   1  15 184.564 9.81648   1
   3  -1 -15 112.342 7.00645   1
   3  -1 -15 105.988 5.76523   2
  -3   1  15 116.798 5.90318   2
  -3   1  15 115.523 7.35375   1
   2  -1 -15 56.2981 4.07322   1
   2  -1 -15 50.3272 3.66389   2
  -2   1  15 77.0715 4.59424   2
  -2   1  15 65.9910 5.01085   1
   1  -1 -15 431.390 11.3169   2
   1  -1 -15 474.362 12.4519   1
  -1   1  15 461.695 13.9169   1
  -1   1  15 422.178 12.2453   2
   0  -1 -15 529.442 13.2791   1
   0  -1 -15 484.353 12.9096   2
   0   1  15 501.840 14.5091   1
   0   1  15 488.363 12.7823   2
  -1  -1 -15 106.960 5.58956   2
  -1  -1 -15 113.804 5.74601   1
   1   1  15 122.221 6.35112   1
   1   1  15 105.876 5.51068   2
  -2  -1 -15 45.9989 5.26407   2
  -2  -1 -15 53.0753 6.01134   1
   2   1  15 41.1044 4.84014   2
   2   1  15 47.7740 6.12160   1
  -3  -1 -15 8.55607 5.01491   1
  -3  -1 -15 10.6153 4.53867   2
   3   1  15 5.16669 5.05525   2
   3   1  15 1.17998 5.23585   1
  -4  -1 -15 103.314 7.84459   1
  -4  -1 -15 90.5075 7.74692   2
   4   1  15 87.3993 10.5196   2
   4   1  15 191.926 21.1921  -2
   4   1  15 191.926 21.1921   1
   4   1  15 123.583 10.7807   1
  -5  -1 -15 124.791 11.6435   1
  -5  -1 -15 203.304 33.2664  -2
  -5  -1 -15 203.304 33.2664   1
  -5  -1 -15 104.415 11.4662   2
   5   1  15 74.5903 12.3473   1
   5   1  15 74.4744 10.6106   2
   5   1  15 90.1005 32.8054  -2
   5   1  15 90.1005 32.8054   1
   7  -2 -15 72.2175 9.24187   1
   7  -2 -15 66.4754 7.40431   2
  -7   2  15 78.3180 10.8642   2
  -7   2  15 72.3828 10.0541   1
   6  -2 -15 -5.3002 4.66538   2
   6  -2 -15 1.74198 6.27369   1
  -6   2  15 0.14481 5.95929   1
  -6   2  15 -2.6070 4.41539   2
   5  -2 -15 142.357 7.14405   2
   5  -2 -15 154.141 7.92070   1
  -5   2  15 125.383 7.03808   2
  -5   2  15 124.965 7.61361   1
   4  -2 -15 44.2689 5.26546   2
   4  -2 -15 38.9282 5.68794   1
  -4   2  15 31.8726 4.69598   2
  -4   2  15 31.9789 5.55411   1
   3  -2 -15 426.148 13.6518   1
   3  -2 -15 390.842 11.2629   2
  -3   2  15 446.829 12.0238   1
  -3   2  15 450.302 12.4516   2
   2  -2 -15 443.728 11.1692   1
   2  -2 -15 389.041 10.1413   2
  -2   2  15 452.374 12.5428   1
  -2   2  15 439.392 11.3320   2
   1  -2 -15 96.2940 5.14865   2
   1  -2 -15 102.765 5.60311   1
  -1   2  15 48.5083 4.81209   2
  -1   2  15 62.4623 5.21897   1
   0  -2 -15 10.7688 3.96334   2
   0  -2 -15 13.8833 4.15208   1
   0   2  15 10.1408 4.63928   1
   0   2  15 12.7530 3.85315   2
  -1  -2 -15 242.633 8.99613   2
  -1  -2 -15 236.638 9.30151   1
   1   2  15 216.614 9.06357   2
   1   2  15 232.503 9.33667   1
  -2  -2 -15 152.099 7.37608   2
  -2  -2 -15 152.877 7.83403   1
   2   2  15 193.527 7.27477   1
   2   2  15 181.919 8.16786   2
  -3  -2 -15 132.839 8.11828   1
  -3  -2 -15 120.856 7.83815   2
   3   2  15 115.054 6.80921   2
   3   2  15 121.254 7.06490   1
  -4  -2 -15 286.932 46.3844  -2
  -4  -2 -15 286.932 46.3844   1
  -4  -2 -15 127.302 10.2754   1
  -4  -2 -15 117.684 9.91455   2
   4   2  15 274.993 19.0034  -2
   4   2  15 274.993 19.0034   1
   4   2  15 122.695 10.7653   2
   4   2  15 149.074 11.1666   1
  -5  -2 -15 155.718 26.8344  -2
  -5  -2 -15 155.718 26.8344   1
  -5  -2 -15 67.2026 21.5256   1
  -5  -2 -15 49.0478 23.2136   2
   5   2  15 47.2639 11.6195   2
   5   2  15 74.2274 16.4139   1
   6  -3 -15 180.007 9.40282   2
   6  -3 -15 167.672 9.62976   1
  -6   3  15 199.964 13.9863   2
  -6   3  15 222.463 13.5072   1
   5  -3 -15 130.363 7.58053   2
   5  -3 -15 137.889 7.42215   1
  -5   3  15 114.219 10.8034   2
  -5   3  15 133.479 10.0455   1
   4  -3 -15 76.4788 6.19823   1
   4  -3 -15 57.2059 5.99066   2
  -4   3  15 64.2262 9.13410   1
  -4   3  15 63.4875 7.58121   2
   3  -3 -15 15.5111 4.69677   1
   3  -3 -15 8.47215 4.34103   2
  -3   3  15 5.97479 6.05513   2
  -3   3  15 3.80189 4.69772   1
   2  -3 -15 59.8413 4.43434   1
   2  -3 -15 64.7443 4.37024   2
  -2   3  15 38.7973 5.81109   2
  -2   3  15 35.5451 4.86492   1
   1  -3 -15 164.697 6.43096   2
   1  -3 -15 184.802 7.06447   1
  -1   3  15 187.962 6.77892   2
  -1   3  15 201.883 8.58974   1
   0  -3 -15 515.806 14.6510   1
   0  -3 -15 505.357 15.0385   2
   0   3  15 447.816 12.6430   1
   0   3  15 469.918 14.8890   2
  -1  -3 -15 75.4153 5.58600   2
  -1  -3 -15 85.6136 6.13276   1
   1   3  15 104.119 7.59231   2
   1   3  15 107.488 5.83948   1
  -2  -3 -15 10.2703 5.32574   1
  -2  -3 -15 12.1716 4.57953   2
   2   3  15 -1.1063 4.56049   2
   2   3  15 7.31004 3.85244   1
  -3  -3 -15 2.39870 5.95124   1
  -3  -3 -15 8.60338 5.36403   2
   3   3  15 11.8592 6.65113   2
   3   3  15 -1.6173 5.49451   1
  -4  -3 -15 25.6171 8.58383   2
  -4  -3 -15 33.2083 9.09601   1
  -4  -3 -15 83.0819 25.2557  -2
  -4  -3 -15 83.0819 25.2557   1
   4   3  15 18.2383 7.86859   1
   4   3  15 16.9878 7.94408   2
   4   3  15 53.0817 32.1591  -2
   4   3  15 53.0817 32.1591   1
   5  -4 -15 130.467 8.63329   1
   5  -4 -15 131.701 7.07317   2
  -5   4  15 133.319 11.7918   2
  -5   4  15 145.206 16.1939   1
   4  -4 -15 182.080 8.14089   2
   4  -4 -15 182.653 9.44830   1
  -4   4  15 220.755 12.0741   2
  -4   4  15 222.192 15.1613   1
   3  -4 -15 256.071 9.79211   1
   3  -4 -15 227.256 7.45864   2
  -3   4  15 179.741 10.8056   1
  -3   4  15 177.753 11.2644   2
   2  -4 -15 134.539 6.57462   1
   2  -4 -15 130.615 6.20045   2
  -2   4  15 114.310 7.86080   2
  -2   4  15 117.827 9.94016   1
   1  -4 -15 117.568 5.76488   1
   1  -4 -15 105.448 6.65143   2
  -1   4  15 107.777 7.56642   1
  -1   4  15 85.6852 8.15211   2
   0  -4 -15 29.2609 5.53765   1
   0  -4 -15 19.6767 5.01411   2
   0   4  15 23.0952 6.22057   1
   0   4  15 18.0255 6.42253   2
  -1  -4 -15 113.733 7.32762   1
  -1  -4 -15 107.442 6.95179   2
   1   4  15 74.0188 6.37929   2
   1   4  15 87.2878 7.04913   1
  -2  -4 -15 113.100 7.31545   2
  -2  -4 -15 117.689 8.11080   1
   2   4  15 102.319 9.65613   2
   2   4  15 109.311 8.11278   1
  -3  -4 -15 45.9888 9.15155   1
  -3  -4 -15 54.2029 7.94857   2
   3   4  15 76.2353 10.7549   1
   3   4  15 57.3967 9.16790   2
   3  -5 -15 50.6409 7.01773   2
   3  -5 -15 46.7223 7.07781   1
  -3   5  15 36.6127 18.2030   1
  -3   5  15 51.6415 11.0686   2
   2  -5 -15 7.59328 6.80512   1
   2  -5 -15 0.41527 5.71395   2
  -2   5  15 8.69824 9.93142   1
  -2   5  15 4.39208 7.93323   2
   1  -5 -15 215.385 11.0767   1
   1  -5 -15 207.640 9.45805   2
  -1   5  15 235.514 16.9255   1
  -1   5  15 213.510 14.5396   2
   0  -5 -15 413.874 16.8029   1
   0  -5 -15 390.747 15.2838   2
   0   5  15 343.970 19.1712   2
   0   5  15 344.408 26.9113   1
  -1  -5 -15 17.2380 7.55202   2
  -1  -5 -15 21.7564 7.89184   1
   1   5  15 6.69782 10.1894   2
   1   5  15 -2.5490 11.0867   1
  -7   0  16 230.792 12.5064   1
  -7   0  16 241.939 11.3609   2
  -6   0  16 31.8348 6.02631   2
  -6   0  16 39.1823 7.66707   1
  -5   0  16 8.27881 6.01158   1
  -5   0  16 2.38058 5.26737   2
  -4   0  16 157.490 8.82707   1
  -4   0  16 155.096 7.45869   2
  -3   0  16 371.940 12.5202   2
  -3   0  16 387.033 12.9325   1
  -2   0  16 485.535 13.3023   1
  -2   0  16 454.434 12.3165   2
  -1   0  16 29.3434 4.37522   1
  -1   0  16 24.6221 4.19260   2
   0   0  16 40.3478 4.95194   2
   0   0  16 41.9730 5.48340   1
   1   0  16 7.59661 4.40267   2
   1   0  16 1.83405 4.58027   1
   2   0  16 389.814 13.0783   1
   2   0  16 364.382 12.3593   2
   3   0  16 145.753 8.92785   1
   3   0  16 131.077 8.97690   2
   4   0  16 142.930 9.18345   1
   4   0  16 98.6036 8.15416   2
   7  -1 -16 72.4170 8.64711   2
   7  -1 -16 58.8031 13.7969   1
  -7   1  16 73.0236 10.4103   2
  -7   1  16 50.3170 12.2652   1
   6  -1 -16 159.964 9.89985   1
   6  -1 -16 144.144 8.27162   2
  -6   1  16 209.350 11.4711   1
  -6   1  16 213.683 9.60508   2
   5  -1 -16 296.562 11.0215   2
   5  -1 -16 289.664 12.1263   1
  -5   1  16 289.022 11.9207   2
  -5   1  16 295.505 12.9084   1
   4  -1 -16 535.087 14.8109   2
   4  -1 -16 543.085 16.2011   1
  -4   1  16 491.506 16.3738   1
  -4   1  16 489.383 16.0058   2
   3  -1 -16 23.8920 5.53528   1
   3  -1 -16 6.10329 5.10905   2
  -3   1  16 15.2830 6.82120   1
  -3   1  16 17.7871 4.70330   2
   2  -1 -16 181.234 6.73246   2
   2  -1 -16 196.685 7.23635   1
  -2   1  16 196.571 7.31360   2
  -2   1  16 207.150 8.60879   1
   1  -1 -16 53.2549 4.87919   2
   1  -1 -16 58.7074 5.49597   1
  -1   1  16 73.1221 5.31984   2
  -1   1  16 73.7045 5.80266   1
   0  -1 -16 190.048 7.91213   1
   0  -1 -16 172.605 7.26490   2
   0   1  16 165.352 7.75623   1
   0   1  16 149.038 7.03240   2
  -1  -1 -16 299.810 10.5023   1
  -1  -1 -16 267.934 8.92591   2
   1   1  16 317.974 9.91605   1
   1   1  16 288.520 9.74445   2
  -2  -1 -16 142.573 7.31200   1
  -2  -1 -16 132.863 6.98968   2
   2   1  16 170.051 7.66108   2
   2   1  16 167.706 8.96776   1
  -3  -1 -16 5.53218 5.46250   1
  -3  -1 -16 4.19746 5.16574   2
   3   1  16 1.21225 5.80043   1
   3   1  16 7.73611 5.75266   2
  -4  -1 -16 46.8165 8.05403   2
  -4  -1 -16 44.3089 9.15169   1
   4   1  16 47.1526 7.75988   2
   4   1  16 64.9968 8.37205   1
   4   1  16 108.270 26.9987  -2
   4   1  16 108.270 26.9987   1
   6  -2 -16 241.680 11.4483   2
   6  -2 -16 261.459 16.0912   1
  -6   2  16 249.667 10.6813   2
  -6   2  16 256.532 13.2121   1
   5  -2 -16 -0.8427 5.53660   1
   5  -2 -16 -3.9288 4.76410   2
  -5   2  16 5.20757 6.08125   1
  -5   2  16 8.21817 4.91189   2
   4  -2 -16 118.095 7.55898   1
   4  -2 -16 116.163 7.47382   2
  -4   2  16 147.344 7.98878   1
  -4   2  16 137.702 6.57145   2
   3  -2 -16 457.253 14.2988   1
   3  -2 -16 424.826 11.7157   2
  -3   2  16 412.016 12.0671   1
  -3   2  16 404.650 12.0385   2
   2  -2 -16 187.877 7.23145   2
   2  -2 -16 198.220 7.03335   1
  -2   2  16 230.472 9.34059   1
  -2   2  16 217.262 7.66522   2
   1  -2 -16 141.826 6.43675   2
   1  -2 -16 144.347 6.72231   1
  -1   2  16 102.156 7.56136   1
  -1   2  16 99.7379 5.72096   2
   0  -2 -16 27.2310 4.47564   2
   0  -2 -16 33.1401 4.75436   1
   0   2  16 36.9593 4.84966   2
   0   2  16 39.3485 6.08537   1
  -1  -2 -16 35.1740 6.00447   1
  -1  -2 -16 36.1382 4.96224   2
   1   2  16 22.4957 4.80089   2
   1   2  16 15.7387 6.08836   1
  -2  -2 -16 171.448 8.12092   2
  -2  -2 -16 164.332 8.48783   1
   2   2  16 195.490 8.82639   1
   2   2  16 178.402 7.80475   2
  -3  -2 -16 137.284 8.04397   2
  -3  -2 -16 155.029 8.97325   1
   3   2  16 167.516 8.22253   1
   3   2  16 164.331 7.97572   2
  -4  -2 -16 50.2786 9.11005   1
  -4  -2 -16 142.871 27.0354  -2
  -4  -2 -16 142.871 27.0354   1
  -4  -2 -16 41.2209 10.1816   2
   4   2  16 74.9834 8.64706   2
   4   2  16 70.4141 7.84266   1
   4   2  16 139.844 32.2993  -2
   4   2  16 139.844 32.2993   1
   5  -3 -16 349.983 12.7183   2
   5  -3 -16 337.854 13.1608   1
  -5   3  16 333.079 16.9603   2
  -5   3  16 317.257 15.2299   1
   4  -3 -16 190.415 8.59900   2
   4  -3 -16 204.629 9.39876   1
  -4   3  16 220.147 14.8106   1
  -4   3  16 217.622 11.4954   2
   3  -3 -16 24.2584 4.98414   2
   3  -3 -16 18.8791 5.02609   1
  -3   3  16 20.6118 5.32567   1
  -3   3  16 19.3482 6.99467   2
   2  -3 -16 7.74923 3.89027   2
   2  -3 -16 14.6800 4.84318   1
  -2   3  16 9.14950 5.57944   2
  -2   3  16 4.78329 4.84830   1
   1  -3 -16 73.5076 5.02272   2
   1  -3 -16 87.3783 5.42126   1
  -1   3  16 95.4345 5.93103   2
  -1   3  16 101.512 6.12047   1
   0  -3 -16 251.191 9.44566   2
   0  -3 -16 255.228 10.1082   1
   0   3  16 233.329 10.7526   1
   0   3  16 213.771 10.7831   2
  -1  -3 -16 187.722 9.04927   1
  -1  -3 -16 178.322 7.95775   2
   1   3  16 212.952 9.97133   2
   1   3  16 236.726 9.59571   1
  -2  -3 -16 134.559 7.76173   2
  -2  -3 -16 142.502 8.44451   1
   2   3  16 90.4869 7.12645   2
   2   3  16 92.2699 11.7049   1
  -3  -3 -16 -0.8827 6.13089   2
  -3  -3 -16 -2.3146 7.88965   1
   3   3  16 3.57496 7.20330   2
   3   3  16 5.72937 6.81996   1
   4  -4 -16 78.2875 9.33833   1
   4  -4 -16 65.6494 7.46880   2
  -4   4  16 56.1227 12.4516   1
  -4   4  16 51.9879 10.0258   2
   3  -4 -16 155.369 11.3963   1
   3  -4 -16 147.657 9.16017   2
  -3   4  16 150.651 11.7899   2
  -3   4  16 168.172 12.0866   1
   2  -4 -16 235.913 9.23569   1
   2  -4 -16 209.485 9.23692   2
  -2   4  16 246.212 11.5612   1
  -2   4  16 274.969 12.8689   2
   1  -4 -16 48.8226 5.19956   1
   1  -4 -16 44.9407 6.29794   2
  -1   4  16 27.5114 8.19401   1
  -1   4  16 41.9281 10.1663   2
   0  -4 -16 0.88681 5.02429   2
   0  -4 -16 4.62333 5.84535   1
   0   4  16 1.81247 6.67490   1
   0   4  16 8.75239 6.88575   2
  -1  -4 -16 12.3777 8.62558   1
  -1  -4 -16 9.23740 6.99491   2
   1   4  16 22.6499 7.51736   1
   1   4  16 6.71898 6.25027   2
  -2  -4 -16 85.7593 9.63773   1
  -2  -4 -16 76.2420 8.47301   2
   2   4  16 84.7740 8.99158   2
   2   4  16 81.0520 11.4888   1
  -6   0  17 64.1616 8.67684   1
  -6   0  17 49.1691 7.54038   2
  -5   0  17 1.96913 7.74996   1
  -5   0  17 4.61322 5.48298   2
  -4   0  17 7.30280 4.97587   2
  -4   0  17 4.19937 6.12622   1
  -3   0  17 80.6580 6.88652   1
  -3   0  17 82.1333 6.55582   2
  -2   0  17 328.780 10.1752   2
  -2   0  17 342.615 11.3793   1
  -1   0  17 149.390 6.79112   2
  -1   0  17 160.293 8.77863   1
   0   0  17 39.9988 5.36480   1
   0   0  17 42.4439 5.17328   2
   1   0  17 36.5875 5.83247   2
   1   0  17 37.4537 5.89347   1
   2   0  17 176.744 8.60120   1
   2   0  17 150.786 8.79306   2
   3   0  17 155.420 9.12669   2
   3   0  17 187.360 9.92830   1
   4   0  17 160.618 11.5085   2
   4   0  17 158.777 10.1572   1
   6  -1 -17 104.798 8.92748   2
   6  -1 -17 113.094 9.57366   1
  -6   1  17 124.298 8.63329   2
  -6   1  17 141.853 10.8308   1
   5  -1 -17 125.823 7.93842   2
   5  -1 -17 136.916 9.33414   1
  -5   1  17 62.3822 8.29236   1
  -5   1  17 77.3230 6.97817   2
   4  -1 -17 329.876 14.2898   1
   4  -1 -17 311.333 10.7819   2
  -4   1  17 308.463 13.3306   1
  -4   1  17 318.202 11.4015   2
   3  -1 -17 85.4507 6.78018   2
   3  -1 -17 100.274 7.67442   1
  -3   1  17 111.425 8.67629   2
  -3   1  17 114.726 9.65797   1
   2  -1 -17 7.26385 3.54117   1
   2  -1 -17 1.49479 2.81523   2
  -2   1  17 3.57578 4.75952   1
  -2   1  17 3.54719 4.19533   2
   1  -1 -17 29.7698 5.09265   2
   1  -1 -17 33.2096 4.69075   1
  -1   1  17 36.4394 5.51898   2
  -1   1  17 34.8668 5.54179   1
   0  -1 -17 107.373 6.47341   1
   0  -1 -17 111.657 6.46946   2
   0   1  17 104.856 6.40712   2
   0   1  17 112.522 6.97720   1
  -1  -1 -17 223.577 9.96600   1
  -1  -1 -17 206.251 9.67169   2
   1   1  17 236.867 8.37500   2
   1   1  17 244.657 8.87270   1
  -2  -1 -17 134.533 8.83338   2
  -2  -1 -17 152.563 8.43684   1
   2   1  17 146.887 8.73937   1
   2   1  17 152.347 7.23932   2
  -3  -1 -17 85.4846 7.84314   2
  -3  -1 -17 89.0210 8.99002   1
   3   1  17 61.6440 7.98455   1
   3   1  17 55.7522 7.11222   2
   5  -2 -17 27.5409 8.57443   1
   5  -2 -17 19.5051 5.95443   2
  -5   2  17 14.4048 7.24187   2
  -5   2  17 19.7061 9.06925   1
   4  -2 -17 43.0553 6.98565   1
   4  -2 -17 26.4353 5.92337   2
  -4   2  17 40.2450 7.49355   1
  -4   2  17 16.4885 5.50519   2
   3  -2 -17 135.078 7.69636   2
   3  -2 -17 140.769 7.86546   1
  -3   2  17 132.356 6.73966   2
  -3   2  17 115.597 9.14945   1
   2  -2 -17 82.5570 4.96563   2
   2  -2 -17 93.9883 4.18216   1
  -2   2  17 125.457 7.46198   1
  -2   2  17 113.974 6.05040   2
   1  -2 -17 350.838 10.9906   1
   1  -2 -17 309.691 9.64780   2
  -1   2  17 278.704 11.9103   1
  -1   2  17 289.516 10.4426   2
   0  -2 -17 70.3354 5.46235   2
   0  -2 -17 78.4910 6.44883   1
   0   2  17 72.1262 5.79183   2
   0   2  17 72.4551 6.78067   1
  -1  -2 -17 16.8778 5.22347   2
  -1  -2 -17 10.8176 6.15346   1
   1   2  17 14.8668 5.53765   2
   1   2  17 13.2558 5.46355   1
  -2  -2 -17 68.0421 7.08478   2
  -2  -2 -17 74.3993 7.16533   1
   2   2  17 86.9195 7.22989   1
   2   2  17 91.4787 6.68861   2
  -3  -2 -17 159.780 10.4643   1
  -3  -2 -17 163.194 10.5750   2
   3   2  17 135.583 8.72912   1
   3   2  17 139.110 8.53537   2
   5  -3 -17 143.022 9.78533   2
   5  -3 -17 137.968 11.2818   1
  -5   3  17 160.158 18.1127   1
  -5   3  17 174.383 15.5745   2
   4  -3 -17 129.114 11.0656   2
   4  -3 -17 132.548 10.2440   1
  -4   3  17 142.348 10.4009   2
  -4   3  17 134.984 9.82235   1
   3  -3 -17 93.6466 6.27674   2
   3  -3 -17 110.390 7.84080   1
  -3   3  17 91.0656 7.00540   1
  -3   3  17 74.1691 8.49843   2
   2  -3 -17 1.42536 5.33191   1
   2  -3 -17 10.6958 4.28800   2
  -2   3  17 -4.0169 6.24141   2
  -2   3  17 0.00687 5.00922   1
   1  -3 -17 -0.7734 4.32712   2
   1  -3 -17 -3.3140 4.29759   1
  -1   3  17 5.82109 4.29658   2
  -1   3  17 0.70756 5.42124   1
   0  -3 -17 88.9122 7.57020   1
   0  -3 -17 72.9575 6.58812   2
   0   3  17 73.1695 7.87470   1
   0   3  17 61.6449 6.20542   2
  -1  -3 -17 261.395 11.1708   1
  -1  -3 -17 248.668 11.8589   2
   1   3  17 274.509 12.4288   2
   1   3  17 294.039 11.9165   1
  -2  -3 -17 243.155 15.1912   1
  -2  -3 -17 199.547 12.6467   2
   2   3  17 163.585 10.7736   2
   2   3  17 191.359 13.4727   1
   3  -4 -17 76.2250 11.9544   1
   3  -4 -17 59.8257 9.12927   2
  -3   4  17 64.9459 11.1749   1
  -3   4  17 82.9664 13.0103   2
   2  -4 -17 312.683 14.2045   1
   2  -4 -17 264.626 12.5404   2
  -2   4  17 287.764 17.7546   1
  -2   4  17 257.638 16.3496   2
   1  -4 -17 81.1250 8.23441   1
   1  -4 -17 76.1055 8.33438   2
  -1   4  17 54.3120 9.58526   1
  -1   4  17 52.8943 11.6093   2
   0  -4 -17 36.2778 9.04976   1
   0  -4 -17 18.0420 6.88033   2
   0   4  17 25.0671 8.88774   2
   0   4  17 22.7330 8.15465   1
  -1  -4 -17 56.5503 13.3102   2
  -1  -4 -17 100.543 19.8502   1
   1   4  17 52.1530 15.6693   1
   1   4  17 56.3626 14.1018   2
  -5   0  18 44.2804 8.66940   1
  -5   0  18 45.5145 6.90383   2
  -4   0  18 7.79941 7.82555   1
  -4   0  18 0.20090 5.32713   2
  -3   0  18 10.4692 5.68369   2
  -3   0  18 24.7873 7.23884   1
  -2   0  18 138.927 7.48001   1
  -2   0  18 116.329 6.09448   2
  -1   0  18 266.574 10.3183   1
  -1   0  18 242.169 9.70020   2
   0   0  18 95.2834 6.33422   2
   0   0  18 95.4400 6.91191   1
   1   0  18 49.7820 6.58310   2
   1   0  18 44.5485 6.77483   1
   2   0  18 9.71070 6.18033   2
   2   0  18 13.5931 6.67750   1
   3   0  18 9.03225 8.00857   2
   3   0  18 16.1484 7.85397   1
   5  -1 -18 90.0140 7.91621   2
   5  -1 -18 56.7644 9.58966   1
  -5   1  18 30.9217 9.27107   1
  -5   1  18 40.5642 8.03422   2
   4  -1 -18 191.475 9.45053   2
   4  -1 -18 198.873 10.4205   1
  -4   1  18 227.698 11.4697   1
  -4   1  18 203.591 10.6905   2
   3  -1 -18 160.066 9.20878   1
   3  -1 -18 134.949 8.13164   2
  -3   1  18 121.663 9.89552   1
  -3   1  18 121.086 8.24598   2
   2  -1 -18 163.795 7.19431   1
   2  -1 -18 148.172 8.20545   2
  -2   1  18 146.423 7.30966   2
  -2   1  18 150.824 8.23686   1
   1  -1 -18 14.0687 4.55659   2
   1  -1 -18 9.93248 4.67687   1
  -1   1  18 28.5121 5.68708   1
  -1   1  18 16.9719 5.12812   2
   0  -1 -18 85.5959 6.89689   2
   0  -1 -18 97.9824 7.36823   1
   0   1  18 83.7664 6.28481   2
   0   1  18 71.5939 6.82766   1
  -1  -1 -18 191.413 9.20881   2
  -1  -1 -18 207.432 10.8339   1
   1   1  18 158.729 8.82332   1
   1   1  18 148.034 8.55514   2
  -2  -1 -18 49.2654 9.06245   2
  -2  -1 -18 38.0109 8.34507   1
   2   1  18 41.8984 6.56398   1
   2   1  18 43.3169 6.50597   2
  -3  -1 -18 83.1270 8.40822   1
  -3  -1 -18 80.6816 8.30852   2
   3   1  18 102.603 9.51145   1
   3   1  18 115.226 8.40159   2
   5  -2 -18 78.4608 9.84238   1
   5  -2 -18 64.1783 8.16588   2
  -5   2  18 102.342 9.65072   2
  -5   2  18 76.4030 10.1778   1
   4  -2 -18 12.7018 7.10533   2
   4  -2 -18 29.2387 10.1568   1
  -4   2  18 13.8944 8.04352   1
  -4   2  18 10.8952 5.82028   2
   3  -2 -18 -1.4974 5.57544   2
   3  -2 -18 4.20466 6.23255   1
  -3   2  18 1.07369 5.26981   2
  -3   2  18 2.77978 7.24820   1
   2  -2 -18 50.6402 3.78982   2
   2  -2 -18 55.1669 4.43041   1
  -2   2  18 51.0237 5.46664   2
  -2   2  18 59.7851 6.56963   1
   1  -2 -18 751.169 19.5859   1
   1  -2 -18 704.031 19.2951   2
  -1   2  18 718.466 20.2411   2
  -1   2  18 729.663 25.8736   1
   0  -2 -18 85.2744 6.41929   2
   0  -2 -18 82.9795 6.59626   1
   0   2  18 66.2985 6.65022   1
   0   2  18 64.2435 5.98662   2
  -1  -2 -18 7.99221 6.16605   2
  -1  -2 -18 1.88312 7.14182   1
   1   2  18 -3.1355 5.09142   2
   1   2  18 3.90605 6.22833   1
  -2  -2 -18 81.7095 8.05744   2
  -2  -2 -18 110.990 10.4405   1
   2   2  18 69.1910 7.07388   2
   2   2  18 79.0088 8.21417   1
   4  -3 -18 103.307 12.3796   2
   4  -3 -18 121.997 13.9289   1
  -4   3  18 73.2425 23.5939   1
  -4   3  18 111.793 22.0555   2
   3  -3 -18 125.572 11.4201   1
   3  -3 -18 123.224 9.22763   2
  -3   3  18 109.575 9.74367   1
  -3   3  18 99.3297 11.2259   2
   2  -3 -18 73.2158 9.93490   1
   2  -3 -18 88.5544 8.71549   2
  -2   3  18 77.8375 7.80645   1
  -2   3  18 62.5556 8.82767   2
   1  -3 -18 28.3326 7.33028   2
   1  -3 -18 32.6119 8.64332   1
  -1   3  18 21.6211 6.67584   1
  -1   3  18 25.1433 5.98854   2
   0  -3 -18 235.276 14.8392   2
   0  -3 -18 238.065 15.2085   1
   0   3  18 207.771 11.1885   2
   0   3  18 210.541 11.7554   1
  -1  -3 -18 289.660 14.5652   2
  -1  -3 -18 291.192 15.3373   1
   1   3  18 331.802 14.5976   1
   1   3  18 306.574 15.4542   2
  -4   0  19 -2.6948 9.18864   1
  -4   0  19 2.44831 6.40898   2
  -3   0  19 4.07072 6.93001   2
  -3   0  19 2.94174 7.23459   1
  -2   0  19 42.4956 5.60979   1
  -2   0  19 32.5865 4.59848   2
  -1   0  19 396.992 13.6388   1
  -1   0  19 387.654 13.9373   2
   0   0  19 179.373 8.70862   2
   0   0  19 188.781 10.1286   1
   1   0  19 14.0649 5.88687   1
   1   0  19 3.10923 7.09018   2
   2   0  19 10.3431 7.48417   1
   2   0  19 7.18148 7.58004   2
   4  -1 -19 191.784 9.78075   2
   4  -1 -19 190.663 11.8645   1
  -4   1  19 183.176 12.1686   1
  -4   1  19 191.884 9.75551   2
   3  -1 -19 161.233 9.95123   1
   3  -1 -19 161.850 10.8887   2
  -3   1  19 159.043 11.7565   1
  -3   1  19 171.795 9.50472   2
   2  -1 -19 226.058 9.23053   1
   2  -1 -19 205.295 9.80225   2
  -2   1  19 220.292 8.95626   2
  -2   1  19 229.115 11.7123   1
   1  -1 -19 6.86513 4.54745   2
   1  -1 -19 12.9434 7.05462   1
  -1   1  19 3.87615 5.03685   2
  -1   1  19 10.0295 5.71976   1
   0  -1 -19 21.3120 8.15594   1
   0  -1 -19 35.9554 7.34737   2
   0   1  19 21.9136 5.63040   2
   0   1  19 16.7919 6.39453   1
  -1  -1 -19 91.5040 9.37033   2
  -1  -1 -19 98.6735 8.90307   1
   1   1  19 118.861 9.44723   1
   1   1  19 101.395 7.47884   2
   3  -2 -19 46.5287 7.68032   2
   3  -2 -19 28.9582 8.43184   1
  -3   2  19 41.5005 9.64429   1
  -3   2  19 23.7823 6.61935   2
   2  -2 -19 88.4138 8.75907   1
   2  -2 -19 85.0577 9.03540   2
  -2   2  19 99.9356 6.52971   2
  -2   2  19 100.670 8.20489   1
   1  -2 -19 131.619 9.56120   1
   1  -2 -19 115.343 9.01051   2
  -1   2  19 147.062 7.95134   2
  -1   2  19 178.686 10.0153   1
   0  -2 -19 44.1641 6.86585   2
   0  -2 -19 42.6744 8.05505   1
   0   2  19 26.3920 5.99180   2
   0   2  19 36.0110 7.38179   1
  -1  -2 -19 103.913 9.76863   2
  -1  -2 -19 136.550 10.0576   1
   1   2  19 134.161 9.74010   1
   1   2  19 123.791 8.37595   2
  -3   0  20 4.69458 7.02310   2
  -3   0  20 20.3689 8.25790   1
  -2   0  20 65.8286 6.41910   1
  -2   0  20 66.6482 8.38483   2
  -1   0  20 66.7034 7.70984   2
  -1   0  20 98.8776 7.51708   1
   0   0  20 89.5067 7.13761   2
   0   0  20 98.4850 8.14867   1
   3  -1 -20 245.649 28.9581   1
   3  -1 -20 221.521 27.5734   2
  -3   1  20 208.996 28.1261   2
  -3   1  20 225.266 41.5996   1
   2  -1 -20 177.370 10.9251   2
   2  -1 -20 167.620 12.7436   1
  -2   1  20 182.360 13.1064   1
  -2   1  20 168.422 8.45936   2
   1  -1 -20 10.3786 6.15871   2
   1  -1 -20 1.59049 6.45112   1
  -1   1  20 3.41028 5.54185   2
  -1   1  20 -0.9132 6.14806   1
   0  -1 -20 1.16344 6.03992   1
   0  -1 -20 3.17060 7.86222   2
   0   1  20 -3.9420 6.27984   2
   0   1  20 -7.0875 6.63883   1
   0   0   0    0.00    0.00   0
;
_shelx_hkl_checksum              76395
_shelx_res_file
;
TITL m22123 : space group P21
    m22123.res
    created by SHELXL-2019/2 at 09:33:53 on 01-Sep-2022
CELL  0.71073   7.5162   6.1125  15.7249   90.000   98.625   90.000
ZERR        2   0.0003   0.0002   0.0005    0.000    0.001    0.000
LATT -1
SYMM -X, 1/2+Y, -Z
SFAC C H BR N O
UNIT 34 34 2 4 2
TEMP -183
SIZE 0.35 0.20 0.06
REM FORM slab cut from lath
REM COLR colourless
MERG 0
L.S. 10
ACTA
BOND $H
LIST 6
CONF
HTAB
REM Various planes for dihedrals etc.
MPLA C5 C6 C7 C8 C9 C10
MPLA 6 C12 C13 C14 C15 C16 C17 Br1
REM Torsion angle:
RTAB tors N1 C11 C12 C13
EQIV $2 x, y-1, z
HTAB C13 O1_$2
HTAB C14 O1_$2
HTAB
FMAP 2
PLAN 20
REM EXTI    0.000000 not needed.
WGHT    0.015800    0.099900
BASF   0.48604
FVAR       1.08994
BR1   3    0.090547    0.112863    0.950387    11.00000    0.01541    0.01942 =
         0.02254    0.00283    0.00626   -0.00119
O1    5    0.672997    0.884387    0.839924    11.00000    0.02691    0.01401 =
         0.03359   -0.00649    0.01451   -0.00233
N1    4    0.776314    0.602248    0.768958    11.00000    0.01588    0.01242 =
         0.01359   -0.00073    0.00422   -0.00256
N2    4    0.802222    0.577290    0.589085    11.00000    0.01624    0.01020 =
         0.01232   -0.00133    0.00315   -0.00175
C1    1    0.754435    0.391296    0.724081    11.00000    0.02580    0.01187 =
         0.01492   -0.00079    0.00810   -0.00019
AFIX  23
H1A   2    0.666366    0.300535    0.749181    11.00000   -1.20000
H1B   2    0.870892    0.312654    0.731847    11.00000   -1.20000
AFIX   0
C2    1    0.689615    0.424764    0.628811    11.00000    0.02550    0.01194 =
         0.01404   -0.00229    0.00500   -0.00602
AFIX  23
H2A   2    0.688355    0.281887    0.599077    11.00000   -1.20000
H2B   2    0.564666    0.480861    0.621072    11.00000   -1.20000
AFIX   0
C3    1    0.833135    0.784337    0.636072    11.00000    0.01612    0.01295 =
         0.01592    0.00008    0.00164   -0.00204
AFIX  23
H3A   2    0.719803    0.869390    0.629414    11.00000   -1.20000
H3B   2    0.923829    0.871335    0.611219    11.00000   -1.20000
AFIX   0
C4    1    0.898516    0.745879    0.731184    11.00000    0.01413    0.01786 =
         0.01463    0.00010    0.00441   -0.00366
AFIX  23
H4A   2    1.019905    0.679267    0.738344    11.00000   -1.20000
H4B   2    0.907757    0.887866    0.761819    11.00000   -1.20000
AFIX   0
C5    1    0.768761    0.591846    0.498299    11.00000    0.01010    0.01784 =
         0.01362    0.00415    0.00102    0.00180
C6    1    0.819961    0.775338    0.454824    11.00000    0.01940    0.01905 =
         0.01786    0.00197    0.00298   -0.00204
AFIX  43
H6    2    0.874536    0.895931    0.486795    11.00000   -1.20000
AFIX   0
C7    1    0.792229    0.784015    0.365533    11.00000    0.02177    0.02226 =
         0.02020    0.00745    0.00658   -0.00083
AFIX  43
H7    2    0.828030    0.910876    0.337573    11.00000   -1.20000
AFIX   0
C8    1    0.713443    0.611584    0.316311    11.00000    0.01670    0.03074 =
         0.01339    0.00192    0.00134    0.00420
AFIX  43
H8    2    0.694672    0.618576    0.255269    11.00000   -1.20000
AFIX   0
C9    1    0.663335    0.430068    0.358716    11.00000    0.02574    0.02723 =
         0.01666   -0.00379    0.00101   -0.00651
AFIX  43
H9    2    0.610006    0.309579    0.326239    11.00000   -1.20000
AFIX   0
C10   1    0.688921    0.419035    0.447796    11.00000    0.02639    0.02161 =
         0.01662    0.00124    0.00087   -0.00737
AFIX  43
H10   2    0.651625    0.291940    0.475097    11.00000   -1.20000
AFIX   0
C11   1    0.666807    0.689445    0.821222    11.00000    0.01464    0.01550 =
         0.01297    0.00071    0.00009    0.00202
C12   1    0.533820    0.544361    0.856048    11.00000    0.01539    0.01511 =
         0.00971   -0.00186    0.00068   -0.00014
C13   1    0.576997    0.339467    0.892050    11.00000    0.01267    0.01433 =
         0.01146   -0.00188    0.00174    0.00263
AFIX  43
H13   2    0.696220    0.285267    0.894978    11.00000   -1.20000
AFIX   0
C14   1    0.447636    0.213170    0.923785    11.00000    0.01730    0.01317 =
         0.00954   -0.00140    0.00101    0.00114
AFIX  43
H14   2    0.477362    0.073859    0.948719    11.00000   -1.20000
AFIX   0
C15   1    0.274769    0.295155    0.918185    11.00000    0.01350    0.01744 =
         0.01100   -0.00151    0.00346   -0.00324
C16   1    0.229031    0.501415    0.886678    11.00000    0.01223    0.01856 =
         0.01378    0.00074    0.00291    0.00287
AFIX  43
H16   2    0.110701    0.556801    0.885896    11.00000   -1.20000
AFIX   0
C17   1    0.361040    0.626664    0.855978    11.00000    0.01936    0.01448 =
         0.01169    0.00136    0.00115    0.00305
AFIX  43
H17   2    0.332668    0.769940    0.834754    11.00000   -1.20000
AFIX   0
HKLF 5
REM  m22123 : space group P21
REM wR2 = 0.0491, GooF = S = 1.044, Restrained GooF = 1.044 for all data
REM R1 = 0.0225 for 6410 Fo > 4sig(Fo) and 0.0266 for all 6918 data
REM 191 parameters refined using 1 restraints
END
WGHT      0.0158      0.0999
REM No hydrogen bonds found for HTAB generation
REM Highest difference peak  0.293,  deepest hole -0.222,  1-sigma level  0.049
Q1    1   0.1390 -0.0269  0.9380  11.00000  0.05    0.29
Q2    1   0.6041  0.6124  0.8388  11.00000  0.05    0.27
Q3    1   0.7235  0.5098  0.3416  11.00000  0.05    0.22
Q4    1   0.7084  0.7148  0.3439  11.00000  0.05    0.21
Q5    1   0.5638  0.4513  0.8830  11.00000  0.05    0.21
Q6    1   0.7394  0.5081  0.4758  11.00000  0.05    0.20
Q7    1   0.7635  0.7897  0.4173  11.00000  0.05    0.20
Q8    1   0.0375  0.1153  0.8972  11.00000  0.05    0.20
Q9    1   0.2788  0.7591  0.8041  11.00000  0.05    0.19
Q10   1   0.8638  0.7550  0.6790  11.00000  0.05    0.19
Q11   1   0.7749  0.5968  0.5408  11.00000  0.05    0.19
Q12   1   0.7313  0.4062  0.4067  11.00000  0.05    0.19
Q13   1   0.7540  0.6969  0.4749  11.00000  0.05    0.18
Q14   1   0.7367  0.5120  0.6124  11.00000  0.05    0.18
Q15   1   0.0452  0.2555  0.9646  11.00000  0.05    0.18
Q16   1   0.8541  0.7536  0.4170  11.00000  0.05    0.18
Q17   1   0.7438  0.6306  0.8084  11.00000  0.05    0.17
Q18   1   0.4961  0.2518  0.8857  11.00000  0.05    0.17
Q19   1   0.8468  0.5968  0.7734  11.00000  0.05    0.17
Q20   1   0.6220  0.2926  0.8769  11.00000  0.05    0.17
;
_shelx_res_checksum              39843
loop_
_space_group_symop_operation_xyz
'x, y, z'
'-x, y+1/2, -z'
loop_
_atom_site_type_symbol
_atom_site_label
_atom_site_fract_x
_atom_site_fract_y
_atom_site_fract_z
_atom_site_U_iso_or_equiv
_atom_site_adp_type
_atom_site_calc_flag
_atom_site_occupancy
_atom_site_disorder_assembly
_atom_site_disorder_group
Br Br1 0.09055(3) 0.11286(6) 0.95039(2) 0.01878(8) Uani d 1 . .
O O1 0.6730(3) 0.8844(4) 0.83992(15) 0.0238(5) Uani d 1 . .
N N1 0.7763(3) 0.6022(7) 0.76896(13) 0.0138(4) Uani d 1 . .
N N2 0.8022(3) 0.5773(4) 0.58908(14) 0.0128(6) Uani d 1 . .
C C1 0.7544(4) 0.3913(5) 0.72408(19) 0.0170(6) Uani d 1 . .
H H1A 0.666366 0.300535 0.749181 0.020 Uiso calc 1 . .
H H1B 0.870892 0.312654 0.731847 0.020 Uiso calc 1 . .
C C2 0.6896(4) 0.4248(5) 0.62881(19) 0.0170(6) Uani d 1 . .
H H2A 0.688355 0.281887 0.599077 0.020 Uiso calc 1 . .
H H2B 0.564666 0.480861 0.621072 0.020 Uiso calc 1 . .
C C3 0.8331(4) 0.7843(5) 0.63607(18) 0.0151(6) Uani d 1 . .
H H3A 0.719803 0.869390 0.629414 0.018 Uiso calc 1 . .
H H3B 0.923829 0.871335 0.611219 0.018 Uiso calc 1 . .
C C4 0.8985(4) 0.7459(5) 0.73118(19) 0.0153(6) Uani d 1 . .
H H4A 1.019905 0.679267 0.738344 0.018 Uiso calc 1 . .
H H4B 0.907757 0.887866 0.761819 0.018 Uiso calc 1 . .
C C5 0.7688(3) 0.5918(7) 0.49830(16) 0.0139(6) Uani d 1 . .
C C6 0.8200(4) 0.7753(5) 0.4548(2) 0.0187(6) Uani d 1 . .
H H6 0.874536 0.895931 0.486795 0.022 Uiso calc 1 . .
C C7 0.7922(5) 0.7840(5) 0.3655(2) 0.0211(7) Uani d 1 . .
H H7 0.828030 0.910876 0.337573 0.025 Uiso calc 1 . .
C C8 0.7134(3) 0.6116(10) 0.31631(16) 0.0204(5) Uani d 1 . .
H H8 0.694672 0.618576 0.255269 0.024 Uiso calc 1 . .
C C9 0.6633(5) 0.4301(6) 0.3587(2) 0.0234(7) Uani d 1 . .
H H9 0.610006 0.309579 0.326239 0.028 Uiso calc 1 . .
C C10 0.6889(5) 0.4190(5) 0.4478(2) 0.0218(7) Uani d 1 . .
H H10 0.651625 0.291940 0.475097 0.026 Uiso calc 1 . .
C C11 0.6668(4) 0.6894(5) 0.82122(18) 0.0146(6) Uani d 1 . .
C C12 0.5338(4) 0.5444(4) 0.85605(17) 0.0135(6) Uani d 1 . .
C C13 0.5770(4) 0.3395(5) 0.89205(18) 0.0128(6) Uani d 1 . .
H H13 0.696220 0.285267 0.894978 0.015 Uiso calc 1 . .
C C14 0.4476(4) 0.2132(5) 0.92378(17) 0.0134(6) Uani d 1 . .
H H14 0.477362 0.073859 0.948719 0.016 Uiso calc 1 . .
C C15 0.2748(4) 0.2952(5) 0.91818(18) 0.0138(6) Uani d 1 . .
C C16 0.2290(4) 0.5014(5) 0.88668(18) 0.0148(6) Uani d 1 . .
H H16 0.110701 0.556801 0.885896 0.018 Uiso calc 1 . .
C C17 0.3610(3) 0.6267(8) 0.85598(15) 0.0153(5) Uani d 1 . .
H H17 0.332668 0.769940 0.834754 0.018 Uiso calc 1 . .
loop_
_atom_site_aniso_label
_atom_site_aniso_U_11
_atom_site_aniso_U_22
_atom_site_aniso_U_33
_atom_site_aniso_U_12
_atom_site_aniso_U_13
_atom_site_aniso_U_23
Br1 0.01541(13) 0.01942(13) 0.02254(13) -0.0012(2) 0.00626(9) 0.00283(19)
O1 0.0269(12) 0.0140(11) 0.0336(13) -0.0023(9) 0.0145(11) -0.0065(9)
N1 0.0159(10) 0.0124(10) 0.0136(9) -0.0026(16) 0.0042(8) -0.0007(16)
N2 0.0162(11) 0.0102(17) 0.0123(10) -0.0017(9) 0.0032(8) -0.0013(10)
C1 0.0258(17) 0.0119(14) 0.0149(15) -0.0002(12) 0.0081(13) -0.0008(12)
C2 0.0255(17) 0.0119(14) 0.0140(15) -0.0060(12) 0.0050(12) -0.0023(11)
C3 0.0161(16) 0.0129(14) 0.0159(15) -0.0020(11) 0.0016(12) 0.0001(12)
C4 0.0141(15) 0.0179(15) 0.0146(14) -0.0037(11) 0.0044(12) 0.0001(11)
C5 0.0101(11) 0.0178(17) 0.0136(11) 0.0018(15) 0.0010(9) 0.0042(15)
C6 0.0194(17) 0.0190(16) 0.0179(16) -0.0020(13) 0.0030(13) 0.0020(12)
C7 0.0218(18) 0.0223(17) 0.0202(16) -0.0008(13) 0.0066(13) 0.0074(13)
C8 0.0167(12) 0.0307(14) 0.0134(11) 0.004(2) 0.0013(9) 0.002(2)
C9 0.0257(19) 0.0272(18) 0.0167(16) -0.0065(14) 0.0010(13) -0.0038(13)
C10 0.0264(19) 0.0216(17) 0.0166(16) -0.0074(13) 0.0009(13) 0.0012(13)
C11 0.0146(14) 0.0155(13) 0.0130(13) 0.0020(10) 0.0001(11) 0.0007(10)
C12 0.0154(14) 0.0151(15) 0.0097(13) -0.0001(10) 0.0007(11) -0.0019(9)
C13 0.0127(14) 0.0143(14) 0.0115(13) 0.0026(11) 0.0017(11) -0.0019(11)
C14 0.0173(15) 0.0132(14) 0.0095(13) 0.0011(11) 0.0010(11) -0.0014(11)
C15 0.0135(14) 0.0174(15) 0.0110(14) -0.0032(11) 0.0035(11) -0.0015(11)
C16 0.0122(14) 0.0186(15) 0.0138(14) 0.0029(11) 0.0029(11) 0.0007(12)
C17 0.0194(12) 0.0145(14) 0.0117(11) 0.0030(19) 0.0012(9) 0.0014(16)
loop_
_atom_type_symbol
_atom_type_description
_atom_type_scat_dispersion_real
_atom_type_scat_dispersion_imag
_atom_type_scat_source
C C 0.0033 0.0016 'International Tables Vol C Tables 4.2.6.8 and 6.1.1.4'
H H 0.0000 0.0000 'International Tables Vol C Tables 4.2.6.8 and 6.1.1.4'
Br Br -0.2901 2.4595 'International Tables Vol C Tables 4.2.6.8 and 6.1.1.4'
N N 0.0061 0.0033 'International Tables Vol C Tables 4.2.6.8 and 6.1.1.4'
O O 0.0106 0.0060 'International Tables Vol C Tables 4.2.6.8 and 6.1.1.4'
loop_
_geom_angle_atom_site_label_1
_geom_angle_atom_site_label_2
_geom_angle_atom_site_label_3
_geom_angle_site_symmetry_1
_geom_angle_site_symmetry_3
_geom_angle
_geom_angle_publ_flag
C11 N1 C4 . . 119.1(3) ?
C11 N1 C1 . . 127.0(3) ?
C4 N1 C1 . . 111.4(2) ?
C5 N2 C2 . . 116.4(2) ?
C5 N2 C3 . . 116.4(3) ?
C2 N2 C3 . . 113.2(2) ?
N1 C1 C2 . . 110.6(2) ?
N1 C1 H1A . . 109.5 ?
C2 C1 H1A . . 109.5 ?
N1 C1 H1B . . 109.5 ?
C2 C1 H1B . . 109.5 ?
H1A C1 H1B . . 108.1 ?
N2 C2 C1 . . 112.8(2) ?
N2 C2 H2A . . 109.0 ?
C1 C2 H2A . . 109.0 ?
N2 C2 H2B . . 109.0 ?
C1 C2 H2B . . 109.0 ?
H2A C2 H2B . . 107.8 ?
N2 C3 C4 . . 111.4(2) ?
N2 C3 H3A . . 109.3 ?
C4 C3 H3A . . 109.3 ?
N2 C3 H3B . . 109.3 ?
C4 C3 H3B . . 109.3 ?
H3A C3 H3B . . 108.0 ?
N1 C4 C3 . . 111.3(2) ?
N1 C4 H4A . . 109.4 ?
C3 C4 H4A . . 109.4 ?
N1 C4 H4B . . 109.4 ?
C3 C4 H4B . . 109.4 ?
H4A C4 H4B . . 108.0 ?
C6 C5 C10 . . 117.0(2) ?
C6 C5 N2 . . 121.6(3) ?
C10 C5 N2 . . 121.4(3) ?
C7 C6 C5 . . 121.0(3) ?
C7 C6 H6 . . 119.5 ?
C5 C6 H6 . . 119.5 ?
C8 C7 C6 . . 121.5(3) ?
C8 C7 H7 . . 119.3 ?
C6 C7 H7 . . 119.3 ?
C9 C8 C7 . . 117.9(2) ?
C9 C8 H8 . . 121.1 ?
C7 C8 H8 . . 121.1 ?
C8 C9 C10 . . 121.5(3) ?
C8 C9 H9 . . 119.3 ?
C10 C9 H9 . . 119.3 ?
C9 C10 C5 . . 121.2(3) ?
C9 C10 H10 . . 119.4 ?
C5 C10 H10 . . 119.4 ?
O1 C11 N1 . . 121.5(3) ?
O1 C11 C12 . . 119.4(3) ?
N1 C11 C12 . . 119.1(3) ?
C17 C12 C13 . . 119.1(3) ?
C17 C12 C11 . . 117.3(3) ?
C13 C12 C11 . . 123.6(3) ?
C14 C13 C12 . . 120.8(3) ?
C14 C13 H13 . . 119.6 ?
C12 C13 H13 . . 119.6 ?
C15 C14 C13 . . 118.5(3) ?
C15 C14 H14 . . 120.8 ?
C13 C14 H14 . . 120.8 ?
C16 C15 C14 . . 122.4(3) ?
C16 C15 Br1 . . 118.6(2) ?
C14 C15 Br1 . . 119.0(2) ?
C15 C16 C17 . . 118.3(3) ?
C15 C16 H16 . . 120.9 ?
C17 C16 H16 . . 120.9 ?
C12 C17 C16 . . 120.9(4) ?
C12 C17 H17 . . 119.6 ?
C16 C17 H17 . . 119.6 ?
loop_
_geom_bond_atom_site_label_1
_geom_bond_atom_site_label_2
_geom_bond_site_symmetry_2
_geom_bond_distance
_geom_bond_publ_flag
Br1 C15 . 1.904(3) ?
O1 C11 . 1.227(4) ?
N1 C11 . 1.356(4) ?
N1 C4 . 1.460(4) ?
N1 C1 . 1.467(4) ?
N2 C5 . 1.415(3) ?
N2 C2 . 1.461(4) ?
N2 C3 . 1.466(4) ?
C1 C2 . 1.518(4) ?
C1 H1A . 0.9900 ?
C1 H1B . 0.9900 ?
C2 H2A . 0.9900 ?
C2 H2B . 0.9900 ?
C3 C4 . 1.521(4) ?
C3 H3A . 0.9900 ?
C3 H3B . 0.9900 ?
C4 H4A . 0.9900 ?
C4 H4B . 0.9900 ?
C5 C6 . 1.397(5) ?
C5 C10 . 1.401(5) ?
C6 C7 . 1.389(4) ?
C6 H6 . 0.9500 ?
C7 C8 . 1.387(6) ?
C7 H7 . 0.9500 ?
C8 C9 . 1.376(6) ?
C8 H8 . 0.9500 ?
C9 C10 . 1.387(4) ?
C9 H9 . 0.9500 ?
C10 H10 . 0.9500 ?
C11 C12 . 1.500(4) ?
C12 C17 . 1.393(4) ?
C12 C13 . 1.393(4) ?
C13 C14 . 1.391(4) ?
C13 H13 . 0.9500 ?
C14 C15 . 1.383(4) ?
C14 H14 . 0.9500 ?
C15 C16 . 1.379(4) ?
C16 C17 . 1.395(5) ?
C16 H16 . 0.9500 ?
C17 H17 . 0.9500 ?
loop_
_geom_hbond_atom_site_label_D
_geom_hbond_atom_site_label_H
_geom_hbond_atom_site_label_A
_geom_hbond_site_symmetry_A
_geom_hbond_distance_DH
_geom_hbond_distance_HA
_geom_hbond_distance_DA
_geom_hbond_angle_DHA
_geom_hbond_publ_flag
C13 H13 O1 1_545 0.95 2.60 3.018(4) 107.3 no
C14 H14 O1 1_545 0.95 2.68 3.052(4) 104.0 no
loop_
_geom_torsion_atom_site_label_1
_geom_torsion_atom_site_label_2
_geom_torsion_atom_site_label_3
_geom_torsion_atom_site_label_4
_geom_torsion_site_symmetry_1
_geom_torsion_site_symmetry_2
_geom_torsion_site_symmetry_3
_geom_torsion_site_symmetry_4
_geom_torsion
_geom_torsion_publ_flag
C11 N1 C1 C2 . . . . 105.4(3) ?
C4 N1 C1 C2 . . . . -56.4(3) ?
C5 N2 C2 C1 . . . . 170.4(3) ?
C3 N2 C2 C1 . . . . -50.7(3) ?
N1 C1 C2 N2 . . . . 52.8(3) ?
C5 N2 C3 C4 . . . . -170.3(2) ?
C2 N2 C3 C4 . . . . 50.8(3) ?
C11 N1 C4 C3 . . . . -105.9(3) ?
C1 N1 C4 C3 . . . . 57.5(3) ?
N2 C3 C4 N1 . . . . -54.1(3) ?
C2 N2 C5 C6 . . . . 158.2(3) ?
C3 N2 C5 C6 . . . . 20.7(4) ?
C2 N2 C5 C10 . . . . -24.3(4) ?
C3 N2 C5 C10 . . . . -161.8(3) ?
C10 C5 C6 C7 . . . . 0.0(5) ?
N2 C5 C6 C7 . . . . 177.6(3) ?
C5 C6 C7 C8 . . . . -0.2(5) ?
C6 C7 C8 C9 . . . . -0.1(5) ?
C7 C8 C9 C10 . . . . 0.5(5) ?
C8 C9 C10 C5 . . . . -0.7(5) ?
C6 C5 C10 C9 . . . . 0.4(5) ?
N2 C5 C10 C9 . . . . -177.2(3) ?
C4 N1 C11 O1 . . . . -2.8(4) ?
C1 N1 C11 O1 . . . . -163.3(3) ?
C4 N1 C11 C12 . . . . 176.5(2) ?
C1 N1 C11 C12 . . . . 16.0(4) ?
O1 C11 C12 C17 . . . . 42.2(4) ?
N1 C11 C12 C17 . . . . -137.1(3) ?
O1 C11 C12 C13 . . . . -134.3(3) ?
N1 C11 C12 C13 . . . . 46.4(4) ?
C17 C12 C13 C14 . . . . 3.2(4) ?
C11 C12 C13 C14 . . . . 179.6(3) ?
C12 C13 C14 C15 . . . . 0.5(4) ?
C13 C14 C15 C16 . . . . -3.6(4) ?
C13 C14 C15 Br1 . . . . 173.6(2) ?
C14 C15 C16 C17 . . . . 2.9(4) ?
Br1 C15 C16 C17 . . . . -174.3(2) ?
C13 C12 C17 C16 . . . . -3.8(4) ?
C11 C12 C17 C16 . . . . 179.5(3) ?
C15 C16 C17 C12 . . . . 0.9(4) ?

_cod_database_fobs_code 2244179
