#------------------------------------------------------------------------------
#$Date: 2022-02-04 05:22:19 +0200 (Fri, 04 Feb 2022) $
#$Revision: 272550 $
#$URL: file:///home/coder/svn-repositories/cod/cif/2/24/40/2244034.cif $
#------------------------------------------------------------------------------
#
# This file is available in the Crystallography Open Database (COD),
# http://www.crystallography.net/. The original data for this entry
# were provided by IUCr Journals, http://journals.iucr.org/.
#
# The file may be used within the scientific community so long as
# proper attribution is given to the journal article from which the
# data were obtained.
#
data_2244034
loop_
_publ_author_name
'Nugraha, Yuda Prasetya'
'Sugiyama, Haruki'
'Uekusa, Hidehiro'
_publ_section_title
;
 Ciprofloxacin salt and salt co-crystal with dihydroxybenzoic acids
;
_journal_coeditor_code           DX2042
_journal_issue                   3
_journal_name_full               'Acta Crystallographica Section E'
_journal_page_first
;
;
_journal_paper_doi               10.1107/S2056989022001177
_journal_volume                  78
_journal_year                    2022
_chemical_formula_iupac          'C17 H19 F N3 O3 +, C7 H6 O4, Cl -, H2 O'
_chemical_formula_moiety         'C17 H19 F N3 O3 +, C7 H6 O4, Cl -, H2 O'
_chemical_formula_sum            'C24 H27 Cl F N3 O8'
_chemical_formula_weight         539.93
_chemical_name_common
;
Ciprofloxacin chloride--3,5-hydroxybenzoic acid--water (1/1/1)
;
_chemical_name_systematic
'4-(3-Carboxy-1-cyclopropyl-6-fluoro-4-oxo-1,4-dihydroquinolin-7-yl)piperazin-1-ium chloride--3,5-hydroxybenzoic acid--water (1/1/1)'
_space_group_crystal_system      triclinic
_space_group_IT_number           1
_space_group_name_Hall           'P 1'
_space_group_name_H-M_alt        'P 1'
_atom_sites_solution_hydrogens   mixed
_atom_sites_solution_primary     dual
_audit_creation_method
;
Olex2 1.3
(compiled 2020.11.12 svn.r5f609507 for OlexSys, GUI svn.r6408)
;
_cell_angle_alpha                92.997(3)
_cell_angle_beta                 95.219(2)
_cell_angle_gamma                111.557(4)
_cell_formula_units_Z            1
_cell_length_a                   7.2165(2)
_cell_length_b                   8.8298(4)
_cell_length_c                   10.1184(3)
_cell_measurement_reflns_used    10041
_cell_measurement_temperature    93.15
_cell_measurement_theta_max      75.7970
_cell_measurement_theta_min      4.3570
_cell_volume                     594.60(4)
_computing_cell_refinement
;
CrysAlisPro (Rigaku OD, 2020)
;
_computing_data_collection
;
CrysAlisPro (Rigaku OD, 2020)
;
_computing_data_reduction
;
CrysAlisPro (Rigaku OD, 2020)
;
_computing_molecular_graphics
;
<i>OLEX2</i> (Dolomanov <i>et al.</i>,  2009)
;
_computing_publication_material
;
Mercury (Macrae <i>et al.</i>,  2020)
;
_computing_structure_refinement
;
<i>SHELXL2018/3</i> (Sheldrick, 2015b)
;
_computing_structure_solution
;
<i>SHELXT2018/2</i> (Sheldrick, 2015a)
;
_diffrn_ambient_temperature      93.15
_diffrn_detector                 'Hybrid Pixel Array Detector'
_diffrn_detector_area_resol_mean 10.0000
_diffrn_measured_fraction_theta_full 0.999
_diffrn_measured_fraction_theta_max 0.998
_diffrn_measurement_device       'four-circle diffractometer'
_diffrn_measurement_device_type  'XtaLAB Synergy R, DW system, HyPix'
_diffrn_measurement_method       '\w scans'
_diffrn_radiation_monochromator  mirror
_diffrn_radiation_probe          x-ray
_diffrn_radiation_type           'Cu K\a'
_diffrn_radiation_wavelength     1.54184
_diffrn_reflns_av_R_equivalents  0.0348
_diffrn_reflns_av_unetI/netI     0.0273
_diffrn_reflns_limit_h_max       9
_diffrn_reflns_limit_h_min       -9
_diffrn_reflns_limit_k_max       11
_diffrn_reflns_limit_k_min       -10
_diffrn_reflns_limit_l_max       12
_diffrn_reflns_limit_l_min       -12
_diffrn_reflns_number            16358
_diffrn_reflns_theta_full        67.684
_diffrn_reflns_theta_max         74.461
_diffrn_reflns_theta_min         4.407
_diffrn_source                   'Rotating-anode X-ray tube'
_exptl_absorpt_coefficient_mu    1.995
_exptl_absorpt_correction_T_max  1.00000
_exptl_absorpt_correction_T_min  0.83862
_exptl_absorpt_correction_type   multi-scan
_exptl_absorpt_process_details
;
(CrysAlisPro; Rigaku OD, 2020)
;
_exptl_crystal_colour            colourless
_exptl_crystal_density_diffrn    1.508
_exptl_crystal_description       block
_exptl_crystal_F_000             282
_exptl_crystal_size_max          0.28
_exptl_crystal_size_mid          0.2
_exptl_crystal_size_min          0.05
_refine_diff_density_max         0.245
_refine_diff_density_min         -0.468
_refine_ls_abs_structure_details
;
Flack <i>x</i> determined using 1889 quotients
[(<i>I</i>^+^)-(<i>I</i>^-^)]/[(<i>I</i>^+^)+(<i>I</i>^-^)]
(Parsons <i>et al.</i>,  2013)
;
_refine_ls_abs_structure_Flack   0.011(7)
_refine_ls_extinction_method     none
_refine_ls_goodness_of_fit_ref   1.122
_refine_ls_hydrogen_treatment    mixed
_refine_ls_matrix_type           full
_refine_ls_number_parameters     344
_refine_ls_number_reflns         4420
_refine_ls_number_restraints     3
_refine_ls_restrained_S_all      1.121
_refine_ls_R_factor_all          0.0347
_refine_ls_R_factor_gt           0.0341
_refine_ls_shift/su_max          0.000
_refine_ls_shift/su_mean         0.000
_refine_ls_structure_factor_coef Fsqd
_refine_ls_weighting_details
'w=1/[\s^2^(Fo^2^)+(0.0589P)^2^+0.0709P] where P=(Fo^2^+2Fc^2^)/3'
_refine_ls_weighting_scheme      calc
_refine_ls_wR_factor_gt          0.0937
_refine_ls_wR_factor_ref         0.0941
_reflns_number_gt                4323
_reflns_number_total             4420
_reflns_threshold_expression     'I > 2\s(I)'
_cod_data_source_file            dx2042sup1.cif
_cod_data_source_block           II
_cod_database_code               2244034
_shelx_space_group_comment
;
The symmetry employed for this shelxl refinement is uniquely defined
by the following loop, which should always be used as a source of
symmetry information in preference to the above space-group names.
They are only intended as comments.
;
_shelx_estimated_absorpt_t_min   0.605
_shelx_estimated_absorpt_t_max   0.907
_shelx_hkl_file
;
   0   0   1  479.16    6.90
   0   0   1  483.48    7.47
   0   0   2  194.41    3.61
   0   0   2  195.68    4.48
   0   0  -2  199.18    4.51
   0   0   3  171.65    4.86
   0   0   3  160.41    4.48
   0   0  -3  157.14    4.66
   0   0   4    6.55    1.06
   0   0   4    4.12    0.37
   0   0  -4    2.53    0.86
   0   0  -4    1.56    0.67
   0   0   4    5.70    1.08
   0   0  -4    1.84    0.75
   0   0  -5  300.39    8.54
   0   0   5  274.08    8.50
   0   0  -5  295.31    8.09
   0   0  -5  288.84    8.20
   0   0   5  268.05    7.43
   0   0  -5  292.52    7.14
   0   0  -6  157.04    6.24
   0   0   6  166.17    6.61
   0   0  -6  161.28    6.60
   0   0   6  185.65    6.41
   0   0  -6  165.39    6.48
   0   0   6  187.97    7.28
   0   0   6  195.80    7.56
   0   0  -6  167.43    6.92
   0   0  -6  164.68    5.45
   0   0  -6  146.34    6.05
   0   0  -7   58.98    4.17
   0   0  -7   60.36    4.16
   0   0  -7   56.91    4.03
   0   0   7   62.49    4.30
   0   0   7   55.62    4.16
   0   0   7   60.67    4.34
   0   0  -7   67.14    4.59
   0   0   7   59.18    3.79
   0   0   7   53.93    4.04
   0   0   7   57.47    4.22
   0   0  -7   66.58    4.76
   0   0   7   60.57    4.48
   0   0   7   58.40    4.21
   0   0  -7   57.67    4.22
   0   0   7   58.34    4.45
   0   0   7   59.59    4.31
   0   0   8  249.64    9.61
   0   0  -8  234.82    9.07
   0   0  -8  235.07    9.20
   0   0  -8  255.05    9.87
   0   0  -8  241.44    9.29
   0   0   8  252.67    9.76
   0   0   8  242.19    9.54
   0   0   8  239.61    9.26
   0   0  -8  242.32    9.73
   0   0   8  245.24    9.38
   0   0   8  250.57    9.64
   0   0   8  255.19    9.58
   0   0  -8  235.02    9.35
   0   0  -8  245.11   10.20
   0   0   8  254.81   10.23
   0   0   8  247.04   10.16
   0   0   9  264.29   10.19
   0   0  -9  267.47   10.57
   0   0  -9  253.14    9.95
   0   0   9  261.00   10.07
   0   0   9  245.87    9.73
   0   0  -9  249.21   10.80
   0   0  -9  256.64   10.15
   0   0  -9  257.92   10.31
   0   0   9  265.95   11.17
   0   0   9  262.59   10.89
   0   0  -9  248.61    9.66
   0   0  -9  253.94   10.00
   0   0  10   96.18    6.51
   0   0 -10   97.56    6.08
   0   0  10   88.01    5.44
   0   0 -10  100.44    6.06
   0   0  10   86.47    5.44
   0   0 -10  105.81    6.38
   0   0  10  100.48    6.43
   0   0  10   85.76    5.31
   0   0  11    7.79    1.58
   0   0 -11    7.76    1.75
   0   0 -11    7.28    1.86
   0   0 -11    7.86    1.63
   0   0 -11    7.54    1.59
   0   0  11    6.82    1.82
   0   0 -11    7.34    1.79
   0   0  11    7.74    1.71
   0   0 -12   38.45    2.87
   0   0  12   39.05    2.95
   0   1 -12    3.84    1.14
   0  -1  12    2.79    1.05
   0   1 -11    0.98    1.14
   0   1 -11    1.11    0.91
   0   1 -11    1.76    0.98
   0  -1  11    2.55    1.43
   0   1 -11    2.07    1.30
   0   1 -11    3.38    1.40
   0  -1  11    1.73    1.02
   0   1 -10  178.90    8.51
   0   1 -10  181.67    7.98
   0  -1  10  179.68    8.62
   0  -1  10  186.40    8.47
   0   1 -10  173.26    8.30
   0  -1  10  182.35    8.93
   0   1 -10  180.32    8.36
   0  -1  10  173.25    7.90
   0   1 -10  186.24    8.50
   0   1  -9   79.47    5.62
   0  -1   9   84.41    6.11
   0  -1   9   67.97    5.30
   0  -1   9   68.80    5.36
   0   1  -9   76.96    5.61
   0   1  -9   74.31    4.73
   0  -1   9   66.35    4.70
   0  -1   9   73.42    5.54
   0  -1   9   76.90    5.71
   0   1  -9   74.65    5.51
   0  -1   9   68.92    5.14
   0  -1   9   71.53    5.41
   0  -1   8  131.65    7.14
   0  -1   8  140.10    7.25
   0  -1   8  131.11    6.46
   0   1  -8  160.73    7.71
   0  -1   8  130.87    7.09
   0  -1   8  133.24    7.05
   0   1  -8  148.25    7.15
   0  -1   8  125.60    6.39
   0  -1   8  129.12    6.49
   0   1  -8  150.28    7.45
   0  -1   8  133.93    7.25
   0  -1   8  133.34    7.22
   0  -1   8  136.94    7.05
   0  -1   8  138.33    7.33
   0   1  -8  148.36    7.38
   0  -1   7  144.72    6.87
   0  -1   7  140.94    6.87
   0  -1   7  143.68    6.40
   0   1  -7  145.08    6.61
   0   1  -7  136.87    6.40
   0  -1   7  142.21    6.34
   0  -1   7  144.49    6.97
   0  -1   7  144.96    6.86
   0   1  -7  141.55    6.71
   0   1  -7  130.14    6.31
   0  -1   7  155.09    6.79
   0   1  -7  147.19    6.55
   0   1  -7  136.37    6.56
   0  -1   7  144.54    6.98
   0  -1   7  151.95    7.18
   0  -1   7  149.67    7.11
   0   1  -7  138.00    6.65
   0  -1   7  151.34    6.96
   0  -1   6   59.31    3.94
   0   1  -6   50.10    3.47
   0   1  -6   52.19    3.57
   0   1  -6   47.64    3.55
   0  -1   6   62.37    4.11
   0  -1   6   58.33    3.92
   0   1  -6   50.02    3.47
   0   1  -6   53.16    3.52
   0  -1   6   63.67    3.97
   0   1  -6   53.67    3.18
   0  -1   6   62.40    4.09
   0  -1   6   60.71    4.06
   0  -1   6   58.59    3.95
   0  -1   5   16.88    1.87
   0  -1   5   17.86    2.08
   0   1  -5   27.40    2.07
   0  -1   5   20.13    2.04
   0   1  -5   27.36    2.21
   0  -1   5   15.23    1.31
   0  -1   4  399.64    8.97
   0  -1   4  402.53    9.43
   0  -1   4  405.90    9.23
   0   1  -4  374.54    8.32
   0  -1   4  403.49    7.70
   0   1  -4  377.35    8.36
   0  -1   3  154.06    4.33
   0  -1   3  146.09    4.45
   0   1  -3  150.11    3.95
   0   1  -3  155.32    4.22
   0  -1   2  673.83   11.00
   0   1  -2  681.41   10.98
   0   1  -2  687.95   10.95
   0   1  -2  670.84   10.22
   0  -1   1  253.26    4.06
   0  -1   1  263.32    4.84
   0  -1   1  258.01    4.76
   0  -1   0   94.87    1.73
   0  -1   0   92.82    1.93
   0  -1  -1 1255.25   16.82
   0   1   1 1297.62   17.30
   0   1   1 1313.23   16.85
   0  -1  -1 1208.44   16.28
   0  -1  -1 1177.63   17.32
   0  -1  -1 1217.28   16.95
   0   1   2 1295.35   17.02
   0  -1  -2 1148.83   17.96
   0  -1  -2 1208.10   16.88
   0   1   2 1270.82   17.98
   0  -1  -2 1185.28   18.34
   0  -1  -3  742.49   13.03
   0   1   3  741.79   12.90
   0  -1  -3  736.69   13.21
   0  -1  -4  169.20    5.52
   0  -1  -4  169.57    5.66
   0   1   4  153.18    4.31
   0  -1  -5  570.70   13.06
   0  -1  -5  563.53   12.93
   0   1   5  600.04   11.28
   0  -1  -6    0.65    0.76
   0  -1  -6    1.33    0.97
   0   1   6    1.69    1.02
   0  -1  -6    0.54    0.64
   0   1   6    1.79    0.69
   0   1   6    1.92    1.02
   0   1   7   91.99    5.16
   0   1   7   91.33    5.62
   0  -1  -7   93.25    5.47
   0   1   7   98.79    5.95
   0   1   7   92.97    5.39
   0  -1  -7   89.93    5.27
   0  -1  -7   91.87    5.18
   0   1   7   98.83    5.91
   0   1   7   90.12    5.09
   0  -1  -7   89.19    5.16
   0  -1  -7   93.05    5.71
   0   1   7   89.95    5.05
   0   1   7   88.92    4.92
   0  -1  -7   90.75    5.65
   0   1   7   96.94    5.36
   0  -1  -7   81.06    4.90
   0   1   7   96.57    5.16
   0   1   8   13.37    2.15
   0  -1  -8   13.84    2.32
   0  -1  -8   16.44    2.61
   0   1   8   14.46    2.61
   0  -1  -8   11.37    2.13
   0  -1  -8   13.62    2.53
   0   1   8   15.78    2.70
   0  -1  -8   11.67    2.34
   0   1   8   12.49    2.22
   0  -1  -8   11.48    2.21
   0   1   8   12.15    2.55
   0   1   8   12.50    2.15
   0  -1  -9  102.34    6.42
   0  -1  -9  100.04    6.03
   0   1   9   95.34    6.24
   0   1   9   90.68    6.42
   0  -1  -9   90.47    5.67
   0  -1  -9   86.27    6.26
   0   1   9   86.39    5.46
   0   1   9   77.43    4.91
   0  -1  -9   99.09    5.90
   0  -1  -9  105.81    6.27
   0   1  10   47.40    3.86
   0  -1 -10   51.67    4.14
   0  -1 -10   61.25    4.78
   0   1  10   51.74    4.71
   0  -1 -10   53.32    4.38
   0  -1 -10   55.21    4.37
   0   1  10   56.13    4.56
   0  -1 -10   56.53    4.69
   0  -1 -11    0.40    0.97
   0   1  11    1.18    1.05
   0  -1 -11    0.89    0.92
   0  -1 -11    0.38    0.91
   0   1  11    0.67    0.76
   0   1  11    1.38    1.08
   0   1  12  119.23    4.77
   0  -1 -12  120.65    4.53
   0  -2  12   23.04    2.15
   0  -2  12   24.65    2.01
   0   2 -11    1.99    0.94
   0  -2  11    4.03    1.46
   0   2 -11    4.11    1.50
   0  -2  11    4.42    1.34
   0  -2  10   60.92    4.89
   0   2 -10   64.01    4.98
   0   2 -10   60.21    4.42
   0   2 -10   70.46    5.28
   0   2 -10   62.49    4.86
   0  -2  10   57.79    4.89
   0  -2  10   60.50    4.99
   0  -2  10   56.42    4.68
   0   2 -10   70.08    5.22
   0  -2  10   58.77    4.62
   0  -2   9   39.58    4.18
   0   2  -9   32.68    3.76
   0  -2   9   34.22    3.63
   0   2  -9   36.40    3.97
   0   2  -9   31.49    3.07
   0   2  -9   33.16    3.56
   0  -2   9   40.55    4.22
   0  -2   9   33.36    3.69
   0  -2   9   40.13    4.27
   0   2  -9   32.30    3.73
   0  -2   9   38.80    4.02
   0  -2   9   35.93    4.07
   0   2  -9   33.00    3.78
   0  -2   9   36.34    3.93
   0   2  -9   33.41    3.98
   0  -2   9   36.98    3.93
   0   2  -8  390.15   12.68
   0  -2   8  363.92   12.04
   0  -2   8  342.57   12.29
   0   2  -8  378.19   11.21
   0   2  -8  393.86   12.88
   0   2  -8  374.10   11.99
   0  -2   8  367.26   12.26
   0  -2   8  369.90   12.95
   0  -2   8  374.10   12.41
   0  -2   8  353.56   12.31
   0   2  -8  380.22   13.04
   0   2  -8  364.08   12.26
   0  -2   8  367.85   12.38
   0  -2   8  368.83   12.66
   0  -2   7  215.64    8.89
   0  -2   7  210.07    8.48
   0   2  -7  219.02    8.77
   0   2  -7  216.36    7.87
   0  -2   7  224.06    9.04
   0  -2   7  237.52    9.09
   0  -2   7  227.12    8.97
   0   2  -7  241.37    9.38
   0   2  -7  208.95    7.72
   0   2  -7  221.87    8.76
   0  -2   7  225.85    8.86
   0  -2   7  211.84    8.53
   0   2  -6   56.87    3.98
   0  -2   6   75.39    4.47
   0   2  -6   69.12    4.43
   0  -2   6   77.63    4.73
   0  -2   6   77.74    3.46
   0   2  -6   65.35    4.28
   0  -2   6   72.29    4.59
   0   2  -6   63.67    3.88
   0  -2   6   78.57    4.79
   0  -2   6   70.35    4.31
   0  -2   6   80.04    4.67
   0  -2   5  183.23    6.89
   0  -2   5  179.78    5.47
   0   2  -5  202.80    6.60
   0   2  -5  211.12    7.09
   0  -2   5  183.76    6.56
   0   2  -4  514.44    9.43
   0  -2   4  621.69   12.06
   0   2  -4  588.85   11.93
   0   2  -4  545.52   10.19
   0   2  -3  860.61   14.62
   0   2  -3  840.34   13.71
   0   2  -3  848.38   15.00
   0   2  -2  361.85    6.94
   0   2  -2  367.30    7.73
   0  -2   2  352.27    6.32
   0  -2   2  389.98    7.92
   0  -2   2  381.15    7.92
   0   2  -1  203.05    3.90
   0   2  -1  212.04    5.04
   0  -2   1  195.42    4.85
   0  -2   1  205.09    4.30
   0  -2   1  200.44    4.74
   0  -2   0  219.39    3.85
   0  -2   0  214.89    4.35
   0  -2   0  214.96    4.77
   0  -2   0  210.94    3.79
   0  -2   0  226.24    4.93
   0  -2  -1    0.54    0.45
   0  -2  -1    0.42    0.42
   0   2   1    1.30    0.32
   0   2   1    1.19    0.49
   0  -2  -1    0.41    0.34
   0  -2  -2  853.67   14.08
   0   2   2  845.69   12.94
   0  -2  -2  838.78   12.92
   0   2   2  872.20   13.61
   0  -2  -3 1422.37   22.13
   0   2   3 1305.37   20.70
   0  -2  -3 1328.89   19.45
   0   2   3 1337.87   20.02
   0  -2  -3 1392.84   21.23
   0  -2  -4 1102.33   19.70
   0  -2  -4 1098.94   18.92
   0   2   4 1131.27   19.68
   0  -2  -5  365.88   10.45
   0   2   5  345.51   10.17
   0  -2  -5  363.86    9.93
   0   2   6    6.92    1.59
   0   2   6    7.56    1.78
   0   2   6    7.12    1.60
   0  -2  -6   10.76    1.93
   0   2   6    6.32    1.63
   0  -2  -7   39.48    3.59
   0   2   7   34.55    3.74
   0  -2  -7   41.76    4.08
   0   2   7   29.83    3.15
   0  -2  -7   35.76    3.63
   0  -2  -7   45.93    4.02
   0   2   7   34.84    3.61
   0   2   7   37.36    3.82
   0   2   7   31.70    3.27
   0   2   7   33.90    3.71
   0   2   7   32.60    3.50
   0  -2  -8   55.56    4.55
   0  -2  -8   56.69    4.43
   0   2   8   47.24    4.54
   0  -2  -8   53.68    4.41
   0  -2  -8   51.75    4.11
   0  -2  -8   49.28    4.40
   0   2   8   38.68    4.00
   0   2   8   33.54    3.47
   0  -2  -8   46.62    4.48
   0   2   8   38.20    3.60
   0   2   8   40.61    4.23
   0   2   9   26.56    3.47
   0  -2  -9   23.36    3.02
   0  -2  -9   24.06    3.01
   0  -2  -9   25.18    3.23
   0   2   9   20.30    3.02
   0  -2  -9   22.65    3.19
   0   2   9   19.88    3.15
   0  -2 -10   30.73    3.31
   0  -2 -10   31.05    3.11
   0  -2 -10   31.35    3.26
   0   2  10   32.96    3.55
   0  -2 -10   38.66    3.81
   0   2  10   26.31    2.90
   0   2  10   31.06    3.49
   0  -2 -10   35.27    3.54
   0   2  10   34.63    3.81
   0   2  10   33.49    3.49
   0   2  11   36.08    3.21
   0   2  11   34.79    3.06
   0  -2 -11   32.77    2.95
   0  -2 -12   12.48    1.36
   0   3 -12  124.17    4.97
   0  -3  12  131.12    4.71
   0   3 -11   54.48    3.74
   0  -3  11   57.28    3.86
   0  -3  11   62.66    4.04
   0  -3  10   24.05    2.87
   0   3 -10   21.12    2.59
   0  -3  10   26.59    3.09
   0   3 -10   17.01    2.60
   0  -3  10   24.49    3.11
   0  -3  10   25.93    3.11
   0  -3  10   26.01    3.16
   0   3  -9   17.49    2.84
   0  -3   9   25.22    2.82
   0  -3   9   24.83    3.29
   0  -3   9   26.18    3.36
   0  -3   9   21.62    3.30
   0   3  -9   16.99    2.97
   0   3  -9   18.18    2.62
   0  -3   9   23.94    3.28
   0  -3   9   26.69    3.36
   0  -3   9   25.29    3.27
   0   3  -9   16.12    2.79
   0  -3   9   23.99    3.06
   0  -3   8   39.42    4.22
   0  -3   8   35.21    3.97
   0   3  -8   30.52    3.69
   0  -3   8   35.82    3.91
   0   3  -8   27.20    2.96
   0   3  -8   31.70    3.41
   0  -3   8   37.60    4.07
   0   3  -8   29.70    3.62
   0  -3   8   38.68    4.14
   0  -3   8   38.55    4.12
   0   3  -8   28.93    3.14
   0  -3   8   31.71    3.63
   0  -3   8   32.41    3.49
   0  -3   8   40.32    3.98
   0   3  -8   30.75    3.64
   0   3  -8   30.34    3.56
   0  -3   8   41.45    4.34
   0  -3   7   76.49    5.40
   0  -3   7   80.87    5.51
   0   3  -7   80.24    5.66
   0   3  -7   82.04    5.39
   0  -3   7   69.25    4.93
   0   3  -7   80.76    5.37
   0   3  -7   73.53    5.08
   0   3  -7   73.12    4.88
   0   3  -7   72.16    4.58
   0   3  -7   79.91    5.38
   0  -3   7   72.20    5.27
   0  -3   7   79.26    5.45
   0  -3   7   73.46    5.32
   0  -3   7   73.85    5.12
   0  -3   7   69.60    4.69
   0   3  -7   66.53    4.52
   0  -3   7   77.77    5.61
   0   3  -7   77.46    4.78
   0   3  -6  138.45    6.26
   0  -3   6  155.51    7.10
   0  -3   6  148.71    6.94
   0   3  -6  161.22    7.45
   0   3  -6  158.44    6.72
   0  -3   6  149.15    6.99
   0  -3   6  157.82    7.08
   0   3  -6  152.65    6.96
   0   3  -6  149.76    6.29
   0  -3   6  155.66    5.74
   0   3  -6  172.16    7.18
   0   3  -6  155.15    6.73
   0  -3   6  154.61    6.81
   0   3  -6  164.11    6.83
   0  -3   6  147.39    7.18
   0  -3   6  158.22    7.07
   0  -3   6  142.89    6.23
   0  -3   6  157.42    7.02
   0  -3   5  245.01    8.17
   0   3  -5  267.01    8.36
   0  -3   5  231.74    8.19
   0   3  -5  249.99    8.41
   0   3  -5  282.34    9.25
   0  -3   5  229.77    8.38
   0   3  -5  274.33    8.53
   0  -3   4   44.70    3.25
   0  -3   4   44.77    3.04
   0   3  -4   43.73    2.80
   0   3  -4   37.43    2.36
   0   3  -4   38.94    2.87
   0  -3   4   45.62    3.03
   0  -3   3   10.49    1.53
   0  -3   3   10.21    1.41
   0   3  -3   12.97    1.59
   0   3  -3   13.68    1.52
   0   3  -3   15.02    1.43
   0  -3   2  419.76    9.45
   0  -3   2  400.71    9.20
   0  -3   2  407.14    7.84
   0   3  -2  417.22    9.53
   0   3  -2  438.69    9.36
   0   3  -2  415.96    7.82
   0   3  -1  455.37    9.74
   0   3  -1  457.85    8.98
   0  -3   1  455.01    9.11
   0  -3   1  436.15    8.66
   0  -3   1  454.33    9.78
   0  -3   0  403.02    8.60
   0  -3   0  413.83    6.79
   0  -3   0  416.74    6.91
   0   3   0  416.96    8.37
   0  -3  -1  164.57    5.17
   0  -3  -1  164.11    4.29
   0   3   1  163.53    4.65
   0  -3  -1  173.35    4.90
   0   3   1  161.97    3.28
   0   3   2  392.02    8.67
   0  -3  -2  331.28    6.78
   0  -3  -2  339.76    7.94
   0   3   2  367.90    6.65
   0  -3  -2  326.28    7.43
   0   3   2  380.31    8.13
   0   3   3  266.29    6.86
   0  -3  -3  252.95    6.39
   0  -3  -3  274.86    7.56
   0  -3  -4  201.99    6.40
   0   3   4  212.78    7.13
   0  -3  -4  216.38    7.39
   0  -3  -5  236.06    7.82
   0   3   5  249.56    8.10
   0   3   5  249.20    8.36
   0  -3  -5  257.31    9.03
   0   3   6   10.86    1.98
   0   3   6   11.68    2.11
   0  -3  -6   17.48    2.32
   0   3   6   11.85    2.28
   0  -3  -6   18.54    2.54
   0  -3  -6   19.07    2.77
   0   3   6   12.35    2.08
   0   3   6   12.33    2.21
   0   3   6   10.88    2.03
   0   3   6   11.95    2.27
   0   3   7   80.91    5.32
   0   3   7   80.35    5.51
   0   3   7   75.89    5.30
   0  -3  -7   70.90    4.98
   0   3   7   83.36    5.58
   0  -3  -7   71.52    5.07
   0  -3  -7   66.14    5.36
   0  -3  -7   62.83    4.28
   0   3   7   78.20    5.43
   0   3   7   76.47    5.49
   0   3   8  152.54    7.68
   0  -3  -8  135.83    7.04
   0  -3  -8  146.78    7.48
   0   3   8  163.30    8.48
   0  -3  -8  131.33    7.02
   0  -3  -8  121.99    7.54
   0   3   8  157.13    7.63
   0   3   8  153.22    8.37
   0   3   8  154.98    7.50
   0  -3  -8  133.88    7.57
   0   3   8  146.83    7.39
   0   3   9  107.31    6.64
   0  -3  -9   99.38    5.88
   0   3   9   91.94    5.52
   0  -3  -9   97.52    5.65
   0  -3  -9   93.89    5.87
   0   3   9   95.99    5.75
   0   3   9   89.63    5.78
   0   3  10   20.81    2.33
   0  -3 -10   26.23    2.81
   0   3  10   24.61    3.01
   0   3  10   23.94    2.70
   0  -3 -10   23.31    2.50
   0  -3 -10   26.40    2.89
   0  -3 -11    9.97    1.56
   0   3  11    7.15    1.44
   0   4 -12   79.18    3.07
   0  -4  12   61.60    2.65
   0   4 -11   84.52    4.51
   0  -4  11   83.13    4.39
   0   4 -11   76.65    4.58
   0   4 -10   32.13    3.41
   0  -4  10   32.96    3.23
   0  -4  10   37.14    3.80
   0  -4  10   35.25    3.57
   0  -4   9   59.60    5.11
   0   4  -9   73.42    5.46
   0  -4   9   44.72    3.88
   0  -4   9   62.10    5.09
   0   4  -9   68.32    4.71
   0  -4   9   57.89    4.91
   0  -4   9   60.00    5.07
   0   4  -9   61.95    4.85
   0  -4   9   57.05    4.62
   0  -4   9   59.86    5.21
   0  -4   8   29.81    3.67
   0  -4   8   27.69    3.64
   0   4  -8   28.98    3.66
   0  -4   8   33.87    3.98
   0   4  -8   25.28    3.27
   0  -4   8   31.29    3.56
   0   4  -8   26.82    3.30
   0   4  -8   26.47    3.14
   0  -4   8   30.02    3.70
   0  -4   8   28.93    3.71
   0   4  -8   23.71    2.79
   0  -4   8   32.93    3.97
   0  -4   8   27.08    3.45
   0  -4   8   30.93    3.90
   0   4  -8   25.47    3.16
   0   4  -7   18.87    2.92
   0  -4   7    9.03    2.20
   0   4  -7   11.52    2.17
   0  -4   7    8.89    1.95
   0   4  -7   13.17    2.33
   0   4  -7   12.13    2.07
   0   4  -7   12.47    2.21
   0  -4   7    7.75    2.07
   0  -4   7   14.83    2.65
   0  -4   7   17.81    2.79
   0  -4   7   12.79    2.29
   0  -4   7    7.50    1.87
   0   4  -7   13.10    2.41
   0   4  -7   15.78    2.44
   0  -4   7    7.78    2.05
   0   4  -6   53.66    4.16
   0   4  -6   53.91    4.26
   0  -4   6   50.31    4.14
   0   4  -6   55.33    4.60
   0  -4   6   53.30    4.16
   0  -4   6   50.80    4.20
   0   4  -6   51.89    4.01
   0   4  -6   50.63    3.89
   0  -4   6   47.61    4.14
   0  -4   6   52.78    4.53
   0   4  -6   55.12    4.23
   0  -4   6   48.09    4.28
   0  -4   6   50.57    4.19
   0  -4   6   55.16    4.41
   0   4  -6   51.90    4.01
   0  -4   6   53.30    4.11
   0   4  -6   59.47    4.19
   0  -4   5  155.25    6.73
   0  -4   5  160.81    7.01
   0   4  -5  157.60    7.32
   0   4  -5  173.49    6.52
   0  -4   5  157.14    6.92
   0  -4   5  152.50    6.65
   0   4  -5  154.88    6.59
   0   4  -5  157.56    6.56
   0  -4   5  172.56    7.71
   0  -4   5  175.68    7.23
   0   4  -5  150.88    6.68
   0   4  -5  153.04    6.60
   0   4  -5  169.12    7.24
   0  -4   5  153.81    7.06
   0   4  -4  202.78    7.76
   0  -4   4  204.26    7.87
   0  -4   4  225.39    7.79
   0  -4   4  219.87    7.76
   0   4  -4  211.49    7.02
   0   4  -4  205.40    7.89
   0   4  -4  201.57    6.40
   0   4  -3  231.05    7.96
   0   4  -3  244.79    7.61
   0  -4   3  252.50    7.91
   0  -4   3  234.49    7.93
   0  -4   3  249.55    8.18
   0   4  -2   36.50    2.81
   0   4  -2   37.40    2.56
   0   4  -2   36.26    2.88
   0  -4   2   29.06    2.54
   0  -4   2   28.94    1.97
   0  -4   2   27.76    2.34
   0  -4   2   28.34    2.49
   0   4  -1  400.63   10.49
   0   4  -1  401.02    9.34
   0  -4   1  432.39    9.52
   0  -4   1  430.14   10.56
   0  -4   1  414.62    9.52
   0  -4   1  431.82   10.43
   0   4   0    1.53    0.69
   0   4   0    1.53    0.35
   0  -4   0    4.70    1.11
   0  -4   0    4.47    1.02
   0   4   1  161.50    5.28
   0   4   1  167.65    6.25
   0  -4  -1  176.18    6.19
   0  -4  -1  170.14    4.72
   0  -4  -2    6.02    1.13
   0  -4  -2    6.15    1.34
   0  -4  -2    4.96    1.06
   0  -4  -3   95.02    5.20
   0  -4  -3  101.06    4.70
   0   4   3  113.71    4.93
   0  -4  -3   89.00    3.80
   0   4   3  106.01    5.18
   0   4   4   49.35    3.77
   0  -4  -4   49.75    3.68
   0   4   4   52.70    4.07
   0   4   4   50.14    4.04
   0   4   4   49.70    3.87
   0   4   4   52.42    3.52
   0   4   4   48.83    3.79
   0   4   5    1.01    1.12
   0  -4  -5    0.48    0.93
   0  -4  -5    0.66    0.77
   0   4   5    1.90    1.12
   0   4   5    1.69    1.25
   0   4   5    2.08    1.36
   0   4   5    1.68    1.10
   0   4   5    1.07    0.91
   0   4   5    1.27    1.19
   0   4   6   65.90    5.08
   0  -4  -6   72.34    5.28
   0  -4  -6   60.46    4.93
   0   4   6   68.26    5.05
   0   4   6   70.62    5.35
   0   4   6   70.79    5.42
   0   4   6   59.24    4.69
   0   4   6   60.71    4.34
   0   4   6   66.36    4.72
   0   4   7    8.02    1.85
   0   4   7    8.90    2.23
   0  -4  -7   10.10    2.27
   0  -4  -7    9.05    2.06
   0   4   7    6.44    1.78
   0   4   7    8.21    1.77
   0   4   7    9.73    2.28
   0  -4  -7    7.95    1.78
   0   4   7    8.34    2.05
   0   4   7    9.61    2.35
   0   4   7    7.45    1.69
   0   4   8   92.61    5.37
   0  -4  -8  130.66    6.69
   0   4   8  106.03    6.10
   0   4   8  120.81    7.15
   0   4   8   96.68    5.55
   0   4   8  113.96    6.54
   0   4   8  122.72    7.35
   0   4   8  110.64    6.99
   0  -4  -9    2.10    1.23
   0   4   9    4.25    1.28
   0   4   9    5.28    1.81
   0   4   9    4.54    1.42
   0   4   9    5.91    1.90
   0  -4  -9    3.17    1.44
   0  -4  -9    1.83    1.14
   0  -4 -10    2.68    0.92
   0  -4 -10    2.92    1.10
   0  -4 -10    2.57    1.02
   0  -4 -10    2.15    0.90
   0   4  10    5.28    1.48
   0   4  10    4.42    1.43
   0   4  11    0.24    0.44
   0   5 -11    0.07    0.58
   0  -5  11    0.07    0.59
   0  -5  10    2.43    1.25
   0   5 -10    1.77    0.78
   0  -5  10    3.23    1.32
   0   5 -10    1.42    1.00
   0   5 -10    3.33    1.21
   0   5  -9   68.29    4.70
   0  -5   9   71.87    4.69
   0  -5   9   76.44    5.42
   0   5  -9   66.12    4.70
   0   5  -9   69.36    5.37
   0  -5   9   74.41    4.99
   0  -5   8   28.89    3.29
   0   5  -8   26.03    3.10
   0  -5   8   33.41    3.72
   0   5  -8   24.21    3.48
   0  -5   8   27.87    3.54
   0   5  -8   19.60    2.92
   0   5  -8   26.88    3.33
   0  -5   8   30.40    3.66
   0  -5   7   68.77    5.31
   0  -5   7   65.11    5.40
   0  -5   7   58.01    4.77
   0   5  -7   64.49    5.48
   0  -5   7   59.60    5.00
   0  -5   7   59.71    5.40
   0  -5   7   59.49    5.06
   0  -5   7   60.66    5.00
   0   5  -7   66.30    4.74
   0  -5   7   66.26    4.85
   0  -5   7   66.11    5.47
   0   5  -7   61.28    4.85
   0  -5   6   11.94    2.36
   0  -5   6   13.56    2.46
   0  -5   6   10.61    2.12
   0   5  -6   13.39    2.63
   0   5  -6   13.32    2.32
   0   5  -6   15.40    2.57
   0  -5   6   13.46    2.38
   0  -5   6   11.28    2.46
   0  -5   6   11.24    2.26
   0   5  -6   12.09    2.10
   0  -5   6   10.92    2.05
   0  -5   6   10.99    2.12
   0  -5   6   12.51    2.40
   0   5  -5   35.46    3.43
   0  -5   5   43.29    3.93
   0   5  -5   36.67    3.37
   0  -5   5   43.10    3.53
   0  -5   5   45.22    3.96
   0  -5   5   50.76    4.36
   0  -5   5   50.39    4.42
   0  -5   5   45.22    3.73
   0  -5   5   44.58    3.87
   0   5  -5   39.09    3.97
   0  -5   5   46.14    3.90
   0  -5   5   46.98    3.75
   0   5  -4  294.28    9.73
   0   5  -4  288.93    9.23
   0   5  -4  295.17   10.01
   0   5  -4  327.93   10.06
   0  -5   4  314.40    9.75
   0   5  -4  308.52    9.55
   0   5  -4  301.93    9.49
   0   5  -4  321.44   11.10
   0  -5   4  335.65   11.11
   0  -5   4  337.12   10.73
   0  -5   4  322.42    9.61
   0   5  -4  303.30    9.78
   0   5  -4  307.65   10.66
   0  -5   4  305.32    9.81
   0   5  -3   67.20    4.30
   0   5  -3   67.21    4.60
   0  -5   3   48.43    3.77
   0  -5   3   54.83    4.14
   0  -5   3   57.03    4.01
   0   5  -3   65.02    4.32
   0  -5   3   55.34    4.20
   0   5  -3   60.06    4.07
   0   5  -3   57.54    3.97
   0   5  -3   60.56    4.33
   0   5  -3   58.78    3.81
   0   5  -2   70.15    4.61
   0   5  -2   85.05    4.99
   0  -5   2   92.38    5.19
   0  -5   2   74.86    3.72
   0  -5   2   75.02    4.28
   0  -5   2   83.39    4.91
   0   5  -2   79.99    4.82
   0   5  -2   82.45    4.30
   0   5  -1  356.14   10.74
   0   5  -1  365.88   11.08
   0  -5   1  352.07   10.43
   0   5  -1  362.19    9.50
   0   5  -1  335.29   10.40
   0  -5   1  361.42   10.77
   0   5   0  121.53    5.93
   0  -5   0  107.14    5.12
   0   5   0  134.08    5.01
   0  -5   0  112.00    5.42
   0   5   0  121.79    5.08
   0  -5  -1  152.08    6.55
   0   5   1  159.95    6.89
   0   5   1  140.28    5.97
   0   5   1  146.59    5.42
   0  -5  -1  150.97    6.22
   0   5   2  194.91    7.10
   0   5   2  199.88    7.63
   0   5   2  211.79    8.07
   0   5   2  213.65    7.88
   0  -5  -2  208.86    8.35
   0   5   2  233.89    8.42
   0   5   2  218.14    8.16
   0  -5  -2  189.80    6.85
   0   5   2  202.61    7.70
   0   5   2  215.28    8.35
   0   5   2  222.81    8.00
   0   5   3   46.37    3.67
   0   5   3   41.32    3.42
   0   5   3   44.12    3.80
   0   5   3   40.74    3.31
   0   5   3   42.96    3.69
   0  -5  -3   34.79    2.93
   0  -5  -3   46.20    4.00
   0   5   3   46.74    3.91
   0   5   3   49.52    3.72
   0   5   3   42.82    2.98
   0   5   3   43.61    3.59
   0   5   3   46.04    3.61
   0   5   3   42.00    3.72
   0   5   3   45.64    4.11
   0   5   3   51.73    4.28
   0   5   4   40.65    3.72
   0   5   4   34.81    3.63
   0   5   4   37.31    3.69
   0   5   4   35.94    3.45
   0  -5  -4   35.89    3.35
   0  -5  -4   39.66    3.92
   0   5   4   36.41    3.66
   0   5   4   31.64    2.85
   0   5   4   39.25    3.83
   0   5   4   41.94    4.12
   0   5   4   38.05    3.94
   0   5   4   34.26    3.19
   0   5   5  307.68   10.81
   0   5   5  320.99   11.27
   0   5   5  306.27   11.05
   0   5   5  321.94   11.76
   0   5   5  310.02   11.50
   0   5   5  330.83   12.03
   0   5   6  306.76   11.26
   0  -5  -6  302.07   11.72
   0   5   6  302.57   11.71
   0   5   6  319.80   12.12
   0   5   6  296.65   11.68
   0   5   6  286.98   10.87
   0   5   6  308.29   11.40
   0   5   7   12.62    2.43
   0   5   7   14.64    2.44
   0  -5  -7   10.97    1.98
   0   5   7   12.56    2.37
   0   5   7   14.72    2.75
   0   5   7   15.23    2.76
   0   5   7   13.52    2.72
   0   5   8   42.35    3.90
   0   5   8   34.27    3.25
   0  -5  -8   43.43    3.68
   0   5   8   29.51    2.98
   0   5   8   35.81    3.61
   0   5   8   39.74    3.97
   0   5   8   40.58    3.99
   0   5   9    6.83    1.28
   0  -5  -9    4.98    1.20
   0   5   9    6.23    1.59
   0   5   9    6.06    1.37
   0  -5  -9    6.12    1.53
   0  -5  -9    6.65    1.46
   0  -5 -10   21.08    1.91
   0  -5 -10   13.91    1.45
   0  -5 -10   19.14    1.84
   0   5  10   14.75    1.70
   0  -6  10    7.22    1.40
   0   6 -10    8.15    1.49
   0  -6  10    7.06    1.36
   0  -6   9   17.35    2.63
   0   6  -9   21.48    2.80
   0   6  -9   18.42    2.17
   0  -6   9   15.77    2.36
   0  -6   9   16.34    2.40
   0   6  -9   20.83    2.46
   0   6  -8   63.44    4.76
   0   6  -8   57.77    4.89
   0  -6   8   57.80    4.07
   0  -6   8   72.15    5.42
   0   6  -8   63.11    4.72
   0  -6   8   65.01    4.86
   0   6  -8   46.96    3.68
   0  -6   7   23.32    3.41
   0   6  -7   22.53    3.39
   0  -6   7   21.79    2.99
   0  -6   7   23.23    2.86
   0   6  -7   24.76    3.29
   0   6  -7   22.09    3.18
   0  -6   7   23.14    3.14
   0  -6   6    6.82    2.05
   0  -6   6    7.07    1.87
   0   6  -6    5.59    1.85
   0  -6   6    5.96    1.91
   0  -6   6    6.64    1.82
   0  -6   6    6.24    1.89
   0   6  -6    5.03    1.53
   0   6  -6    6.28    1.88
   0  -6   6    5.65    1.58
   0  -6   6    6.43    1.86
   0  -6   5  164.33    7.28
   0   6  -5  197.63    8.73
   0   6  -5  183.12    7.59
   0  -6   5  202.64    9.14
   0  -6   5  201.84    9.52
   0  -6   5  164.05    8.56
   0   6  -5  184.36    7.64
   0   6  -5  201.74    9.46
   0   6  -5  189.42    8.27
   0   6  -5  184.01    8.97
   0  -6   5  178.23    7.78
   0   6  -5  176.44    7.51
   0  -6   5  186.76    7.74
   0   6  -4  904.23   20.11
   0   6  -4  909.35   20.14
   0   6  -4  930.68   22.21
   0  -6   4  903.54   20.95
   0   6  -4  896.08   20.51
   0   6  -4  860.51   18.45
   0   6  -4  894.58   19.98
   0   6  -4  915.18   21.86
   0   6  -3  152.96    7.31
   0   6  -3  141.57    7.13
   0   6  -3  158.05    7.32
   0   6  -3  162.42    8.05
   0  -6   3  164.64    7.74
   0  -6   3  171.50    8.16
   0   6  -3  161.36    7.73
   0  -6   3  170.93    8.23
   0   6  -3  159.52    7.45
   0   6  -3  144.00    6.88
   0   6  -3  152.95    6.83
   0   6  -3  153.54    7.78
   0   6  -2  234.04    9.32
   0   6  -2  237.80    8.99
   0   6  -2  231.67    9.34
   0   6  -2  239.69    9.70
   0  -6   2  225.39    9.38
   0   6  -2  252.19    9.84
   0  -6   2  230.48    9.40
   0   6  -2  217.72    8.18
   0   6  -2  236.30    9.17
   0   6  -2  232.56    9.55
   0   6  -2  241.02    8.39
   0   6  -1   93.30    5.74
   0   6  -1   96.45    5.56
   0   6  -1   92.50    5.78
   0   6  -1   98.37    6.01
   0   6  -1   87.29    4.71
   0  -6   1  110.18    6.32
   0  -6   1   96.84    5.04
   0   6  -1  100.40    6.18
   0  -6   1  109.90    6.13
   0   6  -1   90.59    4.52
   0   6  -1  101.84    5.16
   0   6  -1   96.42    5.54
   0   6  -1   96.17    5.73
   0   6  -1   90.02    4.79
   0  -6   0   62.48    4.50
   0   6   0   57.17    3.53
   0   6   0   56.15    4.51
   0   6   0   51.57    3.81
   0  -6   0   58.08    4.20
   0  -6   0   68.33    5.01
   0   6   0   57.33    4.55
   0   6   0   55.30    4.19
   0   6   1  125.67    6.67
   0   6   1  128.11    6.24
   0  -6  -1  120.81    6.46
   0   6   1  132.05    6.88
   0   6   1  137.63    7.23
   0  -6  -1  115.71    6.05
   0   6   1  123.60    6.62
   0   6   1  131.18    6.73
   0   6   1  132.82    6.80
   0   6   2   15.86    2.42
   0  -6  -2    9.49    2.05
   0   6   2   13.42    2.32
   0   6   2   13.21    2.46
   0   6   2   12.25    2.26
   0   6   2   13.54    2.42
   0   6   2   11.89    2.19
   0   6   2   12.06    2.27
   0   6   3  243.46    9.18
   0   6   3  244.88    9.94
   0   6   3  245.01    9.71
   0  -6  -3  248.77   10.36
   0   6   3  266.04   10.64
   0   6   3  238.05    9.13
   0   6   3  258.24   10.13
   0   6   3  248.80    9.41
   0   6   3  235.56    8.74
   0   6   4  495.62   15.05
   0   6   4  462.55   12.53
   0  -6  -4  474.47   15.28
   0   6   4  517.68   15.74
   0   6   4  454.32   12.58
   0   6   4  415.63   12.44
   0   6   4  495.29   14.72
   0   6   4  488.79   13.83
   0   6   4  468.12   13.12
   0   6   5   14.13    2.68
   0  -6  -5   14.55    2.74
   0   6   5   13.18    2.47
   0   6   5   16.65    3.03
   0   6   5   15.58    2.91
   0   6   5   13.79    2.43
   0   6   6    9.81    2.23
   0  -6  -6    9.51    1.84
   0   6   6    8.01    1.91
   0   6   6   12.25    2.44
   0   6   7   41.28    3.56
   0  -6  -7   31.26    2.96
   0   6   7   40.08    3.73
   0   6   7   48.32    4.28
   0   6   7   40.89    3.90
   0  -6  -8   85.86    4.44
   0  -6  -8  101.55    5.07
   0   6   8  108.93    5.56
   0   6   8  106.47    5.39
   0   6   8   94.03    4.37
   0   6   9    2.96    0.94
   0  -6  -9    3.28    0.88
   0  -6  -9    4.32    1.06
   0  -7  10   14.50    1.36
   0   7 -10    9.35    1.09
   0   7  -9   63.89    3.27
   0  -7   9   70.58    3.94
   0   7  -9   67.85    3.45
   0  -7   9   75.34    4.03
   0   7  -9   74.56    4.23
   0  -7   8    5.75    1.48
   0  -7   8    3.33    1.44
   0   7  -8    7.43    1.74
   0   7  -8    9.87    1.80
   0  -7   8    3.95    1.15
   0  -7   8    5.97    1.66
   0   7  -8    8.97    1.87
   0   7  -8    8.79    1.58
   0   7  -7   10.39    2.11
   0   7  -7    9.39    2.12
   0   7  -7    9.66    1.95
   0  -7   7    8.89    2.09
   0  -7   6   12.51    2.48
   0   7  -6    7.96    2.09
   0   7  -6    9.41    2.24
   0   7  -5   10.85    2.10
   0  -7   5   15.74    2.70
   0   7  -5   14.09    2.68
   0   7  -5   16.19    2.80
   0  -7   5   15.05    2.67
   0  -7   5   15.55    2.27
   0   7  -5   14.86    2.64
   0   7  -5   14.40    2.37
   0   7  -4  343.95   11.74
   0  -7   4  346.20   11.74
   0   7  -4  349.97   12.94
   0  -7   4  350.27   12.42
   0   7  -4  351.68   11.91
   0  -7   4  351.72   13.20
   0   7  -4  348.23   12.87
   0   7  -4  347.84   11.70
   0   7  -3  137.97    7.79
   0   7  -3  134.74    7.35
   0   7  -3  130.20    7.59
   0  -7   3  114.27    6.85
   0  -7   3  104.73    6.92
   0   7  -3  132.58    7.30
   0   7  -3  132.44    7.22
   0   7  -3  127.36    6.58
   0   7  -2  180.57    8.89
   0   7  -2  175.34    8.04
   0   7  -2  165.69    8.34
   0   7  -2  169.11    8.66
   0  -7   2  136.41    7.79
   0  -7   2  162.00    8.17
   0   7  -2  181.72    8.88
   0  -7   2  145.01    7.99
   0   7  -2  169.53    8.38
   0   7  -2  167.37    8.24
   0   7  -2  173.97    7.30
   0   7  -1  129.75    6.90
   0   7  -1  122.72    7.16
   0   7  -1  127.46    7.30
   0  -7   1  127.15    7.41
   0   7  -1  130.50    7.54
   0  -7   1  121.53    7.01
   0   7  -1  118.33    6.48
   0   7  -1  131.17    7.24
   0   7   0   58.50    4.66
   0   7   0   53.86    4.04
   0  -7   0   59.04    5.12
   0  -7   0   51.46    4.22
   0   7   0   54.01    4.11
   0   7   0   55.45    4.72
   0  -7   0   56.81    4.72
   0   7   1   21.97    3.20
   0   7   1   20.96    2.76
   0  -7  -1   16.86    2.68
   0   7   1   20.49    3.13
   0   7   1   19.90    3.00
   0   7   1   19.39    2.88
   0   7   1   20.15    3.07
   0   7   2   68.45    5.16
   0   7   2   66.74    4.94
   0  -7  -2   69.99    5.56
   0   7   2   69.77    5.67
   0   7   2   74.36    5.61
   0   7   2   72.56    5.23
   0   7   2   75.55    5.55
   0   7   2   60.26    4.62
   0   7   2   74.96    5.38
   0   7   3   89.81    5.59
   0   7   3   99.24    6.31
   0   7   3  101.84    6.87
   0   7   3   90.87    5.65
   0   7   3   97.76    6.45
   0   7   3   94.32    5.76
   0   7   4   29.75    3.11
   0   7   4   31.80    3.62
   0   7   4   27.72    2.91
   0   7   4   27.75    2.87
   0   7   4   37.06    4.25
   0   7   4   35.23    4.01
   0   7   5   14.79    2.47
   0   7   5   18.72    3.00
   0   7   6   59.90    4.54
   0   7   6   62.58    4.18
   0   7   7    0.58    0.58
   0   7   7    0.16    0.67
   0   7   7    0.27    0.88
   0  -7  -7    1.11    0.73
   0  -7  -8   38.68    2.35
   0  -7  -8   45.17    2.72
   0  -8   8   27.20    2.27
   0   8  -8   26.65    2.43
   0  -8   8   34.46    2.49
   0  -8   8   33.08    2.61
   0  -8   8   31.57    2.63
   0   8  -8   25.26    2.19
   0  -8   7   25.18    2.74
   0  -8   7   19.22    2.38
   0   8  -7   26.49    2.77
   0   8  -7   22.97    2.55
   0   8  -7   24.37    2.50
   0  -8   7   25.02    2.74
   0   8  -7   26.62    2.81
   0   8  -6   16.90    2.56
   0   8  -6   14.47    2.36
   0  -8   6   13.33    2.14
   0  -8   6   16.87    2.61
   0   8  -6   16.01    2.46
   0   8  -5   23.80    3.13
   0  -8   5   20.36    2.58
   0   8  -5   23.23    3.05
   0  -8   5   26.11    3.25
   0   8  -5   24.18    2.73
   0   8  -4   47.28    4.16
   0  -8   4   49.87    3.86
   0   8  -4   49.29    4.51
   0  -8   4   44.67    4.08
   0   8  -4   51.13    4.57
   0   8  -4   49.24    4.22
   0   8  -3   61.43    4.91
   0  -8   3   54.42    4.28
   0   8  -3   60.01    4.87
   0   8  -2   14.06    2.62
   0   8  -2   14.05    2.46
   0   8  -2   11.79    2.46
   0   8  -2   15.03    2.73
   0   8  -2   11.69    2.20
   0   8  -1   75.67    5.49
   0   8  -1   70.94    4.76
   0   8  -1   83.31    5.85
   0   8  -1   74.76    5.60
   0   8  -1   77.24    5.20
   0   8  -1   60.91    4.52
   0   8   0  186.82    8.61
   0   8   0  176.50    7.95
   0   8   1  181.65    8.34
   0   8   1  175.39    8.33
   0   8   1  167.31    7.78
   0   8   1  160.99    8.03
   0   8   2   38.05    3.69
   0   8   2   33.03    3.76
   0   8   2   33.62    3.60
   0   8   2   29.61    3.35
   0   8   2   33.69    3.57
   0   8   3   45.25    3.78
   0   8   3   49.67    4.44
   0   8   3   54.30    4.04
   0   8   3   52.70    4.01
   0   8   4   27.08    2.60
   0   8   4   44.80    4.02
   0   8   5    7.72    1.29
   0  -8  -5   13.51    1.81
   0   8   6    8.09    1.47
   0  -8  -6    8.03    1.19
   0  -9   7    7.32    1.08
   0   9  -7    5.23    0.84
   0   9  -6   56.02    3.31
   0  -9   6   46.74    3.02
   0  -9   6   51.62    3.43
   0  -9   5   24.80    2.72
   0   9  -5   36.35    2.95
   0   9  -5   22.15    2.20
   0   9  -5   33.92    2.96
   0   9  -5   24.29    2.07
   0  -9   5   23.98    2.29
   0   9  -5   18.60    1.84
   0   9  -4   62.65    4.01
   0   9  -4   58.59    3.83
   0  -9   4   56.92    4.16
   0   9  -3   35.41    3.09
   0  -9   3   29.13    3.08
   0  -9   3   27.18    2.57
   0   9  -3   37.14    3.39
   0   9  -3   36.07    3.40
   0   9  -2   10.36    1.91
   0   9  -2   13.66    2.41
   0  -9   2   13.64    2.13
   0   9  -1   50.68    3.74
   0   9  -1   65.65    4.68
   0   9  -1   65.42    4.67
   0  -9   0   27.71    2.78
   0   9   0   22.51    2.44
   0   9   0   30.82    2.91
   0   9   1   15.37    2.17
   0   9   1   16.57    2.38
   0   9   1   21.35    2.64
   0   9   1   16.20    2.11
   0   9   2   16.12    2.20
   0   9   2   15.93    2.09
   0   9   2   16.60    2.07
   0   9   2   21.25    2.35
   0   9   3    2.38    0.89
   0  -9  -3    3.63    1.01
   0   9   3    2.25    1.05
   0   9   4    1.73    0.69
   0  -9  -4    1.92    0.75
   0   9   4    1.92    0.85
   0   9   5   22.83    1.82
   0  10  -4    2.12    0.62
   0 -10   3    8.60    1.29
   0  10  -3    6.22    0.97
   0  10  -3    6.23    1.10
   0  10  -3    6.16    1.07
   0  10  -2   12.03    1.58
   0  10  -2   14.76    1.73
   0 -10   2   11.23    1.40
   0 -10   2   10.12    1.30
   0  10  -2   17.08    1.82
   0  10  -1    9.63    1.44
   0 -10   1    9.17    1.17
   0  10   0    9.61    1.39
   0  10   0   12.36    1.52
   0  10   0    9.04    1.33
   0  10   1    8.59    1.07
   0  10   1    8.30    1.12
  -1  10   3   12.25    1.31
  -1  10   2    7.84    1.23
  -1  10   1    0.36    0.74
  -1  10   1    1.63    0.85
  -1  10   1    1.99    0.82
  -1  10   0   16.21    2.08
  -1  10   0   13.08    1.92
  -1  10   0   12.79    1.89
  -1  10  -1   40.67    3.22
  -1  10  -1   43.21    3.38
  -1  10  -1   39.16    3.21
  -1  10  -2   17.42    1.84
  -1  10  -2   18.87    2.21
   1 -10   2   13.79    1.61
  -1  10  -2   20.14    2.32
  -1  10  -2   18.96    2.27
  -1  10  -3    2.00    0.90
   1 -10   3    1.38    0.87
  -1  10  -3    2.43    1.00
  -1  10  -3    1.92    0.93
   1 -10   4   37.62    2.71
  -1  10  -4   43.89    2.83
  -1  10  -4   40.86    2.61
  -1  10  -4   26.86    2.04
  -1  10  -4   27.50    2.10
   1 -10   5    0.05    0.60
  -1  10  -5    1.17    0.67
  -1   9   6   11.49    1.19
  -1   9   5   28.73    2.02
  -1   9   5   55.02    3.19
  -1   9   4   22.31    2.11
  -1   9   4   28.66    2.68
  -1   9   4   31.14    3.02
  -1   9   3    7.64    1.54
  -1   9   3    5.60    1.25
  -1   9   3    5.74    1.52
  -1   9   3    9.85    1.97
  -1   9   2   98.69    5.63
  -1   9   2  109.35    5.65
  -1   9   2   99.54    5.59
  -1   9   2   96.29    5.69
  -1   9   1    6.12    1.65
  -1   9   1    7.32    1.93
  -1   9   1    7.05    1.90
  -1   9   1    7.31    1.79
  -1   9   0   96.73    5.74
  -1   9  -1   66.33    4.29
  -1   9  -1   66.40    5.24
  -1   9  -1   61.64    4.58
  -1   9  -1   56.55    4.26
  -1   9  -1   72.38    5.17
  -1   9  -2   43.37    3.68
  -1   9  -2   43.35    4.06
  -1   9  -2   38.96    3.69
  -1   9  -3   30.74    3.25
  -1   9  -3   28.12    3.34
  -1   9  -3   30.25    3.31
  -1   9  -3   31.38    3.40
  -1   9  -4   11.53    2.02
   1  -9   4   10.72    1.89
  -1   9  -4    9.86    1.89
  -1   9  -4    9.74    1.92
  -1   9  -4   11.98    2.16
  -1   9  -5   13.56    1.81
   1  -9   5   21.54    2.58
  -1   9  -5   23.34    2.79
  -1   9  -5   13.94    1.81
  -1   9  -5   22.17    2.66
  -1   9  -6   19.36    2.27
   1  -9   6   13.95    1.97
  -1   9  -6   17.89    2.24
  -1   9  -6   17.03    2.09
  -1   9  -7   62.70    3.28
   1  -9   7   68.03    3.46
   1  -9   7   70.67    3.61
   1  -9   7   69.86    3.57
   1  -8  -7   26.67    1.91
  -1   8   7   19.71    1.89
  -1   8   6  112.62    5.50
  -1   8   6  116.19    5.43
  -1   8   6   98.00    5.01
  -1   8   5   11.69    2.22
  -1   8   5   10.08    2.01
  -1   8   5    9.63    1.88
  -1   8   4    0.38    1.07
  -1   8   4    0.47    0.72
  -1   8   4    0.82    0.88
  -1   8   3    8.36    1.98
  -1   8   3    6.27    1.91
  -1   8   3    8.97    1.93
  -1   8   3    5.93    1.96
  -1   8   3    8.26    1.86
  -1   8   2  175.66    7.92
  -1   8   2  176.70    8.77
  -1   8   2  185.06    8.97
  -1   8   2  179.34    8.21
  -1   8   2  186.55    9.05
  -1   8   2  168.55    7.92
  -1   8   1    8.59    2.03
   1  -8  -1    5.13    1.73
  -1   8   1    5.82    1.95
  -1   8   1    6.05    1.67
  -1   8   1    8.45    2.13
  -1   8   1    5.82    1.42
  -1   8   1    7.87    2.04
  -1   8   1    6.95    2.04
  -1   8   0   40.86    4.13
  -1   8   0   39.58    3.80
  -1   8   0   33.88    3.49
   1  -8   0   43.38    4.42
  -1   8   0   37.84    3.55
  -1   8   0   40.97    4.11
  -1   8   0   37.84    3.97
  -1   8  -1   93.93    6.29
   1  -8   1   64.74    5.39
   1  -8   1   60.86    5.17
  -1   8  -1   88.19    5.65
  -1   8  -1   95.07    5.74
   1  -8   1   60.62    4.97
  -1   8  -1   82.81    5.74
  -1   8  -1   88.09    6.06
  -1   8  -1   83.50    5.64
  -1   8  -2   10.58    2.42
   1  -8   2   12.66    2.43
   1  -8   2   12.07    2.38
  -1   8  -2   11.02    2.37
  -1   8  -2   13.89    2.66
  -1   8  -2   12.48    2.48
  -1   8  -2   10.71    2.35
   1  -8   2   10.52    2.26
   1  -8   2   10.73    2.26
  -1   8  -3   72.57    5.30
  -1   8  -3   49.73    3.93
  -1   8  -3   72.95    5.57
  -1   8  -3   69.78    5.23
  -1   8  -3   69.24    5.42
   1  -8   3   63.21    5.31
   1  -8   4   17.20    2.66
  -1   8  -4   27.14    3.46
  -1   8  -4   23.05    3.24
  -1   8  -4   27.66    3.29
  -1   8  -4   29.20    3.66
  -1   8  -4   25.16    2.93
   1  -8   5  133.46    7.07
  -1   8  -5  147.37    7.75
  -1   8  -5  144.42    7.80
  -1   8  -5  127.58    6.19
  -1   8  -5  154.55    7.75
  -1   8  -5  126.90    6.57
  -1   8  -5  146.50    7.49
   1  -8   6   30.71    3.44
  -1   8  -6   42.85    4.01
  -1   8  -6   42.64    4.00
  -1   8  -6   43.77    3.89
  -1   8  -6   41.21    3.67
  -1   8  -6   44.80    3.96
   1  -8   7   16.16    2.42
  -1   8  -7   18.77    2.51
  -1   8  -7   15.01    2.17
  -1   8  -7   21.56    2.56
  -1   8  -7   18.05    2.50
  -1   8  -7   21.44    2.50
   1  -8   8    7.42    1.52
  -1   8  -8    7.45    1.45
  -1   8  -8    5.57    1.24
  -1   8  -8    6.41    1.34
   1  -8   8    6.50    1.26
  -1   8  -8    7.49    1.46
  -1   8  -8    5.42    1.06
   1  -8   8    7.50    1.49
  -1   8  -9   35.02    2.17
   1  -8   9   48.57    2.56
   1  -8   9   54.26    2.78
  -1   8  -9   35.31    2.30
  -1   7   9    1.96    0.56
  -1   7   8   11.44    1.56
   1  -7  -8   10.97    1.39
   1  -7  -8   13.34    1.69
  -1   7   7   25.22    2.73
  -1   7   7   37.84    3.54
  -1   7   7   33.13    3.13
   1  -7  -7   27.29    2.44
  -1   7   6   56.50    4.68
  -1   7   6   50.30    4.49
  -1   7   6   46.20    4.12
  -1   7   6   49.88    4.32
  -1   7   5   44.06    4.40
  -1   7   5   46.16    4.57
  -1   7   5   48.43    4.49
   1  -7  -4   83.29    6.14
  -1   7   4   72.12    4.73
  -1   7   4   83.48    5.99
  -1   7   4   75.40    5.13
  -1   7   4   71.69    4.53
  -1   7   4   85.97    6.13
  -1   7   4   79.53    5.33
  -1   7   3    5.65    2.03
  -1   7   3    5.69    1.84
  -1   7   3    5.81    1.73
   1  -7  -3    2.79    1.36
  -1   7   3    4.85    1.57
  -1   7   3    5.15    1.86
  -1   7   3    4.93    1.69
  -1   7   3    6.31    1.65
  -1   7   2   52.26    4.52
   1  -7  -2   42.65    4.19
  -1   7   2   49.38    4.39
  -1   7   2   52.13    4.46
  -1   7   2   54.59    4.77
  -1   7   2   51.72    4.72
  -1   7   2   52.78    4.34
  -1   7   2   55.41    4.95
  -1   7   1   58.50    4.28
  -1   7   1   69.41    5.17
  -1   7   1   70.01    5.21
  -1   7   1   69.15    5.03
   1  -7  -1   52.81    4.33
   1  -7  -1   62.11    5.14
  -1   7   1   57.72    4.10
  -1   7   1   64.70    5.18
  -1   7   1   67.75    4.97
  -1   7   1   68.99    5.34
  -1   7   0   52.47    4.36
   1  -7   0   69.78    5.28
  -1   7   0   53.87    4.24
   1  -7   0   59.94    4.59
  -1   7   0   56.31    4.61
  -1   7   0   59.38    4.84
  -1   7   0   58.25    4.82
  -1   7  -1   92.20    6.00
  -1   7  -1   92.72    5.93
  -1   7  -1   94.59    6.08
  -1   7  -1   95.76    5.76
   1  -7   1   91.81    6.07
  -1   7  -1   97.12    5.81
   1  -7   1   94.71    5.95
  -1   7  -1   99.20    5.96
  -1   7  -1  103.41    6.47
  -1   7  -2  277.21   10.96
  -1   7  -2  294.13   10.10
  -1   7  -2  289.32   10.77
  -1   7  -2  278.42   10.63
  -1   7  -2  297.78   11.37
   1  -7   2  263.28   10.61
   1  -7   2  275.64   10.82
  -1   7  -2  254.11    9.27
   1  -7   2  284.06   10.94
  -1   7  -2  265.70   10.42
  -1   7  -2  278.21   10.63
  -1   7  -3  217.33    9.72
   1  -7   3  193.23    9.04
   1  -7   3  182.17    8.86
   1  -7   3  174.26    8.82
  -1   7  -3  202.45    8.80
  -1   7  -3  214.18    9.22
  -1   7  -3  207.27    8.90
  -1   7  -3  203.71    8.40
  -1   7  -4  343.84   11.37
  -1   7  -4  339.72   12.52
  -1   7  -4  327.01   12.34
   1  -7   4  308.51   11.87
   1  -7   4  299.96   12.14
  -1   7  -4  319.61   11.13
  -1   7  -4  320.55   11.03
  -1   7  -5   89.92    6.35
  -1   7  -5   90.29    6.37
   1  -7   5   81.06    5.99
   1  -7   5  102.24    6.69
  -1   7  -5   96.65    6.09
  -1   7  -5   98.71    5.62
   1  -7   5   93.21    5.69
  -1   7  -6   91.67    5.98
   1  -7   6   77.54    5.27
  -1   7  -6   89.27    6.32
  -1   7  -6   86.22    6.12
  -1   7  -7    1.52    1.26
   1  -7   7    3.66    1.51
  -1   7  -7    2.12    1.43
   1  -7   7    4.38    1.79
  -1   7  -7    0.96    1.10
   1  -7   7    3.51    1.39
  -1   7  -7    1.55    1.15
   1  -7   8    9.13    1.84
   1  -7   8   10.19    2.15
  -1   7  -8    9.50    1.95
  -1   7  -8   11.19    1.91
   1  -7   8    8.03    1.96
  -1   7  -8    8.44    1.56
  -1   7  -8    8.02    1.86
   1  -7   9   12.70    1.99
  -1   7  -9    9.86    1.71
  -1   7  -9    6.72    1.12
   1  -7   9   11.21    1.78
   1  -7   9    9.20    1.60
   1  -7   9   12.98    1.80
  -1   7  -9    8.58    1.52
   1  -7   9   12.71    1.91
   1  -7  10   12.94    1.38
  -1   7 -10    8.56    1.22
  -1   6   9   38.91    2.77
   1  -6  -9   31.22    2.26
   1  -6  -9   39.43    2.81
  -1   6   8   18.59    2.67
  -1   6   8   19.31    2.51
  -1   6   8   17.10    2.37
   1  -6  -8   18.33    2.29
  -1   6   7    5.90    1.99
  -1   6   7    5.59    1.73
  -1   6   7    4.01    1.52
  -1   6   7    5.67    1.62
  -1   6   6   11.99    2.54
  -1   6   6   11.86    2.50
  -1   6   6   11.68    2.52
  -1   6   6    9.77    2.26
  -1   6   6   10.87    2.33
   1  -6  -6    7.09    1.96
  -1   6   5  492.37   15.43
  -1   6   5  498.68   15.69
  -1   6   5  475.76   13.64
  -1   6   5  498.00   15.55
  -1   6   5  497.91   15.36
  -1   6   5  505.73   15.71
   1  -6  -5  506.12   15.86
  -1   6   4  628.09   15.30
  -1   6   4  680.20   18.17
   1  -6  -4  664.09   18.29
  -1   6   4  659.98   16.94
  -1   6   4  673.32   18.46
  -1   6   4  648.20   16.34
  -1   6   4  685.57   18.18
  -1   6   4  680.08   18.63
   1  -6  -3   52.91    4.52
  -1   6   3   41.50    4.05
  -1   6   3   46.29    3.88
  -1   6   3   41.83    3.93
  -1   6   3   47.68    4.33
  -1   6   3   47.64    4.29
  -1   6   3   46.05    3.71
  -1   6   3   43.18    4.11
  -1   6   3   44.66    3.76
  -1   6   2  123.75    6.62
  -1   6   2  112.06    5.98
  -1   6   2  112.20    6.27
  -1   6   2  113.57    6.39
  -1   6   2  122.81    6.70
  -1   6   2  112.06    6.44
  -1   6   2  111.23    5.99
   1  -6  -2  115.92    6.34
  -1   6   2  118.66    6.50
  -1   6   2  123.95    6.08
  -1   6   2  131.42    7.03
  -1   6   1   91.09    5.69
  -1   6   1   85.59    5.21
  -1   6   1   84.16    4.64
   1  -6  -1   71.11    4.62
  -1   6   1   93.22    5.62
  -1   6   1   82.12    4.61
   1  -6  -1   73.87    4.42
  -1   6   1   94.32    5.88
  -1   6   1   96.06    5.63
  -1   6   1   92.58    5.63
  -1   6   1   93.09    5.55
  -1   6   1   92.07    5.43
  -1   6   1   90.26    5.19
  -1   6   0   17.67    2.38
  -1   6   0   18.56    2.50
  -1   6   0   19.34    2.65
   1  -6   0   23.22    2.74
   1  -6   0   20.68    2.31
  -1   6   0   16.99    2.49
   1  -6   0   20.77    2.48
  -1   6   0   16.27    2.40
  -1   6   0   17.99    2.51
  -1   6   0   16.06    2.31
  -1   6  -1  201.13    8.19
  -1   6  -1  203.08    8.12
  -1   6  -1  207.50    8.59
   1  -6   1  209.91    6.89
   1  -6   1  225.24    8.74
   1  -6   1  219.10    8.42
  -1   6  -1  192.95    8.23
  -1   6  -1  194.75    6.25
  -1   6  -1  222.21    8.33
  -1   6  -1  202.85    8.65
  -1   6  -1  193.26    8.04
  -1   6  -1  212.00    8.19
  -1   6  -2   93.21    5.45
  -1   6  -2   86.44    5.29
  -1   6  -2   90.03    5.60
   1  -6   2  102.32    5.79
   1  -6   2  107.09    5.91
   1  -6   2   97.38    4.99
  -1   6  -2   76.93    4.64
  -1   6  -2   83.62    5.21
   1  -6   2  104.67    5.89
  -1   6  -2   84.60    4.18
  -1   6  -2   90.35    5.04
  -1   6  -2   89.05    5.53
  -1   6  -2   80.58    5.13
  -1   6  -2   90.66    5.29
  -1   6  -3   49.84    4.11
  -1   6  -3   44.85    3.80
  -1   6  -3   45.21    4.09
   1  -6   3   63.19    4.61
   1  -6   3   60.78    4.30
   1  -6   3   60.37    4.53
  -1   6  -3   46.62    3.83
   1  -6   3   64.94    4.87
  -1   6  -3   49.71    3.38
  -1   6  -3   44.34    3.78
  -1   6  -4   28.63    3.09
  -1   6  -4   31.41    3.57
   1  -6   4   36.94    3.72
   1  -6   4   40.26    3.81
  -1   6  -4   25.83    3.09
   1  -6   4   43.91    3.99
  -1   6  -4   29.45    3.14
  -1   6  -4   31.29    2.90
  -1   6  -4   31.38    3.53
  -1   6  -4   27.12    3.30
   1  -6   5  541.90   16.36
  -1   6  -5  541.70   16.53
  -1   6  -5  547.39   14.28
   1  -6   5  536.73   14.87
  -1   6  -5  580.19   16.91
   1  -6   5  597.26   16.73
  -1   6  -5  594.42   17.05
   1  -6   5  560.27   15.24
  -1   6  -6   22.21    3.06
  -1   6  -6   24.76    3.38
   1  -6   6   20.68    2.83
   1  -6   6   19.89    2.98
   1  -6   6   20.25    3.24
  -1   6  -6   21.46    2.80
   1  -6   6   19.48    2.98
  -1   6  -6   19.92    3.09
   1  -6   6   19.98    3.22
   1  -6   6   18.99    2.73
   1  -6   6   18.69    2.92
  -1   6  -6   24.85    3.26
  -1   6  -7   61.09    4.64
   1  -6   7   71.95    5.14
   1  -6   7   71.29    5.37
  -1   6  -7   61.49    5.27
  -1   6  -7   61.29    4.32
   1  -6   7   70.26    5.64
   1  -6   7   70.53    5.14
   1  -6   7   77.43    5.57
   1  -6   7   62.59    5.14
  -1   6  -8  157.10    8.16
   1  -6   8  163.46    7.58
   1  -6   8  167.41    7.99
  -1   6  -8  156.32    6.89
   1  -6   8  171.49    8.18
   1  -6   8  163.57    8.12
  -1   6  -8  142.07    6.35
  -1   6  -8  164.57    8.25
  -1   6  -8  166.88    6.98
   1  -6   9    3.27    1.37
   1  -6   9    7.23    1.80
   1  -6   9    3.68    1.38
  -1   6  -9    5.85    1.57
   1  -6   9    4.39    1.52
  -1   6  -9    2.94    1.30
  -1   6 -10   26.23    2.60
  -1   6 -10   22.95    2.23
   1  -6  10   27.76    2.54
   1  -6  10   27.34    2.55
   1  -6  10   29.21    2.71
   1  -6  10   28.68    2.69
   1  -6  11   32.81    1.93
  -1   6 -11   17.15    1.45
   1  -5 -10   12.79    1.58
   1  -5 -10   14.29    1.93
  -1   5  10   17.79    1.82
   1  -5  -9  105.50    5.37
   1  -5  -9   95.42    4.84
  -1   5   9   97.54    5.35
  -1   5   8   29.72    3.47
  -1   5   8   34.23    3.49
  -1   5   8   35.45    3.96
   1  -5  -8   33.76    3.11
  -1   5   7    1.64    1.40
  -1   5   7    2.78    1.52
  -1   5   7    1.71    1.28
  -1   5   7    0.96    1.22
   1  -5  -7    1.03    1.05
   1  -5  -7    0.29    0.94
  -1   5   7    1.55    1.07
  -1   5   7    1.67    1.29
   1  -5  -7    0.59    0.97
  -1   5   7    1.89    1.08
  -1   5   6  206.31    9.10
   1  -5  -6  196.68    8.99
  -1   5   6  205.77    9.10
  -1   5   6  200.71    9.27
  -1   5   6  205.61    9.51
  -1   5   6  216.58    9.52
  -1   5   6  201.55    9.19
   1  -5  -6  211.22    9.58
  -1   5   5  226.52    9.08
  -1   5   5  236.27    9.23
   1  -5  -5  204.87    8.73
   1  -5  -5  218.29    9.55
  -1   5   5  240.84    9.90
  -1   5   5  259.30   10.12
  -1   5   5  233.07    9.67
  -1   5   5  233.99    8.85
  -1   5   5  225.56    8.68
  -1   5   5  244.47   10.00
  -1   5   5  244.94   10.03
  -1   5   5  236.00    9.78
  -1   5   4   18.36    2.66
   1  -5  -4   22.34    2.65
  -1   5   4   16.03    2.36
  -1   5   4   18.17    2.64
  -1   5   4   14.61    2.11
  -1   5   4   15.64    2.27
  -1   5   4   18.55    2.69
  -1   5   4   18.26    2.76
  -1   5   4   18.84    2.54
  -1   5   4   17.36    2.41
  -1   5   4   15.64    2.52
  -1   5   3  106.59    5.80
  -1   5   3  102.70    5.06
   1  -5  -3  121.77    5.42
  -1   5   3  104.97    5.15
  -1   5   3  109.38    5.68
  -1   5   3  109.12    6.00
  -1   5   3  115.11    6.04
  -1   5   3  105.45    5.73
  -1   5   3   99.87    5.61
   1  -5  -2  242.60    8.46
   1  -5  -2  240.96    7.18
  -1   5   2  212.09    7.43
  -1   5   2  222.31    8.19
   1  -5  -2  231.55    6.76
   1  -5  -1  516.18   11.84
   1  -5  -1  486.07   10.41
   1  -5  -1  533.47   12.63
  -1   5   1  531.10   13.35
   1  -5   0  299.34    8.67
  -1   5   0  277.97    6.26
   1  -5   0  288.97    8.14
  -1   5  -1  258.25    6.76
   1  -5   1  242.48    7.08
   1  -5   1  267.99    8.54
   1  -5   1  254.03    6.97
  -1   5  -1  279.67    8.84
   1  -5   2   16.52    2.10
   1  -5   2   15.10    1.88
  -1   5  -2   16.00    2.15
  -1   5  -2   16.33    1.71
  -1   5  -2   17.28    2.25
  -1   5  -2   19.22    2.30
  -1   5  -2   18.23    2.31
   1  -5   3  138.78    6.20
   1  -5   3  139.66    6.28
   1  -5   3  134.93    6.18
  -1   5  -3  135.33    6.40
  -1   5  -3  139.83    6.23
  -1   5  -3  142.96    5.44
  -1   5  -3  133.07    6.42
  -1   5  -4   55.85    4.33
   1  -5   4   56.75    4.10
   1  -5   4   58.20    4.38
   1  -5   4   61.86    4.35
   1  -5   4   47.99    3.64
  -1   5  -4   52.99    4.21
   1  -5   4   53.43    3.94
  -1   5  -5   32.32    3.55
  -1   5  -5   29.15    2.83
  -1   5  -5   34.08    3.57
   1  -5   5   24.28    3.15
  -1   5  -5   29.29    3.15
   1  -5   5   23.64    2.87
   1  -5   5   20.04    2.78
  -1   5  -5   32.80    3.47
   1  -5   5   19.65    2.60
   1  -5   6   82.91    5.51
  -1   5  -6   91.60    6.21
  -1   5  -6   86.84    5.37
   1  -5   6   83.72    5.66
   1  -5   6   78.95    5.39
   1  -5   6   84.26    6.08
   1  -5   6   79.88    5.22
  -1   5  -6   87.39    5.60
  -1   5  -6   93.40    5.43
  -1   5  -6   91.64    6.04
   1  -5   6   79.66    5.71
   1  -5   7   27.10    3.48
   1  -5   7   29.21    3.66
  -1   5  -7   24.31    3.42
  -1   5  -7   19.50    2.65
  -1   5  -7   25.72    3.11
   1  -5   7   27.17    3.57
   1  -5   7   29.50    3.58
   1  -5   7   27.49    3.72
   1  -5   7   27.61    3.59
  -1   5  -7   21.75    3.07
   1  -5   7   28.89    3.74
  -1   5  -7   22.82    3.13
  -1   5  -8  180.18    9.10
   1  -5   8  168.90    8.53
   1  -5   8  168.61    8.28
  -1   5  -8  177.86    8.06
   1  -5   8  166.02    7.27
   1  -5   8  187.96    9.08
   1  -5   8  152.52    8.35
   1  -5   8  172.45    8.65
   1  -5   8  164.16    8.34
   1  -5   8  170.63    8.44
   1  -5   8  174.28    8.87
   1  -5   9   20.43    3.04
  -1   5  -9   20.26    2.82
   1  -5   9   18.73    2.74
   1  -5   9   16.84    2.83
   1  -5   9   18.49    2.86
  -1   5  -9   23.63    3.19
   1  -5   9   17.97    2.77
   1  -5   9   16.36    2.80
   1  -5   9   16.65    2.86
  -1   5  -9   22.81    3.13
  -1   5 -10   13.20    2.21
   1  -5  10   17.43    2.56
   1  -5  10   15.82    2.36
   1  -5  10   15.57    2.29
  -1   5 -10   11.99    1.93
   1  -5  10   16.18    2.29
  -1   5 -10   13.73    2.11
  -1   5 -11    4.15    1.05
   1  -5  11    5.48    1.15
  -1   5 -11    3.37    0.96
   1  -4 -11   17.08    1.87
  -1   4  11   16.63    1.81
   1  -4 -10   24.66    2.55
  -1   4  10   39.84    3.53
  -1   4  10   33.36    3.01
   1  -4 -10   24.37    2.34
   1  -4 -10   31.03    3.09
  -1   4  10   37.87    3.47
   1  -4  -9   82.07    4.94
  -1   4   9   86.43    5.57
  -1   4   9   82.59    5.26
   1  -4  -9   84.00    5.22
   1  -4  -8  101.32    5.60
   1  -4  -8  102.69    5.94
   1  -4  -8  102.97    6.58
   1  -4  -8  103.35    6.99
   1  -4  -8  105.88    6.77
  -1   4   8  126.66    7.17
  -1   4   8  118.76    6.67
  -1   4   8  112.29    6.18
  -1   4   8  129.51    6.54
  -1   4   7   30.85    3.49
  -1   4   7   28.79    3.39
  -1   4   7   36.49    3.94
   1  -4  -7   44.06    4.41
  -1   4   7   28.17    3.12
  -1   4   7   32.81    3.79
   1  -4  -7   37.72    4.01
  -1   4   7   30.72    3.47
  -1   4   6   90.59    5.46
  -1   4   6   95.55    6.21
  -1   4   6   93.76    5.78
  -1   4   6   91.50    5.77
  -1   4   6   89.86    5.82
   1  -4  -6   98.19    6.10
  -1   4   6   91.24    5.56
  -1   4   6   92.97    5.91
   1  -4  -6  109.99    6.48
   1  -4  -6   90.26    5.34
  -1   4   5  199.64    8.23
  -1   4   5  192.90    8.31
  -1   4   5  192.84    8.05
  -1   4   5  177.91    7.28
  -1   4   5  195.01    8.00
   1  -4  -5  238.69    8.86
  -1   4   5  190.22    7.88
  -1   4   5  181.32    7.30
  -1   4   5  179.83    7.95
   1  -4  -5  220.93    7.77
  -1   4   5  191.36    6.96
  -1   4   4   30.59    2.87
   1  -4  -4   27.78    2.76
  -1   4   4   31.54    2.88
  -1   4   4   31.41    2.40
   1  -4  -4   21.96    2.27
   1  -4  -3   83.52    3.89
   1  -4  -3   91.08    4.43
  -1   4   3   89.81    3.52
   1  -4  -2  347.15    8.55
  -1   4   2  322.54    6.67
   1  -4  -2  348.82    7.61
  -1   4   1    6.30    1.28
   1  -4  -1   13.77    1.46
   1  -4  -1   12.57    1.32
   1  -4   0 2153.80   30.14
   1  -4   0 2145.08   31.42
  -1   4   0 2048.28   29.83
  -1   4   0 2116.22   32.14
  -1   4   0 2131.72   29.15
   1  -4   1  269.37    6.35
   1  -4   1  278.44    7.69
   1  -4   1  270.96    7.02
  -1   4  -1  300.06    8.14
  -1   4  -1  296.16    7.95
  -1   4  -1  304.91    6.56
   1  -4   2  268.26    7.70
   1  -4   2  285.14    7.90
  -1   4  -2  295.42    8.11
  -1   4  -3  483.38   12.12
   1  -4   3  504.69   11.86
   1  -4   3  497.30   12.18
   1  -4   3  512.12   11.78
   1  -4   3  466.41   11.55
   1  -4   4  234.11    7.96
  -1   4  -4  221.22    8.05
   1  -4   4  235.37    8.45
   1  -4   4  231.94    7.91
  -1   4  -5  145.11    6.43
  -1   4  -5  161.98    6.77
   1  -4   5  170.67    7.68
  -1   4  -5  161.17    7.19
  -1   4  -5  148.50    6.80
  -1   4  -5  155.06    7.28
  -1   4  -5  144.73    6.50
  -1   4  -6   80.80    5.01
  -1   4  -6   83.71    5.14
  -1   4  -6   89.06    5.44
   1  -4   6   90.94    5.14
   1  -4   6   96.55    5.76
  -1   4  -6   90.16    5.94
  -1   4  -6   80.56    5.23
   1  -4   6   91.01    5.15
  -1   4  -6   86.85    5.18
  -1   4  -6   81.49    4.64
   1  -4   6   99.48    5.31
   1  -4   6  101.32    6.26
  -1   4  -6   75.50    4.64
  -1   4  -6   83.79    5.45
   1  -4   7   17.65    2.88
   1  -4   7   15.43    2.66
   1  -4   7   13.95    2.64
  -1   4  -7   11.39    2.15
   1  -4   7   16.37    2.49
  -1   4  -7   10.95    2.35
  -1   4  -7    9.21    1.82
  -1   4  -7   10.66    1.83
   1  -4   7   15.98    2.75
   1  -4   7   16.90    2.85
   1  -4   7   16.98    2.29
  -1   4  -7   10.14    2.09
  -1   4  -7   11.81    2.30
   1  -4   7   14.99    2.33
  -1   4  -7   11.99    2.28
  -1   4  -7   10.42    2.13
   1  -4   7   15.78    2.84
   1  -4   7   15.49    2.32
   1  -4   7   15.98    2.71
   1  -4   8   59.74    5.13
   1  -4   8   60.18    4.53
  -1   4  -8   69.86    5.51
   1  -4   8   61.53    4.66
  -1   4  -8   66.56    5.12
   1  -4   8   66.83    5.43
   1  -4   8   66.06    5.37
   1  -4   8   62.00    5.34
  -1   4  -8   63.93    4.76
  -1   4  -8   80.96    6.13
   1  -4   8   63.70    5.40
  -1   4  -8   64.76    5.00
   1  -4   8   68.07    5.43
   1  -4   8   64.48    5.20
   1  -4   8   66.38    5.40
   1  -4   9  112.19    6.93
   1  -4   9  113.67    6.78
  -1   4  -9  107.16    6.85
   1  -4   9  112.43    6.92
   1  -4   9  120.00    7.03
   1  -4   9  103.13    5.81
   1  -4   9  105.13    5.94
   1  -4   9  119.91    7.31
   1  -4   9  118.02    6.78
   1  -4   9  122.84    6.89
  -1   4  -9  105.45    6.39
   1  -4  10   30.08    3.39
   1  -4  10   29.23    3.12
  -1   4 -10   31.49    3.44
   1  -4  10   30.56    3.48
   1  -4  10   25.17    2.67
   1  -4  10   34.41    3.41
  -1   4 -10   30.81    3.34
   1  -4  10   31.54    3.23
  -1   4 -11   65.82    4.16
   1  -4  11   51.92    3.26
  -1   4 -12    0.68    0.53
  -1   3  11   19.64    2.31
  -1   3  11   18.49    2.06
   1  -3 -11   24.48    2.57
  -1   3  11   19.19    2.19
  -1   3  11   21.62    2.37
   1  -3 -10   39.64    3.40
  -1   3  10   34.97    3.45
   1  -3 -10   37.02    3.15
   1  -3 -10   43.79    3.92
  -1   3  10   38.50    3.70
  -1   3  10   42.78    3.98
   1  -3  -9  153.79    6.70
   1  -3  -9  163.03    7.52
  -1   3   9  168.82    8.52
   1  -3  -9  151.94    7.06
  -1   3   9  160.74    8.27
  -1   3   9  166.04    8.13
  -1   3   9  158.30    8.10
   1  -3  -8   47.01    4.46
  -1   3   8   57.81    4.96
   1  -3  -8   45.54    3.79
   1  -3  -8   53.81    4.28
  -1   3   8   58.23    5.01
   1  -3  -8   55.00    5.04
  -1   3   8   50.06    4.44
  -1   3   8   60.67    5.17
  -1   3   8   41.93    3.66
   1  -3  -8   46.75    4.53
  -1   3   7   88.28    5.81
   1  -3  -7   92.03    5.93
  -1   3   7   91.03    5.95
   1  -3  -7   82.08    4.92
  -1   3   7   91.51    6.02
   1  -3  -7   90.82    6.10
  -1   3   7   90.38    5.46
  -1   3   7   91.60    6.14
  -1   3   7   86.05    5.27
   1  -3  -7   87.94    5.71
  -1   3   7   91.48    5.64
  -1   3   6  394.95   12.24
  -1   3   6  398.80   12.20
  -1   3   6  391.50   12.22
   1  -3  -6  464.33   13.36
   1  -3  -6  438.53   12.93
   1  -3  -6  444.64   12.56
  -1   3   6  384.77   11.58
  -1   3   6  406.57   11.73
   1  -3  -5  157.26    6.46
  -1   3   5  137.17    5.86
   1  -3  -5  158.37    6.77
  -1   3   5  126.44    5.94
   1  -3  -5  166.94    6.97
  -1   3   4  133.65    5.10
   1  -3  -4  134.34    5.42
   1  -3  -3   31.24    1.83
   1  -3  -3   30.44    2.43
   1  -3  -3   31.62    2.31
  -1   3   2  193.33    4.49
  -1   3   2  198.12    5.74
  -1   3   1  190.28    5.40
  -1   3   1  186.67    5.54
  -1   3   1  176.74    3.32
   1  -3  -1  169.05    3.13
  -1   3   0  133.22    4.13
  -1   3   0  138.15    4.68
  -1   3   0  135.31    3.15
   1  -3   0  125.71    3.44
  -1   3   0  138.94    4.49
  -1   3  -1  348.65    8.43
   1  -3   1  355.52    6.52
   1  -3   1  360.57    7.67
   1  -3   1  359.82    7.78
  -1   3  -1  371.87    8.16
   1  -3   2  236.82    6.08
   1  -3   2  234.17    6.22
  -1   3  -3  463.13   10.13
   1  -3   3  452.31   10.24
   1  -3   3  465.05   10.88
   1  -3   3  455.13   10.27
   1  -3   4  664.48   14.05
  -1   3  -4  640.78   13.76
   1  -3   4  680.39   14.90
  -1   3  -5   63.89    4.06
  -1   3  -5   68.16    4.24
  -1   3  -6   31.57    2.97
  -1   3  -6   29.28    3.00
  -1   3  -6   30.33    2.73
  -1   3  -6   28.08    2.99
   1  -3   6   45.23    3.88
   1  -3   6   43.99    3.24
  -1   3  -6   30.21    2.92
   1  -3   6   40.94    3.43
  -1   3  -6   41.51    3.65
  -1   3  -6   29.16    3.05
   1  -3   6   38.21    3.34
   1  -3   6   45.14    3.80
  -1   3  -6   30.44    3.10
   1  -3   6   41.16    3.54
  -1   3  -7   44.70    3.96
   1  -3   7   40.62    3.82
  -1   3  -7   44.76    3.95
   1  -3   7   45.06    4.23
  -1   3  -7   47.16    4.14
  -1   3  -7   42.47    3.47
   1  -3   7   48.59    4.32
   1  -3   7   44.70    4.06
   1  -3   7   42.89    4.11
  -1   3  -7   47.53    4.10
  -1   3  -7   50.29    4.40
   1  -3   7   42.01    3.76
  -1   3  -7   45.51    3.90
   1  -3   7   41.38    3.83
   1  -3   7   41.25    4.01
   1  -3   8   54.82    4.60
  -1   3  -8   45.50    3.74
  -1   3  -8   53.61    4.66
   1  -3   8   56.61    4.94
   1  -3   8   54.39    4.82
  -1   3  -8   44.91    4.00
  -1   3  -8   50.90    4.84
  -1   3  -8   44.46    4.01
   1  -3   8   59.08    5.04
   1  -3   8   55.58    4.90
   1  -3   8   49.27    4.56
   1  -3   8   57.61    4.76
   1  -3   8   49.92    4.31
  -1   3  -8   50.95    4.75
   1  -3   9    2.56    1.40
  -1   3  -9    4.77    1.80
  -1   3  -9    2.89    1.09
   1  -3   9    3.26    1.74
  -1   3  -9    3.67    1.54
   1  -3   9    2.22    1.42
   1  -3   9    2.70    1.36
   1  -3   9    2.97    1.70
  -1   3  -9    2.77    1.42
   1  -3  10   20.89    2.97
   1  -3  10   17.64    2.75
   1  -3  10   19.57    2.96
   1  -3  10   15.30    2.55
  -1   3 -10   15.66    2.64
   1  -3  10   18.00    2.64
  -1   3 -11   23.95    2.74
  -1   3 -11   26.35    2.80
   1  -3  11   20.42    2.48
   1  -3  11   16.60    2.16
  -1   3 -12   37.93    2.56
   1  -3  12   34.96    2.29
  -1   2  12   48.15    2.86
   1  -2 -12   49.65    2.93
   1  -2 -12   48.17    2.74
  -1   2  12   45.11    2.64
  -1   2  11    6.85    1.52
  -1   2  11    9.21    1.89
  -1   2  11    7.83    1.65
   1  -2 -11   10.66    2.02
   1  -2 -10   27.84    3.07
   1  -2 -10   26.43    2.87
   1  -2 -10   34.84    3.70
  -1   2  10   33.36    3.69
  -1   2  10   34.84    3.83
   1  -2  -9   52.19    4.88
   1  -2  -9   43.47    3.77
  -1   2   9   45.45    3.63
  -1   2   9   56.37    5.03
   1  -2  -9   44.51    3.69
   1  -2  -9   48.99    4.17
   1  -2  -9   44.13    3.83
  -1   2   9   54.35    4.77
   1  -2  -9   45.80    4.62
  -1   2   9   42.47    3.67
  -1   2   9   58.21    4.66
  -1   2   9   57.94    4.96
  -1   2   9   56.65    4.89
  -1   2   8  103.25    5.78
  -1   2   8  116.28    7.07
   1  -2  -8  117.65    5.88
   1  -2  -8  116.92    6.24
  -1   2   8  123.72    7.07
   1  -2  -8  116.81    6.11
   1  -2  -8  130.46    7.40
   1  -2  -8  115.83    6.08
   1  -2  -8  122.56    7.16
  -1   2   8   98.87    5.35
  -1   2   8  117.47    6.64
  -1   2   8  116.19    6.80
   1  -2  -7    2.30    1.02
  -1   2   7    0.48    1.05
   1  -2  -7    1.04    0.94
  -1   2   7    0.80    0.88
   1  -2  -7    1.52    1.05
  -1   2   7    1.24    1.22
   1  -2  -7    1.46    1.07
   1  -2  -7    2.22    1.37
  -1   2   7    0.68    0.80
  -1   2   7    0.70    0.94
  -1   2   6   34.69    3.34
   1  -2  -6   20.64    2.25
  -1   2   6   36.30    3.37
  -1   2   6   34.55    3.23
   1  -2  -6   28.47    2.88
  -1   2   6   33.91    3.15
   1  -2  -6   26.32    2.82
  -1   2   6   33.21    3.13
   1  -2  -5  166.61    6.44
  -1   2   5  177.47    6.53
   1  -2  -5  151.87    6.30
   1  -2  -5  168.00    6.63
  -1   2   4  810.07   15.54
   1  -2  -4  866.12   16.23
   1  -2  -4  840.22   16.39
   1  -2  -4  845.01   16.14
  -1   2   3  414.14    7.34
  -1   2   3  397.84    7.99
  -1   2   2  539.36    9.70
  -1   2   2  543.54    9.24
   1  -2  -2  542.45    7.71
   1  -2  -1  667.29    9.38
  -1   2   1  674.87   10.21
  -1   2   1  672.51   11.39
  -1   2   0  951.25   14.55
  -1   2   0  921.14   12.11
   1  -2   1 1050.80   15.29
  -1   2  -1 1034.77   15.97
   1  -2   1 1000.77   14.91
   1  -2   1 1014.38   13.95
   1  -2   2 1266.36   19.48
   1  -2   2 1210.24   19.35
   1  -2   2 1229.13   18.54
  -1   2  -2 1284.13   19.15
  -1   2  -2 1322.30   19.95
   1  -2   2 1247.79   19.39
  -1   2  -2 1367.20   19.86
   1  -2   3 1758.81   27.07
   1  -2   3 1799.50   26.54
  -1   2  -3 1785.20   27.30
  -1   2  -3 1759.55   25.49
  -1   2  -3 1749.26   27.11
   1  -2   4 2203.01   34.44
   1  -2   4 2273.60   33.91
   1  -2   5   40.58    3.09
  -1   2  -5   32.46    2.72
   1  -2   5   37.86    3.13
   1  -2   5   39.57    2.70
  -1   2  -6    9.17    1.76
  -1   2  -6    9.11    1.74
  -1   2  -6    8.37    1.74
   1  -2   6   11.73    1.64
   1  -2   6   12.03    2.01
   1  -2   6    9.42    1.85
  -1   2  -6   10.63    1.78
   1  -2   6   10.71    1.92
   1  -2   6   10.82    1.97
   1  -2   6   11.93    1.98
  -1   2  -6   15.18    2.04
   1  -2   6   11.06    1.94
   1  -2   7  202.08    8.44
   1  -2   7  193.56    8.17
  -1   2  -7  175.14    7.81
   1  -2   7  197.03    8.41
  -1   2  -7  185.99    8.06
  -1   2  -7  180.08    7.89
   1  -2   7  205.31    8.57
   1  -2   7  200.08    8.53
  -1   2  -7  190.47    7.90
   1  -2   7  199.82    8.47
  -1   2  -7  200.64    7.83
   1  -2   7  192.44    8.34
   1  -2   7  192.16    8.31
  -1   2  -8  438.10   13.35
   1  -2   8  457.63   13.10
   1  -2   8  447.58   13.95
   1  -2   8  446.04   14.04
  -1   2  -8  422.55   13.46
  -1   2  -8  437.35   12.35
   1  -2   8  431.36   13.58
  -1   2  -8  374.79   12.28
   1  -2   8  440.31   13.95
   1  -2   8  425.21   13.64
   1  -2   8  441.40   13.98
   1  -2   8  437.41   14.01
  -1   2  -8  418.84   13.42
   1  -2   8  435.09   13.58
   1  -2   9   56.62    4.41
  -1   2  -9   79.76    5.51
  -1   2  -9   82.49    5.75
   1  -2   9   68.69    5.36
   1  -2   9   69.93    5.52
  -1   2  -9   76.77    4.86
   1  -2   9   59.26    4.84
   1  -2   9   66.79    5.35
   1  -2   9   73.28    5.46
   1  -2   9   68.48    5.36
  -1   2  -9   86.40    5.92
   1  -2   9   71.53    5.60
   1  -2  10   69.97    5.05
  -1   2 -10   65.32    5.07
  -1   2 -10   65.30    5.20
   1  -2  10   79.19    5.70
   1  -2  10   75.60    5.17
   1  -2  10   70.42    5.28
   1  -2  10   66.53    5.06
   1  -2  10   72.73    5.28
  -1   2 -10   64.55    4.96
  -1   2 -11    4.97    1.43
   1  -2  11    9.31    1.96
   1  -2  11    8.06    1.67
  -1   2 -11    4.54    1.52
   1  -2  11    8.04    1.74
   1  -2  11    6.08    1.64
   1  -2  12    1.47    0.78
  -1   2 -12    0.32    0.48
  -1   2 -12    0.22    0.72
   1  -1 -12   13.86    1.78
   1  -1 -12   15.67    1.75
  -1   1  12   10.14    1.36
   1  -1 -11   11.35    2.14
   1  -1 -11   13.08    1.98
  -1   1  11    7.76    1.75
  -1   1  10   60.49    4.76
   1  -1 -10   47.91    4.38
  -1   1  10   49.91    4.10
   1  -1 -10   48.83    4.13
  -1   1  10   51.44    3.80
   1  -1 -10   50.33    4.56
  -1   1  10   53.67    4.13
   1  -1  -9  255.72   10.61
   1  -1  -9  254.57    9.56
   1  -1  -9  260.54   11.10
   1  -1  -9  261.47   10.02
  -1   1   9  266.83    9.36
  -1   1   9  273.99   10.24
   1  -1  -9  251.80    9.38
  -1   1   9  285.28   10.76
   1  -1  -9  272.31   10.66
  -1   1   8  130.85    6.84
   1  -1  -8  127.35    6.66
  -1   1   8  127.00    6.21
   1  -1  -8  142.29    7.70
   1  -1  -8  122.56    6.18
  -1   1   8  129.91    6.98
   1  -1  -8  141.20    7.38
   1  -1  -8  129.32    6.44
   1  -1  -8  124.32    6.01
  -1   1   8  126.00    6.29
  -1   1   8  120.98    6.90
   1  -1  -7   80.40    4.51
   1  -1  -7   87.40    4.87
   1  -1  -7   86.06    4.78
  -1   1   7   85.14    5.27
   1  -1  -7   96.47    5.64
   1  -1  -7   96.84    5.83
   1  -1  -7   86.21    5.11
  -1   1   7   74.46    4.49
  -1   1   7   80.68    5.23
  -1   1   7   80.38    5.04
  -1   1   7   79.75    4.66
  -1   1   6  354.10    8.55
   1  -1  -6  405.60   11.29
  -1   1   6  377.13   10.89
   1  -1  -6  400.50   11.10
   1  -1  -6  425.45   11.84
   1  -1  -5  159.38    6.24
  -1   1   5  176.61    4.95
   1  -1  -5  162.11    6.14
   1  -1  -5  162.71    6.09
   1  -1  -4   63.90    3.36
   1  -1  -4   64.98    1.76
  -1   1   4   52.87    2.25
   1  -1  -4   66.66    3.29
  -1   1   4   52.78    3.00
   1  -1  -3  625.08   11.51
  -1   1   3  631.71    9.56
  -1   1   3  660.96   11.44
   1  -1  -3  628.25   11.41
   1  -1  -3  621.38   11.12
  -1   1   3  640.17    9.77
  -1   1   2  587.41    9.81
   1  -1  -2  619.96   10.42
   1  -1  -2  646.99    9.04
   1  -1  -2  619.09   10.43
   1  -1  -2  613.27    9.75
  -1   1   1  344.80    6.37
   1  -1  -1  360.62    5.82
   1  -1   0   10.95    0.41
   1  -1   0   10.98    0.59
  -1   1  -1  292.24    5.63
  -1   1  -1  290.02    5.54
   1  -1   1  273.59    5.02
   1  -1   1  264.00    5.20
   1  -1   1  265.50    5.16
  -1   1  -2   60.57    2.51
  -1   1  -2   56.53    1.95
  -1   1  -2   59.01    1.29
   1  -1   2   49.68    2.22
   1  -1   2   48.71    2.24
   1  -1   2   48.79    2.24
  -1   1  -2   56.93    1.83
  -1   1  -3  106.20    3.93
  -1   1  -3   98.53    2.58
   1  -1   3  117.98    4.16
   1  -1   3  120.01    4.23
  -1   1  -3   98.70    3.15
  -1   1  -3  105.27    2.38
   1  -1   3  113.92    3.73
  -1   1  -4  846.59   15.72
   1  -1   4  822.70   15.92
   1  -1   4  813.86   15.59
  -1   1  -4  811.50   14.23
   1  -1   4  823.57   14.55
  -1   1  -4  790.18   12.17
  -1   1  -5   45.27    3.25
  -1   1  -5   39.08    1.81
   1  -1   5   47.09    3.35
  -1   1  -6    3.73    1.17
  -1   1  -6    5.20    1.40
  -1   1  -6    3.74    1.17
  -1   1  -6    5.10    1.35
   1  -1   6    5.29    1.50
  -1   1  -6    4.37    1.17
  -1   1  -6    4.41    1.36
   1  -1   6    5.56    1.42
   1  -1   6    4.67    1.36
   1  -1   6    4.56    1.35
   1  -1   6    6.04    1.52
   1  -1   7  114.18    6.45
   1  -1   7  112.43    6.38
  -1   1  -7  110.18    6.06
  -1   1  -7  113.26    6.48
  -1   1  -7  119.36    6.02
   1  -1   7  106.70    6.15
  -1   1  -7  115.91    6.12
  -1   1  -7  111.40    6.00
  -1   1  -7  113.34    6.04
  -1   1  -7  112.17    5.96
   1  -1   7  109.52    5.93
   1  -1   7  107.51    6.04
   1  -1   7  111.73    5.90
   1  -1   7  115.74    6.28
   1  -1   7  104.00    5.96
   1  -1   7  118.33    6.10
   1  -1   7  101.19    5.89
  -1   1  -7  128.61    5.89
  -1   1  -8 1005.59   22.58
  -1   1  -8 1004.14   22.49
  -1   1  -8  989.55   22.47
   1  -1   8 1063.48   22.72
  -1   1  -8  995.03   22.49
   1  -1   8 1008.78   22.77
   1  -1   8  992.70   21.72
   1  -1   8 1035.65   22.95
   1  -1   8 1046.05   22.51
  -1   1  -8  967.09   21.90
   1  -1   8 1041.46   22.94
  -1   1  -8  965.48   23.40
  -1   1  -8  970.00   22.38
   1  -1   8 1057.42   23.85
  -1   1  -9  187.28    8.65
   1  -1   9  180.05    8.11
  -1   1  -9  174.10    8.44
   1  -1   9  197.77    8.94
   1  -1   9  194.26    8.55
  -1   1  -9  171.92    8.38
   1  -1   9  194.88    8.77
  -1   1  -9  166.72    8.87
  -1   1  -9  178.21    8.26
   1  -1   9  188.90    8.78
   1  -1   9  192.05    8.48
   1  -1   9  190.27    8.91
   1  -1   9  193.53    9.24
  -1   1 -10   63.74    4.91
   1  -1  10   65.02    4.52
  -1   1 -10   62.52    4.87
   1  -1  10   71.01    5.03
   1  -1  10   75.56    5.70
   1  -1  10   70.69    4.73
   1  -1  10   71.79    5.11
   1  -1  10   80.53    5.65
  -1   1 -10   57.26    4.54
   1  -1  11   50.02    3.67
  -1   1 -11   53.43    3.94
  -1   1 -11   54.30    4.03
   1  -1  11   53.74    4.10
   1  -1  11   52.46    4.24
  -1   1 -11   53.63    4.07
   1  -1  12    4.73    1.07
   1  -1  12    6.99    1.32
  -1   1 -12    4.03    0.89
  -1   1 -12    5.46    1.06
  -1   0  12    7.10    1.42
   1   0 -12    4.18    1.02
   1   0 -12    4.60    1.24
   1   0 -12    4.12    1.10
   1   0 -11   10.25    2.04
   1   0 -11   10.97    2.07
   1   0 -11    9.26    1.93
  -1   0  11    4.68    1.64
  -1   0  11    5.75    1.47
   1   0 -10   21.91    3.05
  -1   0  10   15.71    2.32
   1   0 -10   22.05    3.04
   1   0 -10   24.41    3.27
  -1   0  10   18.14    3.03
  -1   0  10   18.21    2.48
  -1   0   9  319.11   11.02
  -1   0   9  322.38   10.90
   1   0  -9  329.76   12.62
   1   0  -9  338.39   11.87
   1   0  -9  354.87   12.31
  -1   0   9  320.44   11.05
   1   0  -9  325.87   11.55
  -1   0   9  316.38   12.04
  -1   0   9  350.38   12.87
   1   0  -9  354.10   12.36
  -1   0   8  639.09   16.94
  -1   0   8  676.85   18.21
   1   0  -8  674.91   17.38
   1   0  -8  652.95   16.03
   1   0  -8  634.68   15.77
  -1   0   8  645.80   16.33
   1   0  -8  685.02   17.29
   1   0  -8  662.78   16.92
  -1   0   8  656.49   16.27
   1   0  -8  646.89   16.91
  -1   0   8  638.15   17.42
  -1   0   8  669.45   16.87
  -1   0   8  660.95   16.92
  -1   0   7   59.56    4.59
   1   0  -7   73.94    4.43
   1   0  -7   70.00    4.20
  -1   0   7   61.14    4.14
   1   0  -7   74.47    4.42
  -1   0   7   58.27    4.17
   1   0  -7   78.04    4.84
  -1   0   7   64.57    4.56
  -1   0   7   58.65    3.77
   1   0  -7   86.06    5.04
  -1   0   7   60.34    4.49
   1   0  -7   73.91    4.81
  -1   0   7   62.12    4.22
  -1   0   7   58.72    4.27
  -1   0   7   61.04    4.36
  -1   0   7   64.79    4.55
  -1   0   6  589.94   14.26
  -1   0   6  573.68   13.91
  -1   0   6  588.74   13.95
  -1   0   6  565.26   13.79
  -1   0   6  555.24   13.74
  -1   0   6  589.23   12.98
  -1   0   5  340.43    8.48
  -1   0   5  332.30    6.35
   1   0  -4  113.44    3.03
   1   0  -4  109.99    4.06
  -1   0   4  107.41    3.81
  -1   0   4  100.68    2.73
  -1   0   4  108.11    3.61
   1   0  -3  367.96    6.23
  -1   0   3  367.83    7.41
  -1   0   3  369.77    6.92
  -1   0   3  361.41    6.27
   1   0  -2  280.58    5.94
   1   0  -2  272.40    5.74
  -1   0   2  267.79    5.52
  -1   0   2  279.07    4.78
  -1   0   2  269.28    4.85
  -1   0   1   53.03    1.89
   1   0  -1   58.25    1.97
  -1   0   1   55.49    1.71
   1   0   0  516.77    8.07
   1   0   0  512.40    8.39
  -1   0   0  534.84    7.32
   1   0   1  355.36    6.70
   1   0   1  362.60    6.59
   1   0   1  364.90    6.56
  -1   0  -1  371.06    6.58
  -1   0  -2    7.98    1.00
  -1   0  -2    8.61    0.79
  -1   0  -2    9.02    1.02
   1   0   3  202.19    4.33
  -1   0  -3  184.64    4.46
  -1   0  -3  191.57    5.34
  -1   0  -4  454.40   10.32
  -1   0  -4  458.63    9.74
   1   0   4  434.32    7.83
  -1   0  -4  443.17    8.75
  -1   0  -5  248.52    7.96
  -1   0  -5  242.14    6.30
   1   0   5  221.77    7.81
  -1   0  -5  244.67    7.33
   1   0   5  225.05    7.86
  -1   0  -6  493.24   12.68
  -1   0  -6  505.85   12.80
  -1   0  -6  494.65   12.68
  -1   0  -6  508.52   10.68
   1   0   6  484.74   12.51
   1   0   6  467.09   12.62
  -1   0  -6  492.55   13.32
  -1   0  -6  538.85   12.63
   1   0   6  534.87   13.99
   1   0   6  459.04   12.03
  -1   0  -6  471.66   11.77
   1   0   6  486.94   13.07
   1   0   7  135.77    6.42
  -1   0  -7  166.31    7.33
  -1   0  -7  154.48    7.11
   1   0   7  144.27    6.52
  -1   0  -7  153.43    7.04
   1   0   7  143.38    6.75
   1   0   7  152.65    6.46
   1   0   7  138.67    6.67
   1   0   7  137.97    6.32
  -1   0  -7  161.79    6.61
   1   0   7  142.91    6.93
  -1   0  -7  156.82    7.59
  -1   0  -7  149.68    6.96
   1   0   7  156.78    7.71
  -1   0  -8  434.68   13.43
   1   0   8  435.47   13.12
   1   0   8  433.77   12.55
  -1   0  -8  465.64   13.80
   1   0   8  426.04   13.27
  -1   0  -8  428.18   14.14
  -1   0  -8  440.49   13.34
   1   0   8  398.92   12.12
   1   0   8  433.92   13.04
   1   0   8  417.04   12.35
   1   0   8  446.94   14.58
  -1   0  -8  459.52   13.77
  -1   0  -8  448.09   13.57
  -1   0  -9  110.82    6.54
   1   0   9  107.07    6.20
   1   0   9  104.41    6.50
  -1   0  -9  110.34    6.54
   1   0   9   90.76    5.34
   1   0   9  108.66    6.20
  -1   0  -9   98.85    6.32
  -1   0  -9  110.30    6.49
   1   0   9  113.14    6.43
  -1   0  -9  111.07    6.45
   1   0   9   94.29    6.00
  -1   0  -9   94.63    6.63
  -1   0  -9  103.78    6.18
  -1   0 -10   10.02    2.06
   1   0  10    6.29    1.68
  -1   0 -10    7.49    1.90
   1   0  10    5.30    1.63
  -1   0 -10    8.63    2.07
  -1   0 -10    9.05    2.04
   1   0  10    5.83    1.49
  -1   0 -11   15.28    2.08
  -1   0 -11   13.96    1.99
   1   0  11   10.51    1.75
  -1   0 -11   14.71    2.22
   1   0  12    4.99    1.02
   1   0  12    5.82    1.15
  -1   0 -12    3.80    0.96
  -1  -1  12   15.35    1.86
   1   1 -12   13.51    1.78
  -1  -1  11   52.06    4.22
   1   1 -11   53.32    4.16
  -1  -1  11   45.83    3.40
   1   1 -11   50.86    4.11
   1   1 -11   48.28    3.85
   1   1 -10  136.63    7.38
   1   1 -10  140.74    7.31
   1   1 -10  139.67    7.39
   1   1 -10  130.03    6.45
   1   1 -10  110.84    6.01
  -1  -1  10  145.07    7.77
  -1  -1  10  138.53    6.74
   1   1 -10  138.47    7.35
  -1  -1  10  133.68    7.38
  -1  -1   9  348.44   11.47
   1   1  -9  352.46   11.64
   1   1  -9  361.62   12.55
   1   1  -9  352.07   12.51
  -1  -1   9  387.09   13.13
  -1  -1   9  380.10   13.18
   1   1  -9  326.03   11.41
  -1  -1   9  367.84   12.84
  -1  -1   9  372.79   12.95
   1   1  -9  345.27   12.94
  -1  -1   9  371.95   12.11
   1   1  -9  343.72   12.22
  -1  -1   9  359.80   12.86
  -1  -1   8  219.61    9.42
  -1  -1   8  229.26    9.36
   1   1  -8  205.26    8.99
  -1  -1   8  225.24    9.56
  -1  -1   8  217.02    8.91
   1   1  -8  212.82    9.06
  -1  -1   8  211.75    8.49
   1   1  -8  196.88    7.99
  -1  -1   8  222.92    8.97
   1   1  -8  204.60    9.29
  -1  -1   8  213.39    9.39
   1   1  -8  197.37    8.79
  -1  -1   8  214.22    9.22
  -1  -1   8  216.76    9.40
  -1  -1   7    6.03    1.63
  -1  -1   7    5.68    1.67
  -1  -1   7    6.70    1.65
   1   1  -7    7.57    1.82
  -1  -1   7    5.05    1.65
   1   1  -7    6.22    1.65
   1   1  -7    5.94    1.39
   1   1  -7    6.46    1.78
   1   1  -7   10.61    2.10
  -1  -1   7    5.57    1.64
  -1  -1   7    4.87    1.37
   1   1  -7    8.17    1.79
  -1  -1   7    5.13    1.53
  -1  -1   7    6.79    1.71
   1   1  -6    3.49    1.20
   1   1  -6    2.70    0.96
  -1  -1   6    2.12    0.67
  -1  -1   6    2.05    0.85
  -1  -1   6    5.75    1.35
   1   1  -6    4.06    1.29
   1   1  -6    3.32    1.13
  -1  -1   6    2.94    1.10
  -1  -1   6    2.93    1.16
   1   1  -6    3.14    0.81
  -1  -1   6    3.16    1.19
   1   1  -5  296.32    8.62
  -1  -1   5  287.33    6.98
  -1  -1   5  303.05    7.95
   1   1  -5  282.40    7.00
   1   1  -5  281.49    7.50
  -1  -1   5  298.04    8.51
   1   1  -4  177.34    5.75
  -1  -1   4  183.68    5.25
  -1  -1   4  175.42    5.01
   1   1  -4  181.55    4.95
  -1  -1   4  172.00    5.71
   1   1  -4  175.45    4.97
   1   1  -3  332.90    7.51
  -1  -1   3  357.31    7.10
  -1  -1   3  330.74    7.14
   1   1  -3  359.15    7.11
   1   1  -3  326.62    6.75
   1   1  -2  257.32    5.65
   1   1  -2  261.80    6.25
  -1  -1   2  302.59    5.78
  -1  -1   2  294.97    6.42
  -1  -1   2  285.74    6.04
  -1  -1   1  883.35   13.71
  -1  -1   1  904.81   13.87
   1   1  -1  883.18   13.48
  -1  -1   1  886.75   13.84
   1   1  -1  899.92   13.87
   1   1   0  291.67    5.68
   1   1   0  293.99    4.96
  -1  -1   0  314.47    6.14
  -1  -1   0  308.72    6.23
   1   1   0  300.13    6.01
   1   1   1  456.78    8.57
  -1  -1  -1  439.71    7.38
  -1  -1  -2  468.20    8.78
   1   1   2  502.38    9.65
   1   1   2  500.00    9.36
  -1  -1  -2  499.70    9.26
  -1  -1  -2  503.97    9.42
  -1  -1  -2  492.84    9.56
  -1  -1  -3   51.29    2.62
  -1  -1  -3   51.72    2.53
  -1  -1  -3   51.19    2.88
  -1  -1  -3   50.34    2.60
  -1  -1  -4  913.80   16.91
   1   1   4  911.42   17.14
  -1  -1  -4  907.89   17.58
  -1  -1  -4  924.14   16.42
  -1  -1  -5  205.84    7.25
  -1  -1  -5  204.26    7.58
  -1  -1  -5  205.22    6.62
  -1  -1  -5  210.93    7.32
  -1  -1  -6  219.72    7.48
   1   1   6  227.00    7.68
  -1  -1  -6  247.42    7.73
  -1  -1  -6  257.38    9.32
   1   1   6  250.91    7.48
   1   1   6  237.84    7.83
   1   1   6  231.29    8.50
  -1  -1  -6  246.92    8.87
   1   1   6  237.24    8.64
  -1  -1  -6  230.60    7.97
   1   1   6  246.28    8.93
  -1  -1  -6  249.36    8.66
  -1  -1  -7  216.38    8.70
  -1  -1  -7  215.85    8.66
  -1  -1  -7  218.48    8.68
   1   1   7  189.60    7.46
  -1  -1  -7  204.68    7.24
  -1  -1  -7  225.41    8.69
   1   1   7  203.97    8.77
   1   1   7  189.76    8.26
  -1  -1  -7  189.42    7.60
  -1  -1  -7  196.80    7.89
   1   1   7  186.57    8.11
  -1  -1  -7  209.62    8.79
   1   1   7  196.76    7.59
  -1  -1  -8  165.15    8.00
  -1  -1  -8  158.19    7.74
  -1  -1  -8  158.75    7.82
   1   1   8  156.33    6.95
   1   1   8  161.55    7.81
  -1  -1  -8  151.26    7.20
  -1  -1  -8  143.73    7.82
   1   1   8  168.46    7.88
   1   1   8  174.94    8.47
  -1  -1  -8  156.73    7.55
   1   1   8  160.24    7.21
   1   1   8  154.26    6.89
  -1  -1  -9   41.37    4.04
   1   1   9   42.75    4.36
  -1  -1  -9   39.40    4.01
   1   1   9   37.68    3.83
  -1  -1  -9   36.27    3.60
  -1  -1  -9   32.13    3.82
  -1  -1  -9   41.17    4.00
  -1  -1  -9   37.76    3.89
   1   1   9   40.91    4.20
   1   1   9   43.23    4.45
   1   1   9   35.75    3.34
  -1  -1 -10   25.57    2.76
  -1  -1 -10   30.14    3.19
   1   1  10   35.67    3.78
   1   1  10   32.34    3.50
  -1  -1 -10   30.29    3.30
   1   1  10   37.12    3.77
  -1  -1 -10   33.90    3.48
  -1  -1 -10   27.78    3.17
  -1  -1 -10   29.30    3.34
  -1  -1 -11   88.31    4.39
   1   1  11   93.66    4.91
   1   1  11   94.54    4.99
  -1  -1 -11   93.67    4.88
   1   1  11   85.40    4.59
  -1  -1 -12   21.45    1.75
   1   1  12   20.64    1.69
   1   1  12   16.69    1.57
  -1  -2  12   36.44    2.44
  -1  -2  12   42.59    2.65
  -1  -2  12   39.32    2.81
  -1  -2  11   10.65    1.87
   1   2 -11    9.99    1.83
   1   2 -11   13.15    2.22
  -1  -2  11   11.15    1.83
  -1  -2  10  113.10    6.44
   1   2 -10   87.82    5.29
   1   2 -10   88.99    5.29
   1   2 -10  106.51    6.39
   1   2 -10  103.38    6.12
   1   2 -10  108.60    6.45
  -1  -2  10  110.25    6.11
  -1  -2  10  117.25    6.75
  -1  -2   9   43.55    4.27
   1   2  -9   58.73    5.02
  -1  -2   9   43.63    4.27
   1   2  -9   51.84    4.69
   1   2  -9   54.71    4.67
   1   2  -9   52.84    4.33
  -1  -2   9   42.51    4.19
   1   2  -9   51.90    4.36
  -1  -2   9   42.09    4.10
   1   2  -9   49.57    4.73
  -1  -2   9   48.03    4.33
  -1  -2   9   43.06    4.32
  -1  -2   8  335.18   11.81
  -1  -2   8  328.13   11.53
  -1  -2   8  312.49   10.22
   1   2  -8  327.59   11.36
  -1  -2   8  327.48   11.80
   1   2  -8  345.09   12.06
   1   2  -8  342.15   11.92
   1   2  -8  339.97   11.91
   1   2  -8  329.28   11.12
  -1  -2   8  312.84   11.38
   1   2  -8  339.21   12.05
  -1  -2   8  319.48   11.74
   1   2  -8  304.31    9.94
  -1  -2   8  294.37   10.86
  -1  -2   8  327.90   12.21
   1   2  -7   34.29    3.18
   1   2  -7   38.29    3.66
  -1  -2   7   49.82    3.84
  -1  -2   7   41.30    3.02
   1   2  -7   43.83    3.91
  -1  -2   7   43.72    3.99
  -1  -2   7   48.80    4.26
  -1  -2   7   45.38    3.99
  -1  -2   7   43.49    4.04
  -1  -2   7   42.61    3.82
   1   2  -7   35.84    3.50
   1   2  -7   37.49    3.70
  -1  -2   7   42.79    3.96
  -1  -2   7   40.36    3.87
   1   2  -7   42.94    3.87
   1   2  -7   44.28    3.78
  -1  -2   7   47.50    4.17
   1   2  -7   40.93    3.81
  -1  -2   7   47.89    4.07
  -1  -2   7   45.50    4.12
  -1  -2   7   39.86    3.66
   1   2  -6   26.22    2.81
  -1  -2   6   24.16    2.75
  -1  -2   6   22.73    2.73
   1   2  -6   24.01    2.65
  -1  -2   6   25.44    2.89
   1   2  -6   23.39    2.69
  -1  -2   6   22.32    2.65
  -1  -2   6   21.16    2.68
   1   2  -6   19.52    2.43
   1   2  -6   23.57    2.73
   1   2  -6   25.60    2.79
  -1  -2   6   27.68    2.92
   1   2  -6   22.30    2.06
  -1  -2   6   22.05    2.70
  -1  -2   6   24.63    2.30
  -1  -2   6   20.82    2.47
  -1  -2   6   25.34    2.53
   1   2  -6   24.11    2.25
  -1  -2   6   26.24    2.85
   1   2  -6   26.91    2.76
  -1  -2   5   46.23    3.04
  -1  -2   5   43.29    2.89
  -1  -2   5   47.75    3.48
   1   2  -5   45.57    2.47
   1   2  -5   43.86    2.87
   1   2  -5   44.61    3.15
  -1  -2   4 1949.38   30.68
  -1  -2   4 1981.52   30.50
   1   2  -4 2012.35   28.16
   1   2  -4 1997.32   30.74
   1   2  -4 2034.26   30.76
  -1  -2   3 1198.18   19.63
  -1  -2   3 1193.49   19.19
   1   2  -3 1136.45   16.27
  -1  -2   3 1168.49   20.14
   1   2  -3 1191.86   18.56
   1   2  -3 1193.10   19.51
   1   2  -2  498.23    8.45
  -1  -2   2  499.34   10.30
  -1  -2   2  488.77    9.53
   1   2  -2  508.84   10.19
  -1  -2   1  293.24    6.60
  -1  -2   1  292.48    6.77
   1   2  -1  287.57    6.46
  -1  -2   1  295.73    6.46
   1   2  -1  285.70    4.26
  -1  -2   1  289.15    6.98
  -1  -2   0  944.70   14.70
  -1  -2   0  906.65   15.24
   1   2   0  876.90   14.17
  -1  -2   0  915.88   15.37
  -1  -2  -1   75.38    3.27
   1   2   1   82.87    2.66
  -1  -2  -1   81.16    3.26
  -1  -2  -2   65.78    3.03
  -1  -2  -2   56.06    2.19
   1   2   2   63.18    3.09
  -1  -2  -2   64.96    2.94
   1   2   2   59.37    2.72
  -1  -2  -3  130.41    4.99
  -1  -2  -3  129.47    4.98
   1   2   3  112.22    4.29
  -1  -2  -3  124.61    4.36
  -1  -2  -3  113.02    3.96
  -1  -2  -4  331.54    9.43
  -1  -2  -4  327.94    8.98
  -1  -2  -4  315.34    8.17
   1   2   4  309.43    8.44
   1   2   5    7.46    1.60
  -1  -2  -5    5.29    1.44
  -1  -2  -5    6.09    1.37
   1   2   5    6.52    1.50
  -1  -2  -5    5.20    1.26
   1   2   5    7.78    1.51
  -1  -2  -5    5.58    1.33
  -1  -2  -6  115.47    5.76
   1   2   6  132.51    6.75
  -1  -2  -6  112.19    5.77
  -1  -2  -6  111.02    5.76
   1   2   6  123.90    6.29
   1   2   6  127.04    6.34
  -1  -2  -6  126.04    6.49
   1   2   6  140.80    7.09
  -1  -2  -6  115.53    5.61
  -1  -2  -7   12.23    2.02
   1   2   7   18.03    2.71
  -1  -2  -7   13.20    2.35
   1   2   7   17.00    2.80
  -1  -2  -7   15.09    2.52
   1   2   7   15.32    2.71
  -1  -2  -7   12.13    2.14
  -1  -2  -7   12.62    2.22
   1   2   7   16.30    2.59
   1   2   8    1.06    1.03
  -1  -2  -8    3.67    1.39
   1   2   8    1.60    1.19
  -1  -2  -8    3.69    1.32
   1   2   8    0.80    1.29
   1   2   8    2.09    1.34
   1   2   8    1.04    1.38
  -1  -2  -8    2.90    1.53
  -1  -2  -8    3.38    1.45
  -1  -2  -8    4.87    1.75
  -1  -2  -9   10.50    2.27
   1   2   9   12.74    2.54
  -1  -2  -9   11.00    2.26
   1   2   9    9.46    2.11
   1   2   9    9.81    1.93
   1   2   9   10.35    2.16
  -1  -2  -9   10.11    2.16
  -1  -2 -10   39.78    3.55
   1   2  10   39.53    3.70
  -1  -2 -10   40.18    3.59
   1   2  10   35.65    3.38
  -1  -2 -10   41.80    3.48
   1   2  10   34.90    3.33
   1   2  10   38.16    3.80
  -1  -2 -10   38.33    3.44
  -1  -2 -10   37.46    3.54
  -1  -2 -11   24.27    2.33
   1   2  11   25.62    2.46
  -1  -2 -11   24.31    2.39
   1   3 -12    5.54    1.10
  -1  -3  12    6.79    1.23
  -1  -3  12    7.99    1.20
   1   3 -11   22.62    2.36
  -1  -3  11   18.44    2.18
   1   3 -10   30.71    3.24
  -1  -3  10   36.13    3.34
  -1  -3  10   39.79    3.76
   1   3 -10   30.20    3.43
  -1  -3  10   39.65    3.67
  -1  -3  10   40.72    3.86
  -1  -3   9   58.25    4.40
   1   3  -9   68.09    4.91
  -1  -3   9   48.56    4.17
   1   3  -9   59.92    4.59
   1   3  -9   59.18    4.81
   1   3  -9   55.13    4.18
  -1  -3   9   59.64    5.08
  -1  -3   9   54.83    4.93
  -1  -3   9   58.80    4.88
   1   3  -9   49.94    4.54
   1   3  -9   60.79    4.93
  -1  -3   9   56.85    4.82
  -1  -3   8   37.30    3.67
   1   3  -8   57.29    4.65
  -1  -3   8   43.60    4.06
  -1  -3   8   49.47    4.64
   1   3  -8   53.46    4.41
   1   3  -8   58.55    4.81
  -1  -3   8   48.52    4.50
  -1  -3   8   43.43    4.41
  -1  -3   8   35.08    3.64
  -1  -3   8   36.08    4.07
   1   3  -8   59.44    4.82
   1   3  -8   53.87    4.61
  -1  -3   8   49.32    4.52
   1   3  -8   49.98    4.16
   1   3  -7   55.63    4.53
   1   3  -7   52.12    4.22
  -1  -3   7   60.95    4.19
  -1  -3   7   65.01    4.64
   1   3  -7   53.95    4.42
  -1  -3   7   64.71    5.00
  -1  -3   7   67.19    5.09
   1   3  -7   52.02    4.30
  -1  -3   7   66.63    5.02
   1   3  -7   53.91    4.53
  -1  -3   7   64.56    5.08
  -1  -3   7   61.36    5.10
  -1  -3   7   73.58    5.27
  -1  -3   7   64.89    4.95
   1   3  -7   54.05    4.29
   1   3  -7   52.79    4.35
   1   3  -6   87.62    5.20
  -1  -3   6   83.02    4.98
  -1  -3   6   86.85    5.36
  -1  -3   6   87.89    5.38
   1   3  -6   93.77    5.51
  -1  -3   6   85.75    5.35
   1   3  -6   85.32    5.12
  -1  -3   6   85.67    5.34
  -1  -3   6   87.86    5.36
   1   3  -6   89.86    5.42
   1   3  -6   90.26    5.25
   1   3  -6   95.84    5.12
  -1  -3   6   85.48    5.22
  -1  -3   6   97.37    5.16
  -1  -3   6   92.06    5.12
  -1  -3   6   90.77    5.73
  -1  -3   5   11.91    1.93
  -1  -3   5   10.63    1.85
   1   3  -5   16.82    2.23
  -1  -3   5   14.04    2.20
  -1  -3   5   13.09    2.05
  -1  -3   5   11.20    1.87
   1   3  -5   16.24    2.21
   1   3  -5   16.93    2.26
  -1  -3   5   13.54    2.16
  -1  -3   5   15.05    2.09
  -1  -3   5   13.86    1.87
   1   3  -5   14.96    1.74
   1   3  -5   18.20    2.02
  -1  -3   5   14.16    2.17
   1   3  -4  176.81    5.68
  -1  -3   4  196.95    7.01
  -1  -3   4  192.01    6.62
  -1  -3   4  187.51    7.42
   1   3  -3  143.19    4.12
  -1  -3   3  129.91    5.40
  -1  -3   3  125.81    5.39
  -1  -3   3  130.56    4.99
  -1  -3   2  229.73    6.35
   1   3  -2  233.60    6.77
  -1  -3   1  320.79    8.31
  -1  -3   1  315.98    8.35
  -1  -3   1  309.29    7.18
   1   3  -1  290.31    7.76
   1   3   0   65.49    2.70
  -1  -3   0   56.75    3.13
  -1  -3   0   58.36    3.24
  -1  -3   0   57.72    2.68
   1   3   0   66.41    3.34
  -1  -3  -1  206.80    6.34
   1   3   1  204.87    6.26
   1   3   1  201.59    5.34
  -1  -3  -1  205.79    5.63
  -1  -3  -1  200.96    6.52
   1   3   1  197.72    4.72
  -1  -3  -2   70.10    3.55
   1   3   2   82.98    3.34
   1   3   2   84.88    4.03
  -1  -3  -2   65.75    3.81
   1   3   2   81.71    2.49
  -1  -3  -3   19.76    1.93
  -1  -3  -3   23.23    2.24
  -1  -3  -4  117.06    5.62
  -1  -3  -4  123.80    5.90
  -1  -3  -4  106.59    5.18
   1   3   4  106.11    4.50
  -1  -3  -4  111.53    4.66
   1   3   4  110.93    4.80
   1   3   4  101.40    5.29
  -1  -3  -5   62.80    4.43
  -1  -3  -5   62.84    4.16
   1   3   5   49.09    3.63
   1   3   5   61.03    4.46
   1   3   5   56.09    4.23
  -1  -3  -6  171.40    7.77
   1   3   6  175.08    8.39
   1   3   6  153.33    7.02
   1   3   6  150.82    6.87
  -1  -3  -6  165.50    7.22
   1   3   6  165.35    7.20
   1   3   6  181.38    8.34
   1   3   7  177.39    8.91
  -1  -3  -7  157.52    7.58
   1   3   7  185.89    8.85
   1   3   7  151.32    7.27
  -1  -3  -7  160.49    7.49
  -1  -3  -7  145.65    6.75
   1   3   7  157.84    7.38
   1   3   7  173.53    8.56
  -1  -3  -7  180.38    8.63
   1   3   8   25.94    3.07
   1   3   8   31.32    3.92
   1   3   8   26.54    3.39
  -1  -3  -8   38.67    3.88
   1   3   8   24.59    2.96
   1   3   8   32.67    3.79
  -1  -3  -8   30.07    3.18
  -1  -3  -8   39.90    3.96
  -1  -3  -9  107.32    6.08
  -1  -3  -9  102.57    5.82
   1   3   9   87.19    5.08
   1   3   9   92.80    5.41
   1   3   9  110.96    6.56
  -1  -3  -9  105.19    6.00
  -1  -3 -10   62.05    4.08
  -1  -3 -10   58.46    3.78
   1   3  10   52.66    3.85
  -1  -3 -10   70.04    4.25
  -1  -3 -10   62.88    4.06
   1   3  10   53.20    3.92
  -1  -3 -10   61.40    3.75
  -1  -3 -10   60.53    3.90
   1   3  10   56.28    4.13
  -1  -3 -11   20.51    1.61
  -1  -3 -11   25.13    1.96
   1   3  11   21.85    1.94
   1   4 -11   40.20    3.15
  -1  -4  11   43.36    3.24
   1   4 -11   44.89    3.12
  -1  -4  11   46.63    3.09
   1   4 -10  145.66    7.23
  -1  -4  10  152.73    6.93
   1   4 -10  152.27    6.76
  -1  -4  10  148.46    6.85
  -1  -4  10  145.25    6.75
  -1  -4   9  172.43    7.68
  -1  -4   9  172.49    8.51
   1   4  -9  149.89    7.44
   1   4  -9  148.94    6.97
   1   4  -9  169.39    7.78
  -1  -4   9  172.21    8.19
  -1  -4   9  167.81    8.06
  -1  -4   9  168.74    8.32
  -1  -4   8    6.85    1.95
  -1  -4   8    4.72    1.76
  -1  -4   8    6.19    1.97
  -1  -4   8    4.58    1.42
   1   4  -8    9.55    2.12
  -1  -4   8    6.48    1.88
   1   4  -8   10.67    2.23
   1   4  -8    9.64    2.03
  -1  -4   8    5.21    1.53
   1   4  -8    7.95    1.80
   1   4  -8    8.33    2.04
   1   4  -7  160.66    7.81
   1   4  -7  154.70    7.80
  -1  -4   7  156.16    7.50
  -1  -4   7  157.17    7.71
   1   4  -7  164.48    7.77
  -1  -4   7  173.51    8.69
   1   4  -7  165.95    8.09
  -1  -4   7  165.77    8.16
   1   4  -7  152.43    7.58
  -1  -4   7  168.02    8.24
   1   4  -7  171.07    7.73
  -1  -4   7  171.11    8.26
  -1  -4   7  186.84    8.64
   1   4  -6   53.03    4.40
  -1  -4   6   43.41    3.84
   1   4  -6   48.04    4.13
  -1  -4   6   48.36    4.09
  -1  -4   6   43.16    3.79
  -1  -4   6   47.81    4.16
   1   4  -6   55.75    4.37
  -1  -4   6   52.99    4.62
   1   4  -6   55.31    4.48
  -1  -4   6   45.17    4.08
   1   4  -6   55.78    4.45
  -1  -4   6   50.44    4.56
   1   4  -6   51.57    4.06
  -1  -4   6   50.71    4.20
  -1  -4   6   47.38    4.13
   1   4  -5   31.66    3.25
   1   4  -5   35.32    3.49
  -1  -4   5   35.24    3.32
  -1  -4   5   32.14    3.21
   1   4  -5   34.29    3.33
   1   4  -5   39.31    3.61
  -1  -4   5   37.95    3.67
   1   4  -5   36.59    3.48
  -1  -4   5   31.38    3.21
  -1  -4   5   32.14    3.07
   1   4  -5   36.84    3.49
  -1  -4   5   38.39    3.80
   1   4  -5   31.84    2.98
  -1  -4   5   32.84    3.22
   1   4  -5   34.09    2.95
  -1  -4   5   40.48    3.64
  -1  -4   5   39.02    3.38
  -1  -4   5   36.76    3.42
   1   4  -4   62.62    4.23
   1   4  -4   69.69    4.43
  -1  -4   4   67.77    4.51
  -1  -4   4   54.51    3.72
   1   4  -4   60.04    4.32
  -1  -4   4   66.46    4.13
   1   4  -4   60.78    4.24
  -1  -4   4   61.26    4.07
   1   4  -4   63.12    4.08
  -1  -4   4   62.53    4.35
  -1  -4   4   66.99    4.56
  -1  -4   4   56.90    3.81
  -1  -4   3   36.86    2.92
   1   4  -3   35.16    2.97
   1   4  -3   29.16    2.81
   1   4  -3   28.77    2.87
  -1  -4   2   14.78    1.79
   1   4  -2   17.58    2.04
  -1  -4   2   16.41    2.14
  -1  -4   1  503.39   12.81
  -1  -4   1  535.18   13.04
  -1  -4   0 1469.87   25.87
  -1  -4   0 1465.04   23.32
   1   4   0 1549.15   25.94
  -1  -4   0 1498.38   26.19
  -1  -4  -1   63.89    4.02
  -1  -4  -1   64.64    3.10
   1   4   1   55.25    3.46
  -1  -4  -1   64.97    3.87
  -1  -4  -2  137.12    6.33
  -1  -4  -2  127.93    4.84
   1   4   2  136.91    5.75
  -1  -4  -2  133.85    5.66
   1   4   2  123.58    4.23
   1   4   3  214.41    7.97
   1   4   3  209.05    7.97
  -1  -4  -3  198.00    7.04
   1   4   4  202.42    8.26
   1   4   4  210.10    8.47
   1   4   4  194.02    7.71
   1   4   4  196.92    7.06
   1   4   4  199.97    7.71
   1   4   4  203.79    8.17
   1   4   5   87.44    5.84
  -1  -4  -5   92.18    5.29
   1   4   5   78.90    5.44
   1   4   5   85.18    5.60
   1   4   5   88.18    5.72
  -1  -4  -5  103.34    6.26
   1   4   5   80.53    4.92
   1   4   5   87.52    5.22
   1   4   5   82.27    5.50
   1   4   5   85.97    5.45
  -1  -4  -6   61.81    4.68
   1   4   6   79.54    5.72
  -1  -4  -6   63.81    5.09
   1   4   6   75.56    5.40
   1   4   6   85.24    5.89
   1   4   6   79.44    5.99
   1   4   6   71.35    4.80
   1   4   6   81.76    5.77
  -1  -4  -7   68.25    4.60
   1   4   7   66.47    5.34
  -1  -4  -7   74.14    5.43
   1   4   7   68.25    5.50
   1   4   7   70.04    5.44
  -1  -4  -7   78.82    5.23
   1   4   7   58.87    5.00
   1   4   8   38.40    3.91
   1   4   8   33.76    3.79
   1   4   8   36.32    3.82
  -1  -4  -8   31.74    3.43
  -1  -4  -8   24.75    2.90
   1   4   8   38.48    3.89
  -1  -4  -8   24.01    2.77
   1   4   8   33.36    3.65
  -1  -4  -9   96.95    5.33
  -1  -4  -9   92.63    5.06
  -1  -4  -9   94.29    5.18
   1   4   9  103.47    5.66
  -1  -4  -9   85.30    4.46
   1   4   9  105.69    5.69
   1   4   9   87.45    4.93
   1   4   9  101.89    5.48
  -1  -4 -10    2.82    0.95
  -1  -4 -10    2.60    0.97
  -1  -4 -10    3.55    1.05
  -1  -4 -10    2.90    0.92
   1   4  10    3.66    1.00
  -1  -4 -10    2.59    0.81
  -1  -5  11    0.55    0.54
  -1  -5  11    0.89    0.71
  -1  -5  11    0.73    0.57
   1   5 -11    1.23    0.63
  -1  -5  10    4.54    1.31
  -1  -5  10    2.60    1.13
   1   5 -10    4.21    1.26
  -1  -5  10    3.90    1.24
  -1  -5  10    3.45    1.10
   1   5  -9   18.11    2.37
  -1  -5   9   17.95    2.50
   1   5  -9   17.22    2.46
  -1  -5   9   20.42    2.81
  -1  -5   9   20.21    2.71
   1   5  -9   17.00    2.63
  -1  -5   8   70.62    5.33
  -1  -5   8   73.33    5.69
  -1  -5   8   70.37    4.89
   1   5  -8   74.23    5.73
   1   5  -8   75.98    5.28
   1   5  -8   71.99    4.85
   1   5  -8   72.15    4.78
  -1  -5   8   66.20    5.03
  -1  -5   8   59.04    4.83
  -1  -5   7  115.99    6.69
  -1  -5   7  128.29    7.52
   1   5  -7  111.50    7.11
   1   5  -7  110.98    6.64
   1   5  -7  114.92    6.62
  -1  -5   7  104.21    6.44
  -1  -5   7  107.01    6.58
   1   5  -7  111.34    6.94
   1   5  -7  118.16    6.66
  -1  -5   7  118.64    6.75
   1   5  -7  110.18    5.88
  -1  -5   7  123.69    6.95
  -1  -5   6   40.38    3.90
   1   5  -6   50.88    4.43
   1   5  -6   49.85    4.55
  -1  -5   6   50.02    4.68
   1   5  -6   44.22    4.42
  -1  -5   6   48.16    4.17
   1   5  -6   47.96    4.21
   1   5  -6   53.93    4.62
  -1  -5   6   43.36    4.08
  -1  -5   6   45.90    4.40
   1   5  -6   43.05    3.58
  -1  -5   6   50.85    4.33
  -1  -5   6   48.78    4.26
  -1  -5   5  280.34   10.08
   1   5  -5  290.70   10.19
  -1  -5   5  259.44    9.74
  -1  -5   5  269.67   10.64
  -1  -5   5  268.94   10.17
   1   5  -5  268.87    9.49
  -1  -5   5  247.56    9.13
   1   5  -5  292.73   10.66
   1   5  -5  307.84   10.98
  -1  -5   5  269.39   10.56
   1   5  -5  310.71   11.47
   1   5  -5  276.56    9.39
  -1  -5   5  275.58    9.96
   1   5  -4   41.08    3.80
   1   5  -4   41.72    3.72
  -1  -5   4   27.01    3.18
   1   5  -4   41.18    3.96
  -1  -5   4   30.48    3.12
   1   5  -4   32.34    3.37
  -1  -5   4   30.13    3.44
   1   5  -4   34.62    3.30
   1   5  -4   34.85    3.35
   1   5  -4   40.35    3.83
  -1  -5   4   25.63    2.94
   1   5  -3   11.99    1.81
   1   5  -3   14.76    2.37
   1   5  -3   14.20    2.22
  -1  -5   3   13.33    2.11
   1   5  -3   14.17    2.35
  -1  -5   3   11.21    1.93
   1   5  -3   12.33    2.27
  -1  -5   3   12.13    2.25
   1   5  -3   12.20    2.14
   1   5  -3   13.13    2.15
   1   5  -3   10.00    1.79
   1   5  -3   12.20    1.91
   1   5  -2   20.12    2.71
   1   5  -2   15.64    2.08
   1   5  -2   17.07    2.47
  -1  -5   2   24.90    2.86
  -1  -5   2   20.52    2.35
   1   5  -2   19.88    2.76
  -1  -5   2   24.08    2.86
   1   5  -2   18.75    2.42
   1   5  -2   17.89    2.52
   1   5  -2   17.77    2.44
   1   5  -1  156.28    6.45
   1   5  -1  165.93    7.41
   1   5  -1  159.07    7.20
  -1  -5   1  145.10    6.95
  -1  -5   1  132.54    6.16
   1   5  -1  168.02    7.79
  -1  -5   1  151.38    7.06
   1   5  -1  159.37    7.09
   1   5  -1  160.10    7.40
   1   5  -1  166.67    6.96
  -1  -5   0    6.57    1.57
   1   5   0    6.62    1.45
  -1  -5   0    6.67    1.63
   1   5   0    5.34    1.58
   1   5   1   94.23    5.54
  -1  -5  -1   67.57    4.57
   1   5   1   86.25    4.80
   1   5   1   94.98    5.75
   1   5   1   84.76    5.02
  -1  -5  -1   67.22    4.72
   1   5   1   86.48    5.16
   1   5   1   76.97    4.42
   1   5   2   66.62    4.57
   1   5   2   67.77    4.74
  -1  -5  -2   67.46    4.91
   1   5   2   59.99    4.31
   1   5   2   66.10    4.78
   1   5   2   64.28    4.27
  -1  -5  -2   62.75    4.29
   1   5   2   68.58    4.91
   1   5   2   66.81    4.78
   1   5   3  560.02   15.05
   1   5   3  574.02   16.14
  -1  -5  -3  578.62   16.27
   1   5   3  561.26   15.09
   1   5   3  589.92   15.18
   1   5   3  557.48   14.69
   1   5   3  571.32   15.37
   1   5   4   77.24    5.39
  -1  -5  -4   76.04    4.99
   1   5   4   72.22    5.19
   1   5   4   67.34    4.70
   1   5   4   73.34    4.94
   1   5   4   62.41    4.36
   1   5   4   65.83    4.62
   1   5   4   73.34    5.06
   1   5   4   82.66    5.91
   1   5   4   68.53    4.97
   1   5   5  377.53   12.74
  -1  -5  -5  296.96   10.53
   1   5   5  337.38   11.42
  -1  -5  -5  330.66   12.40
   1   5   5  339.42   10.88
   1   5   5  348.18   11.20
   1   5   5  348.48   11.94
   1   5   5  407.73   13.80
   1   5   5  350.21   12.29
  -1  -5  -6   13.29    2.36
   1   5   6   14.75    2.56
  -1  -5  -6   14.02    2.56
   1   5   6   13.11    2.49
   1   5   6   15.09    2.72
   1   5   6   12.18    2.07
   1   5   6   13.82    2.54
   1   5   7   39.93    3.96
  -1  -5  -7   44.45    3.87
   1   5   7   47.88    4.42
   1   5   7   39.30    3.87
  -1  -5  -7   36.63    3.28
   1   5   7   36.07    3.75
   1   5   7   37.96    3.71
   1   5   8   14.19    2.32
  -1  -5  -8   12.54    2.10
   1   5   8   12.58    2.07
  -1  -5  -8    9.69    1.66
  -1  -5  -8   10.81    1.81
  -1  -5  -8   13.29    2.10
   1   5   8   12.73    1.93
   1   5   8   14.10    2.21
   1   5   9    4.70    1.14
  -1  -5  -9    4.56    0.98
  -1  -5  -9    7.96    1.43
  -1  -5  -9    5.45    1.28
   1   5   9    5.65    1.19
  -1  -5  -9    6.84    1.27
   1   6 -10   14.92    1.76
  -1  -6  10   17.76    1.71
  -1  -6  10   17.81    1.77
  -1  -6  10   16.40    1.74
   1   6  -9    0.50    0.81
  -1  -6   9    0.14    0.60
  -1  -6   9    0.89    0.91
  -1  -6   9    0.09    0.82
  -1  -6   9    0.44    0.77
   1   6  -8   66.82    4.31
  -1  -6   8   63.25    4.59
   1   6  -8   70.47    5.10
  -1  -6   8   65.17    4.42
  -1  -6   8   72.85    4.76
  -1  -6   8   66.85    5.00
   1   6  -8   75.47    4.99
  -1  -6   8   69.07    4.88
   1   6  -8   49.81    3.69
   1   6  -7  124.76    7.26
   1   6  -7  128.77    6.96
  -1  -6   7  115.86    6.46
   1   6  -7  117.26    6.47
  -1  -6   7  124.05    6.53
  -1  -6   7  128.42    7.28
  -1  -6   6   13.56    2.65
   1   6  -6   12.57    2.58
   1   6  -6   12.21    2.20
  -1  -6   6   12.43    2.25
  -1  -6   6   13.76    2.46
  -1  -6   6   14.66    2.45
   1   6  -6   12.09    2.32
  -1  -6   6   16.91    2.65
  -1  -6   6   14.19    2.76
   1   6  -5  606.19   15.40
   1   6  -5  607.58   16.57
  -1  -6   5  544.42   15.44
  -1  -6   5  555.71   16.97
  -1  -6   5  557.39   16.28
  -1  -6   5  549.70   14.63
   1   6  -5  616.71   17.15
   1   6  -5  586.55   16.40
  -1  -6   5  573.51   16.27
   1   6  -5  611.79   17.47
   1   6  -5  567.41   15.05
   1   6  -5  578.07   15.20
  -1  -6   5  581.82   15.66
   1   6  -4   35.29    3.77
   1   6  -4   33.00    3.27
   1   6  -4   34.99    3.65
   1   6  -4   35.23    3.84
   1   6  -4   43.60    4.16
   1   6  -4   34.21    3.66
   1   6  -4   41.56    4.19
  -1  -6   4   39.67    3.90
   1   6  -4   41.55    4.20
  -1  -6   4   43.90    4.07
  -1  -6   4   45.41    3.96
   1   6  -4   40.32    4.01
  -1  -6   3  154.82    7.20
   1   6  -3  151.70    7.86
  -1  -6   3  150.06    7.40
   1   6  -3  139.30    7.61
  -1  -6   3  155.13    8.13
   1   6  -3  127.77    6.86
   1   6  -3  135.60    6.90
   1   6  -3  133.02    6.94
   1   6  -3  141.24    7.66
   1   6  -2    9.91    2.23
  -1  -6   2    6.66    1.75
   1   6  -2    6.44    1.56
   1   6  -2    7.99    1.98
  -1  -6   2    4.22    1.44
  -1  -6   2    6.43    1.80
  -1  -6   2    5.03    1.40
   1   6  -2    9.45    2.18
  -1  -6   2    6.72    1.88
   1   6  -2    6.47    1.88
   1   6  -2    8.51    1.88
   1   6  -2    7.01    1.71
   1   6  -1   37.86    3.93
  -1  -6   1   40.44    3.99
  -1  -6   1   35.79    3.45
   1   6  -1   33.33    3.30
   1   6  -1   35.66    4.02
   1   6  -1   28.61    3.19
   1   6  -1   29.52    3.11
  -1  -6   1   36.27    3.87
   1   6   0   76.69    5.02
  -1  -6   0   76.67    5.59
  -1  -6   0   78.59    5.29
   1   6   0   60.50    4.45
   1   6   0   69.62    4.59
  -1  -6   0   75.47    5.38
   1   6   1   64.93    4.78
  -1  -6  -1   44.55    4.36
   1   6   1   64.35    5.20
   1   6   1   58.05    4.23
  -1  -6  -1   42.92    4.05
   1   6   1   58.96    4.60
   1   6   1   59.64    4.88
   1   6   2   66.47    4.55
   1   6   2   73.21    5.31
   1   6   2   78.95    5.46
  -1  -6  -2   63.84    5.22
   1   6   2   70.66    5.05
   1   6   2   76.10    5.60
  -1  -6  -2   55.31    4.43
   1   6   2   72.00    5.40
   1   6   2   71.49    5.32
   1   6   2   79.78    5.60
   1   6   3   42.23    3.94
   1   6   3   48.84    4.43
  -1  -6  -3   48.99    4.75
   1   6   3   39.46    3.87
   1   6   3   46.98    4.55
   1   6   3   38.72    3.87
   1   6   3   45.37    4.10
   1   6   3   39.07    3.69
   1   6   3   44.57    4.18
  -1  -6  -4  438.83   13.69
   1   6   4  484.58   14.30
   1   6   4  445.31   12.11
  -1  -6  -4  413.16   14.42
   1   6   4  464.59   13.36
   1   6   4  479.83   13.77
  -1  -6  -4  400.81   12.35
   1   6   4  471.17   13.62
   1   6   4  417.30   11.98
   1   6   4  509.16   15.45
   1   6   5  143.28    7.28
   1   6   5  123.45    6.16
   1   6   5  141.60    6.63
   1   6   5  136.13    6.99
  -1  -6  -5  134.88    6.59
  -1  -6  -6    8.70    1.85
   1   6   6    7.58    1.95
   1   6   6    6.87    1.97
   1   6   6    7.56    1.83
   1   6   6    8.28    1.92
   1   6   7   28.31    2.99
  -1  -6  -7   30.31    2.83
   1   6   7   29.88    2.92
  -1  -6  -8   18.89    2.07
   1   6   8   22.00    2.28
  -1  -6  -8   19.98    2.15
  -1  -6  -8   19.69    1.98
  -1  -7   9   33.72    2.45
   1   7  -9   21.58    1.79
  -1  -7   9   29.14    2.24
  -1  -7   9   28.75    2.33
   1   7  -9   22.55    2.07
   1   7  -8   25.94    2.71
  -1  -7   8   23.65    2.47
  -1  -7   8   24.64    2.62
  -1  -7   8   22.50    2.56
   1   7  -8   18.94    1.97
   1   7  -7   13.63    2.29
   1   7  -7   12.35    1.95
  -1  -7   7   12.61    2.32
  -1  -7   7   12.30    2.22
  -1  -7   7    9.63    1.62
   1   7  -6   13.70    2.45
   1   7  -6   10.77    2.09
  -1  -7   6   14.17    2.55
   1   7  -6   14.10    2.42
  -1  -7   6   12.19    2.04
  -1  -7   6   13.87    2.12
  -1  -7   6   13.10    2.31
  -1  -7   5   92.28    5.37
  -1  -7   5   84.46    5.40
   1   7  -5   99.92    6.35
  -1  -7   5   89.60    6.04
   1   7  -5   95.54    5.56
   1   7  -5  111.77    6.62
  -1  -7   5   91.83    5.59
   1   7  -5  115.20    6.37
   1   7  -5   99.11    5.61
  -1  -7   4   30.01    3.44
   1   7  -4   26.16    3.19
   1   7  -4   26.38    3.40
  -1  -7   4   25.19    3.31
   1   7  -4   23.48    3.16
   1   7  -4   24.23    3.33
   1   7  -4   26.40    3.32
  -1  -7   4   28.48    3.10
  -1  -7   3  177.59    7.67
  -1  -7   3  157.75    7.61
   1   7  -3  205.92    9.12
   1   7  -3  197.79    9.24
  -1  -7   3  166.72    8.12
   1   7  -3  168.24    8.67
  -1  -7   3  151.97    8.51
   1   7  -3  200.98    9.10
   1   7  -3  200.68    8.80
   1   7  -3  196.49    8.12
  -1  -7   2  204.74    8.29
  -1  -7   2  183.99    7.77
   1   7  -2  229.42    9.90
   1   7  -2  201.85    8.06
   1   7  -2  199.46    7.57
  -1  -7   2  182.64    9.13
  -1  -7   2  188.26    8.75
   1   7  -2  203.75    9.70
  -1  -7   2  178.43    9.07
   1   7  -2  224.41    9.52
   1   7  -2  205.52    7.90
   1   7  -2  227.11    9.93
   1   7  -1    3.32    1.31
   1   7  -1    2.55    1.66
   1   7  -1    2.15    1.16
   1   7  -1    4.04    1.39
  -1  -7   1    5.20    1.66
   1   7  -1    4.02    1.72
   1   7  -1    3.57    1.59
   1   7  -1    3.15    1.73
  -1  -7   1    5.28    1.77
  -1  -7   0   24.00    2.90
   1   7   0   21.78    2.84
  -1  -7   0   23.17    3.32
  -1  -7   0   25.65    3.21
   1   7   0   16.61    2.71
   1   7   0   24.07    3.42
  -1  -7   0   19.42    2.93
   1   7   0   22.38    2.81
   1   7   0   25.93    3.53
   1   7   1    9.07    2.17
   1   7   1   11.17    2.10
   1   7   1   11.20    2.48
   1   7   1   12.75    2.34
  -1  -7  -1   12.96    2.52
  -1  -7  -1    8.85    2.08
   1   7   1   12.67    2.48
  -1  -7  -1    9.76    2.15
   1   7   1   10.37    2.08
   1   7   1   11.68    2.48
   1   7   1   11.49    2.38
   1   7   2  144.49    7.27
   1   7   2  134.65    7.06
   1   7   2  144.66    7.50
   1   7   2  121.65    6.80
   1   7   2  140.08    7.29
  -1  -7  -2  120.64    6.47
   1   7   2  128.49    7.44
   1   7   3    5.59    1.64
  -1  -7  -3    8.35    1.79
   1   7   3    7.73    1.91
   1   7   3    6.99    1.92
   1   7   3    8.77    1.92
   1   7   3    6.56    1.99
   1   7   4   57.24    4.93
   1   7   4   59.81    4.77
  -1  -7  -4   51.43    4.19
   1   7   4   56.34    4.14
  -1  -7  -5   50.37    3.93
   1   7   5   55.78    4.35
   1   7   6   11.30    1.93
  -1  -7  -6   14.38    1.97
  -1  -7  -6   11.60    1.62
   1   7   6   11.49    1.95
  -1  -7  -7   73.38    3.50
  -1  -7  -7   78.56    3.75
   1   8  -8    3.36    0.81
  -1  -8   8    2.21    0.67
   1   8  -7   19.58    2.11
  -1  -8   7   20.56    2.18
   1   8  -7   15.13    1.75
  -1  -8   7   19.11    2.14
  -1  -8   6   24.01    2.66
   1   8  -6   27.80    2.81
  -1  -8   5   15.75    2.26
   1   8  -5   14.42    2.07
  -1  -8   5   12.53    1.88
  -1  -8   5   17.14    2.58
   1   8  -5   11.19    1.80
   1   8  -4    3.60    1.41
  -1  -8   4    2.67    1.22
  -1  -8   4    3.03    1.25
   1   8  -4    2.25    1.10
  -1  -8   4    0.85    1.21
   1   8  -4    3.52    1.40
   1   8  -3   26.40    3.28
  -1  -8   3   23.62    2.90
  -1  -8   3   20.97    2.43
  -1  -8   3   23.70    3.14
   1   8  -3   27.09    3.28
   1   8  -2   22.98    3.20
   1   8  -2   20.84    2.92
   1   8  -2   23.55    2.67
   1   8  -2   23.25    3.15
  -1  -8   2   19.09    2.76
   1   8  -1   50.18    4.37
   1   8  -1   57.57    4.82
   1   8   0   12.17    2.03
  -1  -8   0   17.92    2.63
   1   8   0   13.66    2.02
   1   8   0   19.87    2.98
   1   8   1   12.60    1.91
   1   8   1   16.94    2.64
  -1  -8  -1   14.02    2.10
   1   8   1   18.09    2.66
  -1  -8  -1   16.85    2.38
   1   8   1   18.36    2.71
   1   8   1   13.53    2.25
   1   8   2   12.83    2.21
   1   8   2   16.27    2.39
  -1  -8  -2   17.78    2.23
   1   8   2   15.66    2.37
   1   8   2   12.56    1.86
   1   8   2   13.88    2.20
   1   8   3    3.69    1.29
   1   8   3    3.52    1.07
   1   8   3    6.02    1.49
   1   8   4    0.06    0.48
  -1  -8  -4    0.40    0.88
   1   8   4    0.37    0.89
  -1  -8  -5    1.97    0.86
   1   8   5    3.88    1.10
  -1  -8  -5    2.23    0.76
   1   8   6   11.78    1.24
  -1  -9   6    4.23    0.83
   1   9  -6    4.91    0.85
   1   9  -6    5.69    0.88
  -1  -9   5   19.38    2.02
   1   9  -5   19.43    1.74
  -1  -9   4    1.30    0.66
  -1  -9   4    1.89    1.07
  -1  -9   4    1.56    0.95
   1   9  -4    1.04    0.83
   1   9  -4    0.68    0.74
  -1  -9   3   13.22    1.75
  -1  -9   3   18.01    2.29
  -1  -9   3   16.63    1.96
   1   9  -3   18.03    2.13
   1   9  -3   18.61    2.10
   1   9  -2   15.32    1.87
   1   9  -2   22.28    2.48
  -1  -9   2   21.11    2.45
  -1  -9   2   18.08    1.90
   1   9  -2   23.33    2.52
  -1  -9   2   21.79    2.34
  -1  -9   1    3.76    1.15
  -1  -9   1    3.30    1.15
  -1  -9   0   11.63    1.53
  -1  -9   0   12.67    1.66
   1   9   0   17.48    2.17
   1   9   0   19.83    2.28
   1   9   0   20.40    2.36
   1   9   1   13.93    1.74
  -1  -9  -1   22.10    2.36
   1   9   1   10.73    1.37
   1   9   1   19.61    2.10
  -1  -9  -2   35.92    2.64
   1   9   2   21.91    1.96
  -1  -9  -3   -0.10    0.78
   1   9   3    1.22    0.60
  -2  11  -1    1.67    0.58
  -2  11  -1    1.65    0.57
  -2  10   4   30.75    2.13
  -2  10   3   74.22    3.79
  -2  10   2    7.88    1.48
  -2  10   2    7.72    1.40
  -2  10   2   11.95    1.73
  -2  10   1   61.20    4.03
  -2  10   1   59.02    3.83
  -2  10   1   58.85    3.95
  -2  10   0   32.19    2.93
  -2  10  -1   35.76    3.35
  -2  10  -1   35.48    3.31
  -2  10  -2   24.78    2.66
  -2  10  -2   20.03    2.21
  -2  10  -2   23.29    2.64
  -2  10  -3    1.94    0.96
  -2  10  -3    1.76    0.91
  -2  10  -3    1.43    0.87
  -2  10  -4    3.12    0.86
  -2  10  -4    3.53    0.94
  -2  10  -5   21.76    2.02
   2 -10   5   22.40    1.76
  -2  10  -6   15.48    1.37
  -2   9   6   15.94    1.64
  -2   9   5   29.15    2.69
  -2   9   5   26.98    2.53
  -2   9   4    7.50    1.66
  -2   9   4    8.91    1.74
  -2   9   3   37.37    3.43
  -2   9   3   33.46    3.30
  -2   9   3   35.22    3.24
  -2   9   3   37.26    3.59
  -2   9   3   45.85    4.03
  -2   9   2   32.37    3.50
  -2   9   2   27.73    3.14
  -2   9   2   25.78    3.12
  -2   9   2   30.18    3.36
  -2   9   2   34.46    3.67
  -2   9   1   28.88    3.54
  -2   9   1   26.38    3.08
  -2   9   1   23.96    3.24
  -2   9   1   26.92    3.29
  -2   9   1   24.82    3.14
  -2   9   0   84.11    5.90
  -2   9   0   67.14    4.46
  -2   9   0   77.51    5.41
  -2   9  -1    2.20    1.49
  -2   9  -1    1.48    1.25
  -2   9  -1    1.79    1.42
  -2   9  -1    2.55    1.26
  -2   9  -1    0.87    1.28
  -2   9  -2  158.03    7.93
  -2   9  -2  149.67    7.15
  -2   9  -2  148.28    7.43
  -2   9  -2  144.53    7.23
  -2   9  -2  144.46    7.66
  -2   9  -3   28.36    3.29
  -2   9  -3   29.58    3.34
  -2   9  -3   26.28    3.22
  -2   9  -3   29.31    3.34
  -2   9  -3   26.35    3.17
  -2   9  -3   28.96    3.33
  -2   9  -4   40.90    3.34
  -2   9  -4   40.09    3.48
   2  -9   4   37.31    3.31
  -2   9  -4   45.62    3.78
  -2   9  -4   49.76    4.19
  -2   9  -5   34.92    3.33
   2  -9   5   19.24    2.42
  -2   9  -5   23.08    2.51
  -2   9  -5   31.12    3.13
  -2   9  -5   21.78    2.26
   2  -9   6  104.15    5.14
  -2   9  -6  109.49    4.99
  -2   9  -6  129.18    5.61
   2  -9   6  117.62    5.21
  -2   9  -6  133.94    5.76
  -2   9  -7   13.26    1.58
   2  -9   7   11.40    1.66
   2  -9   7    9.76    1.37
  -2   9  -7   14.99    1.85
  -2   9  -7   12.40    1.62
  -2   9  -7   13.54    1.57
   2  -9   7   10.37    1.53
  -2   8   8   27.35    1.99
  -2   8   8   32.60    2.01
  -2   8   7   15.13    1.98
  -2   8   7   13.35    1.86
  -2   8   6    3.60    1.28
  -2   8   6    1.59    1.00
  -2   8   6    3.56    1.35
  -2   8   5   11.95    2.26
  -2   8   5    8.26    1.92
  -2   8   5    9.92    2.15
  -2   8   4  122.68    7.04
  -2   8   4  105.40    5.64
  -2   8   4  126.26    7.18
  -2   8   4  110.14    6.08
  -2   8   3   82.18    5.98
  -2   8   3   67.83    4.86
  -2   8   3   68.02    5.22
  -2   8   3   72.12    5.58
  -2   8   3   71.35    5.39
  -2   8   3   73.03    5.50
  -2   8   3   68.53    5.12
  -2   8   2   24.89    3.34
  -2   8   2   27.56    3.57
  -2   8   2   31.14    3.76
  -2   8   2   27.84    3.41
   2  -8  -2   27.78    3.56
  -2   8   1  223.43    9.93
   2  -8  -1  201.67    9.42
  -2   8   1  235.50    9.91
  -2   8   1  204.57    9.26
  -2   8   1  199.70    7.96
  -2   8   1  206.30    9.42
  -2   8   0  104.32    6.49
   2  -8   0   80.25    5.83
  -2   8   0  108.26    6.67
  -2   8   0  102.25    6.89
  -2   8   0  103.77    5.98
  -2   8   0  103.54    6.53
  -2   8   0   98.66    5.94
  -2   8  -1    4.17    1.43
   2  -8   1    2.21    1.20
   2  -8   1    2.72    1.31
  -2   8  -1    4.13    1.55
  -2   8  -1    4.83    1.37
  -2   8  -1    4.03    1.78
  -2   8  -1    2.36    1.09
  -2   8  -1    4.19    1.73
   2  -8   1    2.02    1.13
   2  -8   1    2.88    1.23
  -2   8  -1    4.15    1.79
  -2   8  -1    3.03    1.57
  -2   8  -1    3.85    1.62
   2  -8   2   35.17    3.79
   2  -8   2   43.43    4.27
  -2   8  -2   37.06    4.02
  -2   8  -2   39.45    3.72
  -2   8  -2   37.25    3.97
   2  -8   2   46.73    4.39
   2  -8   2   37.42    3.98
  -2   8  -2   34.76    3.93
  -2   8  -2   40.79    4.13
  -2   8  -2   41.52    4.18
  -2   8  -3  194.18    9.08
   2  -8   3  186.99    8.95
  -2   8  -3  181.73    8.25
  -2   8  -3  193.11    8.95
  -2   8  -3  195.91    8.74
  -2   8  -3  186.24    9.04
   2  -8   3  189.65    9.23
   2  -8   3  190.75    9.01
  -2   8  -4   36.40    3.99
  -2   8  -4   30.78    3.42
  -2   8  -4   35.54    3.75
  -2   8  -4   34.39    3.91
  -2   8  -4   36.39    3.92
  -2   8  -4   30.30    3.42
  -2   8  -4   34.38    3.88
  -2   8  -4   28.58    3.40
  -2   8  -5   33.84    3.69
   2  -8   5   28.74    3.11
  -2   8  -5   31.16    3.55
  -2   8  -5   36.72    3.85
  -2   8  -5   38.82    3.99
  -2   8  -5   27.08    2.97
  -2   8  -6   32.65    3.52
  -2   8  -6   33.65    3.51
   2  -8   6   35.78    3.36
  -2   8  -6   33.91    3.48
  -2   8  -6   35.57    3.55
   2  -8   7    8.52    1.67
   2  -8   7    9.43    2.00
   2  -8   7    7.12    1.44
  -2   8  -7   10.30    1.86
  -2   8  -7   11.89    2.00
  -2   8  -7   11.05    2.07
   2  -8   7    7.48    1.51
   2  -8   7    9.09    1.85
  -2   8  -7    9.81    1.96
  -2   8  -7   13.82    2.05
   2  -8   8   31.93    2.94
  -2   8  -8   32.83    2.68
   2  -8   8   29.62    2.48
   2  -8   8   34.23    2.71
   2  -8   8   30.70    2.25
  -2   8  -8   34.63    2.94
  -2   8  -8   30.18    2.33
  -2   8  -8   34.65    2.97
  -2   8  -8   29.09    2.20
  -2   8  -9   73.90    3.35
   2  -8   9   72.23    3.42
   2  -8   9   71.93    3.19
  -2   7   9   19.58    1.86
  -2   7   9   20.41    1.77
   2  -7  -8   59.44    3.33
  -2   7   8   68.89    4.15
  -2   7   7   23.03    2.90
  -2   7   7   25.73    3.12
  -2   7   7   22.18    2.59
  -2   7   6   58.57    4.65
  -2   7   6   52.73    4.08
  -2   7   6   58.06    4.90
  -2   7   6   63.29    5.00
  -2   7   5  122.16    7.20
  -2   7   5  124.33    7.30
  -2   7   5  103.53    5.72
  -2   7   5  118.22    6.65
  -2   7   5  116.60    7.14
  -2   7   4  327.36   12.28
  -2   7   4  291.82   11.31
  -2   7   4  285.29   11.26
  -2   7   4  290.49   10.24
  -2   7   4  310.85   11.06
  -2   7   4  301.11   11.68
   2  -7  -4  272.42   11.22
  -2   7   3    8.80    2.07
  -2   7   3   11.52    2.45
   2  -7  -3   14.02    2.53
  -2   7   3    9.82    2.25
  -2   7   3    8.95    2.24
  -2   7   3    9.56    2.26
  -2   7   3    8.66    2.00
  -2   7   2  221.19    9.64
  -2   7   2  235.53   10.17
  -2   7   2  230.32   10.07
  -2   7   2  236.64   10.03
  -2   7   2  230.76   10.07
  -2   7   2  240.50   10.25
   2  -7  -2  209.98    8.93
  -2   7   2  199.09    7.87
  -2   7   2  228.37    9.29
  -2   7   1   79.41    5.45
  -2   7   1   86.73    5.98
  -2   7   1   80.34    5.65
   2  -7  -1   97.44    6.11
   2  -7  -1   86.91    5.17
  -2   7   1   81.75    5.81
  -2   7   1   83.36    5.87
  -2   7   1   80.28    5.00
  -2   7   1   72.31    4.67
  -2   7   1   85.11    5.66
  -2   7   1   81.35    5.00
  -2   7   0   17.53    2.50
  -2   7   0   22.21    3.05
  -2   7   0   22.13    3.10
  -2   7   0   21.32    3.11
   2  -7   0   17.63    2.63
  -2   7   0   19.70    2.73
  -2   7   0   20.21    2.92
  -2   7   0   21.55    3.06
  -2   7   0   17.15    2.39
  -2   7   0   20.70    2.57
  -2   7   0   17.83    2.59
   2  -7   0   14.69    2.26
  -2   7   0   19.10    2.66
  -2   7  -1   36.96    3.79
   2  -7   1   42.18    3.90
   2  -7   1   45.65    4.15
  -2   7  -1   38.25    4.07
  -2   7  -1   46.21    4.14
  -2   7  -1   37.81    3.77
  -2   7  -1   41.40    3.88
  -2   7  -1   39.14    3.63
   2  -7   1   41.06    3.81
  -2   7  -1   43.51    4.04
  -2   7  -1   40.74    3.96
  -2   7  -1   40.99    3.88
  -2   7  -2  180.63    8.44
   2  -7   2  179.28    8.36
   2  -7   2  165.75    7.84
  -2   7  -2  184.00    8.86
  -2   7  -2  177.93    8.44
  -2   7  -2  179.23    8.03
  -2   7  -2  177.26    8.23
   2  -7   2  181.80    8.24
   2  -7   2  169.35    8.16
  -2   7  -2  176.87    8.31
  -2   7  -2  173.53    8.29
  -2   7  -2  174.71    8.13
  -2   7  -3  567.98   16.16
   2  -7   3  510.38   15.42
  -2   7  -3  539.03   16.07
  -2   7  -3  563.17   15.88
   2  -7   3  531.42   15.66
  -2   7  -3  541.15   15.19
  -2   7  -3  578.97   16.19
  -2   7  -4  648.83   17.76
   2  -7   4  585.30   16.54
  -2   7  -4  617.98   17.87
  -2   7  -4  618.64   17.20
  -2   7  -4  627.41   16.21
  -2   7  -4  647.05   17.63
  -2   7  -5  103.05    6.45
   2  -7   5   85.92    5.67
  -2   7  -5   98.66    6.38
   2  -7   5   79.83    5.95
  -2   7  -5   91.91    6.05
  -2   7  -5   89.26    6.42
   2  -7   5   94.80    6.48
  -2   7  -5   85.50    5.29
   2  -7   6   23.71    3.17
  -2   7  -6   22.83    3.19
   2  -7   6   22.09    2.78
  -2   7  -6   20.41    2.94
   2  -7   6   26.20    3.34
  -2   7  -6   21.13    2.98
  -2   7  -6   19.75    3.12
   2  -7   7   43.38    4.01
   2  -7   7   40.58    3.63
  -2   7  -7   49.88    4.36
  -2   7  -7   48.59    4.03
   2  -7   7   51.96    4.08
   2  -7   7   47.12    4.25
   2  -7   7   40.44    3.66
   2  -7   7   45.71    4.10
  -2   7  -7   45.32    3.89
   2  -7   7   38.98    3.65
  -2   7  -7   46.14    4.40
   2  -7   8    2.64    1.42
   2  -7   8    2.68    1.38
   2  -7   8    2.16    1.10
   2  -7   8    2.73    1.28
  -2   7  -8    3.01    1.21
  -2   7  -8    4.02    1.24
   2  -7   8    2.48    1.08
   2  -7   8    1.63    1.05
  -2   7  -8    3.65    1.36
  -2   7  -8    2.11    0.94
  -2   7  -9   24.51    2.60
   2  -7   9   17.30    1.97
  -2   7  -9   24.78    2.54
   2  -7   9   16.79    2.02
   2  -7   9   18.43    2.25
  -2   7  -9   24.41    2.41
   2  -7   9   17.35    2.16
   2  -7  10   13.26    1.44
   2  -7  10   16.34    1.61
  -2   7 -10   18.11    1.63
   2  -6 -10   10.80    1.37
  -2   6  10    5.74    1.02
  -2   6   9   27.50    2.77
  -2   6   9   29.63    2.82
  -2   6   8   58.37    4.54
  -2   6   8   68.10    4.67
  -2   6   8   63.89    4.74
  -2   6   7  154.32    7.96
  -2   6   7  143.30    7.72
  -2   6   7  141.18    6.84
  -2   6   7  148.60    7.66
  -2   6   7  132.29    6.39
  -2   6   6  138.07    7.73
   2  -6  -6  123.80    7.40
   2  -6  -6  107.13    6.66
   2  -6  -6  111.37    6.74
  -2   6   6  137.13    7.73
  -2   6   6  132.27    7.21
  -2   6   6  130.69    7.55
  -2   6   6  127.04    6.53
  -2   6   6  136.09    7.44
  -2   6   6  126.96    6.82
  -2   6   5  192.56    9.11
   2  -6  -5  187.92    9.13
   2  -6  -5  179.66    8.28
   2  -6  -5  184.46    8.52
  -2   6   5  188.54    7.89
  -2   6   5  198.06    9.32
  -2   6   5  201.13    9.13
  -2   6   5  201.03    9.18
  -2   6   5  196.97    9.38
  -2   6   5  193.33    8.82
  -2   6   5  201.78    8.78
  -2   6   4  229.76    9.67
  -2   6   4  207.75    8.24
  -2   6   4  223.29    9.04
  -2   6   4  235.90    9.92
  -2   6   4  215.79    8.18
  -2   6   4  231.72    9.82
  -2   6   4  227.12    9.59
  -2   6   4  226.70    8.64
  -2   6   4  235.40    9.85
  -2   6   4  228.26    9.58
   2  -6  -4  242.78    9.12
  -2   6   3  145.24    6.61
  -2   6   3  164.88    7.80
  -2   6   3  147.08    6.81
   2  -6  -3  160.08    6.81
  -2   6   3  151.72    7.43
  -2   6   3  146.66    7.09
  -2   6   3  159.61    7.82
  -2   6   3  149.74    7.66
  -2   6   3  156.65    7.73
  -2   6   3  148.52    7.56
  -2   6   2   24.37    2.85
  -2   6   2   20.86    2.48
  -2   6   2   24.14    2.65
   2  -6  -2   25.05    2.86
  -2   6   2   24.42    2.96
  -2   6   2   24.04    2.96
  -2   6   2   23.72    3.01
  -2   6   2   28.29    3.27
  -2   6   2   23.86    2.90
  -2   6   2   23.59    2.99
  -2   6   2   27.23    3.15
  -2   6   1    0.56    0.69
  -2   6   1    1.49    1.04
  -2   6   1    1.05    1.01
  -2   6   1    0.73    0.95
  -2   6   1    1.49    0.87
   2  -6  -1    3.58    1.05
  -2   6   1    0.97    0.92
  -2   6   1    0.85    0.65
  -2   6   1    1.42    1.00
   2  -6  -1    2.97    1.02
  -2   6   1    1.32    0.94
  -2   6   1    0.74    1.02
  -2   6   1    0.80    0.84
  -2   6   1    0.35    0.85
  -2   6   1    0.32    1.07
  -2   6   0   98.90    5.34
  -2   6   0   98.24    5.34
   2  -6   0   99.58    5.43
   2  -6   0   91.87    4.46
  -2   6   0  106.89    5.86
  -2   6   0   98.89    5.39
  -2   6   0   95.79    5.13
  -2   6   0  104.03    5.70
  -2   6   0  105.04    5.43
  -2   6   0  100.86    5.91
  -2   6   0  108.49    5.96
  -2   6   0  100.70    5.74
   2  -6   0   92.14    4.94
  -2   6  -1  184.48    7.65
  -2   6  -1  185.38    7.70
  -2   6  -1  189.26    7.75
   2  -6   1  213.71    7.99
  -2   6  -1  183.45    8.13
  -2   6  -1  178.95    7.49
  -2   6  -1  187.31    7.74
  -2   6  -1  182.81    7.66
  -2   6  -1  175.18    7.57
  -2   6  -1  190.32    8.04
  -2   6  -1  180.32    7.73
  -2   6  -1  182.81    7.44
  -2   6  -1  189.30    7.84
  -2   6  -1  177.62    7.41
  -2   6  -2  189.61    7.94
   2  -6   2  185.31    7.46
   2  -6   2  173.30    6.85
   2  -6   2  185.03    7.76
  -2   6  -2  176.59    7.51
  -2   6  -2  174.83    7.68
  -2   6  -2  177.84    7.85
  -2   6  -2  189.90    8.21
  -2   6  -2  188.69    8.16
   2  -6   2  182.38    7.57
   2  -6   3  130.29    6.56
   2  -6   3  113.21    6.04
  -2   6  -3  105.97    6.09
  -2   6  -3  104.95    5.75
  -2   6  -3  111.81    6.24
  -2   6  -3  115.32    6.30
  -2   6  -3  116.08    6.49
   2  -6   3  130.00    6.55
   2  -6   4  243.24    9.61
   2  -6   4  220.39    9.46
  -2   6  -4  246.90    9.84
  -2   6  -4  245.87    9.75
  -2   6  -4  247.68    8.88
  -2   6  -4  250.82    9.35
   2  -6   4  259.16   10.00
  -2   6  -5   80.80    5.91
   2  -6   5   63.59    4.90
  -2   6  -5   82.63    5.56
  -2   6  -5   84.93    5.82
   2  -6   5   66.00    5.40
   2  -6   5   65.37    4.81
   2  -6   5   78.18    5.67
  -2   6  -6   32.07    3.90
   2  -6   6   35.64    3.91
  -2   6  -6   36.59    3.71
  -2   6  -6   35.09    3.95
   2  -6   6   34.15    3.79
   2  -6   6   32.96    4.08
  -2   6  -6   34.24    3.35
  -2   6  -6   36.56    3.77
   2  -6   6   32.73    3.68
   2  -6   6   33.01    3.92
   2  -6   7   75.84    5.62
  -2   6  -7   65.79    4.75
   2  -6   7   73.73    5.52
  -2   6  -7   71.14    5.46
   2  -6   7   77.55    5.49
   2  -6   7   69.19    5.19
  -2   6  -7   62.70    4.59
   2  -6   7   69.66    5.69
   2  -6   7   78.80    5.55
   2  -6   7   78.50    5.55
   2  -6   7   76.02    5.66
  -2   6  -7   65.30    4.67
  -2   6  -8  102.95    5.22
   2  -6   8  127.15    6.86
   2  -6   8  122.72    6.96
   2  -6   8  119.71    6.60
  -2   6  -8  115.40    6.02
   2  -6   8  128.42    6.68
   2  -6   8  126.91    7.00
   2  -6   8  127.96    7.03
   2  -6   8  120.28    6.59
  -2   6  -8  111.85    6.55
   2  -6   9   25.30    3.03
   2  -6   9   22.73    2.79
  -2   6  -9   22.87    2.75
   2  -6   9   24.25    2.71
  -2   6  -9   21.51    2.42
   2  -6   9   23.69    2.86
   2  -6   9   25.32    2.84
   2  -6   9   27.02    3.13
   2  -6   9   27.46    3.06
   2  -6   9   24.11    2.95
  -2   6 -10    4.50    1.06
  -2   6 -10    3.91    1.09
   2  -6  10    3.06    1.01
  -2   6 -10    5.51    1.30
   2  -6  10    3.81    1.19
   2  -6  10    3.08    1.05
  -2   5  10   12.29    1.81
  -2   5  10   12.53    1.83
   2  -5 -10   14.40    1.87
   2  -5  -9   59.60    3.78
  -2   5   9   75.82    5.05
  -2   5   9   68.37    4.80
  -2   5   8   14.70    2.44
  -2   5   8   12.23    2.46
  -2   5   8   14.17    2.59
  -2   5   7   35.14    3.61
  -2   5   7   37.94    4.09
   2  -5  -7   28.70    3.72
  -2   5   7   37.99    3.95
  -2   5   7   37.56    3.67
  -2   5   7   36.20    3.68
  -2   5   7   38.19    4.19
  -2   5   7   33.09    3.36
   2  -5  -7   26.93    3.45
  -2   5   6  114.45    6.32
  -2   5   6  106.75    5.89
  -2   5   6  107.27    6.34
  -2   5   6  106.82    6.66
  -2   5   6  102.98    6.19
  -2   5   6  107.78    6.65
   2  -5  -6  115.60    6.95
  -2   5   6  113.77    6.97
   2  -5  -6  111.20    6.54
  -2   5   6  109.90    6.31
  -2   5   5  501.99   13.75
  -2   5   5  536.34   14.97
  -2   5   5  519.52   14.32
  -2   5   5  523.46   14.76
  -2   5   5  530.07   15.13
   2  -5  -5  539.99   15.21
   2  -5  -5  484.24   13.65
  -2   5   5  535.83   15.49
  -2   5   5  513.80   13.43
  -2   5   5  535.51   14.81
   2  -5  -5  501.45   14.40
  -2   5   4  103.74    5.96
  -2   5   4  100.23    5.76
  -2   5   4   99.02    5.69
   2  -5  -4  100.33    5.67
  -2   5   4  107.01    5.96
  -2   5   4   95.13    5.28
   2  -5  -4  103.60    5.37
  -2   5   4   98.35    5.12
  -2   5   4  110.97    6.08
  -2   5   4  104.76    5.57
  -2   5   3  182.25    7.42
   2  -5  -3  191.94    7.34
  -2   5   3  165.82    6.87
  -2   5   3  170.72    7.40
  -2   5   3  172.85    7.47
  -2   5   3  182.14    7.53
  -2   5   3  175.84    7.51
  -2   5   3  173.97    7.29
  -2   5   2  339.21   10.21
  -2   5   1   99.56    5.30
  -2   5   1   93.25    5.05
   2  -5   0  203.49    5.58
  -2   5   0  219.40    7.10
  -2   5   0  221.64    8.12
   2  -5   1   54.09    3.16
   2  -5   1   55.03    3.45
  -2   5  -1   64.04    3.88
  -2   5  -1   67.05    4.35
  -2   5  -2  174.01    6.98
  -2   5  -2  186.21    7.26
  -2   5  -2  182.81    4.96
  -2   5  -2  184.19    7.28
   2  -5   2  196.17    7.06
   2  -5   2  191.26    6.99
   2  -5   2  191.01    6.70
   2  -5   2  192.67    7.04
  -2   5  -3   48.20    3.81
  -2   5  -3   51.79    3.80
   2  -5   3   37.25    3.35
   2  -5   3   37.77    3.16
  -2   5  -3   52.17    3.98
  -2   5  -3   52.13    3.91
  -2   5  -3   53.97    3.82
  -2   5  -3   50.65    3.80
   2  -5   3   39.15    3.25
   2  -5   4   68.90    4.60
  -2   5  -4   57.50    4.49
  -2   5  -4   64.10    4.64
  -2   5  -4   59.00    4.45
  -2   5  -4   59.10    4.34
   2  -5   4   60.38    4.59
  -2   5  -4   59.72    4.03
  -2   5  -4   67.28    4.82
  -2   5  -4   62.47    4.36
  -2   5  -4   62.51    4.49
  -2   5  -5   21.58    2.88
   2  -5   5   15.97    2.28
  -2   5  -5   20.81    2.93
  -2   5  -5   22.58    3.04
  -2   5  -5   21.64    2.92
  -2   5  -5   19.29    2.62
   2  -5   5   17.50    2.75
   2  -5   5   17.61    2.62
  -2   5  -5   19.28    2.53
   2  -5   5   19.31    2.71
  -2   5  -5   22.32    3.02
  -2   5  -6   39.07    4.07
   2  -5   6   40.29    3.72
  -2   5  -6   36.50    3.83
  -2   5  -6   36.40    3.54
   2  -5   6   43.63    4.02
   2  -5   6   49.71    4.72
  -2   5  -6   37.78    3.64
  -2   5  -6   36.43    3.53
   2  -5   6   43.48    4.32
  -2   5  -6   38.00    4.07
   2  -5   7   39.74    4.13
   2  -5   7   39.66    4.05
   2  -5   7   36.36    3.63
  -2   5  -7   43.29    4.27
  -2   5  -7   45.99    4.14
   2  -5   7   36.91    4.21
   2  -5   7   36.94    3.75
   2  -5   7   37.59    4.34
  -2   5  -7   34.68    3.29
  -2   5  -7   37.08    3.50
  -2   5  -7   38.18    4.15
   2  -5   7   38.27    4.25
  -2   5  -7   39.68    3.91
   2  -5   7   41.49    4.08
  -2   5  -8   12.34    2.42
   2  -5   8   18.16    2.82
   2  -5   8   16.65    2.92
   2  -5   8   18.96    3.08
   2  -5   8   16.44    2.93
   2  -5   8   15.56    2.62
   2  -5   8   17.88    2.92
   2  -5   8   13.49    2.69
  -2   5  -8   11.43    2.25
  -2   5  -8   12.81    2.55
   2  -5   9  134.56    6.93
  -2   5  -9  133.42    6.72
   2  -5   9  144.07    7.02
   2  -5   9  134.45    7.06
   2  -5   9  132.14    7.15
  -2   5  -9  121.93    6.73
   2  -5   9  131.24    7.06
   2  -5   9  126.10    6.67
  -2   5  -9  128.72    7.20
   2  -5   9  146.67    7.58
  -2   5 -10    8.64    1.64
   2  -5  10    8.13    1.78
   2  -5  10    7.39    1.70
  -2   5 -10    9.60    1.82
   2  -5  10    8.19    1.62
   2  -5  10    8.17    1.59
  -2   5 -10    9.48    1.82
   2  -5  10    6.62    1.39
   2  -5  11   14.67    1.69
  -2   5 -11   11.17    1.44
   2  -5  11   15.69    1.68
  -2   4  11    8.22    1.35
   2  -4 -11    6.77    1.32
  -2   4  11    8.12    1.26
   2  -4 -11    7.28    1.32
   2  -4 -10    6.46    1.56
  -2   4  10    3.92    1.38
  -2   4  10    2.88    1.29
  -2   4   9   40.06    3.99
   2  -4  -9   38.16    3.33
  -2   4   9   45.20    4.14
  -2   4   9   48.94    4.45
  -2   4   9   43.46    4.18
   2  -4  -8   59.95    5.11
  -2   4   8   60.01    4.97
   2  -4  -8   58.41    4.33
  -2   4   8   53.69    4.77
   2  -4  -8   60.76    5.39
  -2   4   8   63.72    5.26
  -2   4   8   50.94    4.16
  -2   4   8   59.66    4.63
  -2   4   8   54.48    4.80
  -2   4   7   96.72    6.09
  -2   4   7  104.98    6.57
  -2   4   7   99.82    5.70
   2  -4  -7  122.52    7.01
   2  -4  -7  114.88    7.16
  -2   4   7   90.63    6.23
   2  -4  -7  110.22    6.56
  -2   4   7   99.40    6.48
  -2   4   7   86.23    5.84
  -2   4   6   13.74    2.33
  -2   4   6   12.44    2.40
  -2   4   6   11.91    2.12
  -2   4   6   12.87    2.32
   2  -4  -6    7.41    2.01
   2  -4  -6   10.33    2.17
   2  -4  -6    7.14    1.74
  -2   4   6    9.38    2.15
  -2   4   6   12.05    1.99
  -2   4   5  239.87    8.65
  -2   4   5  253.73    9.41
  -2   4   5  258.63    9.00
  -2   4   5  246.82    9.37
   2  -4  -5  254.57    9.61
  -2   4   5  263.44    8.97
   2  -4  -5  253.03    8.99
  -2   4   5  239.58    8.84
   2  -4  -5  252.00    9.20
   2  -4  -4  123.49    6.02
   2  -4  -4  119.45    4.87
   2  -4  -4  118.69    5.64
  -2   4   4  110.05    5.40
  -2   4   3   21.68    2.18
   2  -4  -3   21.99    1.95
  -2   4   2  204.21    6.91
   2  -4  -2  193.32    4.88
  -2   4   1  137.50    4.54
  -2   4   1  138.13    5.62
  -2   4   0   71.30    3.36
  -2   4   0   71.18    3.93
  -2   4  -1  260.41    7.43
  -2   4  -1  266.25    8.06
   2  -4   2  120.53    4.83
   2  -4   2  119.70    4.44
   2  -4   2  123.39    4.86
   2  -4   3    7.15    1.34
  -2   4  -3    2.90    1.01
   2  -4   3    7.07    1.35
  -2   4  -4   73.10    4.58
   2  -4   4   58.05    3.98
  -2   4  -4   69.07    4.34
  -2   4  -4   77.42    4.80
  -2   4  -4   74.84    4.73
  -2   4  -4   73.05    4.60
  -2   4  -5  695.20   17.04
  -2   4  -5  686.55   15.68
   2  -4   5  723.32   16.75
   2  -4   5  717.71   17.84
  -2   4  -5  680.72   16.34
  -2   4  -5  652.53   15.75
  -2   4  -5  698.73   17.36
  -2   4  -5  720.12   17.62
   2  -4   5  625.03   15.16
   2  -4   5  696.05   17.01
  -2   4  -6   19.62    2.77
  -2   4  -6   16.56    2.29
   2  -4   6   23.46    3.23
   2  -4   6   23.71    2.81
  -2   4  -6   20.34    2.87
   2  -4   6   18.88    2.69
  -2   4  -6   18.31    2.60
   2  -4   6   18.84    2.79
   2  -4   6   21.18    2.66
  -2   4  -6   18.02    2.56
   2  -4   6   18.68    2.66
  -2   4  -7   17.49    2.62
   2  -4   7   10.47    2.24
  -2   4  -7   12.69    2.40
   2  -4   7   12.02    2.14
  -2   4  -7   16.19    2.67
   2  -4   7   12.63    2.41
  -2   4  -7   17.37    2.83
   2  -4   7   10.48    2.11
   2  -4   7    8.80    2.13
   2  -4   8   92.53    6.41
   2  -4   8   98.69    6.25
  -2   4  -8   87.86    5.49
   2  -4   8   93.87    6.44
   2  -4   8   90.40    6.46
  -2   4  -8   93.65    6.14
   2  -4   8  103.09    6.41
   2  -4   8   94.04    6.11
  -2   4  -8   98.06    6.27
  -2   4  -8  101.72    6.92
   2  -4   8   86.33    5.65
  -2   4  -8   88.03    6.14
  -2   4  -9   10.10    1.99
   2  -4   9    7.65    2.08
  -2   4  -9   11.95    2.50
   2  -4   9    7.35    2.17
  -2   4  -9   11.13    2.33
   2  -4   9    7.96    1.95
   2  -4   9    6.16    1.71
   2  -4   9    6.59    1.73
   2  -4   9    6.21    2.00
   2  -4   9    4.22    1.56
   2  -4   9    7.01    2.17
   2  -4  10  121.85    6.36
  -2   4 -10  132.16    6.83
   2  -4  10  129.11    6.73
   2  -4  10  125.71    6.20
   2  -4  10  138.85    6.65
   2  -4  11  146.63    5.56
   2  -4  11  141.63    5.44
   2  -4  11  123.29    5.10
  -2   4 -11  136.43    5.71
  -2   4 -11  126.83    5.17
   2  -3 -11   34.26    2.87
  -2   3  11   27.84    2.74
   2  -3 -11   33.35    3.01
  -2   3  11   31.02    2.89
  -2   3  11   26.08    2.47
   2  -3 -10   74.79    4.89
  -2   3  10   58.94    4.39
  -2   3  10   64.80    4.91
  -2   3  10   65.77    4.86
  -2   3  10   62.22    4.56
  -2   3   9  106.09    6.70
  -2   3   9  115.24    6.63
  -2   3   9  112.16    6.68
  -2   3   8  117.57    6.23
  -2   3   8  133.12    7.58
   2  -3  -8  107.05    5.74
  -2   3   8  145.34    7.60
  -2   3   8  133.18    6.68
  -2   3   8  134.69    6.73
  -2   3   8  139.98    7.55
   2  -3  -8  122.29    7.37
  -2   3   7   48.04    3.99
  -2   3   7   50.42    4.49
  -2   3   7   49.46    4.14
  -2   3   7   50.53    4.41
   2  -3  -7   44.48    4.34
  -2   3   7   48.83    4.10
   2  -3  -7   40.01    3.83
  -2   3   7   54.10    4.64
   2  -3  -7   44.44    4.29
  -2   3   6   94.13    5.72
  -2   3   6  101.58    5.41
  -2   3   6   98.80    5.81
  -2   3   6   94.35    5.49
  -2   3   6  100.46    5.83
   2  -3  -6   87.85    5.61
   2  -3  -6   86.63    5.53
  -2   3   6   96.96    5.52
   2  -3  -6   77.20    4.94
  -2   3   6   96.00    5.62
   2  -3  -5  292.31    9.84
   2  -3  -5  275.08    8.44
   2  -3  -5  289.88    9.13
  -2   3   5  297.85    9.62
   2  -3  -5  289.23    9.58
  -2   3   4  237.99    6.67
   2  -3  -4  246.13    7.56
   2  -3  -4  248.77    7.37
   2  -3  -3   65.48    2.56
   2  -3  -3   64.28    3.28
  -2   3   2  202.23    6.00
   2  -3  -2  168.77    3.92
   2  -3  -1  144.31    2.92
  -2   3   1  142.54    3.91
   2  -3   0  213.26    4.14
  -2   3   0  203.88    6.19
   2  -3   1  320.22    6.95
   2  -3   1  316.16    6.39
   2  -3   1  318.49    6.98
   2  -3   1  314.09    6.38
  -2   3  -1  331.33    8.01
  -2   3  -1  330.96    7.56
   2  -3   2  901.57   15.68
   2  -3   2  919.82   16.02
   2  -3   2  894.86   15.59
   2  -3   2  875.04   13.84
  -2   3  -2  902.16   16.26
   2  -3   3  178.39    6.10
   2  -3   3  173.09    5.94
   2  -3   3  169.12    5.07
  -2   3  -3  162.59    6.11
  -2   3  -3  167.57    5.55
   2  -3   4  159.98    6.31
  -2   3  -4  182.19    6.97
  -2   3  -4  176.81    5.57
  -2   3  -4  180.94    6.89
   2  -3   4  146.00    5.49
   2  -3   4  150.78    6.24
  -2   3  -5  210.54    7.52
   2  -3   5  232.28    8.15
  -2   3  -5  237.45    8.69
  -2   3  -5  228.80    7.98
  -2   3  -5  234.51    8.59
   2  -3   5  225.43    7.69
   2  -3   5  223.21    8.48
   2  -3   5  216.04    7.95
   2  -3   6   88.54    5.21
   2  -3   6   93.41    5.83
   2  -3   6   96.70    5.67
  -2   3  -6  108.40    5.46
  -2   3  -6  114.71    5.87
   2  -3   6   98.98    5.48
   2  -3   6  101.45    6.16
  -2   3  -6  108.14    6.30
   2  -3   6   98.22    5.81
   2  -3   6   93.04    5.48
  -2   3  -6  122.16    5.93
  -2   3  -6  126.90    6.52
  -2   3  -6  118.82    6.50
   2  -3   6   96.58    5.66
   2  -3   7  127.93    6.93
  -2   3  -7  134.57    6.90
   2  -3   7  130.00    7.40
  -2   3  -7  136.74    7.47
   2  -3   7  122.41    6.95
  -2   3  -7  140.33    6.56
   2  -3   7  116.69    6.58
  -2   3  -7  142.67    7.31
   2  -3   7  125.40    6.91
  -2   3  -8   58.22    4.51
   2  -3   8   74.46    5.60
  -2   3  -8   60.49    4.85
   2  -3   8   69.94    5.55
   2  -3   8   81.91    5.74
   2  -3   8   79.70    5.75
   2  -3   8   77.40    5.56
  -2   3  -8   60.45    4.97
   2  -3   8   72.81    5.51
   2  -3   8   76.83    5.49
  -2   3  -8   61.44    5.37
  -2   3  -9   10.41    2.23
   2  -3   9    6.54    1.91
  -2   3  -9   11.12    2.52
   2  -3   9    7.32    2.06
  -2   3  -9    9.48    1.99
   2  -3   9    7.19    1.70
  -2   3  -9    8.78    2.27
   2  -3   9    6.56    1.85
   2  -3   9    6.88    1.98
  -2   3 -10   53.48    4.39
   2  -3  10   65.43    4.61
  -2   3 -10   59.52    4.79
   2  -3  10   66.09    4.71
   2  -3  10   66.97    4.85
   2  -3  10   68.39    4.69
   2  -3  10   70.67    5.10
   2  -3  10   69.71    4.79
   2  -3  10   63.01    4.72
   2  -3  11   35.77    3.05
   2  -3  11   32.96    2.83
  -2   3 -11   26.79    2.73
   2  -3  11   31.22    2.94
  -2   3 -11   32.06    2.90
   2  -3  11   37.07    2.97
  -2   3 -12  130.78    4.05
  -2   2  12    6.64    1.13
   2  -2 -12    8.31    1.21
   2  -2 -12   10.23    1.42
   2  -2 -12   10.89    1.49
  -2   2  11   79.30    4.81
   2  -2 -11   77.96    4.58
   2  -2 -11   77.29    4.74
   2  -2 -10   30.07    3.45
   2  -2 -10   23.69    2.74
   2  -2 -10   26.22    3.13
  -2   2  10   18.82    2.60
  -2   2  10   21.49    2.91
  -2   2  10   17.53    2.40
   2  -2  -9   29.44    3.34
   2  -2  -9   26.03    3.59
   2  -2  -9   28.77    3.40
   2  -2  -9   29.27    3.66
  -2   2   9   21.21    2.94
  -2   2   9   17.84    2.54
  -2   2   9   21.89    3.16
  -2   2   9   20.38    2.82
   2  -2  -8   31.88    3.42
   2  -2  -8   33.13    3.88
   2  -2  -8   35.77    3.99
  -2   2   8   35.05    3.77
  -2   2   8   30.45    3.36
  -2   2   8   37.77    3.96
  -2   2   8   34.16    3.62
  -2   2   7  106.79    6.17
   2  -2  -7  138.75    7.29
  -2   2   7   97.91    5.78
  -2   2   7  106.00    5.68
  -2   2   7  106.16    6.16
   2  -2  -7  134.81    7.08
  -2   2   7  107.44    6.33
  -2   2   7   93.24    5.62
  -2   2   7  105.31    5.99
   2  -2  -6    1.25    1.08
  -2   2   6    0.20    0.87
  -2   2   6    0.29    0.89
   2  -2  -6    1.83    0.96
  -2   2   6    0.32    0.73
  -2   2   6    0.41    0.81
   2  -2  -5 1103.60   19.56
   2  -2  -5 1075.74   20.61
  -2   2   4  530.36   10.23
   2  -2  -4  534.87   11.84
   2  -2  -4  520.92   11.56
  -2   2   3  457.74    9.51
   2  -2  -3  487.05    8.34
   2  -2  -3  480.95   10.20
   2  -2  -3  473.15    9.01
   2  -2  -3  443.34    6.78
   2  -2  -3  461.16    9.64
  -2   2   2 1526.22   23.00
   2  -2  -2 1491.17   21.63
   2  -2  -2 1445.89   21.45
   2  -2  -2 1408.91   21.57
  -2   2   1  283.51    5.18
  -2   2   1  267.56    5.43
   2  -2  -1  267.76    5.11
   2  -2  -1  270.47    4.44
  -2   2   0  757.52   13.44
   2  -2   0  735.63   11.27
   2  -2   1   37.22    2.25
   2  -2   1   36.85    1.73
   2  -2   1   36.46    1.31
  -2   2  -1   32.63    2.13
   2  -2   1   35.44    1.89
   2  -2   1   36.13    1.88
  -2   2  -2   96.44    3.84
   2  -2   2  108.40    3.84
   2  -2   2  104.61    3.90
   2  -2   3  154.83    5.51
   2  -2   3  163.05    5.54
  -2   2  -3  144.24    4.63
   2  -2   3  161.90    5.58
  -2   2  -3  149.60    5.54
   2  -2   4  240.49    7.90
   2  -2   4  247.83    7.45
   2  -2   4  251.13    7.99
  -2   2  -4  220.53    5.77
   2  -2   4  260.63    7.81
  -2   2  -4  234.06    7.77
  -2   2  -5   69.13    4.15
  -2   2  -5   76.33    4.66
   2  -2   5   79.87    4.43
  -2   2  -5   78.05    4.68
   2  -2   5   69.91    4.40
   2  -2   5   77.30    4.75
   2  -2   5   78.41    4.48
  -2   2  -5   69.79    4.19
  -2   2  -5   67.37    4.11
   2  -2   6   35.06    3.50
   2  -2   6   36.72    3.41
  -2   2  -6   34.40    3.34
  -2   2  -6   33.00    3.15
   2  -2   6   33.98    3.16
   2  -2   6   35.42    2.64
  -2   2  -6   29.72    2.81
   2  -2   6   36.94    3.54
  -2   2  -6   32.91    2.97
   2  -2   6   36.27    3.34
  -2   2  -6   39.61    3.50
  -2   2  -6   35.05    3.43
   2  -2   6   38.63    3.51
  -2   2  -6   33.50    3.48
   2  -2   7   13.26    2.35
   2  -2   7   15.84    2.69
  -2   2  -7   15.17    2.46
  -2   2  -7    8.64    1.87
  -2   2  -7   13.28    2.28
   2  -2   7   15.52    2.57
   2  -2   7   14.75    2.62
   2  -2   7   13.98    2.40
  -2   2  -7   11.22    2.12
   2  -2   7   13.28    2.36
  -2   2  -7   11.71    2.39
  -2   2  -7   11.94    2.38
   2  -2   8  474.98   14.98
  -2   2  -8  476.48   13.44
   2  -2   8  459.96   14.21
  -2   2  -8  493.11   14.30
   2  -2   8  453.16   14.52
   2  -2   8  454.61   14.36
   2  -2   8  459.45   14.12
   2  -2   8  457.25   14.68
  -2   2  -8  505.94   14.49
  -2   2  -8  477.06   14.71
   2  -2   8  443.06   14.14
  -2   2  -8  478.29   15.41
   2  -2   8  477.13   15.03
   2  -2   9    9.93    2.31
  -2   2  -9    9.43    2.22
   2  -2   9    8.98    1.95
   2  -2   9   11.40    2.45
   2  -2   9   11.25    2.26
  -2   2  -9    9.25    2.05
   2  -2   9    9.11    2.05
  -2   2  -9    9.51    2.06
   2  -2   9   10.06    2.38
  -2   2  -9   11.30    2.49
  -2   2  -9   12.28    2.58
   2  -2   9   10.45    2.22
  -2   2 -10    7.56    1.72
  -2   2 -10   11.17    2.33
   2  -2  10   13.57    2.43
   2  -2  10   15.44    2.22
   2  -2  10   12.99    2.35
  -2   2 -10   10.87    2.09
   2  -2  10   12.23    2.13
   2  -2  10   16.05    2.50
   2  -2  10   17.04    2.66
   2  -2  11    4.52    1.34
   2  -2  11    4.18    1.22
  -2   2 -11    4.46    1.38
  -2   2 -11    4.89    1.35
   2  -2  11    3.26    1.37
   2  -2  12   14.26    1.45
  -2   1  12   47.50    3.01
  -2   1  12   57.15    3.45
   2  -1 -12   44.78    2.39
   2  -1 -12   60.85    3.45
   2  -1 -11   31.61    3.23
   2  -1 -11   28.00    2.87
   2  -1 -11   32.95    3.16
  -2   1  11   29.80    2.75
  -2   1  11   33.57    3.38
   2  -1 -11   31.88    3.00
  -2   1  11   25.97    2.69
  -2   1  10    1.48    1.14
  -2   1  10    0.70    1.23
   2  -1 -10    0.26    1.22
  -2   1  10    0.10    0.74
   2  -1 -10   -0.24    1.29
  -2   1  10    2.45    1.11
   2  -1 -10   -0.34    1.45
  -2   1  10    1.18    1.14
  -2   1   9   30.66    3.85
   2  -1  -9   35.83    3.93
  -2   1   9   25.30    3.06
   2  -1  -9   34.39    3.73
   2  -1  -9   35.64    3.87
  -2   1   9   28.62    3.58
  -2   1   9   25.71    3.15
   2  -1  -9   35.68    3.85
  -2   1   9   24.92    3.32
   2  -1  -9   37.78    4.30
  -2   1   9   31.20    3.64
   2  -1  -8   47.74    4.10
   2  -1  -8   48.36    4.34
  -2   1   8   49.91    4.52
   2  -1  -8   45.03    4.18
  -2   1   8   54.20    4.58
   2  -1  -8   47.84    4.61
  -2   1   8   57.17    4.94
  -2   1   8   57.60    4.43
   2  -1  -7   19.68    2.52
   2  -1  -7   21.91    2.95
  -2   1   7   23.45    2.93
   2  -1  -7   18.99    2.66
  -2   1   7   27.12    3.20
  -2   1   7   27.17    3.20
  -2   1   6  220.57    8.11
   2  -1  -6  246.21    8.64
  -2   1   6  222.64    8.40
  -2   1   6  237.84    8.78
   2  -1  -6  230.77    8.78
  -2   1   5  151.15    4.01
   2  -1  -5  182.76    6.66
  -2   1   4   17.08    1.41
   2  -1  -4    9.72    1.52
  -2   1   3  152.57    4.62
   2  -1  -3  152.91    5.06
   2  -1  -3  143.72    4.60
   2  -1  -2 1116.08   17.28
   2  -1  -2 1093.81   17.65
   2  -1  -2 1093.96   18.16
  -2   1   2 1120.11   17.72
  -2   1   2 1116.97   16.34
   2  -1  -1 6516.07   85.41
   2  -1  -1 6491.93   84.65
   2  -1  -1 6447.93   85.34
  -2   1   1 6566.43   85.20
   2  -1  -1 6533.36   83.75
  -2   1   1 6503.18   84.72
   2  -1   0 4962.66   65.59
   2  -1   0 4841.26   65.29
  -2   1   0 5044.28   66.29
  -2   1   0 4822.23   65.19
   2  -1   1  177.83    5.15
   2  -1   1  178.27    4.23
   2  -1   1  170.83    4.76
   2  -1   2  344.53    7.87
  -2   1  -2  336.94    6.33
  -2   1  -2  337.41    7.89
  -2   1  -2  333.29    5.88
   2  -1   2  362.21    7.98
  -2   1  -3   11.64    1.04
   2  -1   3   20.43    1.89
  -2   1  -3   11.63    1.21
   2  -1   3   21.69    1.97
   2  -1   3   17.03    1.59
  -2   1  -3   10.75    0.95
  -2   1  -3   13.49    1.60
  -2   1  -4  102.17    3.71
   2  -1   4  121.64    5.28
  -2   1  -4   94.99    3.27
  -2   1  -4  111.94    5.04
   2  -1   4  111.85    4.18
  -2   1  -5  168.69    6.51
  -2   1  -5  170.35    6.60
   2  -1   5  169.90    5.45
   2  -1   5  174.36    7.14
   2  -1   5  197.00    7.60
  -2   1  -5  168.87    5.55
   2  -1   5  185.96    7.14
  -2   1  -5  172.15    6.57
  -2   1  -5  152.20    6.20
  -2   1  -5  176.83    7.12
  -2   1  -6    9.74    1.92
   2  -1   6   20.09    2.59
  -2   1  -6   11.41    1.97
   2  -1   6   19.78    2.73
   2  -1   6   19.68    2.60
   2  -1   6   20.47    2.62
  -2   1  -6   11.61    2.19
  -2   1  -6   13.18    2.20
  -2   1  -6   13.44    1.95
  -2   1  -7   95.75    5.34
  -2   1  -7   98.01    5.87
  -2   1  -7   93.31    5.52
   2  -1   7  115.03    6.30
   2  -1   7  107.61    5.83
   2  -1   7  116.19    6.74
   2  -1   7  117.07    6.75
  -2   1  -7   89.43    5.76
   2  -1   7  106.38    6.17
  -2   1  -7   93.11    6.06
  -2   1  -7   99.71    5.81
  -2   1  -8  616.94   15.56
  -2   1  -8  619.58   16.89
  -2   1  -8  630.08   16.42
   2  -1   8  608.52   15.89
  -2   1  -8  615.50   16.85
   2  -1   8  588.91   16.30
   2  -1   8  573.47   15.80
   2  -1   8  590.38   15.49
   2  -1   8  594.57   16.41
  -2   1  -8  622.74   16.20
   2  -1   8  598.35   17.38
   2  -1   8  604.81   17.44
  -2   1  -8  627.47   16.94
   2  -1   8  580.79   16.46
  -2   1  -8  594.55   17.41
   2  -1   9   31.26    3.32
  -2   1  -9   27.48    3.36
  -2   1  -9   27.41    3.47
   2  -1   9   29.79    3.43
   2  -1   9   30.75    3.82
   2  -1   9   28.36    3.08
   2  -1   9   29.53    3.40
  -2   1  -9   27.30    3.08
  -2   1  -9   29.82    3.50
  -2   1  -9   28.34    3.46
   2  -1  10   94.98    5.89
   2  -1  10   93.34    5.47
  -2   1 -10   90.90    5.49
  -2   1 -10  100.50    5.62
   2  -1  10   83.85    5.08
   2  -1  10   87.00    5.13
   2  -1  11   44.76    3.49
  -2   1 -11   45.25    3.21
  -2   1 -11   46.36    3.28
  -2   1 -11   48.33    3.67
   2  -1  12    3.73    0.79
  -2   0  12   11.55    1.65
   2   0 -12   12.75    1.64
   2   0 -12   15.01    1.81
   2   0 -11   49.56    3.99
   2   0 -11   47.57    3.78
   2   0 -11   59.22    4.34
   2   0 -11   49.98    3.70
  -2   0  11   46.26    3.37
  -2   0  11   54.67    4.22
   2   0 -11   52.99    3.99
  -2   0  11   43.21    3.72
  -2   0  10   17.15    2.83
  -2   0  10   18.50    2.91
   2   0 -10   22.86    3.18
   2   0 -10   22.70    3.03
   2   0 -10   25.00    3.09
  -2   0  10   15.14    2.45
  -2   0  10   14.87    2.34
  -2   0  10   16.85    2.74
   2   0 -10   22.85    3.16
   2   0  -9  296.09   10.74
  -2   0   9  349.40   12.59
   2   0  -9  334.84   12.00
  -2   0   9  323.69   10.33
   2   0  -9  341.94   12.09
   2   0  -9  339.22   12.77
  -2   0   9  338.56   12.33
   2   0  -9  329.21   11.58
  -2   0   9  326.02   11.84
   2   0  -8  236.30    9.19
  -2   0   8  257.45   10.41
   2   0  -8  239.02    9.68
   2   0  -8  225.56    9.18
   2   0  -8  229.81    9.62
  -2   0   8  250.93    8.90
  -2   0   8  250.58   10.22
   2   0  -8  259.00   10.65
  -2   0   7  114.24    5.83
   2   0  -7  123.13    6.33
  -2   0   7  115.01    6.42
   2   0  -7  116.42    6.00
   2   0  -7  125.74    6.12
  -2   0   7  111.69    6.37
  -2   0   7  107.56    6.26
   2   0  -7  112.34    5.93
  -2   0   7  111.16    6.25
  -2   0   6  140.24    6.51
   2   0  -6  127.43    5.72
   2   0  -6  129.14    5.78
  -2   0   6  138.06    6.40
   2   0  -6  126.88    5.89
  -2   0   6  129.79    6.22
   2   0  -6  134.92    6.45
  -2   0   6  145.55    6.56
   2   0  -5   92.23    4.83
  -2   0   5   89.33    3.34
   2   0  -5   99.25    4.55
  -2   0   5   98.82    3.00
   2   0  -4  255.84    7.57
  -2   0   4  256.40    6.60
  -2   0   4  233.07    5.32
  -2   0   4  246.37    5.56
   2   0  -4  270.10    7.73
   2   0  -4  245.97    7.77
  -2   0   3  155.61    3.54
  -2   0   3  161.31    4.27
  -2   0   2  607.88   10.64
   2   0  -2  593.18   11.43
   2   0  -1 1814.95   25.87
  -2   0   1 1748.41   26.18
   2   0  -1 1845.85   26.71
   2   0  -1 1814.09   26.22
   2   0  -1 1800.11   26.59
   2   0   0 9890.63  128.33
   2   0   0 9999.00  129.20
  -2   0   0 9954.58  126.18
  -2   0   0 9906.06  128.60
  -2   0  -1 2408.06   34.01
  -2   0  -1 2456.56   33.26
  -2   0  -2  149.02    4.96
   2   0   2  150.49    4.71
   2   0   2  144.14    4.60
  -2   0  -2  149.70    4.35
  -2   0  -3  112.50    4.50
  -2   0  -3  107.88    3.82
   2   0   4   47.48    2.60
  -2   0  -4   40.23    2.38
  -2   0  -4   42.82    3.02
   2   0   5   74.76    4.74
  -2   0  -5   93.06    3.90
  -2   0  -5   89.48    4.75
   2   0   5   78.04    4.62
  -2   0  -5   91.68    4.73
   2   0   5   80.59    4.81
  -2   0  -5   92.53    4.35
   2   0   5   85.52    5.00
  -2   0  -5  101.44    5.21
  -2   0  -6   18.75    2.53
   2   0   6   19.09    2.55
  -2   0  -6   16.56    2.42
  -2   0  -6   14.59    2.20
  -2   0  -6   15.76    2.32
   2   0   6   22.79    2.85
  -2   0  -6   15.99    2.27
  -2   0  -6   15.43    2.00
   2   0   6   21.33    2.84
   2   0   6   25.27    3.04
   2   0   6   22.72    2.86
   2   0   6   21.27    2.84
   2   0   7    4.81    1.52
   2   0   7    5.45    1.55
  -2   0  -7    6.17    1.79
  -2   0  -7    8.19    1.98
  -2   0  -7    6.68    1.81
   2   0   7    5.29    1.62
  -2   0  -7    6.38    1.72
   2   0   7    6.00    1.82
   2   0   7    9.14    2.28
   2   0   7    6.10    1.77
  -2   0  -7    7.23    1.55
   2   0   8    7.44    1.84
  -2   0  -8   12.88    2.44
   2   0   8    7.44    1.87
  -2   0  -8   11.63    2.28
  -2   0  -8   12.18    2.37
  -2   0  -8   10.85    2.46
  -2   0  -8   12.10    2.44
  -2   0  -8   11.67    2.17
   2   0   8    7.80    1.80
   2   0   8    6.87    2.09
   2   0   8    7.47    2.04
   2   0   9  126.00    6.28
  -2   0  -9  129.99    6.79
  -2   0  -9  123.98    6.98
   2   0   9  136.94    7.49
   2   0   9  127.35    6.30
  -2   0  -9  126.32    6.64
   2   0   9  129.76    7.07
  -2   0  -9  127.87    7.03
  -2   0  -9  120.26    6.14
   2   0   9  143.51    7.71
   2   0   9  139.27    6.95
   2   0  10   18.28    2.69
  -2   0 -10   13.42    2.01
  -2   0 -10   21.15    2.62
   2   0  10   17.89    2.56
   2   0  10   16.55    2.59
  -2   0 -10   17.66    2.33
   2   0  11   44.64    3.30
   2   0  11   37.46    2.82
  -2   0 -11   50.49    3.22
   2   0  11   45.82    3.34
   2   1 -12    2.61    1.03
  -2  -1  12    3.72    1.03
   2   1 -12    1.64    0.81
   2   1 -11   23.37    2.54
   2   1 -11   25.66    2.89
  -2  -1  11   18.39    2.43
   2   1 -11   26.88    2.95
  -2  -1  11   19.75    2.65
  -2  -1  11   17.25    2.05
  -2  -1  11   18.45    2.31
   2   1 -10   15.08    2.56
   2   1 -10   16.09    2.71
   2   1 -10   13.67    2.37
   2   1 -10   14.52    2.49
  -2  -1  10   10.25    1.96
   2   1 -10   15.35    2.70
  -2  -1  10   10.19    2.14
  -2  -1  10    8.71    1.96
   2   1  -9  294.62   11.08
   2   1  -9  297.92   10.96
   2   1  -9  294.03   11.31
  -2  -1   9  309.73   11.44
   2   1  -9  279.17   10.93
   2   1  -9  279.55   11.36
  -2  -1   9  291.89   10.22
  -2  -1   8    5.83    1.87
  -2  -1   8    6.06    1.52
   2   1  -8    9.10    2.10
   2   1  -8    9.07    2.10
   2   1  -8   11.78    2.36
   2   1  -8    9.20    2.29
   2   1  -8    8.19    2.06
  -2  -1   8    5.99    1.70
   2   1  -8    9.72    2.17
  -2  -1   7   64.68    4.71
   2   1  -7   77.30    5.12
  -2  -1   7   68.94    4.49
  -2  -1   7   70.05    5.05
  -2  -1   7   66.36    4.92
   2   1  -7   79.37    5.04
   2   1  -7   79.66    4.48
   2   1  -7   78.66    5.23
   2   1  -7   77.59    5.14
  -2  -1   7   71.50    4.77
  -2  -1   6  102.11    5.19
  -2  -1   6  110.63    5.60
   2   1  -6   93.48    5.22
  -2  -1   6  106.82    5.80
   2   1  -6   99.51    5.22
   2   1  -6  102.17    4.70
   2   1  -6  107.75    5.62
  -2  -1   6  108.43    4.59
  -2  -1   6  104.14    4.08
  -2  -1   6  115.92    5.94
   2   1  -6  103.00    5.53
   2   1  -5   45.30    3.34
  -2  -1   5   48.56    2.75
  -2  -1   5   50.72    2.80
   2   1  -5   45.80    2.85
   2   1  -4  242.89    7.37
  -2  -1   4  263.71    6.82
  -2  -1   4  262.36    6.36
   2   1  -3  113.58    4.24
   2   1  -3  125.15    4.95
  -2  -1   3  124.42    4.35
   2   1  -2  153.28    4.88
  -2  -1   2  132.87    3.50
  -2  -1   2  139.94    4.86
   2   1  -2  154.23    4.91
  -2  -1   2  143.68    4.69
  -2  -1   1  427.00    8.45
   2   1  -1  448.54    8.71
  -2  -1   1  440.37    9.48
   2   1  -1  443.55    9.37
  -2  -1   1  440.47    9.42
   2   1   0  441.61    7.92
  -2  -1   0  418.70    8.07
   2   1   0  443.15    9.08
  -2  -1   0  434.52    9.39
  -2  -1   0  429.83    9.42
   2   1   1  391.51    8.85
  -2  -1  -1  409.21    9.14
   2   1   2  107.15    4.32
   2   1   2  111.74    4.31
  -2  -1  -2   92.12    4.05
  -2  -1  -2   89.38    3.81
  -2  -1  -3  637.09   13.37
   2   1   3  657.48   13.45
  -2  -1  -3  636.64   12.94
   2   1   4  247.80    8.11
  -2  -1  -4  249.81    7.66
  -2  -1  -4  249.92    7.48
  -2  -1  -5  305.65    9.66
   2   1   5  314.92    9.28
  -2  -1  -5  315.58    9.01
   2   1   5  338.98   10.45
  -2  -1  -5  302.95    9.53
   2   1   5  329.69    9.94
  -2  -1  -5  304.83    9.76
  -2  -1  -5  320.26   10.09
  -2  -1  -6    9.13    1.90
   2   1   6    4.15    1.43
  -2  -1  -6    6.09    1.32
  -2  -1  -6    6.29    1.48
   2   1   6    4.85    1.54
  -2  -1  -6    6.67    1.61
  -2  -1  -6    5.56    1.47
   2   1   6    4.63    1.51
  -2  -1  -6    6.06    1.62
   2   1   6    5.06    1.38
   2   1   7   61.44    4.91
  -2  -1  -7   57.01    4.35
  -2  -1  -7   52.78    4.47
   2   1   7   63.35    4.93
  -2  -1  -7   58.92    4.54
  -2  -1  -7   53.07    4.20
  -2  -1  -7   66.29    4.98
  -2  -1  -7   60.69    4.82
  -2  -1  -7   62.13    4.47
   2   1   7   66.79    5.17
  -2  -1  -8    6.70    1.91
  -2  -1  -8    4.92    1.72
   2   1   8    7.25    2.03
  -2  -1  -8    4.96    1.65
  -2  -1  -8    5.04    1.58
   2   1   8    8.54    2.11
   2   1   9   34.22    3.67
  -2  -1  -9   31.19    3.51
  -2  -1  -9   34.55    3.68
   2   1   9   37.16    3.97
  -2  -1  -9   32.60    3.40
   2   1   9   29.89    3.49
   2   1   9   28.64    3.17
  -2  -1  -9   35.28    3.26
   2   1  10   47.67    3.80
  -2  -1 -10   54.48    4.04
  -2  -1 -10   49.94    3.70
  -2  -1 -10   51.08    3.98
   2   1  10   56.17    4.24
   2   1  10   47.95    3.79
   2   1  11    5.13    1.15
   2   1  11    5.55    1.33
  -2  -2  12   19.05    1.92
   2   2 -12   30.75    2.31
  -2  -2  11   47.08    3.67
   2   2 -11   56.87    3.92
  -2  -2  11   28.35    2.50
  -2  -2  11   47.99    3.62
  -2  -2  11   35.92    2.81
   2   2 -10    0.65    1.04
  -2  -2  10    0.41    0.95
  -2  -2  10    0.39    0.90
  -2  -2  10    1.53    1.18
  -2  -2  10    1.54    1.13
   2   2 -10    1.86    1.27
   2   2  -9    1.42    1.23
   2   2  -9    2.32    1.32
  -2  -2   9    3.65    1.36
  -2  -2   9    3.34    1.31
   2   2  -9    2.14    1.28
  -2  -2   9    3.33    1.54
  -2  -2   9    2.29    1.26
   2   2  -8  229.24    9.49
   2   2  -8  230.87    9.66
   2   2  -8  218.85    9.51
   2   2  -8  207.79    9.14
  -2  -2   8  223.86    9.89
  -2  -2   8  222.26    9.20
  -2  -2   8  211.05    8.76
  -2  -2   8  220.38    8.80
   2   2  -8  231.52    9.75
   2   2  -8  200.94    8.28
  -2  -2   8  229.59   10.18
  -2  -2   7  183.43    8.57
  -2  -2   7  184.09    8.04
   2   2  -7  173.33    8.10
  -2  -2   7  194.24    7.54
  -2  -2   7  199.45    8.86
   2   2  -7  188.93    8.49
   2   2  -7  180.38    8.00
  -2  -2   7  188.49    8.58
   2   2  -7  188.54    8.09
  -2  -2   7  176.73    7.60
  -2  -2   7  187.26    8.05
   2   2  -7  183.34    8.32
  -2  -2   7  196.49    8.92
  -2  -2   6  173.14    7.67
   2   2  -6  163.65    7.28
  -2  -2   6  181.12    7.19
   2   2  -6  150.44    6.80
   2   2  -6  163.78    7.43
  -2  -2   6  170.73    7.54
   2   2  -6  166.78    6.97
  -2  -2   6  175.94    7.57
  -2  -2   6  168.32    6.41
  -2  -2   6  176.45    6.48
   2   2  -6  150.98    7.03
   2   2  -6  157.14    7.29
  -2  -2   6  182.40    8.01
  -2  -2   5   42.39    3.49
  -2  -2   5   40.03    3.49
   2   2  -5   43.10    3.55
  -2  -2   5   38.95    3.29
   2   2  -5   44.70    3.21
  -2  -2   5   44.40    3.13
  -2  -2   5   43.57    2.91
  -2  -2   5   43.68    3.49
   2   2  -5   40.87    3.41
  -2  -2   4  143.47    5.57
  -2  -2   4  141.82    5.00
   2   2  -4  130.34    4.90
  -2  -2   3  664.67   13.64
   2   2  -3  621.65   11.73
   2   2  -3  640.61   13.70
  -2  -2   3  632.08   12.02
   2   2  -3  630.71   13.95
  -2  -2   2  322.47    8.24
  -2  -2   2  329.54    8.51
   2   2  -2  338.84    8.73
  -2  -2   2  333.09    7.35
   2   2  -2  304.41    6.35
  -2  -2   2  330.96    8.61
  -2  -2   2  335.62    8.60
   2   2  -2  334.67    8.65
  -2  -2   1   35.46    2.31
  -2  -2   1   36.93    2.59
   2   2  -1   48.76    2.79
   2   2  -1   42.47    1.33
  -2  -2   1   38.48    2.57
   2   2  -1   47.68    2.89
  -2  -2   0   22.50    1.81
  -2  -2   0   26.94    2.24
   2   2   0   18.45    1.68
  -2  -2   0   24.67    2.06
   2   2   0   18.81    1.89
  -2  -2   0   27.95    2.29
   2   2   1  174.35    5.95
  -2  -2  -1  162.12    5.78
   2   2   1  171.14    5.24
  -2  -2  -2    3.56    1.08
   2   2   2    6.04    1.14
  -2  -2  -2    3.88    1.07
   2   2   2    5.22    1.02
   2   2   3  454.97   11.00
  -2  -2  -3  452.74   11.24
  -2  -2  -3  432.39   11.23
  -2  -2  -4  179.81    7.25
   2   2   4  204.36    7.48
   2   2   4  208.55    8.05
  -2  -2  -4  208.74    7.57
  -2  -2  -4  177.45    6.24
   2   2   4  225.18    7.74
  -2  -2  -4  197.95    7.66
   2   2   5  134.88    6.48
  -2  -2  -5  169.57    7.03
   2   2   5  146.16    6.69
   2   2   5  146.86    6.68
   2   2   5  162.21    7.14
  -2  -2  -5  164.95    7.21
  -2  -2  -5  160.26    6.96
  -2  -2  -5  175.26    7.49
   2   2   6  129.61    6.63
  -2  -2  -6  130.87    6.84
   2   2   6  134.38    7.45
  -2  -2  -6  134.35    6.86
  -2  -2  -6  128.72    6.60
  -2  -2  -6  134.17    6.41
   2   2   7   26.32    3.21
  -2  -2  -7   24.65    3.06
   2   2   7   28.62    3.75
  -2  -2  -7   24.43    3.00
  -2  -2  -7   24.59    3.23
   2   2   7   26.54    3.44
  -2  -2  -7   22.65    3.06
  -2  -2  -8  134.48    7.25
   2   2   8  124.58    6.72
   2   2   8  120.97    6.56
   2   2   8  126.36    7.04
  -2  -2  -8  126.37    6.62
  -2  -2  -8  144.34    7.45
  -2  -2  -9   14.58    2.41
   2   2   9   18.11    2.82
  -2  -2  -9   11.67    2.09
   2   2   9   14.64    2.38
   2   2   9   14.09    2.16
  -2  -2  -9   12.43    2.21
   2   2   9   15.04    2.31
   2   2   9   18.43    2.79
   2   2   9   14.82    2.27
  -2  -2 -10    2.55    1.07
  -2  -2 -10    2.35    1.13
   2   2  10    1.73    1.11
  -2  -2 -10    1.87    0.96
   2   2  10    1.72    1.16
   2   2  10    2.22    1.02
  -2  -2 -10    1.52    1.12
   2   2  11    7.71    1.14
  -2  -2 -11    8.37    1.17
   2   3 -12   50.97    2.46
   2   3 -11   28.89    2.68
  -2  -3  11   30.47    2.74
   2   3 -11   23.82    2.37
  -2  -3  11   27.99    2.80
  -2  -3  11   32.49    2.87
   2   3 -10    4.26    1.40
   2   3 -10    2.10    1.40
  -2  -3  10    5.68    1.66
  -2  -3  10    4.89    1.41
  -2  -3  10    4.41    1.26
   2   3 -10    3.23    1.37
   2   3 -10    2.93    1.21
   2   3  -9   21.59    3.00
   2   3  -9   21.98    3.13
  -2  -3   9   27.00    3.19
   2   3  -9   23.72    3.15
  -2  -3   9   28.57    3.54
   2   3  -9   18.73    2.57
  -2  -3   9   26.40    3.03
   2   3  -8    7.91    1.92
   2   3  -8    6.77    1.95
   2   3  -8    6.64    2.07
  -2  -3   8    8.12    2.15
  -2  -3   8    7.16    1.93
  -2  -3   8    7.31    1.93
  -2  -3   8    7.85    1.73
   2   3  -8    6.65    1.98
   2   3  -8    7.96    2.05
  -2  -3   8    8.94    2.20
   2   3  -8    8.72    2.14
  -2  -3   7   24.02    3.18
  -2  -3   7   21.71    3.22
  -2  -3   7   23.47    2.92
   2   3  -7   26.09    3.38
   2   3  -7   19.14    2.94
  -2  -3   7   21.92    3.06
  -2  -3   7   21.51    3.05
   2   3  -7   21.19    2.61
  -2  -3   7   20.82    2.58
  -2  -3   7   23.03    3.21
   2   3  -7   23.01    3.10
   2   3  -7   20.31    3.01
  -2  -3   6  133.02    6.89
  -2  -3   6  134.57    6.34
  -2  -3   6  125.90    5.93
  -2  -3   6  125.49    6.79
   2   3  -6  112.20    5.65
  -2  -3   6  133.06    7.14
   2   3  -6  112.04    6.44
   2   3  -6  107.82    5.41
  -2  -3   6  130.70    6.84
  -2  -3   6  128.13    6.64
   2   3  -6  107.43    5.66
   2   3  -6  122.59    6.83
  -2  -3   6  140.21    7.24
  -2  -3   5   63.30    4.20
   2   3  -5   71.55    4.99
  -2  -3   5   65.25    4.57
  -2  -3   5   76.76    4.71
  -2  -3   5   73.13    4.24
   2   3  -5   68.45    3.75
  -2  -3   5   68.31    4.59
  -2  -3   5   61.84    4.35
   2   3  -5   72.90    4.46
   2   3  -5   76.42    5.01
  -2  -3   5   74.54    5.02
   2   3  -5   68.29    4.31
   2   3  -4  231.42    8.68
   2   3  -4  240.37    8.48
  -2  -3   4  241.65    8.56
   2   3  -4  249.71    8.22
  -2  -3   4  220.51    8.36
   2   3  -4  241.26    8.11
  -2  -3   4  230.45    8.45
   2   3  -4  244.05    8.72
   2   3  -4  230.38    8.17
   2   3  -4  251.83    8.78
  -2  -3   4  234.05    8.34
  -2  -3   4  229.84    8.27
  -2  -3   4  240.04    8.62
  -2  -3   3   43.73    2.86
  -2  -3   3   41.02    3.35
   2   3  -3   51.15    3.67
  -2  -3   3   41.99    3.34
  -2  -3   2  137.68    5.54
  -2  -3   2  136.70    5.68
  -2  -3   2  132.49    5.59
  -2  -3   1  426.88   11.26
  -2  -3   1  430.93   10.54
   2   3  -1  447.69   10.51
  -2  -3   1  427.31   10.66
  -2  -3   1  431.95   11.01
  -2  -3   0  117.78    5.38
  -2  -3   0  121.15    5.00
  -2  -3   0  119.36    5.05
   2   3   0  128.00    4.77
  -2  -3   0  121.16    5.41
  -2  -3  -1  165.59    6.51
   2   3   1  172.43    6.57
   2   3   1  177.79    5.96
  -2  -3  -1  160.96    6.02
   2   3   1  170.71    5.39
  -2  -3  -1  154.03    6.47
   2   3   2  122.40    4.35
  -2  -3  -2  116.70    5.38
   2   3   2  136.31    5.98
  -2  -3  -2  116.10    5.49
   2   3   2  136.65    5.28
   2   3   2  130.90    5.79
  -2  -3  -2  104.66    5.28
   2   3   3  156.81    6.80
  -2  -3  -3  138.95    6.55
   2   3   3  160.62    6.10
  -2  -3  -3  133.03    6.03
  -2  -3  -3  130.86    6.05
  -2  -3  -4   13.04    2.26
  -2  -3  -4   14.16    2.15
   2   3   4    8.82    1.92
  -2  -3  -4   16.64    2.43
   2   3   4    7.05    1.58
   2   3   4    9.18    1.66
  -2  -3  -4   13.22    2.05
  -2  -3  -4   13.65    2.22
  -2  -3  -4   15.22    2.32
   2   3   5   94.87    5.75
  -2  -3  -5   94.32    5.76
   2   3   5   91.88    5.35
   2   3   5   81.88    4.85
  -2  -3  -5   98.75    5.92
  -2  -3  -5   90.58    5.55
  -2  -3  -5   90.84    5.61
   2   3   6    1.65    0.94
  -2  -3  -6    2.57    1.21
   2   3   6    2.02    1.29
   2   3   6    3.14    1.64
  -2  -3  -6    2.17    1.37
  -2  -3  -6    1.70    1.32
   2   3   7   23.40    3.37
  -2  -3  -7   27.05    3.24
  -2  -3  -7   19.83    2.67
   2   3   7   18.19    2.41
  -2  -3  -7   28.09    3.49
  -2  -3  -7   30.09    3.28
   2   3   7   20.12    3.05
  -2  -3  -8  138.22    7.10
   2   3   8  157.26    7.90
   2   3   8  153.46    7.63
  -2  -3  -8  133.12    6.58
  -2  -3  -8  126.47    6.64
   2   3   8  144.61    7.05
   2   3   8  163.08    7.92
   2   3   8  150.24    7.48
  -2  -3  -8  115.72    5.73
  -2  -3  -8  130.92    6.93
  -2  -3  -9   24.47    2.77
  -2  -3  -9   26.21    2.78
  -2  -3  -9   25.73    2.83
  -2  -3  -9   26.43    2.71
   2   3   9   24.94    2.68
   2   3   9   26.81    2.82
   2   3   9   31.20    3.12
   2   3  10   16.38    1.83
  -2  -3 -10   18.07    1.91
  -2  -3 -10   17.29    1.92
  -2  -3 -10   19.29    2.03
  -2  -3 -10   16.55    1.72
   2   3  10   10.56    1.39
  -2  -4  11   25.65    2.16
   2   4 -11   22.55    1.94
  -2  -4  11   27.13    2.34
   2   4 -11   30.14    2.17
  -2  -4  11   24.36    2.21
  -2  -4  10   34.38    2.91
   2   4 -10   29.68    2.93
   2   4 -10   29.65    2.57
  -2  -4  10   39.80    3.52
   2   4 -10   36.99    3.07
  -2  -4  10   38.28    3.19
  -2  -4  10   38.76    3.35
   2   4  -9   69.09    4.61
  -2  -4   9   50.35    4.36
   2   4  -9   58.95    4.62
  -2  -4   9   52.90    4.16
   2   4  -9   61.40    4.35
  -2  -4   9   57.95    4.73
  -2  -4   9   51.82    4.22
   2   4  -8   66.34    5.02
  -2  -4   8   81.16    5.67
  -2  -4   8   75.88    5.08
   2   4  -8   68.94    5.34
   2   4  -8   70.23    5.32
  -2  -4   8   78.50    5.41
   2   4  -8   69.57    4.89
  -2  -4   8   78.53    5.70
  -2  -4   8   77.04    5.63
  -2  -4   7   91.53    6.21
  -2  -4   7   94.45    6.48
  -2  -4   7   89.62    5.87
   2   4  -7  108.02    6.77
   2   4  -7  104.73    6.61
   2   4  -7  111.25    6.71
   2   4  -7  103.87    5.99
  -2  -4   7   86.41    5.99
  -2  -4   7   68.81    5.01
   2   4  -7  116.28    6.83
   2   4  -7  105.05    6.43
  -2  -4   7   96.83    6.37
   2   4  -6    9.60    1.77
   2   4  -6   11.09    2.11
  -2  -4   6   16.21    2.68
  -2  -4   6   18.37    2.93
   2   4  -6    8.85    2.04
   2   4  -6   12.59    2.54
  -2  -4   6   16.46    2.39
  -2  -4   6   14.13    2.41
  -2  -4   6   16.70    2.71
  -2  -4   6   15.22    2.61
   2   4  -6   10.48    2.24
  -2  -4   5  302.32   10.67
   2   4  -5  286.68   10.44
  -2  -4   5  284.85   10.47
  -2  -4   5  295.04   10.66
  -2  -4   5  283.66    9.69
   2   4  -5  267.13    9.46
   2   4  -5  272.48    9.36
  -2  -4   5  309.60   11.14
   2   4  -5  268.43    9.37
  -2  -4   5  285.29   10.62
   2   4  -5  275.96   10.27
   2   4  -5  250.26    9.08
   2   4  -5  280.82    9.78
  -2  -4   4  280.68    9.83
  -2  -4   4  279.34   10.08
   2   4  -4  291.38   10.08
  -2  -4   4  293.97   10.49
  -2  -4   4  288.37   10.12
  -2  -4   4  288.26    9.71
   2   4  -4  304.73    9.80
  -2  -4   4  310.62   10.74
   2   4  -4  287.29    8.97
  -2  -4   4  285.80   10.02
   2   4  -4  286.15   10.08
  -2  -4   4  279.22    9.07
   2   4  -4  306.21   10.15
  -2  -4   4  276.31    9.84
   2   4  -4  308.45   10.17
  -2  -4   3  212.95    8.05
  -2  -4   3  196.54    7.63
   2   4  -3  206.37    7.82
  -2  -4   3  201.58    8.12
   2   4  -3  185.19    7.20
  -2  -4   3  201.19    7.63
   2   4  -3  199.40    8.14
   2   4  -3  183.03    7.58
  -2  -4   3  206.76    7.38
  -2  -4   3  224.03    8.78
   2   4  -3  192.10    8.13
   2   4  -3  183.76    7.33
  -2  -4   3  204.46    7.70
   2   4  -3  190.17    7.79
   2   4  -3  198.94    8.17
   2   4  -2  135.38    6.27
   2   4  -2  136.80    6.43
   2   4  -2  147.66    6.52
  -2  -4   2  127.94    6.06
   2   4  -2  146.31    6.90
   2   4  -2  141.02    6.31
  -2  -4   2  130.48    6.31
  -2  -4   2  130.46    6.13
  -2  -4   2  131.70    6.62
  -2  -4   2  142.61    6.35
   2   4  -2  146.29    6.69
   2   4  -2  138.30    6.54
   2   4  -1   22.04    2.68
   2   4  -1   24.03    2.71
  -2  -4   1   20.09    2.33
   2   4  -1   21.25    2.77
  -2  -4   1   24.30    2.37
   2   4  -1   19.98    2.43
  -2  -4   1   25.52    2.70
  -2  -4   1   25.94    2.75
  -2  -4   1   25.54    2.85
   2   4  -1   20.08    2.52
  -2  -4   1   22.60    2.56
   2   4  -1   23.71    2.72
   2   4   0   27.23    3.00
   2   4   0   25.50    2.48
  -2  -4   0   29.36    2.84
  -2  -4   0   38.92    2.93
   2   4   0   24.98    2.96
  -2  -4   0   41.04    3.38
  -2  -4   0   38.19    3.37
  -2  -4   0   34.42    3.11
  -2  -4   0   35.96    3.33
   2   4   0   30.71    3.05
   2   4   0   28.70    2.89
  -2  -4  -1   44.06    3.21
   2   4   1   37.52    3.52
  -2  -4  -1   47.35    3.68
  -2  -4  -1   43.51    3.57
   2   4   1   32.04    3.07
   2   4   1   40.61    3.44
  -2  -4  -1   44.68    3.70
   2   4   1   37.37    2.74
  -2  -4  -1   42.06    3.42
   2   4   2   47.05    3.93
  -2  -4  -2   41.76    3.29
  -2  -4  -2   40.25    3.78
   2   4   2   47.76    3.67
   2   4   2   52.86    4.03
   2   4   2   51.41    3.27
  -2  -4  -2   41.72    3.61
  -2  -4  -2   33.20    3.17
  -2  -4  -2   36.90    3.39
   2   4   2   48.07    4.12
  -2  -4  -2   39.63    3.61
   2   4   3   29.81    3.38
  -2  -4  -3   22.05    2.93
   2   4   3   31.72    3.07
  -2  -4  -3   22.68    2.81
   2   4   3   34.74    3.56
  -2  -4  -3   21.25    2.57
   2   4   3   31.16    3.09
   2   4   3   29.71    3.12
  -2  -4  -3   19.62    2.57
   2   4   4   88.30    5.66
  -2  -4  -4   98.57    5.97
  -2  -4  -4   97.28    6.01
   2   4   4   95.77    5.98
  -2  -4  -4   88.45    5.92
   2   4   4   73.87    4.61
   2   4   4   70.31    4.61
  -2  -4  -4   91.75    5.43
   2   4   4   78.94    5.12
   2   4   5    0.47    1.02
  -2  -4  -5    3.09    1.46
  -2  -4  -5    3.13    1.58
   2   4   5    1.06    1.25
  -2  -4  -5    4.99    1.65
   2   4   5    0.71    1.14
  -2  -4  -5    2.64    1.27
  -2  -4  -5    4.50    1.60
   2   4   5    1.87    1.19
   2   4   5    2.02    1.19
   2   4   6   19.86    2.58
  -2  -4  -6   17.86    2.75
   2   4   6   20.04    2.96
  -2  -4  -6   16.39    2.63
   2   4   6   19.96    2.85
  -2  -4  -6   17.59    2.65
  -2  -4  -6   19.79    2.95
   2   4   6   19.65    2.82
   2   4   7   27.20    3.31
   2   4   7   27.65    3.22
  -2  -4  -7   35.98    3.42
  -2  -4  -7   33.16    3.32
  -2  -4  -7   35.79    3.57
   2   4   7   30.12    3.24
   2   4   8   47.04    3.90
  -2  -4  -8   42.32    3.44
  -2  -4  -8   46.56    3.78
  -2  -4  -8   49.06    3.90
  -2  -4  -8   44.58    3.69
  -2  -4  -8   43.99    3.72
   2   4   8   44.50    3.76
  -2  -4  -8   40.66    3.23
   2   4   8   43.78    3.88
   2   4   8   38.44    3.40
   2   4   8   35.38    3.13
  -2  -4  -9    5.73    1.30
  -2  -4  -9    4.80    1.22
   2   4   9    2.15    0.98
  -2  -4  -9    5.28    1.19
  -2  -4  -9    3.79    0.89
   2   4   9    1.82    0.98
   2   4   9    1.27    0.67
  -2  -5  10    5.13    1.22
  -2  -5  10    1.99    0.89
   2   5 -10    4.64    1.08
  -2  -5  10    5.82    1.20
  -2  -5  10    5.48    1.19
   2   5  -9   18.32    2.41
   2   5  -9   19.00    2.42
  -2  -5   9   24.79    2.78
  -2  -5   9   20.49    2.48
  -2  -5   9   22.19    2.71
  -2  -5   9   26.99    2.85
  -2  -5   8   10.75    2.06
   2   5  -8   11.57    2.22
   2   5  -8   11.40    2.26
  -2  -5   8   15.06    2.58
  -2  -5   8   11.70    2.17
  -2  -5   8   12.29    2.29
  -2  -5   8    9.93    2.04
  -2  -5   7    6.65    1.95
   2   5  -7   12.67    2.46
   2   5  -7   12.45    2.36
   2   5  -7   11.93    2.54
   2   5  -7    8.99    1.70
  -2  -5   7    6.17    1.80
  -2  -5   7    6.76    1.81
  -2  -5   7    7.39    1.97
   2   5  -6    4.51    1.64
  -2  -5   6    6.32    1.84
   2   5  -6    2.52    1.17
  -2  -5   6    7.57    2.16
  -2  -5   6    5.83    2.00
  -2  -5   6    7.07    2.04
   2   5  -6    0.97    1.13
   2   5  -6    1.47    1.52
   2   5  -6    1.16    1.12
  -2  -5   6    5.09    1.84
  -2  -5   6    5.86    1.73
  -2  -5   6    4.70    1.45
  -2  -5   6    5.18    1.66
  -2  -5   6    6.76    1.93
   2   5  -5  236.50    9.51
  -2  -5   5  262.93   10.30
  -2  -5   5  227.95    9.99
  -2  -5   5  223.20    9.14
   2   5  -5  183.08    8.36
   2   5  -5  212.24    8.17
  -2  -5   5  266.63   10.68
  -2  -5   5  238.75    9.78
   2   5  -5  223.05    9.56
  -2  -5   5  241.84    9.85
   2   5  -5  231.95    9.99
  -2  -5   5  237.19    9.41
   2   5  -5  242.48    9.61
   2   5  -4    7.35    1.84
  -2  -5   4    6.39    1.83
  -2  -5   4    5.44    1.77
   2   5  -4    6.19    1.60
   2   5  -4    6.39    1.64
  -2  -5   4    7.31    2.00
  -2  -5   4    4.79    1.58
   2   5  -4    7.26    1.88
  -2  -5   4    5.34    1.40
   2   5  -4    6.13    1.88
  -2  -5   4    5.52    1.63
   2   5  -4    7.57    1.83
   2   5  -4    6.65    1.88
  -2  -5   4    5.68    1.59
   2   5  -3  171.16    7.54
  -2  -5   3  164.47    7.79
   2   5  -3  170.87    8.19
   2   5  -3  166.92    7.79
  -2  -5   3  171.39    7.31
   2   5  -3  162.51    7.31
   2   5  -3  168.16    7.58
   2   5  -3  181.13    8.33
   2   5  -3  172.74    8.16
  -2  -5   3  177.87    7.67
   2   5  -2    6.58    1.78
  -2  -5   2    5.62    1.60
   2   5  -2    6.83    1.99
   2   5  -2    7.41    1.81
  -2  -5   2    5.55    1.57
  -2  -5   2    6.52    1.71
  -2  -5   2    6.46    1.52
  -2  -5   2    5.94    1.80
  -2  -5   2    7.34    1.67
   2   5  -2    9.16    2.03
  -2  -5   1  159.40    6.86
  -2  -5   1  167.78    7.69
   2   5  -1  186.35    8.58
  -2  -5   1  175.63    8.00
  -2  -5   1  178.21    7.94
   2   5  -1  178.74    8.14
  -2  -5   1  174.38    8.27
  -2  -5   1  165.84    7.32
   2   5  -1  183.47    8.21
  -2  -5   0   59.98    4.52
   2   5   0   77.50    5.51
  -2  -5   0   61.45    4.67
  -2  -5   0   68.90    5.01
   2   5   0   69.54    4.77
   2   5   0   78.08    5.08
  -2  -5   0   62.84    4.86
  -2  -5   0   61.93    4.45
   2   5   0   71.29    5.26
   2   5   1   94.68    5.68
  -2  -5  -1   85.48    5.37
   2   5   1   97.99    5.56
   2   5   1  105.06    6.34
  -2  -5  -1   97.79    5.95
  -2  -5  -1  100.30    6.25
  -2  -5  -1   89.88    5.70
   2   5   1  104.02    5.96
  -2  -5  -1   92.63    5.88
   2   5   2   63.81    4.95
  -2  -5  -2   67.20    4.86
  -2  -5  -2   64.88    4.97
   2   5   2   62.34    4.40
  -2  -5  -2   65.91    5.00
   2   5   2   70.06    5.30
   2   5   2   74.60    5.15
  -2  -5  -2   58.56    4.68
   2   5   2   72.54    5.40
  -2  -5  -2   60.78    4.62
  -2  -5  -2   58.47    4.43
  -2  -5  -3  177.80    8.11
   2   5   3  205.79    8.17
   2   5   3  197.49    8.62
   2   5   3  199.24    7.68
  -2  -5  -3  192.99    8.41
   2   5   3  228.83    9.54
   2   5   3  219.30    9.57
  -2  -5  -3  187.35    8.50
   2   5   4  170.15    8.29
  -2  -5  -4  168.84    8.07
   2   5   4  167.88    8.32
   2   5   4  156.68    7.77
  -2  -5  -4  176.20    8.44
  -2  -5  -4  158.88    7.73
   2   5   4  165.86    8.51
   2   5   4  140.47    6.56
   2   5   4  153.96    7.21
  -2  -5  -5  148.06    7.22
   2   5   5  144.69    6.82
   2   5   5  152.78    7.26
  -2  -5  -5  141.94    7.30
   2   5   5  163.28    7.35
   2   5   5  165.58    8.47
  -2  -5  -5  149.71    7.39
  -2  -5  -5  164.68    8.03
   2   5   6  205.15    8.68
  -2  -5  -6  197.40    8.42
  -2  -5  -6  188.73    8.04
  -2  -5  -6  185.20    7.95
   2   5   6  155.16    6.97
   2   5   6  151.39    6.90
   2   5   6  190.90    8.84
  -2  -5  -7   42.07    3.42
   2   5   7   30.72    2.78
  -2  -5  -7   39.04    3.14
  -2  -5  -7   43.42    3.73
   2   5   7   42.47    3.70
  -2  -5  -7   44.35    3.58
   2   5   8    4.02    1.19
  -2  -5  -8    4.47    0.88
  -2  -5  -8    6.43    1.22
  -2  -5  -8    6.32    1.23
  -2  -5  -8    8.22    1.52
  -2  -5  -8    8.71    1.55
   2   6  -9    2.74    1.00
  -2  -6   9    1.81    0.75
  -2  -6   9    1.82    0.81
  -2  -6   9    1.31    0.74
   2   6  -9    2.50    0.84
   2   6  -8   35.73    3.17
   2   6  -8   41.93    3.46
  -2  -6   8   40.55    3.33
  -2  -6   8   35.18    3.11
  -2  -6   8   31.47    2.98
  -2  -6   8   36.52    3.19
  -2  -6   7   14.14    2.42
   2   6  -7    6.84    1.74
   2   6  -7    9.09    1.80
  -2  -6   7   17.09    2.47
  -2  -6   7   13.95    2.21
  -2  -6   7   13.50    2.52
  -2  -6   7   10.54    1.92
  -2  -6   6   41.89    4.21
   2   6  -6   37.02    3.74
  -2  -6   6   37.11    3.47
  -2  -6   6   41.74    4.21
   2   6  -6   36.08    3.53
  -2  -6   6   42.07    4.02
  -2  -6   6   41.90    3.86
  -2  -6   6   42.19    3.73
   2   6  -5  109.94    6.15
  -2  -6   5  118.97    6.36
  -2  -6   5  115.34    6.90
  -2  -6   5  122.59    7.32
   2   6  -5  112.90    6.20
   2   6  -5  113.97    6.13
   2   6  -5  129.77    7.01
  -2  -6   5  115.50    6.75
   2   6  -5  117.82    6.77
  -2  -6   5  121.44    6.71
   2   6  -4  603.31   16.85
  -2  -6   4  611.36   16.69
  -2  -6   4  588.82   17.15
   2   6  -4  597.21   16.51
   2   6  -4  500.35   15.64
  -2  -6   4  509.49   16.46
  -2  -6   4  603.06   16.31
  -2  -6   4  591.68   16.58
   2   6  -4  577.67   15.00
   2   6  -4  580.14   15.34
   2   6  -4  630.43   16.48
   2   6  -3   85.72    5.96
  -2  -6   3   98.32    6.00
  -2  -6   3  102.89    6.56
   2   6  -3  100.07    6.23
  -2  -6   3   82.76    5.34
   2   6  -3   79.68    6.05
  -2  -6   3   95.23    6.62
  -2  -6   3  105.38    6.23
   2   6  -3   91.32    5.72
   2   6  -3   81.33    5.06
   2   6  -3   89.59    5.75
   2   6  -2   11.57    2.34
  -2  -6   2    6.99    1.78
  -2  -6   2    8.42    2.15
  -2  -6   2    8.98    1.86
  -2  -6   2    7.75    1.74
   2   6  -2   12.97    2.64
  -2  -6   2    8.87    2.21
   2   6  -2   15.20    2.59
   2   6  -2   12.42    2.18
   2   6  -1  102.84    6.46
   2   6  -1   84.88    5.61
  -2  -6   1   85.39    6.12
   2   6  -1   95.56    6.72
  -2  -6   1   87.93    6.02
  -2  -6   1   79.19    5.61
  -2  -6   1   86.75    5.22
  -2  -6   1   88.17    5.76
  -2  -6   0   14.03    2.28
  -2  -6   0   14.34    2.34
   2   6   0   18.03    2.75
  -2  -6   0   15.94    2.65
  -2  -6   0   15.46    2.73
   2   6   0   16.03    2.90
   2   6   0   12.13    2.29
  -2  -6   0   16.96    2.82
   2   6   0   16.42    2.82
  -2  -6   0   13.70    2.64
   2   6   1   37.52    3.63
  -2  -6  -1   41.26    3.69
  -2  -6  -1   42.83    4.30
   2   6   1   46.85    4.32
  -2  -6  -1   40.73    4.21
  -2  -6  -1   40.38    4.25
   2   6   1   44.98    4.54
   2   6   1   40.03    3.90
  -2  -6  -1   38.07    4.03
  -2  -6  -1   43.42    4.18
   2   6   2   17.54    2.43
  -2  -6  -2   14.11    2.50
   2   6   2   22.01    3.12
  -2  -6  -2   12.23    2.41
  -2  -6  -2   12.14    2.50
   2   6   2   18.47    2.89
   2   6   2   18.86    3.05
  -2  -6  -2   12.97    2.26
   2   6   2   14.53    2.50
  -2  -6  -2   13.76    2.24
   2   6   3   38.68    3.65
  -2  -6  -3   35.01    3.43
   2   6   3   39.95    3.78
   2   6   3   33.08    3.75
  -2  -6  -3   37.27    4.11
  -2  -6  -3   35.13    3.54
   2   6   3   35.98    3.52
  -2  -6  -3   35.30    3.79
   2   6   3   37.16    3.96
   2   6   4  108.84    6.49
   2   6   4  102.83    5.93
  -2  -6  -4  107.05    6.35
   2   6   4   97.74    5.67
  -2  -6  -4  105.75    5.97
  -2  -6  -5    6.27    1.45
   2   6   5    9.21    2.07
   2   6   5    8.91    1.73
  -2  -6  -5    6.18    1.39
   2   6   5    9.54    1.90
  -2  -6  -5    8.21    1.93
  -2  -6  -5    5.87    1.52
  -2  -6  -6    5.40    1.42
   2   6   6    9.59    1.92
   2   6   6    7.83    1.68
  -2  -6  -6    6.46    1.63
   2   6   6    8.10    1.77
  -2  -6  -7    0.82    0.79
  -2  -6  -7    0.31    0.69
   2   6   7    0.76    0.77
   2   6   7    0.58    0.73
  -2  -6  -7    0.48    0.68
  -2  -7   8   11.31    1.39
  -2  -7   8   11.08    1.47
   2   7  -8    6.54    0.94
  -2  -7   8    8.66    1.06
  -2  -7   7    2.98    0.96
  -2  -7   7    3.09    1.24
  -2  -7   7    2.95    1.17
  -2  -7   6   30.02    2.96
   2   7  -6   33.38    3.16
  -2  -7   6   32.35    3.26
  -2  -7   6   31.03    2.92
  -2  -7   6   26.77    3.05
  -2  -7   5    6.88    1.92
   2   7  -5    6.08    1.56
  -2  -7   5    5.82    1.49
  -2  -7   5    6.91    1.94
  -2  -7   5    8.49    1.87
   2   7  -5    7.52    1.79
   2   7  -5    6.41    1.57
  -2  -7   5    6.47    1.74
   2   7  -4   25.69    3.12
  -2  -7   4   33.26    3.28
   2   7  -4   24.31    3.07
  -2  -7   4   36.17    3.70
   2   7  -4   26.66    2.98
  -2  -7   4   35.74    3.86
  -2  -7   4   26.97    3.09
   2   7  -3   27.96    3.49
  -2  -7   3   16.37    2.46
   2   7  -3   24.63    3.25
   2   7  -3   25.92    3.08
   2   7  -3   26.11    2.85
  -2  -7   3   17.40    2.84
  -2  -7   3   17.19    2.43
  -2  -7   2    7.53    1.98
   2   7  -2   10.36    1.88
  -2  -7   2    9.69    1.97
   2   7  -2   10.44    2.19
  -2  -7   2   11.02    2.48
   2   7  -2   10.73    2.45
   2   7  -2   12.87    2.66
   2   7  -1  287.24   10.70
  -2  -7   1  261.10   10.51
   2   7  -1  266.84    9.40
  -2  -7   0   17.34    2.80
   2   7   0   12.61    2.23
   2   7   0   16.81    2.78
  -2  -7   0   16.06    2.69
   2   7   0   15.90    2.76
   2   7   0   13.53    2.62
   2   7   0   11.55    2.06
  -2  -7  -1    1.84    1.21
   2   7   1    1.85    1.24
   2   7   1    1.55    1.19
  -2  -7  -1    2.13    1.13
   2   7   1    1.48    1.41
   2   7   1    0.96    1.28
   2   7   2   48.27    4.12
   2   7   2   50.86    4.32
   2   7   2   47.88    4.05
   2   7   2   37.60    3.83
  -2  -7  -2   49.80    4.48
  -2  -7  -2   44.15    3.81
   2   7   2   51.77    4.18
   2   7   2   34.07    3.26
   2   7   3   21.82    2.65
   2   7   3   27.45    2.72
   2   7   3   25.00    3.04
   2   7   3   32.33    3.27
  -2  -7  -3   29.83    3.35
  -2  -7  -3   23.69    2.71
   2   7   4   11.80    1.94
   2   7   4   13.68    2.25
   2   7   4   12.92    1.91
  -2  -7  -4   14.59    1.82
  -2  -7  -4   17.20    2.45
  -2  -7  -4   16.21    2.21
  -2  -7  -5   25.57    2.44
   2   7   5   23.28    2.37
  -2  -7  -5   22.73    2.39
   2   7   5   21.70    2.43
   2   7   6    2.56    0.80
  -2  -7  -6    2.08    0.78
  -2  -7  -6    2.33    0.72
  -2  -7  -6    2.88    0.83
   2   8  -6   13.60    1.60
  -2  -8   6   16.04    1.77
  -2  -8   6   14.69    1.83
   2   8  -6   11.31    1.52
  -2  -8   6   13.04    1.66
  -2  -8   5   36.51    2.78
  -2  -8   5   42.68    3.33
  -2  -8   5   41.27    3.27
   2   8  -4    4.52    1.33
  -2  -8   4    5.40    1.40
  -2  -8   4    5.59    1.10
  -2  -8   4    8.23    1.77
  -2  -8   4    6.80    1.61
   2   8  -4    5.66    1.37
   2   8  -3   21.37    2.59
  -2  -8   3   23.80    2.70
  -2  -8   3   21.67    2.19
  -2  -8   3   21.83    2.79
  -2  -8   3   22.56    2.60
   2   8  -3   21.74    2.60
   2   8  -2    1.08    1.20
  -2  -8   2    1.41    1.13
  -2  -8   2    1.18    0.87
  -2  -8   2    1.06    1.03
   2   8  -2    1.39    1.03
  -2  -8   2    0.95    1.04
  -2  -8   2    1.73    1.01
   2   8  -2    1.59    1.24
  -2  -8   1   24.56    2.80
  -2  -8   1   21.84    2.32
  -2  -8   1   25.03    2.86
   2   8  -1   24.37    2.82
   2   8   0   44.37    3.62
   2   8   0   48.33    3.82
   2   8   0   47.73    3.75
  -2  -8   0   31.24    2.95
  -2  -8   0   35.84    3.26
  -2  -8   0   33.95    2.83
  -2  -8  -1   70.63    4.53
  -2  -8  -1   55.69    3.66
  -2  -8  -1   55.08    3.69
   2   8   1   77.41    4.44
   2   8   1   75.89    4.33
   2   8   2    7.71    1.53
  -2  -8  -2    5.54    1.14
   2   8   2    3.80    1.08
  -2  -8  -2    8.64    1.69
   2   8   2    6.24    1.32
   2   8   3    0.91    0.69
  -2  -8  -3    0.19    0.69
  -2  -8  -3    1.50    0.92
   2   8   3    1.19    0.70
  -2  -8  -4   36.76    2.38
  -2  -8  -4   40.79    2.45
  -2  -9   3   22.20    1.89
  -2  -9   3   20.24    1.66
   2   9  -3   21.16    1.66
  -2  -9   2    0.59    0.59
  -2  -9   2    1.19    0.71
   2   9  -2    0.63    0.64
  -2  -9   2    1.26    0.68
  -2  -9   1    3.22    0.86
   2   9  -1    2.06    0.69
  -2  -9   0    3.98    0.96
   2   9   0    2.68    0.76
  -2  -9   0    4.85    0.96
  -3  11   1    4.95    0.81
  -3  11   0   29.74    2.04
  -3  11  -1    9.04    1.19
  -3  11  -1    6.66    1.01
  -3  10   4    6.27    1.11
  -3  10   4    6.53    1.15
  -3  10   3   18.03    2.02
  -3  10   3   22.79    2.22
  -3  10   3   20.00    2.04
  -3  10   2    0.84    0.75
  -3  10   2    0.75    0.84
  -3  10   1   45.04    3.53
  -3  10   0   16.74    2.38
  -3  10  -1   31.21    2.65
  -3  10  -1   34.06    3.24
  -3  10  -1   31.95    3.12
  -3  10  -2    3.19    1.24
  -3  10  -2    3.26    1.08
  -3  10  -2    3.67    1.26
  -3  10  -3   40.89    3.15
  -3  10  -3   34.15    2.83
  -3  10  -3   39.06    3.12
  -3  10  -4   28.63    2.25
  -3  10  -5    0.71    0.69
  -3   9   6   71.78    3.83
  -3   9   6   66.97    3.43
  -3   9   6   74.75    3.83
  -3   9   5   11.94    1.94
  -3   9   5    9.17    1.65
  -3   9   4   93.60    5.49
  -3   9   4   82.26    4.92
  -3   9   4   83.54    4.66
  -3   9   3   61.67    4.68
  -3   9   3   59.28    4.43
  -3   9   3   57.37    4.48
  -3   9   3   61.50    4.53
  -3   9   3   62.14    4.31
  -3   9   2   52.05    4.46
  -3   9   2   44.44    3.96
  -3   9   2   51.85    4.32
  -3   9   2   41.87    4.07
  -3   9   1  182.31    8.48
  -3   9   1  183.31    8.60
  -3   9   1  178.35    8.20
  -3   9   0   44.64    4.16
  -3   9   0   48.85    4.32
  -3   9   0   36.39    3.38
  -3   9   0   42.01    4.24
  -3   9  -1   91.55    6.08
  -3   9  -1   85.90    5.37
  -3   9  -1   79.42    4.78
  -3   9  -1   90.15    5.99
  -3   9  -2   22.00    2.65
  -3   9  -2   28.86    3.32
  -3   9  -2   25.25    2.87
  -3   9  -2   28.11    3.35
  -3   9  -2   30.48    3.42
  -3   9  -2   28.03    3.46
  -3   9  -2   25.30    2.98
  -3   9  -3   26.25    2.98
  -3   9  -3   28.28    3.15
  -3   9  -3   28.89    3.29
  -3   9  -3   32.00    3.45
  -3   9  -3   27.19    3.08
  -3   9  -4   36.69    3.50
  -3   9  -4   30.02    2.84
  -3   9  -4   33.56    3.19
  -3   9  -4   38.44    3.50
  -3   9  -4   38.13    3.69
  -3   9  -5    0.85    0.92
  -3   9  -5    1.32    1.17
  -3   9  -5    1.59    1.09
  -3   9  -5    0.72    0.77
   3  -9   5    2.14    0.88
  -3   9  -6   22.39    2.42
  -3   9  -6   23.08    2.41
  -3   9  -6   18.90    2.28
   3  -9   6   23.78    2.55
  -3   9  -7   35.00    2.56
  -3   9  -7   33.00    2.56
  -3   8   8   27.18    2.09
  -3   8   7   28.21    2.75
  -3   8   7   32.25    2.89
  -3   8   6   17.60    2.58
  -3   8   6   18.18    2.63
  -3   8   6   17.04    2.21
  -3   8   5   17.59    2.59
  -3   8   5   19.03    2.84
  -3   8   5   13.87    2.06
  -3   8   4   11.49    2.36
  -3   8   4   10.16    2.09
  -3   8   4    8.59    2.05
  -3   8   4    7.75    2.07
  -3   8   4    9.02    2.12
  -3   8   4    7.73    1.70
  -3   8   4    7.46    1.99
  -3   8   4    6.78    1.96
  -3   8   3   88.04    5.81
  -3   8   3   93.36    6.18
  -3   8   3   94.95    6.27
  -3   8   3   90.12    6.29
  -3   8   3   86.63    6.06
  -3   8   3   94.91    6.44
  -3   8   3   86.92    6.18
  -3   8   3   80.60    5.03
  -3   8   2   73.92    5.69
  -3   8   2   65.53    5.13
  -3   8   2   62.87    5.35
  -3   8   2   65.32    5.25
  -3   8   2   69.78    5.64
  -3   8   2   62.22    5.12
  -3   8   2   69.15    5.49
   3  -8  -2   65.59    5.12
  -3   8   2   73.71    5.67
  -3   8   2   64.44    4.66
  -3   8   1   66.11    5.41
  -3   8   1   62.33    4.79
  -3   8   1   65.72    5.49
  -3   8   1   72.70    5.65
  -3   8   1   62.20    5.10
   3  -8  -1   63.12    4.92
  -3   8   1   65.66    5.47
  -3   8   1   69.08    5.23
  -3   8   1   58.62    4.57
  -3   8   1   61.71    4.41
  -3   8   0    6.96    1.78
  -3   8   0    6.02    1.93
  -3   8   0    6.46    1.73
   3  -8   0    9.97    2.03
  -3   8   0    8.83    2.24
  -3   8   0    7.79    1.82
  -3   8   0    9.18    2.11
  -3   8  -1   19.84    3.16
  -3   8  -1   20.88    3.13
   3  -8   1   14.23    2.44
  -3   8  -1   19.91    3.14
  -3   8  -1   20.33    3.01
  -3   8  -1   19.92    2.79
  -3   8  -1   22.20    3.38
  -3   8  -1   20.74    3.18
  -3   8  -1   19.64    2.77
  -3   8  -1   20.98    3.02
  -3   8  -1   17.18    2.79
  -3   8  -2   28.40    3.62
   3  -8   2   23.43    3.07
  -3   8  -2   24.31    3.23
  -3   8  -2   23.45    3.23
  -3   8  -2   28.34    3.50
  -3   8  -2   25.08    3.36
  -3   8  -2   27.76    3.63
  -3   8  -2   26.41    3.26
   3  -8   2   22.41    3.08
   3  -8   2   23.67    3.03
  -3   8  -3  122.72    6.94
  -3   8  -3  110.67    6.49
  -3   8  -3  120.51    6.93
   3  -8   3  101.24    6.35
  -3   8  -3  119.71    6.92
  -3   8  -4   18.05    2.83
  -3   8  -4   14.66    2.43
  -3   8  -4   19.74    3.02
  -3   8  -4   19.15    2.55
  -3   8  -4   19.73    2.98
  -3   8  -4   15.52    2.78
  -3   8  -4   13.96    2.38
  -3   8  -5   64.82    5.11
  -3   8  -5   61.17    4.19
  -3   8  -5   73.16    5.13
  -3   8  -5   67.66    5.22
   3  -8   5   67.81    4.70
  -3   8  -5   63.95    4.60
  -3   8  -5   75.05    5.30
   3  -8   6    9.07    1.86
  -3   8  -6    7.87    1.61
   3  -8   6    8.69    1.68
  -3   8  -6    6.63    1.77
   3  -8   6    8.33    1.90
  -3   8  -6    7.05    1.77
  -3   8  -6    8.30    1.90
   3  -8   7    5.79    1.28
   3  -8   7    6.05    1.55
   3  -8   7    7.55    1.58
  -3   8  -7    9.97    1.72
   3  -8   8   16.87    1.86
  -3   8  -8   17.36    2.07
   3  -8   8   15.84    1.89
   3  -8   8   18.48    2.20
  -3   8  -9   14.08    1.38
  -3   7   9   15.04    1.64
  -3   7   9   18.46    1.83
  -3   7   8   16.04    2.11
  -3   7   8   15.92    2.19
  -3   7   7   46.56    4.10
  -3   7   7   45.91    3.65
  -3   7   6  122.34    7.12
  -3   7   6  121.16    6.69
  -3   7   6  116.26    6.30
  -3   7   5  158.10    7.99
  -3   7   5  159.68    7.48
  -3   7   5  150.82    7.80
  -3   7   5  152.80    8.04
  -3   7   4   59.59    5.16
  -3   7   4   63.25    5.28
  -3   7   4   66.25    5.45
  -3   7   4   64.04    5.25
  -3   7   4   60.06    5.07
  -3   7   4   63.23    5.02
  -3   7   4   58.84    4.56
   3  -7  -4   62.99    5.14
  -3   7   4   62.18    4.73
  -3   7   3  181.16    9.04
  -3   7   3  182.80    8.91
  -3   7   3  189.82    9.24
  -3   7   3  185.37    8.53
  -3   7   3  178.84    9.01
  -3   7   3  180.14    8.40
  -3   7   3  188.15    9.03
  -3   7   3  187.81    8.90
  -3   7   3  180.79    8.70
   3  -7  -3  145.85    7.64
  -3   7   3  187.35    8.32
  -3   7   2    0.83    1.06
  -3   7   2    1.70    1.22
  -3   7   2    2.34    1.18
  -3   7   2    2.58    1.35
   3  -7  -2   -0.23    0.77
  -3   7   2    0.88    1.13
  -3   7   2    0.95    1.11
  -3   7   2    1.62    1.27
  -3   7   2    1.60    1.26
  -3   7   2    2.34    1.27
  -3   7   1  145.86    7.84
  -3   7   1  130.36    6.85
  -3   7   1  144.31    7.74
   3  -7  -1  129.56    6.74
  -3   7   1  138.69    7.66
  -3   7   1  150.26    7.89
  -3   7   1  138.09    7.35
  -3   7   1  133.00    6.70
  -3   7   1  133.69    6.77
  -3   7   1  133.97    7.07
  -3   7   1  131.57    7.07
  -3   7   1  134.54    6.53
  -3   7   0   90.80    6.14
  -3   7   0   85.05    5.11
  -3   7   0   87.87    5.94
   3  -7   0   92.73    5.44
   3  -7   0   88.77    5.52
  -3   7   0   83.86    5.16
  -3   7   0   86.59    5.63
  -3   7   0   77.96    4.95
  -3   7   0   91.27    6.15
  -3   7   0   84.63    5.48
  -3   7   0   89.73    5.63
   3  -7   0   82.38    4.94
  -3   7   0   88.67    5.66
  -3   7   0   84.94    5.44
  -3   7  -1  140.19    7.34
  -3   7  -1  149.02    7.88
  -3   7  -1  156.36    8.16
  -3   7  -1  154.61    8.00
   3  -7   1  150.41    6.89
   3  -7   1  164.30    7.57
  -3   7  -1  142.46    7.47
  -3   7  -1  147.76    7.21
  -3   7  -1  147.79    8.04
  -3   7  -1  156.51    8.03
  -3   7  -1  154.25    7.58
  -3   7  -1  142.43    7.31
   3  -7   1  152.77    7.03
  -3   7  -1  141.66    7.27
  -3   7  -1  154.47    7.64
  -3   7  -2  271.25   10.39
  -3   7  -2  271.41   10.60
  -3   7  -2  270.70    9.86
   3  -7   2  259.94    9.96
  -3   7  -2  281.54   11.15
  -3   7  -2  264.99   10.27
  -3   7  -2  278.23   10.52
  -3   7  -2  273.27   10.31
  -3   7  -2  263.70   10.56
  -3   7  -2  267.46   10.53
   3  -7   2  262.29    9.88
  -3   7  -2  273.28   10.80
  -3   7  -3   77.30    5.60
  -3   7  -3   61.83    4.69
   3  -7   3   65.37    4.94
  -3   7  -3   78.16    5.66
  -3   7  -3   75.38    5.56
  -3   7  -3   70.87    5.33
  -3   7  -3   71.43    5.49
  -3   7  -3   74.43    5.46
  -3   7  -3   77.48    5.29
   3  -7   3   64.16    4.96
  -3   7  -3   81.78    5.58
  -3   7  -4  350.90   11.80
   3  -7   4  362.81   13.47
   3  -7   4  296.97   11.45
  -3   7  -4  392.74   13.06
  -3   7  -4  364.84   11.99
  -3   7  -4  334.38   10.92
  -3   7  -4  387.32   12.75
  -3   7  -4  382.43   12.47
  -3   7  -4  350.03   12.93
  -3   7  -4  365.68   12.88
   3  -7   4  331.00   12.23
  -3   7  -5   46.63    4.70
  -3   7  -5   52.13    4.61
  -3   7  -5   47.10    4.22
   3  -7   5   63.95    5.41
   3  -7   5   50.74    4.79
  -3   7  -5   43.80    4.19
   3  -7   5   60.03    5.12
   3  -7   5   57.89    4.55
  -3   7  -6  116.94    6.43
  -3   7  -6  137.63    7.64
  -3   7  -6  128.17    6.63
   3  -7   6  120.02    5.90
   3  -7   6  117.06    6.26
   3  -7   6  115.48    6.36
   3  -7   6  104.48    5.99
  -3   7  -6  137.77    7.05
  -3   7  -7    5.19    1.49
   3  -7   7    3.57    1.52
  -3   7  -7    5.30    1.44
   3  -7   7    2.34    1.37
  -3   7  -7    3.53    1.62
  -3   7  -7    4.76    1.48
   3  -7   7    2.12    1.04
   3  -7   7    2.60    1.16
   3  -7   7    2.23    1.29
   3  -7   7    3.23    1.36
   3  -7   7    2.10    1.50
   3  -7   8   11.09    1.86
   3  -7   8    7.68    1.50
   3  -7   8    9.97    2.04
   3  -7   8   11.66    1.88
   3  -7   8    9.14    1.56
  -3   7  -8    6.51    1.71
   3  -7   8    9.78    1.93
   3  -7   8   10.25    1.87
   3  -7   9   14.26    1.88
   3  -7   9   14.13    1.74
   3  -7   9   14.06    1.90
   3  -7   9   12.55    1.41
  -3   7  -9   17.61    2.00
  -3   7  -9   17.70    2.11
   3  -7   9   15.89    2.02
  -3   6  10    5.59    0.93
  -3   6  10    8.73    1.27
   3  -6  -9   21.21    2.06
  -3   6   9   19.75    2.42
  -3   6   9   21.07    2.21
  -3   6   9   16.92    2.03
  -3   6   8   30.24    3.37
  -3   6   8   25.05    2.92
  -3   6   8   26.88    3.12
  -3   6   8   24.71    2.71
  -3   6   7   10.80    2.22
  -3   6   7    9.47    2.05
  -3   6   7   10.20    1.88
  -3   6   7   12.15    2.42
  -3   6   6  105.01    6.78
  -3   6   6   93.46    6.25
  -3   6   6  100.41    6.09
   3  -6  -6  104.00    6.70
  -3   6   6  100.55    6.30
  -3   6   6   98.91    5.99
  -3   6   5  250.26   10.62
  -3   6   5  245.19   10.14
   3  -6  -5  286.05   10.91
   3  -6  -5  246.80    9.24
  -3   6   5  257.41   10.67
  -3   6   5  255.05    9.73
  -3   6   5  253.03   10.18
  -3   6   5  252.19   10.17
  -3   6   4  532.70   15.85
  -3   6   4  493.98   15.11
  -3   6   4  495.50   13.81
  -3   6   4  512.87   14.85
  -3   6   4  503.64   15.02
   3  -6  -4  481.39   14.44
  -3   6   4  505.73   14.66
  -3   6   4  497.55   14.53
  -3   6   4  489.85   13.75
  -3   6   4  528.09   15.34
  -3   6   3   23.66    3.11
  -3   6   3   23.85    2.95
  -3   6   3   20.91    2.96
  -3   6   3   25.46    3.15
  -3   6   3   25.19    3.15
  -3   6   3   24.25    3.01
   3  -6  -3   16.89    2.49
  -3   6   3   20.34    3.00
  -3   6   3   17.81    2.58
  -3   6   3   23.66    3.07
  -3   6   3   20.92    2.80
  -3   6   2    6.30    1.78
  -3   6   2    9.10    1.97
  -3   6   2    5.59    1.63
  -3   6   2    8.69    1.94
  -3   6   2    6.80    1.77
  -3   6   2    7.94    1.81
  -3   6   2    7.82    1.77
  -3   6   2    6.18    1.59
  -3   6   2    7.64    1.87
  -3   6   1   38.52    3.75
  -3   6   1   33.97    3.47
  -3   6   1   34.64    3.52
  -3   6   1   30.90    3.13
  -3   6   1   38.77    3.54
  -3   6   1   34.56    3.43
  -3   6   1   36.03    3.67
  -3   6   1   35.86    3.37
  -3   6   1   32.81    3.07
  -3   6   1   34.31    3.58
  -3   6   1   33.45    3.44
  -3   6   1   37.60    3.60
  -3   6   1   35.02    3.63
  -3   6   0   25.73    3.02
  -3   6   0   26.53    2.70
  -3   6   0   23.28    2.99
  -3   6   0   28.63    3.14
  -3   6   0   27.57    3.14
   3  -6   0   18.34    2.19
   3  -6   0   18.73    2.13
  -3   6   0   22.56    2.74
  -3   6   0   25.40    2.83
  -3   6   0   23.93    2.73
  -3   6   0   23.64    3.01
  -3   6   0   20.68    2.68
  -3   6   0   24.66    2.52
  -3   6   0   25.28    3.13
  -3   6   0   20.89    2.40
  -3   6   0   22.88    2.66
  -3   6   0   23.39    2.74
  -3   6  -1  190.26    7.70
  -3   6  -1  194.87    8.77
  -3   6  -1  203.73    8.82
  -3   6  -1  189.05    7.65
  -3   6  -1  192.18    8.14
  -3   6  -1  189.60    7.80
  -3   6  -1  203.04    8.33
  -3   6  -1  194.84    7.48
   3  -6   1  224.00    7.58
   3  -6   1  226.61    8.15
   3  -6   1  232.86    8.03
  -3   6  -1  205.35    8.59
  -3   6  -1  191.35    8.10
  -3   6  -1  190.67    7.68
  -3   6  -1  177.70    7.62
  -3   6  -1  204.03    8.54
  -3   6  -1  202.97    8.59
  -3   6  -1  218.39    8.41
  -3   6  -1  206.91    8.78
  -3   6  -2   49.55    4.07
  -3   6  -2   45.72    3.90
  -3   6  -2   49.66    4.13
  -3   6  -2   50.51    4.33
  -3   6  -2   49.11    4.16
  -3   6  -2   52.73    3.92
   3  -6   2   46.00    3.67
   3  -6   2   42.12    3.17
   3  -6   2   44.90    3.62
   3  -6   2   45.65    3.67
  -3   6  -2   52.89    4.30
  -3   6  -2   47.60    3.99
  -3   6  -2   54.00    4.23
  -3   6  -2   49.25    4.16
  -3   6  -2   47.67    3.76
  -3   6  -2   44.00    3.79
  -3   6  -3  295.73   11.02
  -3   6  -3  313.27   11.01
  -3   6  -3  316.45   11.11
  -3   6  -3  317.63   10.35
   3  -6   3  326.10   11.16
   3  -6   3  326.93   10.76
   3  -6   3  341.33   11.21
  -3   6  -3  297.00   10.57
  -3   6  -3  306.30   10.20
  -3   6  -3  296.76   10.56
  -3   6  -3  311.86   11.17
   3  -6   4  145.26    7.46
  -3   6  -4  116.38    6.20
  -3   6  -4  111.17    6.29
  -3   6  -4  118.58    6.87
  -3   6  -4  120.82    7.14
  -3   6  -4  114.06    6.87
  -3   6  -4  109.49    6.12
   3  -6   4  122.35    7.13
   3  -6   4  142.71    7.79
  -3   6  -4  122.45    6.81
  -3   6  -4  111.33    6.18
  -3   6  -4  112.78    6.93
  -3   6  -5   94.61    6.28
  -3   6  -5   96.57    6.28
  -3   6  -5  100.08    6.68
  -3   6  -5   94.98    6.43
  -3   6  -5   87.60    5.64
   3  -6   5   86.18    6.33
   3  -6   5  105.37    6.80
  -3   6  -5   83.19    5.19
   3  -6   5   95.73    5.53
  -3   6  -5   89.92    5.64
  -3   6  -5   93.87    5.96
   3  -6   5   90.37    6.23
   3  -6   6   59.77    5.26
   3  -6   6   59.17    4.63
  -3   6  -6   65.64    5.32
   3  -6   6   59.63    4.56
  -3   6  -6   68.84    5.57
  -3   6  -6   71.59    5.53
  -3   6  -6   54.35    4.55
   3  -6   6   65.17    5.35
   3  -6   6   64.52    5.61
  -3   6  -6   58.00    4.44
  -3   6  -6   62.96    4.64
   3  -6   6   72.33    4.94
  -3   6  -6   71.43    5.14
  -3   6  -6   56.32    5.27
   3  -6   7    0.98    1.01
  -3   6  -7    0.44    1.08
  -3   6  -7   -0.29    1.15
  -3   6  -7    0.27    1.00
  -3   6  -7   -0.12    0.91
  -3   6  -7    0.18    0.91
  -3   6  -7    0.33    1.09
   3  -6   7    0.67    0.90
   3  -6   7    1.84    1.18
   3  -6   7    0.66    1.29
   3  -6   7    1.23    1.28
  -3   6  -7    1.07    1.02
   3  -6   8   85.08    5.61
   3  -6   8   82.02    5.38
  -3   6  -8   63.21    4.48
  -3   6  -8   66.50    4.91
  -3   6  -8   78.22    4.89
   3  -6   8   85.95    5.03
   3  -6   8   71.44    4.65
   3  -6   8   86.65    5.75
   3  -6   8   87.31    5.56
   3  -6   8   78.29    5.34
  -3   6  -8   80.75    5.52
   3  -6   9    5.22    1.56
   3  -6   9    6.18    1.64
  -3   6  -9    5.74    1.43
  -3   6  -9    6.77    1.51
   3  -6   9    6.89    1.41
   3  -6   9    7.99    1.76
   3  -6   9    7.92    1.74
   3  -6   9    6.80    1.60
  -3   6 -10    3.08    0.93
  -3   6 -10    2.75    0.76
   3  -6  10    5.95    1.27
   3  -6  10    6.12    1.26
   3  -6  10    4.14    0.90
  -3   5  11   12.62    1.26
   3  -5 -10   48.08    3.27
  -3   5  10   54.61    3.66
   3  -5  -9   51.14    3.67
  -3   5   9   36.58    3.24
  -3   5   9   42.23    3.46
  -3   5   9   35.71    3.08
  -3   5   9   47.68    4.11
  -3   5   8  193.40    8.57
  -3   5   8  180.79    8.10
  -3   5   8  184.85    8.10
  -3   5   7   27.37    3.31
   3  -5  -7   28.64    3.77
   3  -5  -7   28.27    3.61
  -3   5   7   27.87    3.48
  -3   5   7   23.89    2.86
  -3   5   6  190.65    8.10
  -3   5   6  205.24    9.39
  -3   5   6  202.31    8.77
  -3   5   6  212.27    9.05
  -3   5   6  216.42    9.74
   3  -5  -6  234.97   10.30
  -3   5   6  203.74    9.42
   3  -5  -6  200.19    8.42
   3  -5  -6  211.04    9.49
  -3   5   6  195.87    9.24
  -3   5   5  324.24   10.85
  -3   5   5  301.43   10.88
  -3   5   5  316.28   11.55
  -3   5   5  302.93   11.42
  -3   5   5  301.19   10.51
   3  -5  -5  287.99   11.22
  -3   5   5  307.37   11.20
  -3   5   5  305.68   10.38
   3  -5  -5  260.96    9.40
   3  -5  -5  285.52   10.78
  -3   5   5  284.35   10.90
  -3   5   4   21.08    2.89
  -3   5   4   25.98    3.13
  -3   5   4   27.75    2.95
  -3   5   4   25.87    3.02
   3  -5  -4   18.19    2.67
   3  -5  -4   17.66    2.29
  -3   5   4   24.09    2.96
  -3   5   4   25.54    2.74
  -3   5   4   23.74    3.08
  -3   5   4   23.63    2.88
   3  -5  -4   17.96    2.20
  -3   5   4   25.39    2.75
  -3   5   4   25.14    2.99
  -3   5   4   22.12    2.58
  -3   5   4   23.64    2.95
  -3   5   3   46.38    3.99
  -3   5   3   47.93    3.87
  -3   5   3   42.62    3.46
   3  -5  -3   46.04    3.43
   3  -5  -3   41.51    2.99
  -3   5   3   47.75    3.80
  -3   5   3   43.31    3.83
  -3   5   3   48.35    3.96
  -3   5   3   46.37    3.95
  -3   5   3   44.46    3.86
  -3   5   3   43.78    3.64
  -3   5   3   48.52    3.82
  -3   5   3   43.20    3.72
   3  -5  -2  101.41    4.27
  -3   5   2  102.23    5.51
  -3   5   2  107.88    5.80
  -3   5   2  104.93    5.80
  -3   5   2  103.47    5.68
  -3   5   2  107.14    5.71
   3  -5  -1  994.40   17.66
  -3   5   1 1051.32   18.15
  -3   5   1 1062.53   21.84
   3  -5   0  486.12   11.01
  -3   5   0  506.88   11.57
  -3   5   0  500.07   13.61
   3  -5   0  474.01   10.99
  -3   5  -1   26.27    2.72
  -3   5  -1   24.34    2.56
   3  -5   1   18.61    1.82
   3  -5   1   18.40    2.00
   3  -5   1   19.82    2.06
  -3   5  -1   23.76    2.46
  -3   5  -1   26.34    2.88
  -3   5  -1   26.05    2.72
  -3   5  -2  289.80    9.05
  -3   5  -2  299.09    9.92
  -3   5  -2  288.79    9.83
   3  -5   2  282.15    8.89
  -3   5  -2  281.11    9.24
   3  -5   2  278.61    8.63
  -3   5  -2  296.25   10.11
  -3   5  -2  285.88    9.58
  -3   5  -2  276.91    9.52
  -3   5  -2  285.75    9.60
  -3   5  -3  212.27    8.30
  -3   5  -3  203.12    7.93
  -3   5  -3  206.04    8.57
  -3   5  -3  212.89    8.33
  -3   5  -3  183.90    7.10
  -3   5  -3  199.12    7.80
  -3   5  -3  198.11    7.80
   3  -5   3  226.00    8.32
   3  -5   4   46.24    3.99
  -3   5  -4   33.84    3.35
  -3   5  -4   31.16    3.12
  -3   5  -4   34.90    3.54
  -3   5  -4   36.21    3.56
  -3   5  -4   37.52    3.82
  -3   5  -4   32.65    3.57
  -3   5  -4   29.97    3.04
   3  -5   4   45.77    4.10
  -3   5  -4   33.67    3.39
  -3   5  -4   32.19    3.16
  -3   5  -5   37.45    3.80
  -3   5  -5   39.44    4.08
  -3   5  -5   39.60    3.98
  -3   5  -5   36.85    3.98
  -3   5  -5   33.38    3.41
   3  -5   5   43.59    4.18
   3  -5   5   42.18    4.32
  -3   5  -5   38.10    3.70
   3  -5   5   38.12    3.57
  -3   5  -5   35.96    3.40
  -3   5  -5   36.43    3.59
   3  -5   5   39.85    4.03
   3  -5   5   39.04    3.55
   3  -5   6    5.52    1.75
   3  -5   6    7.47    2.10
  -3   5  -6    8.52    1.78
  -3   5  -6   10.83    2.26
   3  -5   6    7.04    1.86
  -3   5  -6   11.26    2.36
  -3   5  -6   10.73    2.36
   3  -5   6    8.20    2.02
  -3   5  -6    9.04    2.22
  -3   5  -6    8.37    1.96
   3  -5   6    7.94    2.03
   3  -5   6    7.49    1.83
  -3   5  -6   10.84    2.24
  -3   5  -6    9.27    1.99
  -3   5  -6    9.54    2.23
   3  -5   6    6.49    1.71
   3  -5   7    1.93    1.31
  -3   5  -7    5.01    1.74
  -3   5  -7    3.45    1.37
   3  -5   7    1.73    1.18
   3  -5   7    0.81    1.18
  -3   5  -7    4.64    1.75
  -3   5  -7    4.13    1.66
   3  -5   7    1.83    1.36
  -3   5  -7    4.07    1.59
   3  -5   7    2.98    1.35
  -3   5  -7    3.10    1.44
   3  -5   7    2.29    1.28
   3  -5   8  100.34    6.04
  -3   5  -8  111.10    6.69
  -3   5  -8  109.08    6.80
  -3   5  -8  105.33    6.09
  -3   5  -8   93.63    5.74
   3  -5   8  104.97    6.56
  -3   5  -8  101.50    6.15
   3  -5   8   98.39    5.87
   3  -5   8   89.12    5.38
   3  -5   8  108.35    6.66
   3  -5   8   93.09    5.60
   3  -5   8  115.36    7.02
  -3   5  -9   35.34    3.41
   3  -5   9   28.12    2.99
   3  -5   9   32.06    3.46
   3  -5   9   24.30    2.56
  -3   5  -9   29.80    2.97
   3  -5   9   34.70    3.60
   3  -5   9   31.18    3.41
   3  -5   9   34.40    3.54
   3  -5   9   31.67    3.09
  -3   5  -9   41.58    3.73
   3  -5  10    1.62    0.98
   3  -5  10    0.58    0.95
   3  -5  10    2.08    1.13
   3  -5  10    1.81    1.05
   3  -5  10    2.76    1.13
  -3   5 -10    1.10    0.64
  -3   5 -10    1.71    1.02
   3  -5  10    1.54    0.84
  -3   5 -11    3.65    0.78
  -3   4  11   43.36    2.91
   3  -4 -11   35.33    2.52
   3  -4 -11   36.95    2.72
  -3   4  10   55.38    4.12
   3  -4 -10   44.38    3.22
   3  -4 -10   49.05    3.75
  -3   4   9    6.39    1.60
  -3   4   9    7.64    1.65
  -3   4   9    7.99    1.81
   3  -4  -9    7.10    1.69
   3  -4  -8  110.97    7.16
  -3   4   8  126.86    6.78
  -3   4   8  128.92    7.45
  -3   4   8  127.10    7.36
   3  -4  -8  112.06    7.32
   3  -4  -7   36.63    4.18
   3  -4  -7   39.41    4.34
  -3   4   7   25.64    3.39
  -3   4   7   27.96    3.50
  -3   4   7   27.01    3.22
  -3   4   6   39.39    3.96
  -3   4   6   41.21    3.81
  -3   4   6   43.08    4.14
  -3   4   6   36.52    3.56
   3  -4  -6   53.36    4.84
  -3   4   6   45.42    4.20
   3  -4  -6   52.47    4.11
   3  -4  -6   54.49    4.77
  -3   4   5   74.55    5.07
   3  -4  -5   91.04    5.71
  -3   4   5   73.88    5.12
  -3   4   5   82.48    5.47
  -3   4   5   74.28    4.65
   3  -4  -5   89.09    5.09
   3  -4  -5   91.74    5.90
  -3   4   5   77.68    5.20
  -3   4   5   80.99    4.86
   3  -4  -5   83.65    4.77
  -3   4   5   74.00    5.11
  -3   4   5   71.08    4.00
  -3   4   5   77.15    4.69
  -3   4   4   28.14    3.00
  -3   4   4   32.82    3.25
  -3   4   4   31.93    3.24
   3  -4  -4   37.42    3.14
  -3   4   4   34.95    3.47
  -3   4   4   28.15    2.92
  -3   4   4   34.51    3.28
   3  -4  -4   33.51    2.74
  -3   4   4   27.87    2.94
  -3   4   4   29.73    2.69
  -3   4   3   44.77    3.32
   3  -4  -3   45.00    2.77
   3  -4  -3   45.71    3.31
   3  -4  -3   44.00    2.84
  -3   4   2   87.63    4.68
   3  -4  -2   86.13    3.50
  -3   4   1   61.65    2.91
   3  -4  -1   66.40    2.99
   3  -4  -1   64.59    2.59
  -3   4   0  963.22   19.08
   3  -4   0  911.91   15.86
   3  -4   1  168.02    4.67
   3  -4   1  182.53    5.62
  -3   4  -1  186.24    7.03
  -3   4  -1  176.36    6.23
   3  -4   1  177.57    5.71
   3  -4   1  171.06    5.04
   3  -4   2  275.82    8.17
   3  -4   2  257.62    7.44
   3  -4   2  289.28    9.26
   3  -4   2  258.17    7.56
  -3   4  -2  291.11    9.03
  -3   4  -2  294.55    8.86
   3  -4   3  384.38   10.82
   3  -4   3  383.01   10.41
  -3   4  -3  393.60   11.67
  -3   4  -3  389.75   10.81
  -3   4  -3  408.69   11.53
  -3   4  -4  125.50    6.13
  -3   4  -4  131.81    6.27
   3  -4   4  129.75    6.59
  -3   4  -4  134.35    6.50
   3  -4   4  132.27    6.49
  -3   4  -4  135.96    5.89
  -3   4  -4  139.20    6.74
  -3   4  -5   93.58    5.69
   3  -4   5  102.81    5.65
  -3   4  -5  102.74    5.61
   3  -4   5  111.34    6.33
  -3   4  -5  102.50    6.38
  -3   4  -5  101.63    6.14
   3  -4   5  112.63    6.43
   3  -4   5  110.61    6.00
  -3   4  -5  107.20    6.34
   3  -4   5  100.58    5.46
  -3   4  -5   96.84    5.79
  -3   4  -6  101.47    6.25
   3  -4   6   98.84    5.95
  -3   4  -6  102.08    5.62
   3  -4   6  104.94    6.45
   3  -4   6  117.91    7.18
  -3   4  -6  111.43    6.95
   3  -4   6   98.38    6.21
  -3   4  -6  111.59    6.82
   3  -4   6   99.96    6.11
  -3   4  -6  106.56    6.23
   3  -4   6   98.74    5.79
  -3   4  -6  116.11    6.88
  -3   4  -7   35.64    4.07
   3  -4   7   48.36    4.55
  -3   4  -7   37.92    4.18
   3  -4   7   46.99    4.39
  -3   4  -7   34.22    3.89
   3  -4   7   46.25    4.22
  -3   4  -7   36.60    3.76
   3  -4   7   44.87    4.06
  -3   4  -7   37.09    3.97
  -3   4  -8    5.60    1.64
   3  -4   8    9.55    2.09
  -3   4  -8    5.10    1.72
  -3   4  -8    4.94    1.75
   3  -4   8    9.67    2.34
   3  -4   8    8.97    2.23
   3  -4   8    8.25    2.03
   3  -4   8    9.83    2.51
   3  -4   9   26.21    3.16
  -3   4  -9   26.71    3.16
   3  -4   9   31.67    3.50
  -3   4  -9   19.43    2.38
   3  -4   9   35.11    3.46
   3  -4   9   30.06    3.31
   3  -4   9   31.40    3.71
  -3   4  -9   21.82    2.60
   3  -4  10    3.06    1.12
   3  -4  10    2.35    1.12
   3  -4  10    4.27    1.39
  -3   4 -10    1.66    0.84
   3  -4  10    3.96    1.28
  -3   4 -11   11.51    1.53
   3  -4  11    6.67    1.17
   3  -3 -11   12.24    1.59
   3  -3 -11   12.92    1.94
   3  -3 -11   15.45    1.97
  -3   3  11   19.14    2.30
  -3   3  10   42.95    3.97
   3  -3 -10   45.63    3.79
  -3   3  10   42.49    3.84
   3  -3 -10   37.99    3.23
  -3   3   9  124.79    6.37
   3  -3  -9  134.95    6.58
  -3   3   9  147.67    7.83
  -3   3   9  136.53    6.89
  -3   3   9  132.04    6.28
  -3   3   8   61.38    4.70
  -3   3   8   63.20    4.80
   3  -3  -8   63.37    4.57
   3  -3  -8   69.25    5.64
  -3   3   8   63.40    5.01
   3  -3  -8   66.07    5.63
   3  -3  -8   64.50    4.65
  -3   3   8   60.87    4.86
  -3   3   8   57.86    5.05
  -3   3   7   15.19    2.51
  -3   3   7   13.60    2.41
  -3   3   7   17.44    2.77
  -3   3   7   13.72    2.33
  -3   3   7   18.03    2.91
   3  -3  -7   13.65    2.72
  -3   3   6   92.35    5.35
  -3   3   6   76.81    4.58
  -3   3   6   92.46    5.08
  -3   3   6   93.87    5.81
   3  -3  -6  104.85    6.35
  -3   3   6   95.83    5.88
  -3   3   6   98.09    5.82
  -3   3   5  269.79    9.41
  -3   3   5  249.52    7.52
  -3   3   5  258.62    8.72
   3  -3  -5  318.48   10.64
   3  -3  -5  295.10    9.68
  -3   3   5  269.96    9.66
  -3   3   5  277.60    9.35
  -3   3   5  275.14    9.89
  -3   3   5  284.46    9.90
  -3   3   5  286.66    9.99
   3  -3  -4  108.27    4.77
  -3   3   4  122.87    5.72
  -3   3   4  118.38    5.06
   3  -3  -4  115.70    5.49
  -3   3   3  333.03    9.35
   3  -3  -3  368.70    8.49
   3  -3  -3  380.15   10.03
   3  -3  -3  355.12    8.24
   3  -3  -3  330.89    8.27
   3  -3  -2  148.07    5.00
   3  -3  -2  141.82    4.45
   3  -3  -2  142.99    4.61
  -3   3   2  141.01    5.62
  -3   3   1  554.40    9.97
  -3   3   1  544.18    9.95
   3  -3   0   51.66    1.88
   3  -3   0   61.81    3.37
   3  -3   0   54.70    2.27
  -3   3   0   73.38    4.00
  -3   3   0   70.69    3.17
  -3   3   0   67.70    2.75
   3  -3   0   51.61    2.35
   3  -3   0   58.95    2.67
  -3   3  -1  166.62    6.15
  -3   3  -1  153.86    5.36
   3  -3   1  128.75    4.50
   3  -3   1  134.24    4.53
   3  -3   1  142.25    5.61
  -3   3  -2  218.22    7.21
  -3   3  -2  221.99    7.18
   3  -3   2  194.36    6.19
   3  -3   2  206.91    7.22
  -3   3  -3  655.34   13.94
   3  -3   3  609.97   14.20
   3  -3   3  650.64   14.23
  -3   3  -4  737.11   17.05
  -3   3  -4  766.64   17.76
  -3   3  -4  735.35   15.17
   3  -3   4  771.03   17.48
   3  -3   4  758.58   17.25
   3  -3   4  791.84   17.27
   3  -3   4  732.21   15.54
  -3   3  -5    1.73    0.89
   3  -3   5    0.75    0.81
   3  -3   5    1.04    0.81
   3  -3   5    1.35    0.98
  -3   3  -5    2.21    1.22
   3  -3   5    0.27    0.69
   3  -3   5    0.82    0.77
   3  -3   5    1.04    0.91
   3  -3   5    0.20    0.86
   3  -3   6  138.81    6.94
  -3   3  -6  123.06    6.04
   3  -3   6  123.00    6.29
   3  -3   6  134.42    6.21
   3  -3   6  126.81    7.07
  -3   3  -6  140.36    6.95
   3  -3   6  129.33    6.44
  -3   3  -6  143.20    7.47
   3  -3   6  140.90    6.71
   3  -3   6  138.01    7.27
  -3   3  -7   38.70    4.11
   3  -3   7   46.53    4.27
  -3   3  -7   32.58    3.39
   3  -3   7   43.33    4.53
  -3   3  -7   39.95    4.25
   3  -3   7   48.36    4.63
  -3   3  -7   29.90    3.32
  -3   3  -7   34.37    3.92
   3  -3   7   36.73    3.71
   3  -3   7   46.89    4.46
  -3   3  -8   33.81    3.96
   3  -3   8   48.43    4.34
  -3   3  -8   28.66    3.19
   3  -3   8   42.08    4.42
   3  -3   8   45.73    4.51
  -3   3  -8   35.00    3.97
   3  -3   8   44.57    4.42
  -3   3  -8   28.52    3.57
   3  -3   8   41.89    4.36
   3  -3   8   42.83    4.21
   3  -3   9   58.28    4.58
   3  -3   9   60.71    4.89
  -3   3  -9   61.40    4.81
  -3   3  -9   57.30    4.22
   3  -3   9   65.22    5.00
   3  -3   9   61.81    4.89
   3  -3   9   61.19    4.51
  -3   3  -9   67.36    5.07
   3  -3   9   63.93    4.74
  -3   3 -10    7.99    1.59
   3  -3  10   11.73    1.99
  -3   3 -10    8.11    1.93
   3  -3  10   14.05    2.19
   3  -3  10   14.18    2.21
   3  -3  10   12.87    2.19
   3  -3  10   14.18    2.02
   3  -3  10   13.36    2.13
  -3   3 -11   13.72    1.78
   3  -3  11   12.36    1.71
   3  -3  11   12.12    1.56
   3  -3  11   12.89    1.65
  -3   3 -11   17.38    1.90
  -3   2  12    8.24    1.17
   3  -2 -12    8.04    1.19
   3  -2 -11   11.97    1.95
   3  -2 -11   12.90    2.03
   3  -2 -11    9.27    1.48
   3  -2 -11    9.73    1.46
  -3   2  11   11.58    1.96
  -3   2  11   11.39    1.82
   3  -2 -11   12.74    1.91
   3  -2 -10   31.14    3.08
  -3   2  10   37.31    3.74
  -3   2  10   32.64    3.18
  -3   2  10   37.45    3.91
   3  -2 -10   33.92    3.44
   3  -2 -10   30.80    3.10
  -3   2  10   32.62    3.41
   3  -2  -9   56.29    4.63
  -3   2   9   55.09    4.94
  -3   2   9   41.98    3.57
   3  -2  -9   48.70    4.10
  -3   2   9   52.05    4.73
  -3   2   9   54.70    4.60
  -3   2   9   48.88    4.48
   3  -2  -9   50.46    4.33
  -3   2   8  102.05    6.53
  -3   2   8  108.67    6.88
  -3   2   8   95.55    5.72
   3  -2  -8  111.38    5.95
   3  -2  -8  115.79    6.94
  -3   2   8  110.49    6.97
  -3   2   8  101.69    6.44
  -3   2   8   87.10    5.29
   3  -2  -8  114.01    7.28
  -3   2   8   90.71    5.75
  -3   2   7   47.02    4.28
  -3   2   7   46.74    4.31
  -3   2   7   48.06    4.12
   3  -2  -7   34.18    3.24
  -3   2   7   41.19    3.55
   3  -2  -7   37.87    3.93
  -3   2   7   47.10    4.33
   3  -2  -7   36.15    4.11
  -3   2   7   44.51    3.87
  -3   2   7   45.49    4.35
  -3   2   6   16.04    2.46
   3  -2  -6   23.49    3.06
  -3   2   6   12.11    1.99
   3  -2  -6   22.25    2.91
  -3   2   6   17.97    2.57
  -3   2   6   17.42    2.38
  -3   2   6   17.15    2.53
  -3   2   6   13.86    1.96
  -3   2   5  184.77    7.70
   3  -2  -5  157.66    6.98
   3  -2  -5  173.35    7.54
  -3   2   5  186.01    7.56
  -3   2   5  173.06    7.24
  -3   2   5  155.89    5.53
   3  -2  -4   16.91    1.89
   3  -2  -4   17.10    2.15
  -3   2   4   15.81    1.79
   3  -2  -3  345.28    8.19
   3  -2  -3  374.69    9.77
   3  -2  -3  362.62    8.71
  -3   2   3  364.51    9.50
  -3   2   2   12.62    1.66
   3  -2  -2   15.14    1.01
  -3   2   2   10.25    1.27
   3  -2  -2   16.72    1.67
   3  -2  -2   17.04    1.66
  -3   2   1    7.55    1.07
   3  -2  -1   11.22    1.42
   3  -2  -1    7.73    1.10
   3  -2  -1   10.78    1.35
   3  -2   0  178.15    4.17
   3  -2   0  185.23    6.11
   3  -2   0  182.31    5.92
   3  -2   1  470.43   10.09
  -3   2  -1  480.49   11.41
   3  -2   1  452.29   10.81
   3  -2   1  468.01   10.89
   3  -2   2  601.66   12.66
   3  -2   2  584.65   13.17
   3  -2   2  602.60   13.51
   3  -2   3  540.18   12.50
  -3   2  -3  547.33   11.99
   3  -2   4  316.15   10.00
   3  -2   4  301.06    9.02
  -3   2  -4  308.23    8.16
  -3   2  -4  311.53    9.75
   3  -2   4  319.26    9.89
   3  -2   4  296.23    9.27
  -3   2  -5   87.93    4.92
   3  -2   5   69.86    4.62
   3  -2   5   79.96    4.44
  -3   2  -5   94.35    5.14
  -3   2  -5   87.21    4.97
  -3   2  -5   89.07    5.18
   3  -2   5   83.44    5.29
   3  -2   5   76.86    4.75
  -3   2  -5   85.67    5.24
   3  -2   5   73.60    4.69
  -3   2  -6  123.33    6.79
  -3   2  -6  109.19    5.56
  -3   2  -6  117.31    6.29
   3  -2   6  116.72    6.41
   3  -2   6  112.46    5.27
  -3   2  -6  125.43    6.44
   3  -2   6  127.69    7.01
   3  -2   6  128.58    7.22
   3  -2   6  124.49    6.55
  -3   2  -6  118.77    6.65
   3  -2   6  126.34    6.64
  -3   2  -6  114.89    6.24
  -3   2  -7  450.86   13.98
  -3   2  -7  440.24   12.61
  -3   2  -7  459.45   13.99
   3  -2   7  446.60   13.88
  -3   2  -7  462.10   14.49
   3  -2   7  487.38   15.14
   3  -2   7  471.18   14.39
  -3   2  -7  463.51   14.47
   3  -2   7  491.40   14.55
  -3   2  -8  293.22   11.16
   3  -2   8  278.84   10.76
   3  -2   8  272.01   10.20
  -3   2  -8  285.37    9.84
   3  -2   8  277.09   10.95
   3  -2   8  247.95   10.35
   3  -2   8  282.77   11.43
  -3   2  -8  271.55   10.81
   3  -2   8  274.96   10.81
   3  -2   8  264.55    9.82
   3  -2   8  268.19    9.23
   3  -2   9   14.32    2.26
   3  -2   9   14.89    2.50
  -3   2  -9   18.82    2.49
   3  -2   9   13.21    2.07
   3  -2   9   15.91    2.59
  -3   2  -9   17.80    2.84
   3  -2   9   15.52    2.54
  -3   2  -9   20.02    2.97
   3  -2   9   14.93    2.72
  -3   2 -10    1.76    0.98
   3  -2  10    0.42    0.88
   3  -2  10    1.09    0.85
   3  -2  10    1.20    1.00
   3  -2  10    1.46    1.12
   3  -2  10    1.28    1.00
   3  -2  10    0.58    0.85
  -3   2 -10    0.95    1.11
  -3   2 -10    1.61    1.00
  -3   2 -11    9.91    1.58
  -3   2 -11   10.35    1.45
   3  -2  11   13.58    1.75
  -3   1  12   34.85    2.44
   3  -1 -12   34.91    2.48
  -3   1  11   55.59    4.03
   3  -1 -11   52.33    3.81
   3  -1 -11   56.26    4.04
   3  -1 -11   50.63    3.54
   3  -1 -11   46.60    3.52
  -3   1  11   38.08    2.83
  -3   1  11   51.99    3.78
  -3   1  11   53.92    3.71
  -3   1  10   53.18    4.61
   3  -1 -10   55.70    4.39
   3  -1 -10   61.19    4.70
   3  -1 -10   52.02    3.96
   3  -1 -10   66.16    4.95
  -3   1  10   53.02    4.45
  -3   1  10   41.87    3.77
  -3   1  10   50.02    4.36
   3  -1 -10   62.48    4.61
  -3   1   9  312.75   11.90
   3  -1  -9  282.85   10.58
   3  -1  -9  292.48   10.97
   3  -1  -9  284.96   11.76
  -3   1   9  295.20   11.03
   3  -1  -9  270.98    9.79
   3  -1  -9  266.85   10.43
  -3   1   9  300.47   11.74
  -3   1   9  317.34   11.97
  -3   1   9  282.02    9.75
  -3   1   9  309.35   11.39
   3  -1  -8   10.02    2.05
   3  -1  -8   12.20    2.30
  -3   1   8    4.71    1.75
   3  -1  -8   14.41    2.52
  -3   1   8    6.01    1.88
  -3   1   8    6.48    1.64
   3  -1  -8   11.20    2.48
  -3   1   8    8.32    1.99
   3  -1  -7  174.03    8.51
  -3   1   7  166.96    7.79
   3  -1  -7  169.30    7.51
  -3   1   7  180.38    8.40
  -3   1   7  172.93    7.55
   3  -1  -7  159.17    6.89
   3  -1  -7  168.38    7.81
  -3   1   7  171.00    7.49
  -3   1   7  179.47    8.68
  -3   1   7  174.51    8.09
  -3   1   6  136.97    6.79
   3  -1  -6  140.96    6.24
  -3   1   6  131.49    6.80
   3  -1  -6  144.12    6.77
  -3   1   6  128.46    6.07
  -3   1   6  123.51    6.17
   3  -1  -6  140.37    7.07
  -3   1   6  119.15    6.22
  -3   1   6  124.30    6.12
   3  -1  -5  149.35    6.91
   3  -1  -5  151.02    6.74
  -3   1   5  164.40    5.79
  -3   1   5  168.60    6.53
  -3   1   5  172.62    6.97
   3  -1  -4   35.67    3.00
   3  -1  -4   39.95    2.98
  -3   1   4   29.21    2.50
  -3   1   3  133.09    5.53
   3  -1  -3  138.68    4.48
   3  -1  -3  148.68    5.48
  -3   1   2  243.23    6.28
  -3   1   2  253.63    6.97
  -3   1   2  271.94    8.09
   3  -1  -2  211.54    5.61
   3  -1  -2  222.30    6.65
   3  -1  -2  230.82    6.84
  -3   1   1  292.71    7.50
  -3   1   1  289.64    7.69
   3  -1  -1  311.88    6.75
   3  -1  -1  318.48    8.16
   3  -1  -1  313.85    8.04
  -3   1   0  400.45    9.42
  -3   1   0  401.96    9.48
  -3   1   0  427.97   10.70
   3  -1   0  408.45    9.77
  -3   1  -1  166.11    6.18
   3  -1   1  177.67    5.12
   3  -1   1  177.80    5.81
  -3   1  -2  244.29    7.55
   3  -1   2  234.16    7.36
  -3   1  -2  223.20    6.01
   3  -1   2  239.60    7.26
  -3   1  -3   25.39    2.28
   3  -1   3   31.96    2.59
  -3   1  -3   25.76    1.81
  -3   1  -3   21.88    1.41
   3  -1   3   33.94    2.75
   3  -1   4  123.22    5.85
   3  -1   4  130.08    5.43
  -3   1  -4  122.08    4.04
  -3   1  -4  121.46    4.79
  -3   1  -4  131.83    5.88
  -3   1  -4  137.13    5.72
  -3   1  -4  125.42    4.06
   3  -1   4  133.78    6.18
  -3   1  -5  150.79    6.77
  -3   1  -5  148.15    6.46
   3  -1   5  145.91    6.95
   3  -1   5  139.75    5.73
   3  -1   5  140.60    7.00
  -3   1  -5  156.23    7.06
   3  -1   5  137.88    6.57
  -3   1  -5  149.54    6.76
  -3   1  -5  151.10    6.50
  -3   1  -5  154.78    6.71
  -3   1  -5  146.47    6.72
  -3   1  -6   50.10    4.09
  -3   1  -6   54.34    4.30
  -3   1  -6   52.86    4.20
   3  -1   6   63.73    4.89
  -3   1  -6   54.49    3.88
  -3   1  -6   44.67    3.86
   3  -1   6   62.52    4.85
  -3   1  -6   55.90    4.59
   3  -1   6   58.81    4.58
   3  -1   6   71.99    5.38
   3  -1   6   67.96    4.99
   3  -1   7   46.38    4.02
   3  -1   7   43.94    4.37
  -3   1  -7   53.56    4.15
  -3   1  -7   56.22    4.56
   3  -1   7   43.69    3.64
   3  -1   7   36.58    3.47
   3  -1   7   48.21    4.52
  -3   1  -7   61.34    4.97
  -3   1  -7   51.39    4.38
  -3   1  -7   55.99    4.60
  -3   1  -7   51.65    4.53
   3  -1   7   42.98    4.17
   3  -1   8  655.92   16.87
   3  -1   8  683.82   18.04
  -3   1  -8  616.99   16.91
   3  -1   8  666.59   17.66
   3  -1   8  623.24   17.82
  -3   1  -8  572.41   16.52
   3  -1   8  632.00   15.50
  -3   1  -8  607.68   15.46
  -3   1  -8  622.81   17.06
   3  -1   8  644.87   16.63
  -3   1  -9   87.91    5.05
   3  -1   9   96.58    5.42
   3  -1   9  101.92    5.60
  -3   1  -9   93.61    5.68
   3  -1   9   96.44    5.87
   3  -1  10   22.57    2.55
  -3   1 -10   16.78    2.25
  -3   1 -10   15.66    2.24
  -3   1 -10   14.59    2.07
   3  -1  10   20.87    2.70
  -3   1 -11   43.35    2.70
   3  -1  11   38.36    2.69
  -3   1 -11   35.23    2.71
   3   0 -12   43.18    2.53
   3   0 -11    7.02    1.63
   3   0 -11    7.10    1.59
   3   0 -11    7.99    1.73
  -3   0  11    5.26    1.26
  -3   0  11    5.99    1.41
  -3   0  11    6.92    1.59
  -3   0  10   29.38    3.54
  -3   0  10   27.04    3.28
   3   0 -10   37.04    3.74
   3   0 -10   39.46    3.92
  -3   0  10   28.53    3.32
  -3   0  10   26.92    3.16
  -3   0  10   27.38    2.97
   3   0 -10   32.68    3.55
  -3   0  10   30.22    3.38
   3   0 -10   35.69    3.56
   3   0  -9  441.30   13.54
   3   0  -9  457.11   14.25
   3   0  -9  402.74   12.29
   3   0  -9  459.05   14.52
  -3   0   9  400.37   12.86
  -3   0   9  419.22   13.70
   3   0  -9  452.24   14.17
  -3   0   9  411.12   13.67
   3   0  -9  430.59   14.40
   3   0  -8  230.75    9.40
   3   0  -8  226.84    8.80
   3   0  -8  247.89   10.29
   3   0  -8  224.17    8.78
  -3   0   8  235.54    9.86
  -3   0   8  227.27    9.82
   3   0  -8  227.32   10.04
   3   0  -8  218.52    9.00
  -3   0   8  235.25    9.62
   3   0  -7   48.75    3.88
   3   0  -7   49.35    3.94
  -3   0   7   40.57    3.98
   3   0  -7   58.70    4.85
  -3   0   7   43.02    4.05
  -3   0   7   43.06    4.06
   3   0  -7   49.88    4.13
   3   0  -7   52.27    4.22
  -3   0   6   88.38    5.36
   3   0  -6   91.56    5.03
   3   0  -6   90.06    5.08
   3   0  -6   95.13    5.35
  -3   0   6   89.48    5.47
  -3   0   6   95.90    5.51
   3   0  -6   89.98    5.04
  -3   0   6   79.60    4.72
   3   0  -6   95.87    5.71
  -3   0   6   81.73    5.14
   3   0  -5  366.15   10.84
  -3   0   5  355.92   10.96
  -3   0   5  383.26   10.72
  -3   0   5  360.98   10.21
  -3   0   5  362.79    9.84
  -3   0   5  367.70   10.75
  -3   0   4   40.92    2.45
   3   0  -4   48.26    3.53
  -3   0   3    9.62    1.30
   3   0  -3    4.94    1.06
   3   0  -3    5.59    1.28
   3   0  -3    7.74    1.50
   3   0  -2  447.22    9.93
   3   0  -2  431.11   10.34
   3   0  -2  448.96   10.81
   3   0  -1   42.51    2.52
   3   0  -1   38.91    2.47
   3   0  -1   42.23    2.78
   3   0   0  230.65    6.54
   3   0   0  229.29    7.13
  -3   0  -1  214.26    6.95
   3   0   1  206.30    6.30
   3   0   1  206.15    6.87
  -3   0  -1  213.99    6.44
   3   0   2    9.54    1.44
  -3   0  -2    4.33    1.21
   3   0   2   10.12    1.56
  -3   0  -2    4.85    1.04
  -3   0  -3    3.53    1.12
   3   0   3    1.38    0.77
  -3   0  -3    3.16    0.90
  -3   0  -4  387.67   11.33
   3   0   4  377.16   10.70
  -3   0  -4  387.33   11.11
   3   0   4  379.59   11.01
  -3   0  -4  393.78    9.47
   3   0   4  405.75   11.32
  -3   0  -5  111.99    5.99
  -3   0  -5  117.84    5.77
  -3   0  -5  123.85    6.12
  -3   0  -5  121.25    5.93
   3   0   5  102.33    6.07
  -3   0  -5  102.75    4.47
   3   0   5  106.35    5.81
   3   0   5   98.92    5.87
  -3   0  -5  115.15    4.90
   3   0   5  105.46    6.14
  -3   0  -5  126.86    6.29
   3   0   5   97.10    5.61
  -3   0  -5  119.22    6.11
   3   0   5   96.25    5.66
  -3   0  -6   54.69    4.41
  -3   0  -6   52.39    4.19
  -3   0  -6   53.91    4.35
  -3   0  -6   52.88    4.25
   3   0   6   51.61    4.60
   3   0   6   47.37    4.10
   3   0   6   50.23    4.47
   3   0   6   54.12    4.72
   3   0   6   52.85    4.64
  -3   0  -6   48.07    3.96
  -3   0  -6   53.77    4.39
   3   0   6   50.29    4.31
  -3   0  -6   51.60    4.33
   3   0   6   49.03    4.32
  -3   0  -7   77.30    5.44
  -3   0  -7   82.76    5.51
  -3   0  -7   70.73    5.14
  -3   0  -7   72.48    4.72
   3   0   7   66.67    4.73
   3   0   7   62.61    5.22
   3   0   7   66.51    5.48
   3   0   7   59.13    4.72
   3   0   7   70.65    5.30
   3   0   7   67.49    4.71
  -3   0  -7   75.78    5.29
   3   0   7   61.37    4.99
  -3   0  -8   81.66    5.00
  -3   0  -8   88.83    5.78
   3   0   8   76.88    4.81
   3   0   8   77.36    5.67
  -3   0  -8   75.61    5.14
  -3   0  -8   83.11    5.61
   3   0   8   65.54    4.74
   3   0   9    1.08    1.33
  -3   0  -9    2.79    1.39
   3   0   9    1.17    0.99
  -3   0  -9    1.68    1.09
  -3   0 -10    5.25    1.26
   3   0  10    4.85    1.37
   3   0  10    4.35    1.31
   3   0  10    5.25    1.42
   3   0  11    9.34    1.22
   3   0  11   10.74    1.39
  -3   0 -11    6.88    1.18
  -3  -1  12   17.04    1.69
   3   1 -12   20.95    1.80
  -3  -1  11   31.48    2.90
   3   1 -11   24.82    2.56
  -3  -1  11   28.27    2.59
  -3  -1  11   24.30    2.38
   3   1 -11   28.58    2.87
  -3  -1  11   27.43    2.52
   3   1 -10  192.51    8.20
   3   1 -10  194.96    8.45
  -3  -1  10  169.36    7.28
   3   1 -10  192.53    8.26
  -3  -1  10  176.21    8.03
  -3  -1  10  175.28    7.89
  -3  -1  10  181.12    7.84
  -3  -1  10  173.36    8.24
   3   1  -9  202.93    9.19
   3   1  -9  222.97    9.74
  -3  -1   9  216.35    8.90
  -3  -1   9  227.26   10.15
  -3  -1   9  224.25    9.53
   3   1  -9  201.77    9.14
  -3  -1   9  202.44    7.66
  -3  -1   9  227.33    9.81
  -3  -1   8   55.39    4.11
  -3  -1   8   61.18    4.79
   3   1  -8   68.60    5.10
   3   1  -8   57.02    4.87
  -3  -1   8   62.59    5.18
   3   1  -8   67.10    5.34
  -3  -1   8   63.05    5.11
   3   1  -8   54.57    4.20
   3   1  -8   66.63    5.06
   3   1  -7    8.90    1.96
   3   1  -7    9.10    2.11
   3   1  -7    6.91    1.68
   3   1  -7    8.48    2.00
  -3  -1   7    4.68    1.62
  -3  -1   7    3.87    1.43
  -3  -1   7    4.49    1.51
   3   1  -7    6.75    1.90
   3   1  -7    8.16    1.94
   3   1  -6   37.76    3.43
  -3  -1   6   31.74    3.12
   3   1  -6   42.98    3.97
   3   1  -6   35.17    3.58
   3   1  -6   38.95    2.97
   3   1  -6   38.89    3.59
  -3  -1   6   29.38    3.26
  -3  -1   6   29.55    3.34
   3   1  -6   39.26    3.74
   3   1  -6   38.07    3.65
  -3  -1   6   31.55    3.12
  -3  -1   6   31.99    3.30
  -3  -1   5  302.40    9.83
   3   1  -5  280.46    8.81
  -3  -1   5  321.86    9.81
   3   1  -5  293.51    9.93
   3   1  -5  301.40    9.97
   3   1  -5  276.23    8.07
  -3  -1   5  307.61    9.87
   3   1  -5  299.75    9.44
  -3  -1   5  297.80    8.29
   3   1  -5  316.00   10.03
  -3  -1   5  276.00    9.72
   3   1  -5  274.39    9.49
   3   1  -5  303.57    9.90
  -3  -1   5  320.21   10.47
  -3  -1   4  200.01    7.29
   3   1  -4  162.43    6.74
   3   1  -4  174.21    6.83
   3   1  -4  177.56    7.43
  -3  -1   4  194.38    7.40
   3   1  -4  186.15    7.01
   3   1  -4  169.23    6.35
  -3  -1   4  194.96    5.11
  -3  -1   4  209.81    6.72
  -3  -1   4  185.68    7.11
  -3  -1   3  172.83    6.64
   3   1  -3  150.41    5.45
   3   1  -3  161.54    6.53
   3   1  -3  147.87    6.03
   3   1  -3  168.11    6.22
  -3  -1   3  174.74    6.10
  -3  -1   2  283.39    8.06
   3   1  -2  249.09    7.62
   3   1  -2  242.74    7.33
  -3  -1   2  277.48    8.38
  -3  -1   1  206.17    6.85
   3   1  -1  198.63    6.53
  -3  -1   1  207.07    6.99
   3   1  -1  195.78    5.85
  -3  -1   1  184.39    4.01
   3   1  -1  202.81    6.72
   3   1   0   88.43    4.22
  -3  -1   0   70.11    3.99
  -3  -1   0   66.85    2.71
   3   1   0   80.69    3.25
   3   1   0   85.33    4.15
   3   1   1   80.36    4.10
  -3  -1  -1   69.24    4.08
  -3  -1  -1   70.84    4.11
  -3  -1  -1   61.40    2.57
   3   1   1   75.40    2.84
  -3  -1  -1   69.53    3.84
   3   1   1   76.07    3.94
   3   1   2  208.27    7.25
   3   1   2  205.57    7.23
  -3  -1  -2  214.02    7.65
  -3  -1  -2  214.19    7.14
  -3  -1  -3   72.14    4.61
   3   1   3   82.20    4.78
  -3  -1  -3   74.36    4.15
  -3  -1  -3   72.39    4.51
   3   1   3   83.90    4.68
  -3  -1  -3   68.30    4.45
   3   1   3   75.32    4.55
   3   1   3   79.69    4.77
   3   1   4  379.86   10.70
   3   1   4  421.50   12.54
  -3  -1  -4  420.60   11.08
   3   1   4  444.19   12.49
   3   1   4  397.92   11.65
   3   1   4  427.10   12.20
   3   1   4  398.98   11.92
   3   1   4  384.83   10.84
  -3  -1  -4  404.86   12.25
  -3  -1  -4  400.08   11.92
  -3  -1  -4  383.96   11.92
   3   1   5  105.45    5.45
  -3  -1  -5  108.83    5.33
   3   1   5  125.07    6.58
   3   1   5  132.87    6.92
   3   1   5  128.25    6.66
  -3  -1  -5  114.79    6.38
  -3  -1  -5  125.10    6.54
   3   1   5  118.25    6.07
  -3  -1  -5  125.41    6.72
  -3  -1  -6  159.01    7.55
   3   1   6  159.31    7.53
   3   1   6  162.52    8.20
  -3  -1  -6  142.21    6.48
   3   1   6  160.94    7.85
  -3  -1  -6  127.29    6.46
  -3  -1  -6  154.54    7.57
  -3  -1  -6  148.55    7.15
  -3  -1  -6  146.00    7.42
  -3  -1  -6  153.61    7.61
   3   1   6  142.70    6.99
  -3  -1  -7   17.86    2.80
   3   1   7   12.85    2.45
   3   1   7   18.99    3.09
   3   1   7   14.44    2.30
  -3  -1  -7   18.59    2.79
  -3  -1  -7   20.94    2.97
  -3  -1  -7   20.26    2.93
   3   1   7   13.15    2.56
  -3  -1  -7   19.42    2.88
  -3  -1  -8   62.97    4.78
  -3  -1  -8   55.03    3.99
   3   1   8   57.57    4.67
  -3  -1  -8   60.43    4.89
  -3  -1  -8   60.72    4.64
   3   1   8   51.16    4.38
  -3  -1  -9   47.44    3.88
   3   1   9   45.32    4.05
  -3  -1  -9   44.75    3.87
   3   1   9   43.46    3.67
   3   1   9   37.42    3.28
  -3  -1  -9   48.86    3.92
  -3  -1 -10   25.22    2.43
   3   1  10   29.84    2.71
  -3  -1 -10   28.02    2.64
   3   1  10   27.44    2.37
   3   1  10   31.24    2.72
   3   2 -11    7.61    1.44
  -3  -2  11    6.64    1.22
  -3  -2  11    8.01    1.44
  -3  -2  11    6.72    1.33
  -3  -2  11    7.87    1.57
  -3  -2  10  111.04    6.23
   3   2 -10  112.58    6.00
  -3  -2  10  116.87    6.18
   3   2  -9   45.66    4.30
  -3  -2   9   39.49    4.18
   3   2  -9   46.87    3.79
   3   2  -9   40.74    3.51
   3   2  -9   50.22    4.31
  -3  -2   9   43.26    4.24
   3   2  -9   49.39    4.45
   3   2  -9   49.99    4.53
   3   2  -8   56.02    4.47
   3   2  -8   57.85    4.82
   3   2  -8   55.23    4.23
   3   2  -8   57.18    5.00
  -3  -2   8   66.79    4.94
  -3  -2   8   56.54    4.21
   3   2  -8   54.76    4.87
  -3  -2   8   68.47    5.53
   3   2  -7  151.99    7.79
  -3  -2   7  157.59    7.71
   3   2  -7  144.34    7.04
  -3  -2   7  148.43    7.08
   3   2  -7  161.13    8.21
   3   2  -7  131.79    6.72
  -3  -2   7  145.44    6.81
   3   2  -7  145.87    7.81
  -3  -2   7  146.65    7.98
   3   2  -6   37.80    3.67
  -3  -2   6   29.14    3.26
   3   2  -6   35.66    3.80
   3   2  -6   33.37    3.63
   3   2  -6   35.82    3.23
  -3  -2   6   29.29    3.52
   3   2  -6   40.43    3.93
  -3  -2   6   23.02    2.52
   3   2  -6   37.45    3.87
  -3  -2   6   27.70    3.23
   3   2  -6   39.74    3.89
  -3  -2   6   28.07    3.35
  -3  -2   5   65.87    4.79
   3   2  -5   73.21    4.84
  -3  -2   5   65.78    4.68
   3   2  -5   71.23    4.94
   3   2  -5   75.66    5.05
  -3  -2   5   72.85    4.87
   3   2  -5   74.34    4.18
   3   2  -5   78.62    5.13
  -3  -2   5   70.21    5.03
  -3  -2   5   71.93    4.43
  -3  -2   5   66.00    4.70
   3   2  -5   70.64    5.05
   3   2  -5   72.78    4.98
  -3  -2   5   73.00    5.07
  -3  -2   5   73.21    5.10
  -3  -2   5   69.50    4.54
  -3  -2   4  626.01   15.06
  -3  -2   4  626.20   15.70
  -3  -2   4  598.06   15.24
   3   2  -4  673.28   15.80
   3   2  -4  628.44   15.20
  -3  -2   4  604.67   15.26
   3   2  -4  621.97   15.27
   3   2  -4  615.90   15.24
   3   2  -4  618.35   12.86
  -3  -2   4  571.79   14.68
  -3  -2   4  584.42   14.42
  -3  -2   4  590.37   15.06
  -3  -2   4  586.12   14.92
   3   2  -4  590.06   15.23
   3   2  -3  110.06    5.39
  -3  -2   3  110.97    5.56
   3   2  -3  108.20    5.50
   3   2  -3   99.36    5.18
   3   2  -3  106.12    5.35
   3   2  -3  115.70    5.83
  -3  -2   3  106.82    5.48
   3   2  -3  117.76    5.69
   3   2  -3  101.14    3.91
  -3  -2   3  113.14    5.66
   3   2  -3  108.53    5.49
  -3  -2   3  107.20    5.39
  -3  -2   2  364.48   10.55
  -3  -2   2  382.64   10.65
  -3  -2   2  339.15    7.39
   3   2  -2  328.67    9.92
   3   2  -2  327.41    9.89
  -3  -2   2  347.49   10.16
  -3  -2   2  347.95    9.98
   3   2  -2  344.44   10.04
   3   2  -2  348.83   10.14
  -3  -2   2  365.04   10.29
  -3  -2   2  356.82   10.25
  -3  -2   1  240.48    7.05
  -3  -2   1  262.20    8.60
   3   2  -1  243.47    7.99
   3   2  -1  266.17    8.62
   3   2  -1  245.17    8.31
   3   2  -1  265.41    8.50
   3   2  -1  251.03    8.40
  -3  -2   1  249.74    8.51
  -3  -2   1  271.26    8.67
   3   2   0  426.78   11.46
  -3  -2   0  425.60   11.54
  -3  -2   0  448.63   11.66
  -3  -2   0  415.19    9.63
   3   2   0  419.19   10.83
   3   2   0  427.30   11.60
   3   2   0  420.65   11.41
   3   2   0  419.96   11.51
   3   2   0  437.58   11.49
  -3  -2   0  445.39   11.78
   3   2   1    4.26    1.17
   3   2   1    4.69    1.36
  -3  -2  -1    3.25    1.19
  -3  -2  -1    2.75    1.08
   3   2   1    5.36    1.25
  -3  -2  -1    2.34    0.72
  -3  -2  -1    1.69    0.98
  -3  -2  -1    1.27    1.01
   3   2   1    4.43    1.24
   3   2   1    5.95    1.39
   3   2   1    4.93    1.34
  -3  -2  -1    1.30    0.95
   3   2   1    5.96    1.36
  -3  -2  -2   78.75    4.78
  -3  -2  -2   64.73    4.26
   3   2   2   71.36    4.65
   3   2   2   70.62    4.45
  -3  -2  -2   80.30    4.96
  -3  -2  -2   78.35    4.80
   3   2   2   64.64    4.18
  -3  -2  -2   82.67    4.77
   3   2   2   65.89    3.86
  -3  -2  -2   79.54    4.70
   3   2   2   75.37    4.59
   3   2   2   71.08    4.28
  -3  -2  -2   81.31    4.86
  -3  -2  -2   77.19    4.84
   3   2   2   64.78    4.25
  -3  -2  -3   40.86    3.63
  -3  -2  -3   44.32    3.92
   3   2   3   40.79    3.61
  -3  -2  -3   46.44    3.67
   3   2   3   35.96    2.93
  -3  -2  -3   36.70    3.44
   3   2   3   42.92    3.85
  -3  -2  -3   42.32    3.63
   3   2   3   47.22    3.62
   3   2   3   39.21    3.48
  -3  -2  -3   43.98    3.78
  -3  -2  -4   16.40    2.56
  -3  -2  -4   13.75    2.40
  -3  -2  -4   13.77    2.39
   3   2   4    7.03    1.90
   3   2   4    8.28    1.82
  -3  -2  -4   13.04    2.12
   3   2   4    8.28    1.54
   3   2   4   13.99    2.45
  -3  -2  -4   11.52    2.23
   3   2   4    9.14    1.87
   3   2   4    8.98    1.90
   3   2   4    7.22    1.64
  -3  -2  -5   31.88    3.55
  -3  -2  -5   32.68    3.59
   3   2   5   25.55    3.00
  -3  -2  -5   30.84    3.21
  -3  -2  -5   30.54    3.60
   3   2   5   27.29    3.36
   3   2   5   21.97    2.81
   3   2   5   24.67    3.11
  -3  -2  -5   28.78    3.43
  -3  -2  -5   30.97    3.51
   3   2   5   21.37    2.85
   3   2   6   79.16    5.14
  -3  -2  -6   66.03    4.57
  -3  -2  -6   69.03    5.36
   3   2   6   83.97    5.37
  -3  -2  -6   63.24    4.70
   3   2   6   82.17    5.78
   3   2   6   83.56    6.14
  -3  -2  -6   71.53    5.26
  -3  -2  -6   73.54    5.36
  -3  -2  -7    4.12    1.57
   3   2   7    6.59    1.61
  -3  -2  -7    3.19    1.59
  -3  -2  -7    3.62    1.63
  -3  -2  -7    3.43    1.46
   3   2   7    7.23    2.13
  -3  -2  -7    3.03    1.51
   3   2   7    6.35    1.66
  -3  -2  -8    8.09    1.88
  -3  -2  -8    8.43    1.88
   3   2   8    5.51    1.66
  -3  -2  -8    7.91    1.99
   3   2   8    4.65    1.40
   3   2   8    3.87    1.25
   3   2   8    5.40    1.61
   3   2   9    1.54    1.00
  -3  -2  -9    0.82    1.01
  -3  -2  -9    0.88    0.95
  -3  -2  -9    0.33    0.87
   3   2   9    1.91    0.81
   3   2   9    2.19    1.10
   3   2   9    1.90    1.00
  -3  -2  -9    1.06    1.02
   3   2  10    2.64    0.79
   3   2  10    4.49    1.08
  -3  -2 -10    2.25    0.83
  -3  -3  11    4.20    0.96
  -3  -3  11    4.71    1.12
   3   3 -11    5.84    1.13
  -3  -3  11    5.02    1.09
  -3  -3  11    5.01    1.11
  -3  -3  10    9.14    1.84
   3   3 -10    7.27    1.61
  -3  -3  10    6.32    1.60
   3   3 -10    4.93    1.17
   3   3 -10    6.53    1.27
   3   3  -9   18.89    2.44
   3   3  -9   20.04    2.88
  -3  -3   9   16.07    2.59
   3   3  -9   21.98    2.85
  -3  -3   9   17.97    2.74
   3   3  -9   21.22    2.61
   3   3  -9   23.53    2.98
  -3  -3   9   15.99    2.63
   3   3  -8   10.34    2.27
   3   3  -8    8.23    2.09
   3   3  -8    8.50    2.12
  -3  -3   8   11.40    2.39
  -3  -3   8   14.29    2.49
  -3  -3   8    9.98    1.98
   3   3  -8    8.20    2.19
   3   3  -8   10.15    2.05
   3   3  -8    8.35    2.19
  -3  -3   8   11.55    2.46
   3   3  -8    7.49    1.77
  -3  -3   8    9.96    1.92
  -3  -3   8   12.54    2.58
   3   3  -7  110.60    6.74
  -3  -3   7   91.32    6.26
  -3  -3   7   87.37    5.42
   3   3  -7   96.07    5.81
  -3  -3   7  100.32    6.38
   3   3  -7   96.10    5.64
  -3  -3   7   89.29    5.80
   3   3  -7  105.15    6.71
   3   3  -7   95.68    5.87
  -3  -3   7  101.20    6.65
  -3  -3   7   98.01    6.56
   3   3  -7   93.31    6.38
  -3  -3   6    2.35    1.23
   3   3  -6    6.65    1.74
  -3  -3   6    3.55    1.64
   3   3  -6    5.12    1.40
   3   3  -6    6.08    1.69
  -3  -3   6    4.53    1.60
   3   3  -6    7.05    1.96
   3   3  -6    5.61    1.57
   3   3  -6    4.62    1.75
  -3  -3   6    2.72    1.37
  -3  -3   6    2.64    1.11
  -3  -3   6    2.95    1.53
  -3  -3   6    3.22    1.31
   3   3  -6    5.59    1.80
   3   3  -6    5.31    1.94
   3   3  -6    5.65    1.67
  -3  -3   6    4.77    1.69
  -3  -3   5   18.46    2.85
  -3  -3   5   16.19    2.45
   3   3  -5   11.21    2.37
  -3  -3   5   16.23    2.48
  -3  -3   5   16.78    2.63
   3   3  -5   15.09    2.40
  -3  -3   5   16.35    2.57
  -3  -3   5   16.45    2.60
   3   3  -5   14.87    2.26
   3   3  -5   12.21    2.03
   3   3  -5   15.27    2.45
  -3  -3   5   15.15    2.58
   3   3  -5   14.40    2.51
   3   3  -5   15.05    2.59
   3   3  -5   14.13    2.17
   3   3  -5   14.02    2.22
  -3  -3   5   17.15    2.73
   3   3  -5   15.11    2.55
  -3  -3   4   20.50    2.70
  -3  -3   4   26.46    3.03
   3   3  -4   16.80    2.35
  -3  -3   4   25.06    3.08
   3   3  -4   20.21    2.76
   3   3  -4   18.68    2.47
   3   3  -4   18.57    2.67
   3   3  -4   18.48    2.73
  -3  -3   4   23.18    2.97
   3   3  -4   22.58    2.91
   3   3  -4   17.37    2.53
  -3  -3   4   21.90    2.89
  -3  -3   4   25.35    3.03
   3   3  -3   44.00    4.03
  -3  -3   3   37.16    3.48
  -3  -3   3   35.32    3.43
   3   3  -3   50.43    3.99
  -3  -3   3   35.22    3.50
   3   3  -3   42.00    3.60
  -3  -3   3   34.06    3.40
   3   3  -3   43.54    3.68
  -3  -3   3   33.31    3.50
   3   3  -3   42.77    3.79
   3   3  -3   47.18    4.02
  -3  -3   3   34.50    3.40
  -3  -3   3   36.72    3.46
   3   3  -3   45.04    3.85
   3   3  -2    1.88    1.16
  -3  -3   2    3.57    1.21
  -3  -3   2    2.82    1.25
   3   3  -2    1.34    0.92
   3   3  -2    2.34    0.96
  -3  -3   2    3.42    1.26
   3   3  -2    2.03    1.11
  -3  -3   2    4.03    1.41
   3   3  -2    2.88    1.30
   3   3  -2    1.85    1.07
  -3  -3   2    2.79    1.08
   3   3  -2    1.98    1.31
  -3  -3   2    3.45    0.81
   3   3  -2    1.52    1.00
   3   3  -2    1.59    1.04
   3   3  -2    1.66    1.00
  -3  -3   2    3.30    1.18
   3   3  -2    1.38    1.06
  -3  -3   2    3.67    1.19
   3   3  -1  265.35    9.16
  -3  -3   1  276.22    9.26
  -3  -3   1  299.05   10.25
  -3  -3   1  304.58   10.30
   3   3  -1  272.93    8.64
   3   3  -1  276.18    9.44
   3   3  -1  275.06    8.71
  -3  -3   1  269.27    8.91
   3   3  -1  284.41    9.78
   3   3  -1  279.58    9.76
  -3  -3   1  298.39    9.75
   3   3  -1  262.31    9.65
  -3  -3   1  318.04   10.00
  -3  -3   1  285.29    8.79
  -3  -3   1  309.65   10.26
   3   3  -1  279.66    9.13
  -3  -3   1  309.95   10.14
   3   3  -1  318.91   10.30
   3   3   0  179.75    7.61
   3   3   0  169.62    6.88
  -3  -3   0  146.42    6.95
  -3  -3   0  144.57    6.69
   3   3   0  175.45    6.91
  -3  -3   0  133.37    6.23
   3   3   0  175.69    7.56
  -3  -3   0  151.47    6.73
  -3  -3   0  145.42    5.96
  -3  -3   0  156.93    7.23
   3   3   0  166.07    6.51
   3   3   0  167.04    7.09
  -3  -3   0  152.09    7.09
  -3  -3   0  142.74    6.58
  -3  -3   0  149.74    6.93
   3   3   1  246.26    8.81
  -3  -3  -1  207.88    7.77
  -3  -3  -1  275.90    9.81
   3   3   1  236.08    9.05
  -3  -3  -1  279.40    9.51
  -3  -3  -1  255.35    8.10
   3   3   1  238.17    7.85
   3   3   1  239.61    8.81
  -3  -3  -1  261.61    9.33
  -3  -3  -1  249.58    9.17
   3   3   1  245.82    8.44
  -3  -3  -1  267.11    9.65
  -3  -3  -2  185.62    7.88
  -3  -3  -2  186.91    8.09
   3   3   2  193.34    8.09
  -3  -3  -2  192.75    8.56
  -3  -3  -2  200.52    8.45
   3   3   2  176.56    7.23
  -3  -3  -2  188.03    6.97
  -3  -3  -2  204.38    8.55
   3   3   2  187.00    6.64
   3   3   2  194.80    7.96
   3   3   2  204.92    7.69
  -3  -3  -2  202.24    8.45
  -3  -3  -2  202.84    8.39
   3   3   2  202.37    8.20
  -3  -3  -2  178.11    7.60
  -3  -3  -3  172.07    8.21
  -3  -3  -3  187.97    8.52
  -3  -3  -3  174.28    8.05
  -3  -3  -3  172.34    8.31
   3   3   3  193.43    8.01
  -3  -3  -3  181.37    8.22
   3   3   3  194.31    8.10
  -3  -3  -3  176.44    8.07
   3   3   3  213.91    8.07
  -3  -3  -3  176.27    8.27
   3   3   3  202.55    8.06
  -3  -3  -3  169.97    7.75
  -3  -3  -4    2.33    1.42
  -3  -3  -4    5.47    1.74
  -3  -3  -4    2.49    1.49
  -3  -3  -4    1.35    1.27
   3   3   4    1.59    1.20
  -3  -3  -4    2.42    1.25
   3   3   4    2.47    1.22
   3   3   4    2.72    1.13
  -3  -3  -4    2.46    1.26
  -3  -3  -4    4.10    1.67
  -3  -3  -5   97.04    6.17
  -3  -3  -5  104.05    6.44
  -3  -3  -5   98.96    6.28
  -3  -3  -5   97.62    6.19
   3   3   5  101.35    6.08
  -3  -3  -5   82.89    5.62
   3   3   5   81.01    5.49
  -3  -3  -5   90.69    5.96
  -3  -3  -5   91.36    6.26
   3   3   5   97.24    5.64
   3   3   6    5.43    1.59
   3   3   6    4.70    1.38
  -3  -3  -6    2.17    1.54
  -3  -3  -6    3.34    1.50
   3   3   6    3.63    1.49
  -3  -3  -6    1.83    1.35
   3   3   6    5.17    1.94
  -3  -3  -6    3.26    1.71
  -3  -3  -7  175.03    7.71
  -3  -3  -7  190.19    7.93
   3   3   7  213.50    9.08
  -3  -3  -7  190.37    8.22
  -3  -3  -7  185.08    8.06
  -3  -3  -7  199.03    8.32
   3   3   7  158.17    7.06
  -3  -3  -7  191.37    8.56
  -3  -3  -8   35.82    3.15
   3   3   8   34.88    3.33
  -3  -3  -8   35.99    3.20
  -3  -3  -8   38.71    3.47
   3   3   8   32.81    3.32
   3   3   8   28.76    2.70
  -3  -3  -8   39.84    3.40
   3   3   8   33.22    3.29
  -3  -3  -9   25.06    2.28
   3   3   9   24.46    2.34
  -3  -3  -9   20.87    2.16
  -3  -3  -9   21.08    2.01
   3   3   9   21.93    2.17
   3   3   9   17.25    1.62
  -3  -3  -9   19.89    2.10
  -3  -3  -9   24.97    2.22
   3   4 -10   47.73    2.77
  -3  -4  10   57.68    3.63
  -3  -4  10   59.76    3.65
   3   4  -9  107.03    5.01
  -3  -4   9  127.59    6.39
  -3  -4   9  130.61    6.43
   3   4  -9  110.11    5.38
   3   4  -9   85.96    4.57
  -3  -4   9   95.99    5.19
  -3  -4   8   17.67    2.55
  -3  -4   8   21.68    2.53
  -3  -4   8   20.42    2.65
   3   4  -8   16.46    2.32
   3   4  -8   18.47    2.45
  -3  -4   8   25.81    3.24
  -3  -4   8   20.49    2.92
   3   4  -8   18.29    2.70
  -3  -4   8   27.79    3.37
  -3  -4   8   27.64    3.34
  -3  -4   7  118.56    6.96
  -3  -4   7  116.98    6.71
   3   4  -7  112.95    6.19
   3   4  -7  114.69    5.96
  -3  -4   7  121.26    7.04
   3   4  -7  125.13    6.97
  -3  -4   7  117.41    7.01
  -3  -4   7   91.98    5.72
   3   4  -7  109.91    5.77
  -3  -4   7  104.28    5.76
  -3  -4   6   39.44    4.09
   3   4  -6   33.62    3.97
  -3  -4   6   38.92    4.16
   3   4  -6   32.42    3.49
   3   4  -6   33.51    3.39
  -3  -4   6   40.39    4.11
   3   4  -6   39.62    4.16
  -3  -4   6   31.65    3.84
  -3  -4   6   26.36    3.22
  -3  -4   6   36.16    3.98
  -3  -4   6   37.07    3.81
   3   4  -6   35.63    3.57
  -3  -4   5    8.13    2.06
   3   4  -5    4.13    1.48
   3   4  -5    4.46    1.37
  -3  -4   5    4.80    1.94
  -3  -4   5    6.57    2.12
   3   4  -5    5.23    1.54
  -3  -4   5    6.28    1.85
  -3  -4   5    5.63    1.98
  -3  -4   5    4.70    1.48
   3   4  -5    3.62    1.52
  -3  -4   5    5.26    1.68
   3   4  -5    4.77    1.56
   3   4  -5    4.19    1.61
  -3  -4   5    6.47    1.78
  -3  -4   4   69.11    5.08
   3   4  -4   56.53    4.55
  -3  -4   4   76.40    5.58
  -3  -4   4   67.79    4.97
   3   4  -4   49.29    4.10
  -3  -4   4   65.71    5.09
  -3  -4   4   70.94    5.46
   3   4  -4   48.75    4.07
   3   4  -4   47.62    3.98
   3   4  -4   58.61    4.78
  -3  -4   4   67.88    5.10
  -3  -4   4   61.87    4.99
   3   4  -4   58.75    4.90
  -3  -4   4   71.15    5.05
  -3  -4   4   61.10    4.54
   3   4  -4   54.55    4.58
   3   4  -4   55.95    4.85
  -3  -4   4   69.25    5.26
  -3  -4   3   20.75    2.73
   3   4  -3   18.70    2.57
   3   4  -3   19.44    2.95
  -3  -4   3   20.07    2.94
   3   4  -3   20.11    3.01
  -3  -4   3   20.81    2.91
   3   4  -3   19.57    2.76
  -3  -4   3   20.80    2.85
  -3  -4   3   23.80    3.26
   3   4  -3   21.64    3.00
  -3  -4   3   22.83    2.90
  -3  -4   3   21.30    2.89
   3   4  -2   37.70    3.76
  -3  -4   2   34.13    3.79
  -3  -4   2   33.41    3.46
  -3  -4   2   32.83    3.70
   3   4  -2   35.33    3.87
   3   4  -2   35.80    3.72
   3   4  -2   35.13    3.56
  -3  -4   2   36.74    3.64
   3   4  -1  163.51    7.75
  -3  -4   1  135.48    7.32
   3   4  -1  145.77    7.29
   3   4  -1  138.09    6.18
  -3  -4   1  126.18    6.71
   3   4  -1  157.19    7.93
  -3  -4   1  127.68    6.34
  -3  -4   1  137.62    6.55
  -3  -4   1  136.89    7.16
   3   4  -1  152.57    7.32
  -3  -4   1  130.15    7.14
   3   4  -1  143.40    6.91
  -3  -4   1  136.05    6.99
  -3  -4   0  266.91   10.36
   3   4   0  252.44   10.03
   3   4   0  258.48    9.10
  -3  -4   0  245.98    9.20
   3   4   0  273.50   10.51
  -3  -4   0  262.82    9.38
  -3  -4   0  246.24    8.93
  -3  -4   0  267.65   10.38
   3   4   0  261.02    9.76
   3   4   0  285.01   10.39
   3   4   0  257.22    8.83
  -3  -4   0  262.59   10.33
   3   4   0  251.55    8.90
  -3  -4   0  266.73   10.10
  -3  -4  -1  136.01    7.28
  -3  -4  -1  127.66    6.46
   3   4   1  114.61    6.75
  -3  -4  -1  125.03    6.16
  -3  -4  -1  130.58    7.20
  -3  -4  -1  126.46    6.94
  -3  -4  -1  121.66    6.61
   3   4   1  114.02    6.76
   3   4   1  115.07    6.34
  -3  -4  -1  128.67    6.98
   3   4   1  115.96    6.60
  -3  -4  -1  122.36    6.92
   3   4   1  109.65    5.55
  -3  -4  -2   55.94    4.92
  -3  -4  -2   50.70    4.53
  -3  -4  -2   45.31    3.99
   3   4   2   47.94    4.35
  -3  -4  -2   43.67    3.70
  -3  -4  -2   47.79    4.33
  -3  -4  -2   39.19    3.87
   3   4   2   42.60    3.91
   3   4   2   44.35    4.21
  -3  -4  -2   46.91    4.34
   3   4   2   40.52    3.44
  -3  -4  -2   52.62    4.58
   3   4   3  132.27    7.31
  -3  -4  -3  124.13    7.06
  -3  -4  -3  127.61    7.42
  -3  -4  -3  126.13    7.06
   3   4   3  146.07    7.54
  -3  -4  -3  120.23    7.12
  -3  -4  -3  134.95    7.49
   3   4   3  135.92    6.82
  -3  -4  -3  109.69    6.66
   3   4   3  140.00    6.98
  -3  -4  -4  288.18   11.17
  -3  -4  -4  296.18   11.40
   3   4   4  305.05   11.22
  -3  -4  -4  261.54   10.74
  -3  -4  -4  287.39   11.21
   3   4   4  271.39    9.68
   3   4   4  300.64   11.14
  -3  -4  -4  303.64   11.44
   3   4   5   10.12    2.18
  -3  -4  -5   13.12    2.55
   3   4   5    8.76    2.04
   3   4   5    6.69    1.53
  -3  -4  -5   11.76    2.30
  -3  -4  -5   12.96    2.54
  -3  -4  -5   10.79    2.16
  -3  -4  -5   11.12    2.40
  -3  -4  -5   10.76    2.20
  -3  -4  -6   14.97    2.46
  -3  -4  -6   13.14    2.44
  -3  -4  -6   15.26    2.52
   3   4   6   12.12    2.07
  -3  -4  -6   12.68    2.14
   3   4   6   19.05    3.03
   3   4   6   16.83    2.49
  -3  -4  -7   10.72    1.98
  -3  -4  -7    9.74    1.78
   3   4   7   11.83    1.94
  -3  -4  -7    9.99    1.92
  -3  -4  -7   11.30    1.94
  -3  -4  -7    9.30    1.77
   3   4   7   14.48    2.36
  -3  -4  -8    8.16    1.45
  -3  -4  -8    7.97    1.41
   3   4   8    6.99    1.28
  -3  -4  -8    5.89    1.20
  -3  -4  -8   10.57    1.51
   3   4   8    9.95    1.64
  -3  -5  10   11.28    1.24
  -3  -5   9   30.91    2.70
   3   5  -9   29.19    2.49
  -3  -5   9   33.00    2.79
  -3  -5   8   17.11    2.39
   3   5  -8   20.63    2.61
   3   5  -8   22.97    2.62
  -3  -5   8   15.40    2.31
   3   5  -8   15.76    1.99
  -3  -5   8   14.84    2.14
  -3  -5   7   36.81    3.69
   3   5  -7   30.61    3.00
  -3  -5   7   33.50    3.49
  -3  -5   7   37.76    3.83
  -3  -5   7   35.19    3.63
  -3  -5   7   36.06    3.59
   3   5  -7   39.42    3.83
   3   5  -7   37.69    3.58
   3   5  -6   75.53    5.19
  -3  -5   6   78.75    5.63
  -3  -5   6   74.16    5.36
  -3  -5   6   72.46    5.46
   3   5  -6   59.59    4.43
  -3  -5   6   77.03    5.63
  -3  -5   6   77.13    5.34
   3   5  -6   54.22    3.98
  -3  -5   6   73.26    5.22
  -3  -5   6   69.32    5.03
  -3  -5   5  237.48   10.03
  -3  -5   5  212.94    9.58
   3   5  -5  237.63    9.55
  -3  -5   5  228.92    9.74
   3   5  -5  232.77    8.95
   3   5  -5  211.51    8.56
  -3  -5   5  217.00    9.69
  -3  -5   5  215.13    8.94
   3   5  -4   20.37    2.89
   3   5  -4   20.81    2.66
  -3  -5   4   24.20    3.34
  -3  -5   4   17.44    2.95
  -3  -5   4   20.74    3.03
   3   5  -4   18.49    2.68
  -3  -5   4   19.06    3.20
  -3  -5   4   20.00    2.67
  -3  -5   4   22.82    3.20
  -3  -5   4   23.78    3.46
   3   5  -4   20.90    2.78
   3   5  -4   18.63    3.06
   3   5  -4   18.91    2.96
   3   5  -4   25.95    3.43
  -3  -5   3   63.99    4.72
  -3  -5   3   69.44    5.47
   3   5  -3   81.41    5.92
  -3  -5   3   59.76    4.42
   3   5  -3   72.15    5.05
   3   5  -3   71.89    5.10
  -3  -5   3   59.25    5.26
  -3  -5   3   71.19    5.22
  -3  -5   3   68.24    5.03
   3   5  -3   80.43    5.85
   3   5  -2    2.24    1.28
  -3  -5   2    3.95    1.72
   3   5  -2    1.76    1.48
  -3  -5   2    3.53    1.37
  -3  -5   2    3.03    1.43
   3   5  -2    2.02    1.31
  -3  -5   2    4.07    1.81
  -3  -5   2    3.26    1.33
  -3  -5   2    3.93    1.40
   3   5  -1   15.25    2.65
   3   5  -1   18.15    2.89
  -3  -5   1   14.41    2.70
  -3  -5   1   16.55    2.75
  -3  -5   1   17.02    2.66
  -3  -5   1   12.91    2.63
  -3  -5   1   17.49    2.80
  -3  -5   0  126.78    7.32
  -3  -5   0  103.26    6.06
   3   5   0  128.06    7.44
  -3  -5   0   91.90    5.75
  -3  -5   0   99.82    6.57
  -3  -5   0  111.55    6.52
   3   5   0  115.17    6.78
  -3  -5   0  100.86    6.68
   3   5   0  112.58    6.85
  -3  -5   0  113.15    6.90
  -3  -5  -1   10.58    2.18
  -3  -5  -1   10.19    2.34
   3   5   1   11.32    2.46
  -3  -5  -1   10.31    2.31
   3   5   1   10.84    2.45
  -3  -5  -1    8.25    2.18
   3   5   1    7.85    1.94
  -3  -5  -1    9.08    2.15
   3   5   1   10.11    2.11
  -3  -5  -2    9.43    2.17
  -3  -5  -2   12.44    2.36
  -3  -5  -2   17.92    2.81
   3   5   2   13.74    2.39
  -3  -5  -2   13.67    2.57
  -3  -5  -2   15.20    2.84
   3   5   2   12.91    2.53
  -3  -5  -2    9.48    2.28
   3   5   2   11.16    2.36
   3   5   2   14.65    2.42
   3   5   2   14.34    2.58
  -3  -5  -3  478.52   15.09
  -3  -5  -3  456.09   14.03
   3   5   3  496.99   14.90
   3   5   3  437.25   12.56
  -3  -5  -3  446.62   13.77
   3   5   3  487.55   14.75
  -3  -5  -3  475.93   14.85
   3   5   3  436.26   13.78
  -3  -5  -3  474.82   14.50
   3   5   4  185.77    8.42
  -3  -5  -4  176.22    8.02
  -3  -5  -4  170.42    8.20
  -3  -5  -4  174.34    8.33
   3   5   4  160.74    7.71
   3   5   4  163.88    8.02
  -3  -5  -4  172.83    8.07
   3   5   4  177.50    8.09
  -3  -5  -4  175.68    8.22
  -3  -5  -5   72.62    4.85
  -3  -5  -5   75.63    5.11
   3   5   5   75.97    4.81
   3   5   5   88.60    5.42
  -3  -5  -5   76.41    4.91
  -3  -5  -5   78.31    5.15
   3   5   5   80.02    5.35
  -3  -5  -5   76.79    4.95
  -3  -5  -6   38.14    3.19
   3   5   6   53.83    4.03
  -3  -5  -6   47.21    3.44
   3   5   6   56.45    3.97
  -3  -5  -6   50.25    3.81
  -3  -5  -6   46.63    3.58
  -3  -5  -6   45.73    3.33
  -3  -5  -7    9.86    1.43
  -3  -5  -7   11.66    1.60
   3   5   7   10.98    1.60
  -3  -5  -7   10.16    1.58
   3   5   7   13.80    1.78
   3   5   7   12.33    1.78
  -3  -5  -7    9.15    1.24
  -3  -6   8    9.67    1.45
   3   6  -8   11.44    1.64
   3   6  -7   31.94    2.73
  -3  -6   7   36.11    3.24
  -3  -6   7   35.01    3.07
   3   6  -6    2.97    1.40
   3   6  -6    3.78    1.24
  -3  -6   6    7.04    1.70
  -3  -6   6    6.84    1.64
  -3  -6   6    5.71    1.42
  -3  -6   5   72.96    5.30
   3   6  -5   61.77    4.34
  -3  -6   5   71.21    4.89
  -3  -6   5   66.87    5.04
   3   6  -5   67.84    4.78
  -3  -6   5   81.75    5.41
   3   6  -5   59.15    4.13
  -3  -6   5   65.63    4.84
  -3  -6   5   70.21    4.61
   3   6  -5   52.41    4.01
   3   6  -4  128.10    6.53
   3   6  -4  120.65    6.02
  -3  -6   4  148.66    7.55
   3   6  -4  104.57    5.53
  -3  -6   4  149.14    7.70
  -3  -6   4  139.70    7.05
   3   6  -3   13.26    2.31
   3   6  -3   14.60    2.38
   3   6  -3   14.08    2.19
  -3  -6   3   20.75    3.05
  -3  -6   3   18.95    3.14
  -3  -6   3   22.48    3.25
  -3  -6   3   21.87    2.96
   3   6  -2   18.48    2.42
   3   6  -2   16.86    2.64
   3   6  -2   15.49    2.19
  -3  -6   2   17.82    2.82
  -3  -6   2   16.51    2.43
  -3  -6   2   17.80    3.05
  -3  -6   1   15.20    2.73
  -3  -6   1   12.19    2.28
  -3  -6   1   11.34    2.09
  -3  -6   1   14.15    2.65
   3   6  -1   10.14    2.26
   3   6   0    3.37    1.49
  -3  -6   0    7.44    2.03
  -3  -6   0    3.34    1.33
   3   6   0    3.75    1.68
  -3  -6   0    5.00    1.81
   3   6   1   12.93    2.37
  -3  -6  -1   13.78    2.44
   3   6   1   11.94    2.43
  -3  -6  -1   13.13    2.53
  -3  -6  -1   16.32    2.89
  -3  -6  -1   14.72    2.31
  -3  -6  -2   50.58    3.95
  -3  -6  -2   58.25    4.71
  -3  -6  -2   49.91    4.30
  -3  -6  -2   56.53    4.82
   3   6   3   17.72    2.56
  -3  -6  -3   15.60    2.18
   3   6   3   15.79    2.18
   3   6   3   11.27    1.96
  -3  -6  -3   21.96    2.84
  -3  -6  -3   16.90    2.66
  -3  -6  -3   17.18    2.71
   3   6   4   51.38    3.77
  -3  -6  -4   46.92    3.63
  -3  -6  -4   54.19    4.12
  -3  -6  -4   53.13    4.03
  -3  -6  -4   41.14    3.12
   3   6   4   40.74    3.44
  -3  -6  -5   44.94    3.29
  -3  -6  -5   42.70    3.24
  -3  -6  -6   42.60    2.52
  -3  -6  -6   42.81    2.72
  -3  -6  -6   37.68    2.44
  -3  -6  -6   41.31    2.68
   3   7  -7   17.58    1.50
  -3  -7   7   21.29    1.63
   3   7  -6    8.24    1.38
  -3  -7   6    7.91    1.42
  -3  -7   6    8.58    1.36
  -3  -7   6   10.77    1.78
   3   7  -5   18.21    2.02
  -3  -7   5   23.30    2.37
  -3  -7   5   27.18    2.84
   3   7  -5   25.19    2.34
  -3  -7   5   24.55    2.59
   3   7  -5   19.38    2.07
  -3  -7   5   25.39    2.76
  -3  -7   5   23.46    2.57
   3   7  -4   37.67    3.15
  -3  -7   4   40.26    3.25
  -3  -7   4   44.85    3.65
   3   7  -4   36.48    3.08
  -3  -7   4   41.84    3.64
  -3  -7   4   36.04    3.40
   3   7  -3   30.34    3.17
  -3  -7   3   22.56    2.59
  -3  -7   3   25.26    3.09
   3   7  -3   24.81    2.57
  -3  -7   3   25.23    2.98
   3   7  -3   27.76    3.05
  -3  -7   3   21.49    2.69
  -3  -7   3   24.10    2.79
  -3  -7   2   74.68    4.67
  -3  -7   2   83.29    5.24
  -3  -7   2   94.29    5.68
   3   7  -2   80.82    4.53
  -3  -7   2   94.91    5.25
  -3  -7   2   88.21    5.53
   3   7  -2   77.36    4.73
   3   7  -2  101.25    5.72
   3   7  -2  101.63    5.72
  -3  -7   1    6.36    1.52
  -3  -7   1    5.54    1.71
  -3  -7   1    6.19    1.78
   3   7  -1    4.00    1.26
   3   7  -1    2.45    1.26
  -3  -7   1    4.02    1.43
   3   7   0    7.22    1.73
  -3  -7   0    8.75    1.83
  -3  -7   0    7.81    1.76
   3   7   0    8.46    1.97
   3   7   0    7.74    1.89
   3   7   0    7.25    1.61
   3   7   1   -0.45    1.06
   3   7   1    0.45    0.85
   3   7   1    0.10    1.04
  -3  -7  -1    1.21    1.02
  -3  -7  -1    0.11    0.99
  -3  -7  -1    0.10    1.07
   3   7   1    0.08    0.68
   3   7   1    0.09    1.02
   3   7   2   76.72    4.37
  -3  -7  -2   79.56    4.77
  -3  -7  -2   67.15    4.15
   3   7   2   69.07    3.91
   3   7   3    4.20    1.15
  -3  -7  -3    4.81    1.13
  -3  -7  -3    3.86    1.14
   3   7   3    2.82    1.00
  -3  -7  -3    3.11    1.15
  -3  -7  -3    4.95    1.29
   3   7   4   11.53    1.30
  -3  -7  -4   12.84    1.61
   3   7   4    7.72    1.24
  -3  -8   4    7.14    1.26
  -3  -8   4    8.85    1.29
   3   8  -4    7.16    1.02
   3   8  -3    1.55    0.84
  -3  -8   3    1.92    0.59
  -3  -8   3    3.69    1.07
  -3  -8   3    3.26    1.05
  -3  -8   3    3.74    1.00
   3   8  -3    2.36    0.91
   3   8  -2   12.12    1.62
  -3  -8   2   10.23    1.28
  -3  -8   2   12.32    1.62
  -3  -8   2   13.35    1.78
  -3  -8   2   13.02    1.72
  -3  -8   2   15.00    1.79
   3   8  -2   13.92    1.76
   3   8  -1   13.82    1.64
  -3  -8   1   14.67    1.82
  -3  -8   1   13.66    1.71
  -3  -8   1   12.45    1.61
  -3  -8   1   12.57    1.41
  -3  -8   0   11.61    1.44
  -3  -8   0    8.49    1.10
  -3  -8   0    9.02    1.33
   3   8   0   10.77    1.45
   3   8   0    9.75    1.40
  -3  -8   0   14.05    1.63
   3   8   0    9.43    1.43
  -3  -8  -1   14.28    1.49
  -3  -8  -1   17.23    1.76
   3   8   1   13.13    1.32
  -3  -8  -1   16.23    1.56
  -4  11   0    4.79    0.87
  -4  11  -1    8.19    1.04
  -4  10   4   42.26    2.33
  -4  10   3    2.01    0.79
  -4  10   3    2.28    0.90
  -4  10   2   15.47    1.90
  -4  10   2   19.69    2.29
  -4  10   1   17.13    2.32
  -4  10   1   16.63    2.19
  -4  10   0   16.77    2.28
  -4  10  -1   33.14    3.11
  -4  10  -1   33.78    3.07
  -4  10  -2    1.04    0.91
  -4  10  -2    0.78    0.87
  -4  10  -3    1.83    0.75
  -4  10  -4    5.39    1.09
  -4  10  -5    2.78    0.73
  -4   9   6   17.35    1.81
  -4   9   5   42.35    2.90
  -4   9   5   45.78    3.31
  -4   9   4   47.08    3.86
  -4   9   4   42.36    3.55
  -4   9   4   47.47    3.86
  -4   9   4   44.27    3.29
  -4   9   4   44.96    3.57
  -4   9   4   45.24    3.51
  -4   9   3   23.08    2.92
  -4   9   3   18.72    2.47
  -4   9   3   20.68    2.84
  -4   9   3   19.31    2.46
  -4   9   3   18.45    2.41
  -4   9   3   20.18    2.70
  -4   9   2   17.12    2.69
  -4   9   2   15.83    2.37
  -4   9   2   15.14    2.19
  -4   9   2   15.16    2.42
  -4   9   1   36.49    3.79
  -4   9   1   33.71    3.36
  -4   9   1   33.09    3.30
  -4   9   1   33.23    3.66
  -4   9   1   36.74    3.87
  -4   9   0   76.75    5.10
  -4   9   0   80.35    5.21
  -4   9   0   92.01    6.00
  -4   9  -1    9.78    2.21
  -4   9  -1   10.25    2.01
  -4   9  -1   10.88    2.05
  -4   9  -1    9.81    2.00
  -4   9  -1   14.88    2.56
  -4   9  -2  136.05    6.83
  -4   9  -2  136.21    6.76
  -4   9  -2  119.14    6.47
  -4   9  -2  132.63    6.71
  -4   9  -2  136.20    7.06
  -4   9  -3   22.90    2.87
  -4   9  -3   29.63    3.16
  -4   9  -3   22.23    2.58
  -4   9  -3   20.51    2.47
  -4   9  -4   62.43    4.41
  -4   9  -4   51.75    3.76
  -4   9  -4   57.13    4.27
   4  -9   5   45.21    3.26
  -4   9  -5   40.72    3.19
  -4   9  -5   51.09    3.76
  -4   9  -6   44.84    3.02
   4  -9   6   37.97    2.70
   4  -9   7   30.13    2.32
  -4   8   8    6.06    0.95
  -4   8   8    6.79    1.03
  -4   8   7   41.60    3.12
  -4   8   7   38.15    3.07
  -4   8   7   38.84    2.81
  -4   8   7   38.08    2.93
  -4   8   6    8.49    1.74
  -4   8   6    8.95    1.81
  -4   8   6    8.11    1.74
  -4   8   5   12.49    2.37
  -4   8   5   15.20    2.48
  -4   8   5   16.48    2.61
  -4   8   5   15.93    2.53
  -4   8   5   13.28    2.26
  -4   8   4   23.18    3.13
  -4   8   4   23.42    3.22
  -4   8   4   24.69    3.24
  -4   8   4   27.29    3.20
  -4   8   4   24.55    3.15
  -4   8   3   45.17    4.15
  -4   8   3   38.35    3.64
  -4   8   3   44.63    4.06
  -4   8   3   37.68    3.95
  -4   8   3   45.96    4.47
  -4   8   3   39.24    4.22
  -4   8   3   41.72    4.24
  -4   8   3   40.37    3.95
  -4   8   3   45.68    4.15
  -4   8   2  131.18    7.48
  -4   8   2  128.97    6.79
  -4   8   2  141.10    7.46
  -4   8   2  143.20    8.01
  -4   8   2  122.32    6.79
  -4   8   2  136.65    7.58
  -4   8   2  123.64    6.83
  -4   8   1    8.74    2.25
  -4   8   1    9.41    2.34
  -4   8   1    7.97    2.00
  -4   8   1    8.30    1.91
  -4   8   1    7.92    1.90
  -4   8   1    8.96    2.23
  -4   8   1    7.78    2.11
  -4   8   1    7.89    1.81
  -4   8   1    9.58    2.32
  -4   8   1    6.76    1.95
   4  -8   0  109.40    6.97
  -4   8   0  144.19    8.18
  -4   8   0  136.53    7.30
  -4   8   0  140.48    6.87
  -4   8   0  140.30    7.93
  -4   8   0  136.20    7.61
  -4   8   0  139.64    7.81
  -4   8   0  123.82    6.79
  -4   8   0  134.53    7.00
  -4   8   0  129.45    7.57
  -4   8   0  134.70    7.56
  -4   8   0  148.18    8.20
   4  -8   1    1.72    1.21
  -4   8  -1    5.01    1.90
  -4   8  -1    4.35    1.27
  -4   8  -1    5.33    1.80
  -4   8  -1    4.14    1.69
  -4   8  -1    5.21    1.74
  -4   8  -1    3.84    1.53
  -4   8  -1    5.61    1.75
  -4   8  -1    3.81    1.47
  -4   8  -1    3.67    1.70
  -4   8  -2   78.52    5.65
  -4   8  -2   80.88    5.80
  -4   8  -2   80.66    5.60
  -4   8  -2   84.25    6.10
  -4   8  -2   75.12    4.99
  -4   8  -2   81.13    5.70
   4  -8   2   90.06    6.53
  -4   8  -3  390.90   13.19
  -4   8  -3  372.45   11.84
  -4   8  -3  396.49   12.90
  -4   8  -3  408.03   13.39
  -4   8  -3  367.82   12.00
  -4   8  -4   13.81    2.27
  -4   8  -4   12.87    2.59
  -4   8  -4   11.91    2.21
  -4   8  -5   78.28    5.20
  -4   8  -5   62.90    4.69
  -4   8  -6   41.27    3.73
  -4   8  -6   37.01    3.40
   4  -8   6   40.60    3.52
   4  -8   6   36.76    3.05
  -4   8  -7   33.16    2.99
   4  -8   7   36.87    3.14
   4  -8   7   33.62    2.89
   4  -8   7   29.18    2.44
  -4   8  -7   27.94    2.72
  -4   8  -8    1.11    0.70
   4  -8   8    3.07    0.93
   4  -8   8    2.79    0.94
  -4   8  -8    0.70    0.59
  -4   7   9   10.94    1.35
  -4   7   8    3.41    1.01
  -4   7   8    3.55    1.19
  -4   7   8    2.02    0.85
  -4   7   8    3.17    1.14
  -4   7   7   31.84    3.39
  -4   7   7   28.00    3.02
  -4   7   7   29.48    3.14
  -4   7   7   27.86    2.76
  -4   7   7   30.91    3.17
  -4   7   6  142.64    7.59
  -4   7   6  139.61    7.38
  -4   7   6  138.85    7.36
  -4   7   6  136.85    6.98
  -4   7   6  129.75    6.99
  -4   7   5  514.49   15.85
  -4   7   5  531.36   15.96
  -4   7   5  510.63   15.46
  -4   7   5  509.81   15.14
  -4   7   4  354.27   12.94
  -4   7   4  368.96   13.32
  -4   7   4  346.83   12.82
  -4   7   4  349.76   12.82
  -4   7   4  349.29   11.73
  -4   7   4  366.85   12.67
  -4   7   4  352.54   11.65
  -4   7   4  373.76   12.82
  -4   7   4  354.21   12.27
  -4   7   3   27.78    3.63
  -4   7   3   26.45    3.46
  -4   7   3   25.60    3.50
  -4   7   3   26.62    3.51
  -4   7   3   25.35    3.15
  -4   7   3   25.34    3.42
  -4   7   3   21.39    3.03
  -4   7   3   21.61    3.12
  -4   7   3   18.43    2.86
  -4   7   2   51.02    4.59
  -4   7   2   52.22    4.68
  -4   7   2   54.10    4.40
  -4   7   2   49.77    4.62
  -4   7   2   47.42    4.00
  -4   7   2   54.44    4.76
   4  -7  -1   15.92    2.57
  -4   7   1   21.98    3.18
  -4   7   1   19.10    2.67
  -4   7   1   20.88    3.09
  -4   7   1   20.05    2.92
  -4   7   1   17.67    2.78
  -4   7   1   17.02    2.49
  -4   7   1   18.84    3.01
  -4   7   1   21.47    3.17
  -4   7   1   23.35    3.30
  -4   7   1   20.00    3.11
  -4   7   1   21.18    2.74
  -4   7   1   23.42    2.91
   4  -7   0  112.04    6.88
  -4   7   0  103.13    6.50
  -4   7   0  104.32    6.50
  -4   7   0  108.51    6.56
  -4   7   0  110.39    6.45
  -4   7   0  110.80    6.88
  -4   7   0  114.63    7.01
  -4   7   0  100.46    6.55
  -4   7   0   99.52    6.73
  -4   7   0   97.05    5.77
  -4   7   0  109.42    6.35
   4  -7   1    3.08    1.47
  -4   7  -1    4.93    1.56
  -4   7  -1    3.73    1.60
  -4   7  -1    3.01    1.44
  -4   7  -1    3.25    1.59
  -4   7  -1    3.82    1.40
  -4   7  -1    3.69    1.75
  -4   7  -1    4.14    1.61
  -4   7  -1    3.81    1.26
  -4   7  -1    2.52    1.02
  -4   7  -1    5.01    1.74
  -4   7  -1    3.50    1.37
  -4   7  -2   47.97    3.97
   4  -7   2   45.16    4.60
  -4   7  -2   49.35    4.06
  -4   7  -2   53.35    4.50
  -4   7  -2   49.75    4.60
  -4   7  -2   53.00    4.32
  -4   7  -2   53.52    4.74
  -4   7  -2   48.68    4.28
  -4   7  -2   47.70    4.00
  -4   7  -2   53.25    4.83
  -4   7  -2   51.56    4.46
  -4   7  -3  477.38   14.89
   4  -7   3  485.64   15.98
  -4   7  -3  435.06   14.24
  -4   7  -3  458.35   13.97
  -4   7  -3  507.14   15.20
  -4   7  -3  488.26   15.08
  -4   7  -3  434.31   12.99
  -4   7  -3  481.84   14.55
  -4   7  -3  455.58   14.35
  -4   7  -3  462.74   13.41
  -4   7  -4  310.95   11.79
  -4   7  -4  303.64   10.71
  -4   7  -4  287.85   10.89
  -4   7  -4  310.12   11.04
  -4   7  -4  277.95   11.37
  -4   7  -4  311.87   11.62
   4  -7   4  269.42   10.73
  -4   7  -5  149.18    7.89
  -4   7  -5  134.83    7.24
  -4   7  -6   43.22    4.18
   4  -7   6   39.26    3.63
   4  -7   6   40.29    3.46
   4  -7   7   46.60    3.38
  -4   7  -7   58.82    4.42
   4  -7   7   59.44    4.29
   4  -7   7   52.80    3.87
   4  -7   7   53.80    4.13
   4  -7   8    8.10    1.71
  -4   7  -8    4.44    1.21
   4  -7   8    6.75    1.45
   4  -7   8    7.19    1.66
   4  -7   8    7.14    1.52
  -4   7  -8    3.51    1.23
   4  -7   8    5.63    1.26
   4  -7   9    4.61    0.99
  -4   7  -9    4.61    0.83
   4  -7   9    4.51    1.06
   4  -7   9    5.50    1.05
   4  -7   9    5.83    1.19
  -4   7  -9    6.51    1.16
  -4   6  10    4.96    0.89
  -4   6   9   40.30    3.13
  -4   6   9   36.35    2.80
  -4   6   9   31.62    2.51
   4  -6  -9   33.40    2.39
  -4   6   8   31.44    3.30
  -4   6   8   27.56    3.00
  -4   6   8   30.33    3.21
  -4   6   7  198.18    9.00
  -4   6   7  191.43    8.80
  -4   6   7  191.54    8.01
  -4   6   7  192.30    8.78
  -4   6   6  126.99    7.49
  -4   6   6  112.99    6.71
  -4   6   6  112.75    6.75
   4  -6  -5  152.50    8.19
  -4   6   5  132.08    6.41
   4  -6  -5  158.98    8.17
  -4   6   5  143.53    7.61
  -4   6   5  147.32    7.97
  -4   6   5  147.87    8.17
   4  -6  -4   25.45    3.38
  -4   6   4   23.69    3.30
  -4   6   4   20.54    3.10
  -4   6   4   16.29    2.85
  -4   6   4   18.13    2.88
  -4   6   4   18.97    2.84
  -4   6   4   20.97    3.18
  -4   6   4   20.05    3.00
  -4   6   4   16.27    2.53
   4  -6  -3   35.35    3.49
  -4   6   3   35.86    3.97
  -4   6   3   34.69    3.73
  -4   6   3   32.67    3.76
  -4   6   3   34.30    3.63
  -4   6   3   28.61    3.48
  -4   6   3   28.54    3.17
  -4   6   3   33.55    3.76
  -4   6   3   33.35    3.75
  -4   6   3   28.49    3.45
   4  -6  -2   73.04    4.68
  -4   6   2   63.13    5.00
  -4   6   2   53.86    4.57
  -4   6   2   61.61    4.91
  -4   6   2   63.13    4.44
  -4   6   2   60.99    4.94
  -4   6   2   60.07    4.89
  -4   6   2   60.51    4.78
  -4   6   2   57.52    4.91
   4  -6  -1    6.30    1.59
  -4   6   1   11.02    2.28
  -4   6   1    8.54    1.97
  -4   6   1    7.34    1.80
  -4   6   1   10.74    2.15
  -4   6   1    7.63    1.63
  -4   6   1    9.28    1.99
  -4   6   1    8.73    2.00
  -4   6   1   10.15    2.16
  -4   6   1    9.39    2.05
  -4   6   1   11.27    2.30
  -4   6   1    9.29    1.87
  -4   6   1    9.65    1.73
  -4   6   1    8.31    1.62
  -4   6   1    8.93    1.86
  -4   6   0   31.52    3.03
  -4   6   0   32.86    3.10
  -4   6   0   29.34    3.06
  -4   6   0   31.86    3.40
   4  -6   0   40.27    3.86
  -4   6   0   32.73    2.92
  -4   6   0   33.26    3.74
  -4   6   0   29.11    2.97
  -4   6   0   30.40    3.43
  -4   6   0   30.65    3.52
  -4   6   0   32.18    3.57
  -4   6   0   28.74    2.86
  -4   6   0   32.09    3.56
  -4   6   0   32.87    3.58
  -4   6   0   32.44    3.43
  -4   6   0   34.15    3.47
  -4   6  -1   49.22    3.90
  -4   6  -1   55.59    4.83
  -4   6  -1   59.73    4.56
  -4   6  -1   51.40    3.94
  -4   6  -1   51.32    4.16
  -4   6  -1   51.51    4.37
  -4   6  -1   54.13    4.32
  -4   6  -1   48.00    3.96
   4  -6   1   69.36    5.26
   4  -6   1   55.22    3.70
  -4   6  -1   58.46    4.67
  -4   6  -1   52.08    4.36
  -4   6  -1   54.11    4.60
  -4   6  -1   48.27    4.06
  -4   6  -2   23.66    3.03
  -4   6  -2   26.34    3.24
  -4   6  -2   25.17    3.15
  -4   6  -2   24.35    2.73
   4  -6   2   32.35    3.75
  -4   6  -2   23.23    3.14
  -4   6  -2   23.43    3.11
  -4   6  -2   24.44    3.16
  -4   6  -2   24.96    3.00
  -4   6  -2   18.43    2.79
   4  -6   2   21.50    2.61
  -4   6  -2   25.42    3.04
  -4   6  -2   21.44    3.11
  -4   6  -3  207.36    9.17
  -4   6  -3  204.33    9.22
  -4   6  -3  197.14    9.11
  -4   6  -3  195.97    8.94
   4  -6   3  186.21    9.27
   4  -6   3  175.85    8.51
  -4   6  -3  166.90    7.21
  -4   6  -3  200.38    9.07
  -4   6  -3  192.33    8.77
  -4   6  -3  188.55    8.44
  -4   6  -3  193.09    8.55
  -4   6  -3  184.85    8.70
  -4   6  -3  194.29    8.93
   4  -6   3  164.16    7.79
   4  -6   4   81.49    5.73
  -4   6  -4  113.76    6.85
  -4   6  -4   91.16    5.96
  -4   6  -4  104.32    6.10
  -4   6  -4  104.57    5.80
  -4   6  -4  111.70    6.67
   4  -6   4   91.26    6.41
  -4   6  -4  110.08    6.28
  -4   6  -4   95.09    6.44
  -4   6  -4  114.88    7.09
  -4   6  -5   34.90    3.98
  -4   6  -5   32.66    3.59
  -4   6  -5   37.37    4.13
  -4   6  -5   34.00    3.75
   4  -6   5   25.77    3.66
   4  -6   5   30.90    3.96
  -4   6  -5   33.40    3.83
  -4   6  -5   25.60    3.15
  -4   6  -5   31.50    3.48
   4  -6   5   28.15    3.55
  -4   6  -5   29.64    3.81
  -4   6  -6   43.31    3.97
   4  -6   6   38.86    3.90
  -4   6  -6   40.48    4.04
  -4   6  -6   58.27    5.16
  -4   6  -6   48.94    4.50
  -4   6  -6   30.51    3.26
  -4   6  -6   52.38    4.65
  -4   6  -6   57.05    5.02
  -4   6  -7   92.07    5.72
  -4   6  -7   83.93    5.57
  -4   6  -7  100.88    6.40
   4  -6   7   94.44    5.66
   4  -6   7   90.81    4.88
  -4   6  -7   86.92    5.36
  -4   6  -7   94.61    6.01
  -4   6  -8  166.77    7.08
   4  -6   8  146.85    7.00
   4  -6   8  150.60    7.03
   4  -6   8  130.30    5.43
  -4   6  -8  155.54    6.55
  -4   6  -8  131.98    6.04
   4  -6   8  143.43    6.84
   4  -6   8  149.14    6.90
   4  -6   8  133.08    6.13
  -4   6  -8  159.14    7.29
   4  -6   9   23.28    1.88
  -4   6  -9   32.77    2.59
   4  -6   9   33.11    2.81
   4  -6   9   34.44    2.92
   4  -6   9   32.60    2.85
   4  -6   9   35.21    2.94
  -4   6  -9   19.16    1.82
  -4   5  10    3.21    0.79
  -4   5  10    3.77    1.07
   4  -5 -10    4.51    1.00
  -4   5   9  111.18    5.87
  -4   5   9  114.14    5.54
  -4   5   9  111.83    5.63
   4  -5  -9   99.12    4.84
  -4   5   8   38.84    3.92
  -4   5   8   36.08    3.79
  -4   5   7   20.91    3.07
  -4   5   7   25.50    3.38
  -4   5   7   19.63    2.77
  -4   5   7   19.88    3.12
  -4   5   7   22.00    3.27
  -4   5   7   18.24    2.40
  -4   5   6  186.26    9.17
  -4   5   6  158.04    7.01
   4  -5  -6  167.50    8.91
  -4   5   6  161.80    8.26
  -4   5   6  156.80    8.10
  -4   5   6  162.94    8.16
   4  -5  -6  165.32    8.78
  -4   5   5  142.56    7.93
  -4   5   5  140.26    7.69
  -4   5   5  130.45    6.23
   4  -5  -5  132.90    7.76
   4  -5  -5  117.06    6.58
  -4   5   5  135.88    7.23
  -4   5   5  137.79    7.23
   4  -5  -5  145.96    7.92
  -4   5   5  136.70    7.51
  -4   5   4   23.01    2.86
  -4   5   4   21.96    3.12
  -4   5   4   21.87    2.94
  -4   5   4   20.25    2.70
   4  -5  -4   14.47    2.39
  -4   5   4   21.39    2.76
  -4   5   3   66.62    4.72
  -4   5   3   74.41    5.23
   4  -5  -3   79.11    5.11
  -4   5   3   70.54    4.54
  -4   5   3   69.45    4.53
  -4   5   3   71.16    4.88
  -4   5   3   65.69    4.93
  -4   5   3   72.29    4.88
  -4   5   3   75.23    5.11
   4  -5  -2  471.68   12.29
   4  -5  -2  446.92   11.41
  -4   5   2  427.59   13.21
  -4   5   2  463.63   14.00
  -4   5   2  438.32   13.26
  -4   5   2  440.24   13.13
  -4   5   2  425.44   11.52
  -4   5   2  416.13   11.76
  -4   5   2  420.19   12.07
  -4   5   2  433.83   12.98
  -4   5   2  451.62   13.13
  -4   5   2  442.71   12.87
   4  -5  -1   69.96    4.44
  -4   5   1   62.43    4.63
  -4   5   1   64.21    4.85
  -4   5   1   65.58    4.74
  -4   5   1   62.05    4.58
  -4   5   1   51.52    3.55
  -4   5   1   57.07    4.01
  -4   5   1   62.81    4.34
  -4   5   1   63.05    4.40
  -4   5   1   64.30    4.54
  -4   5   0  164.91    6.87
  -4   5   0  163.92    7.06
  -4   5   0  153.71    7.04
   4  -5   0  188.06    7.78
  -4   5   0  168.83    7.38
  -4   5   0  162.73    7.54
  -4   5   0  171.46    8.04
  -4   5   0  165.07    7.43
  -4   5   0  145.61    5.90
  -4   5   0  160.44    7.69
  -4   5   0  146.85    6.57
  -4   5   0  162.74    7.42
  -4   5   0  155.18    6.84
  -4   5  -1   26.49    2.87
  -4   5  -1   24.24    2.82
  -4   5  -1   24.98    2.72
  -4   5  -1   23.81    3.03
  -4   5  -1   23.96    2.63
   4  -5   1   18.64    2.61
  -4   5  -1   23.81    2.90
  -4   5  -1   26.46    2.91
  -4   5  -1   21.65    3.00
  -4   5  -1   25.20    3.01
  -4   5  -1   24.32    2.99
  -4   5  -2   22.58    2.87
  -4   5  -2   20.21    2.70
  -4   5  -2   20.59    2.81
  -4   5  -2   20.04    2.77
   4  -5   2   32.67    3.49
  -4   5  -2   19.32    2.45
  -4   5  -2   23.11    2.95
  -4   5  -2   22.16    2.82
  -4   5  -2   21.47    2.60
   4  -5   2   20.12    2.42
  -4   5  -2   22.34    2.88
  -4   5  -3   85.25    5.01
  -4   5  -3  107.03    6.34
  -4   5  -3   92.37    5.95
  -4   5  -3   92.01    5.74
   4  -5   3   78.88    5.67
  -4   5  -3   83.55    5.59
  -4   5  -3   88.08    5.45
   4  -5   3   67.60    4.72
  -4   5  -3   80.00    5.07
  -4   5  -3   90.48    5.60
  -4   5  -3   94.41    5.81
  -4   5  -4  188.10    8.08
  -4   5  -4  203.83    9.30
   4  -5   4  157.22    7.82
  -4   5  -4  191.80    8.81
  -4   5  -4  177.55    8.01
  -4   5  -4  187.97    8.41
  -4   5  -4  197.34    8.98
  -4   5  -4  174.42    7.89
  -4   5  -4  179.42    8.57
  -4   5  -5   22.93    3.36
  -4   5  -5   20.36    3.00
   4  -5   5   30.03    3.77
   4  -5   5   25.76    3.46
   4  -5   5   28.33    3.38
  -4   5  -5   22.26    3.08
  -4   5  -5   15.71    2.70
  -4   5  -5   19.29    2.85
  -4   5  -6    7.55    1.96
  -4   5  -6    9.58    2.36
  -4   5  -6    8.50    2.27
  -4   5  -6    9.03    2.17
   4  -5   6    8.92    1.91
   4  -5   6    8.99    2.01
   4  -5   6    7.24    2.10
  -4   5  -6   10.54    2.29
  -4   5  -6    8.89    2.13
   4  -5   6    9.56    2.36
   4  -5   6    8.80    2.10
   4  -5   7   49.76    4.30
  -4   5  -7   47.14    4.35
   4  -5   7   46.56    3.92
  -4   5  -7   43.99    4.00
  -4   5  -7   46.44    4.22
  -4   5  -7   49.93    4.57
  -4   5  -7   45.06    4.37
  -4   5  -7   52.90    4.90
   4  -5   7   49.52    4.54
   4  -5   8   20.75    2.71
  -4   5  -8   16.01    2.57
   4  -5   8   17.23    2.35
  -4   5  -8   13.47    2.04
  -4   5  -8   16.87    2.53
   4  -5   8   23.27    3.15
   4  -5   8   22.32    2.98
  -4   5  -8   14.56    2.46
   4  -5   8   22.03    2.92
  -4   5  -8   18.19    2.77
  -4   5  -9   48.62    3.73
  -4   5  -9   59.17    4.05
  -4   5  -9   54.55    3.60
   4  -5   9   60.49    4.09
   4  -5   9   50.99    3.45
   4  -5   9   58.49    3.93
   4  -5   9   56.67    4.07
   4  -5   9   50.82    3.35
  -4   5  -9   56.33    3.90
   4  -5   9   62.66    4.32
  -4   5 -10   36.39    2.50
   4  -5  10   36.10    2.65
   4  -5  10   34.94    2.46
  -4   4  11   13.10    1.47
  -4   4  10   17.07    2.24
  -4   4  10   14.01    1.89
   4  -4 -10   14.26    1.75
   4  -4 -10   16.10    2.10
  -4   4   9   16.41    2.63
   4  -4  -9   18.49    2.34
  -4   4   9   17.21    2.39
  -4   4   9   19.37    2.85
  -4   4   8   44.00    4.38
  -4   4   8   54.02    4.55
  -4   4   7   52.32    4.78
  -4   4   7   47.28    4.58
  -4   4   7   50.41    4.66
  -4   4   7   48.59    4.60
   4  -4  -7   56.55    5.34
  -4   4   7   48.00    4.27
  -4   4   6   69.65    5.49
   4  -4  -6   67.36    5.53
   4  -4  -6   48.61    4.49
  -4   4   6   61.03    4.45
  -4   4   6   59.97    5.01
  -4   4   6   57.92    4.81
  -4   4   6   59.32    5.00
   4  -4  -6   68.27    5.63
  -4   4   5  160.81    7.36
   4  -4  -5  186.88    8.33
  -4   4   5  175.22    8.52
  -4   4   5  174.60    8.48
  -4   4   5  181.65    8.69
  -4   4   5  173.99    8.25
  -4   4   5  175.31    8.57
  -4   4   5  170.84    7.77
  -4   4   5  148.89    6.67
  -4   4   5  165.80    7.91
  -4   4   4   59.17    4.30
   4  -4  -4   58.21    4.47
  -4   4   4   53.99    4.45
  -4   4   4   62.35    4.79
  -4   4   4   58.01    4.70
  -4   4   4   52.37    3.99
  -4   4   4   54.10    4.05
  -4   4   4   56.03    4.21
  -4   4   3    3.67    1.33
  -4   4   3    3.37    1.21
   4  -4  -3    2.54    0.95
   4  -4  -3    2.18    1.08
  -4   4   3    5.52    1.47
  -4   4   3    6.49    1.57
  -4   4   3    3.04    1.24
  -4   4   3    5.95    1.60
  -4   4   3    4.68    1.52
  -4   4   3    5.89    1.54
  -4   4   3    5.81    1.47
   4  -4  -2  215.36    7.53
   4  -4  -2  194.01    6.55
   4  -4  -2  208.89    6.71
  -4   4   2  213.15    8.38
  -4   4   2  218.09    8.68
  -4   4   2  208.20    8.32
  -4   4   2  211.10    8.20
  -4   4   2  206.91    7.96
   4  -4  -1   60.43    3.98
   4  -4  -1   58.34    3.71
   4  -4  -1   55.58    3.42
   4  -4   0    4.72    0.94
  -4   4   0    3.04    0.95
  -4   4   0    3.13    1.17
  -4   4   0    2.61    0.69
   4  -4   0    4.78    1.35
   4  -4   0    5.23    1.31
  -4   4  -1  123.48    4.66
   4  -4   1  146.34    5.37
   4  -4   1  144.70    6.68
  -4   4  -1  140.37    6.25
  -4   4  -1  152.35    6.98
  -4   4  -1  140.81    5.97
  -4   4  -2  136.55    6.57
  -4   4  -2  124.70    5.06
  -4   4  -2  142.17    6.67
   4  -4   2  167.85    7.54
   4  -4   2  164.81    6.27
  -4   4  -2  141.79    6.56
  -4   4  -2  132.47    6.24
  -4   4  -2  141.96    6.73
  -4   4  -2  149.43    6.60
  -4   4  -3  128.77    6.32
  -4   4  -3  130.67    6.56
   4  -4   3  114.36    6.52
   4  -4   3  102.72    5.43
  -4   4  -3  119.48    6.15
  -4   4  -3  123.42    6.28
  -4   4  -3  136.10    6.92
  -4   4  -3  126.18    5.90
  -4   4  -4   19.04    2.51
  -4   4  -4   26.47    3.21
   4  -4   4   28.10    3.28
   4  -4   4   23.83    2.95
  -4   4  -4   22.60    2.90
  -4   4  -4   21.71    3.07
  -4   4  -4   21.85    2.76
  -4   4  -4   22.21    2.95
  -4   4  -5   30.93    3.63
   4  -4   5   23.23    2.79
   4  -4   5   27.38    3.09
   4  -4   5   19.04    2.99
   4  -4   5   21.80    2.99
  -4   4  -5   26.12    3.17
  -4   4  -5   35.45    3.84
  -4   4  -5   35.38    3.65
  -4   4  -6  130.59    7.78
  -4   4  -6  117.42    6.96
  -4   4  -6  124.53    7.17
   4  -4   6  112.46    6.28
   4  -4   6   98.97    5.84
   4  -4   6  107.41    6.23
  -4   4  -6  112.11    6.28
  -4   4  -6  140.66    7.45
   4  -4   6  107.34    6.71
  -4   4  -6  128.89    7.57
   4  -4   7   80.44    5.29
  -4   4  -7   55.03    4.23
   4  -4   7   80.92    5.78
  -4   4  -7   68.95    5.45
  -4   4  -7   79.35    5.46
  -4   4  -7   78.64    6.04
   4  -4   7   80.17    5.88
  -4   4  -7   73.07    5.53
   4  -4   8   43.65    4.21
  -4   4  -8   43.90    4.26
  -4   4  -8   42.94    4.16
   4  -4   8   40.27    3.95
   4  -4   8   31.61    3.30
  -4   4  -8   40.33    3.95
   4  -4   8   35.15    3.65
  -4   4  -8   39.16    3.52
  -4   4  -9   32.41    3.02
   4  -4   9   34.14    3.21
   4  -4   9   37.53    3.47
   4  -4   9   39.48    3.47
   4  -4   9   32.96    3.02
  -4   4  -9   36.19    3.44
  -4   4  -9   33.16    3.31
   4  -4   9   37.09    3.49
   4  -4   9   35.30    3.08
   4  -4  10   58.51    3.45
  -4   4 -10   64.24    3.61
   4  -4  10   51.33    3.17
   4  -4  10   56.23    3.39
  -4   4 -10   53.47    3.39
  -4   4 -10   50.74    3.16
  -4   3  11   34.89    2.61
   4  -3 -11   37.90    2.65
  -4   3  10   10.65    2.00
   4  -3 -10   11.43    1.76
   4  -3 -10   15.79    2.23
  -4   3  10   12.54    2.16
  -4   3   9  175.28    7.40
  -4   3   9  206.63    9.25
  -4   3   9  206.74    8.77
   4  -3  -9  185.53    7.49
   4  -3  -9  183.08    7.42
   4  -3  -8   21.27    2.73
  -4   3   8   28.61    3.08
  -4   3   8   32.78    3.63
   4  -3  -8   19.60    3.11
   4  -3  -8   28.09    3.89
  -4   3   8   31.62    3.67
  -4   3   8   29.83    3.62
  -4   3   7   69.91    4.98
  -4   3   7   76.36    5.65
   4  -3  -7   72.21    5.72
   4  -3  -7   64.39    5.63
  -4   3   7   78.80    5.84
  -4   3   7   80.54    5.79
  -4   3   7   77.87    5.94
  -4   3   6  208.67    8.77
  -4   3   6  216.15    9.61
   4  -3  -6  210.81    9.61
   4  -3  -6  195.99    9.15
   4  -3  -6  219.63    9.93
  -4   3   6  219.96    9.62
  -4   3   6  221.49    9.25
  -4   3   6  216.61    9.54
  -4   3   6  220.14    9.67
  -4   3   5   96.43    5.13
  -4   3   5  128.25    7.00
   4  -3  -5   98.93    6.06
  -4   3   5  114.03    6.24
  -4   3   5  117.33    6.57
  -4   3   5  107.71    6.27
  -4   3   5  112.57    6.47
  -4   3   5  105.88    6.21
  -4   3   4  292.81   10.06
  -4   3   4  290.54   10.43
  -4   3   4  277.07    9.98
   4  -3  -4  309.92   10.52
   4  -3  -4  284.67    8.71
  -4   3   4  294.73   10.08
  -4   3   4  290.94   10.22
  -4   3   4  286.21   10.20
  -4   3   4  292.10    9.61
  -4   3   4  282.82    9.71
   4  -3  -3  141.52    5.78
   4  -3  -3  151.50    6.87
   4  -3  -3  142.27    5.80
  -4   3   3  152.97    6.77
  -4   3   3  150.52    6.92
  -4   3   3  166.87    7.11
  -4   3   3  153.19    6.58
  -4   3   2   22.00    2.50
  -4   3   2   25.85    2.79
  -4   3   2   24.56    2.66
   4  -3  -2   33.50    2.83
   4  -3  -2   32.88    2.71
  -4   3   1   37.62    2.58
  -4   3   1   33.12    2.18
   4  -3  -1   44.67    3.32
   4  -3  -1   41.12    2.97
   4  -3  -1   49.62    3.29
   4  -3   0   12.25    1.56
  -4   3   0    6.71    1.20
  -4   3   0    6.39    1.20
  -4   3   0    7.03    1.57
   4  -3   0   12.12    1.86
   4  -3   0   13.25    1.89
  -4   3  -1  121.19    5.88
   4  -3   1  130.50    5.29
  -4   3  -1  136.44    6.45
  -4   3  -1  131.72    5.27
   4  -3   1  132.72    6.23
   4  -3   1  132.84    6.13
   4  -3   2  190.92    6.96
  -4   3  -2  182.63    7.31
  -4   3  -2  209.09    8.00
  -4   3  -2  212.91    8.04
   4  -3   2  190.33    7.93
   4  -3   3  201.19    7.70
  -4   3  -3  175.17    7.12
   4  -3   3  196.67    8.39
   4  -3   3  198.24    8.09
  -4   3  -3  196.28    8.12
  -4   3  -3  209.04    7.88
  -4   3  -4    0.88    0.91
   4  -3   4    0.09    0.61
   4  -3   4    0.11    0.72
  -4   3  -4    0.84    0.87
  -4   3  -4    0.60    0.81
  -4   3  -4    0.36    0.59
   4  -3   4    0.67    0.84
   4  -3   5   59.72    4.42
   4  -3   5   65.49    4.80
   4  -3   5   54.30    4.32
  -4   3  -5   58.24    4.74
   4  -3   5   65.53    5.08
   4  -3   5   57.82    4.22
  -4   3  -5   57.87    4.86
  -4   3  -5   53.24    4.09
  -4   3  -6  133.54    7.48
   4  -3   6  113.01    6.44
   4  -3   6  108.91    6.41
   4  -3   6  116.21    6.18
   4  -3   6  126.45    7.42
  -4   3  -6  139.73    7.79
  -4   3  -6  131.50    6.59
  -4   3  -7   90.40    6.16
   4  -3   7   80.05    5.50
   4  -3   7   67.53    5.09
  -4   3  -7   91.12    5.68
   4  -3   7   76.38    5.77
  -4   3  -7   87.03    6.32
   4  -3   7   79.73    5.88
  -4   3  -7   87.30    6.22
  -4   3  -7   77.78    5.10
   4  -3   8  139.52    6.69
   4  -3   8  160.66    8.06
  -4   3  -8  130.57    7.49
   4  -3   8  150.44    7.81
  -4   3  -8  132.73    6.36
  -4   3  -8  144.72    7.47
   4  -3   8  139.72    7.08
   4  -3   9    7.94    1.62
   4  -3   9    7.00    1.70
  -4   3  -9    7.59    1.80
  -4   3  -9    7.35    1.79
   4  -3   9    7.71    1.81
  -4   3  -9    6.81    1.53
   4  -3   9    6.42    1.78
  -4   3  -9    8.23    1.94
   4  -3   9    6.50    1.59
  -4   3 -10   29.61    2.57
  -4   3 -10   28.07    2.59
  -4   3 -10   30.70    2.63
   4  -3  10   34.72    2.59
   4  -3  10   34.28    2.63
   4  -3  10   38.97    3.02
   4  -3  10   37.97    2.93
  -4   2  11   16.59    2.00
  -4   2  11   17.21    2.02
   4  -2 -11   14.88    1.88
   4  -2 -11   11.21    1.40
   4  -2 -10   32.70    3.07
   4  -2 -10   27.71    2.70
  -4   2  10   40.72    3.54
  -4   2  10   39.12    3.65
   4  -2 -10   38.11    3.57
   4  -2 -10   35.72    3.36
   4  -2  -9   23.77    2.83
  -4   2   9   22.31    2.70
   4  -2  -9   28.84    3.37
  -4   2   9   23.74    3.31
  -4   2   9   28.29    3.40
  -4   2   9   22.75    3.22
   4  -2  -9   27.13    3.31
  -4   2   8   41.74    4.31
   4  -2  -8   29.51    3.21
  -4   2   8   32.37    3.59
  -4   2   8   36.27    3.73
   4  -2  -8   38.17    4.08
  -4   2   8   35.21    3.21
  -4   2   8   40.28    4.25
  -4   2   8   41.96    4.38
   4  -2  -8   37.11    4.29
  -4   2   8   29.75    3.22
   4  -2  -7  120.29    7.49
  -4   2   7  102.20    5.78
  -4   2   7  118.76    6.93
   4  -2  -7  122.59    7.14
   4  -2  -7  108.25    5.79
  -4   2   7  116.50    7.05
  -4   2   7  120.73    7.18
  -4   2   7  120.84    7.27
  -4   2   7  114.39    6.47
  -4   2   7  108.55    5.76
  -4   2   6  154.81    6.87
  -4   2   6  166.73    8.41
  -4   2   6  183.92    8.57
  -4   2   6  144.22    6.91
  -4   2   6  167.96    8.13
  -4   2   6  178.50    8.52
  -4   2   6  175.38    8.15
   4  -2  -6  192.11    9.02
  -4   2   6  142.31    6.55
  -4   2   5  215.46    8.02
  -4   2   5  241.65    9.67
   4  -2  -5  248.55    9.82
   4  -2  -5  244.70    8.85
  -4   2   5  216.63    8.00
  -4   2   5  224.79    8.15
  -4   2   5  240.73    9.03
  -4   2   5  252.26    9.70
  -4   2   4  302.29    9.97
  -4   2   4  280.78    9.66
  -4   2   4  294.16   10.26
   4  -2  -4  290.87   10.13
   4  -2  -4  289.65    9.34
  -4   2   4  279.60    9.50
  -4   2   4  261.31    8.64
  -4   2   4  304.85   10.39
  -4   2   4  293.81    9.26
  -4   2   4  302.79   10.20
  -4   2   3   22.99    2.69
   4  -2  -3   26.11    2.46
   4  -2  -3   27.25    2.81
   4  -2  -3   26.48    2.59
  -4   2   3   22.19    2.57
  -4   2   2  252.50    9.10
   4  -2  -2  259.14    8.21
   4  -2  -2  241.83    8.02
  -4   2   2  238.97    7.63
   4  -2  -1  691.52   15.28
   4  -2  -1  698.92   15.13
  -4   2   1  657.82   14.27
   4  -2   0   10.66    1.20
  -4   2   0   21.52    2.57
   4  -2   0   11.95    1.84
  -4   2   0   17.70    2.00
   4  -2   1  148.25    5.93
  -4   2  -1  137.15    6.42
  -4   2  -1  131.93    5.70
  -4   2  -2   47.84    3.73
   4  -2   2   38.92    3.15
   4  -2   2   37.57    3.27
   4  -2   3  154.68    6.77
  -4   2  -3  134.61    6.07
  -4   2  -3  145.28    6.76
   4  -2   3  147.07    6.70
  -4   2  -3  149.49    7.00
   4  -2   3  148.08    6.29
  -4   2  -3  146.60    6.47
   4  -2   3  132.60    5.69
  -4   2  -4   17.06    2.44
   4  -2   4   28.23    3.12
   4  -2   4   24.43    2.56
  -4   2  -4   21.13    2.45
  -4   2  -4   19.33    2.30
   4  -2   4   25.60    3.04
   4  -2   4   29.02    3.04
   4  -2   4   26.33    2.80
  -4   2  -4   22.34    2.96
  -4   2  -4   20.39    2.87
   4  -2   4   24.72    2.73
  -4   2  -4   20.67    2.37
  -4   2  -5   47.00    3.90
  -4   2  -5   43.56    3.70
   4  -2   5   53.95    4.52
   4  -2   5   52.74    4.06
  -4   2  -5   48.22    4.33
   4  -2   5   55.20    4.69
  -4   2  -5   47.94    4.35
   4  -2   5   48.41    4.09
  -4   2  -5   46.65    4.08
  -4   2  -6    7.66    1.95
   4  -2   6    6.00    1.70
   4  -2   6    5.13    1.78
  -4   2  -6    6.82    1.80
  -4   2  -6    7.50    1.78
   4  -2   6    4.21    1.75
  -4   2  -6    8.84    2.09
   4  -2   6    4.59    1.74
  -4   2  -6    8.66    2.20
   4  -2   6    4.88    1.87
  -4   2  -6    6.74    2.04
   4  -2   6    3.89    1.53
  -4   2  -7   20.20    2.91
   4  -2   7   14.84    2.90
   4  -2   7   12.39    2.38
  -4   2  -7   20.63    2.92
   4  -2   7   14.82    2.65
  -4   2  -7   16.85    2.50
  -4   2  -7   20.63    3.25
   4  -2   7   15.19    2.60
  -4   2  -7   18.56    2.95
   4  -2   7   15.87    2.89
   4  -2   8  112.59    5.81
   4  -2   8  116.03    6.39
  -4   2  -8  105.91    5.48
  -4   2  -8  116.81    6.60
   4  -2   8  122.64    6.69
   4  -2   8  123.71    7.06
   4  -2   8  117.99    6.76
  -4   2  -8  115.99    6.27
   4  -2   8  120.85    6.05
  -4   2  -9   11.94    1.98
  -4   2  -9   10.12    1.99
   4  -2   9    6.91    1.55
  -4   2  -9   11.00    2.11
   4  -2   9    7.26    1.91
   4  -2   9    6.86    1.57
   4  -2  10    0.71    0.64
  -4   2 -10    0.63    0.84
  -4   2 -10   -0.39    0.78
  -4   2 -10    0.14    0.79
   4  -2  10    1.34    0.91
   4  -2  10    0.98    0.78
  -4   2 -10    0.39    0.67
  -4   1  11   12.47    1.67
  -4   1  11   13.36    1.85
   4  -1 -11   10.13    1.65
   4  -1 -11   10.34    1.65
   4  -1 -10   87.00    5.20
  -4   1  10  107.79    6.00
  -4   1  10  104.20    5.73
  -4   1  10  102.75    5.89
   4  -1 -10   86.14    5.32
   4  -1 -10   86.94    5.29
   4  -1  -9   63.91    4.48
   4  -1  -9   82.04    5.68
   4  -1  -9   74.69    5.31
   4  -1  -9   88.47    5.81
  -4   1   9   58.22    4.49
  -4   1   9   76.72    5.57
  -4   1   9   62.21    4.37
  -4   1   9   71.30    5.53
  -4   1   8  191.76    8.23
  -4   1   8  198.93    9.13
   4  -1  -8  171.24    7.53
   4  -1  -8  181.04    8.55
   4  -1  -8  160.09    7.91
   4  -1  -8  191.60    9.43
  -4   1   8  171.10    8.05
  -4   1   8  169.52    7.77
  -4   1   8  211.54    9.74
  -4   1   7   -0.13    0.92
   4  -1  -7    0.42    0.86
  -4   1   7    0.12    1.08
  -4   1   7    0.36    0.87
   4  -1  -7    0.45    1.23
  -4   1   7    0.74    1.26
  -4   1   7    0.13    1.14
   4  -1  -7    0.80    1.13
   4  -1  -7    0.78    1.10
   4  -1  -7    1.50    1.10
  -4   1   7    0.24    0.85
  -4   1   7    0.77    1.09
   4  -1  -6  121.18    6.95
  -4   1   6  126.00    6.42
  -4   1   6  139.16    7.51
  -4   1   6  136.83    7.07
  -4   1   6  136.53    7.37
  -4   1   6  143.55    7.13
  -4   1   6  122.59    6.51
  -4   1   6  135.13    7.19
   4  -1  -6  124.44    6.19
   4  -1  -6  127.39    6.67
   4  -1  -5    1.99    0.87
  -4   1   5    0.99    0.86
  -4   1   5    2.66    1.16
  -4   1   5    0.96    0.94
   4  -1  -5    2.96    1.14
   4  -1  -5    2.76    1.33
   4  -1  -5    2.28    1.21
   4  -1  -5    2.45    1.06
   4  -1  -5    3.29    1.41
  -4   1   5    1.40    0.88
  -4   1   5    2.50    1.20
  -4   1   4   21.18    2.69
   4  -1  -4   31.89    2.85
   4  -1  -4   36.42    3.33
  -4   1   4   20.76    2.66
  -4   1   4   21.32    2.54
  -4   1   4   25.29    2.85
  -4   1   4   20.09    2.45
   4  -1  -4   29.94    2.46
  -4   1   4   22.98    2.72
  -4   1   4   23.37    2.78
  -4   1   3   46.43    2.96
  -4   1   3   46.09    3.64
  -4   1   3   44.87    3.52
   4  -1  -3   49.56    3.73
   4  -1  -3   45.84    3.57
  -4   1   3   46.96    3.83
  -4   1   3   41.58    3.29
   4  -1  -3   42.67    2.77
  -4   1   2  368.84    9.62
  -4   1   2  353.95   10.18
   4  -1  -2  363.38   10.28
   4  -1  -2  374.17   10.58
  -4   1   2  345.87   11.53
   4  -1  -2  352.68    8.65
   4  -1  -1 3154.50   49.61
   4  -1  -1 3219.22   49.49
  -4   1   1 3390.20   49.63
  -4   1   1 3317.80   49.13
   4  -1   0 1245.34   21.26
  -4   1   0 1273.77   23.35
   4  -1   0 1226.46   23.76
   4  -1   0 1269.88   23.48
  -4   1   0 1265.16   25.20
   4  -1   1  169.15    5.88
   4  -1   1  164.48    6.65
  -4   1  -1  168.37    6.87
  -4   1  -2   43.91    3.56
   4  -1   2   60.32    4.00
   4  -1   2   49.25    3.80
  -4   1  -2   53.76    4.07
  -4   1  -2   49.08    3.42
   4  -1   2   51.46    3.61
  -4   1  -2   52.06    3.75
  -4   1  -2   45.76    3.52
  -4   1  -3   16.45    2.25
   4  -1   3   20.33    2.41
  -4   1  -3   16.76    2.35
  -4   1  -3   16.53    2.00
  -4   1  -3   15.39    2.39
   4  -1   3   22.97    2.69
  -4   1  -3   14.20    2.09
   4  -1   3   24.45    2.74
  -4   1  -3   12.86    1.97
   4  -1   3   28.25    2.96
  -4   1  -3   14.34    2.24
  -4   1  -3   14.09    2.17
   4  -1   4   11.02    2.05
  -4   1  -4   14.13    1.94
  -4   1  -4   10.36    1.80
  -4   1  -4   12.27    1.85
   4  -1   4   10.11    2.06
   4  -1   4   13.16    2.11
   4  -1   4   13.78    2.30
  -4   1  -4   10.51    2.02
   4  -1   4   13.42    2.11
  -4   1  -4   12.62    2.20
  -4   1  -4   13.05    2.33
  -4   1  -5  120.45    6.06
   4  -1   5  122.47    7.02
  -4   1  -5  131.01    6.96
   4  -1   5  128.30    7.29
  -4   1  -5  114.56    5.86
  -4   1  -5  128.12    6.41
  -4   1  -5  131.92    7.06
  -4   1  -5  125.57    6.89
   4  -1   6   33.18    3.71
  -4   1  -6   30.57    3.34
   4  -1   6   35.14    3.99
   4  -1   6   33.98    3.78
  -4   1  -6   31.16    3.69
   4  -1   6   32.88    3.92
   4  -1   6   35.73    4.11
   4  -1   6   30.31    3.70
  -4   1  -6   33.06    3.41
  -4   1  -6   29.17    3.34
  -4   1  -6   32.68    3.63
  -4   1  -6   32.41    3.74
   4  -1   7  156.15    7.84
   4  -1   7  126.27    6.43
  -4   1  -7  126.89    6.78
   4  -1   7  143.04    7.83
   4  -1   7  155.80    7.48
  -4   1  -7  137.26    7.36
   4  -1   7  147.24    7.91
  -4   1  -7  130.42    6.98
  -4   1  -7  129.48    6.76
  -4   1  -7  121.35    6.95
  -4   1  -8  231.31    9.05
   4  -1   8  224.16    8.20
  -4   1  -8  254.55    9.69
   4  -1   8  243.04    9.89
  -4   1  -8  245.95    9.48
   4  -1   8  238.06    9.42
   4  -1   8  220.88    8.26
   4  -1   9   12.84    2.18
  -4   1  -9   15.60    2.26
  -4   1  -9   13.47    2.06
  -4   1  -9   15.55    2.03
   4  -1  10   49.08    3.00
   4  -1  10   54.69    3.31
   4  -1  10   48.23    3.06
  -4   1 -10   51.03    3.19
  -4   1 -10   54.32    3.40
  -4   0  11    4.11    1.11
   4   0 -11    4.33    1.20
  -4   0  11    4.95    1.21
   4   0 -11    5.42    1.26
   4   0 -10   54.28    4.17
   4   0 -10   56.93    4.32
  -4   0  10   57.70    4.06
  -4   0  10   67.09    4.60
  -4   0  10   56.49    3.84
  -4   0  10   63.99    4.56
  -4   0   9  274.90   10.93
   4   0  -9  278.03   10.68
   4   0  -9  274.62   10.52
  -4   0   9  263.60    9.81
   4   0  -9  269.61   10.48
  -4   0   9  261.17   10.02
  -4   0   8  100.38    6.20
  -4   0   8   98.25    6.17
   4   0  -8   77.72    5.78
   4   0  -8   81.52    5.88
   4   0  -8   81.93    5.76
  -4   0   8  106.35    6.87
   4   0  -8   72.64    5.09
  -4   0   8   91.56    6.19
   4   0  -7    5.93    1.57
  -4   0   7    5.56    1.70
   4   0  -7    7.62    1.99
  -4   0   7    5.52    1.65
   4   0  -7    5.52    1.79
   4   0  -7    7.22    1.97
  -4   0   7    6.07    1.91
  -4   0   7    6.54    1.81
  -4   0   7    5.38    1.77
   4   0  -7    5.30    1.70
   4   0  -7    5.86    1.72
  -4   0   6  136.42    7.43
  -4   0   6  122.35    6.79
   4   0  -6  123.47    6.36
  -4   0   6  130.26    6.95
   4   0  -6  123.16    6.89
   4   0  -6  122.58    6.69
   4   0  -6  119.02    6.06
   4   0  -6  119.01    6.69
  -4   0   6  111.15    6.28
  -4   0   6  123.58    7.06
   4   0  -6  116.65    6.38
   4   0  -6  111.30    6.31
  -4   0   6  120.11    6.75
  -4   0   5  130.08    6.58
  -4   0   5  147.38    7.16
   4   0  -5  129.65    6.23
  -4   0   5  142.94    7.05
   4   0  -5  125.20    6.57
   4   0  -5  134.18    6.55
   4   0  -5  132.26    7.07
  -4   0   5  157.30    7.64
   4   0  -5  132.61    6.71
  -4   0   5  139.89    6.51
  -4   0   5  156.53    7.50
   4   0  -5  137.23    6.74
  -4   0   5  141.12    6.63
  -4   0   4  103.57    5.94
  -4   0   4  104.31    5.71
   4   0  -4  115.00    5.48
  -4   0   4   99.68    5.46
   4   0  -4  104.64    5.49
   4   0  -4  104.62    5.35
   4   0  -4  108.91    5.98
   4   0  -4  114.48    6.19
  -4   0   4  102.37    5.86
  -4   0   4  108.95    5.85
  -4   0   4  102.32    4.71
  -4   0   4  105.75    5.74
  -4   0   4   96.17    5.09
   4   0  -3  221.09    7.59
   4   0  -3  227.68    8.29
   4   0  -3  234.56    8.81
  -4   0   3  215.66    8.33
  -4   0   3  214.74    8.34
  -4   0   3  217.90    7.38
   4   0  -3  226.68    7.58
  -4   0   3  220.36    8.52
  -4   0   3  216.30    7.88
  -4   0   3  214.23    8.01
  -4   0   2  293.41    9.91
  -4   0   2  292.65    9.06
  -4   0   2  293.44    9.61
   4   0  -2  328.82    9.10
   4   0  -2  317.49    9.46
   4   0  -2  346.36   10.40
   4   0  -1  201.42    6.90
   4   0  -1  197.97    7.16
  -4   0   1  189.70    7.23
   4   0  -1  195.87    7.18
   4   0  -1  199.99    6.82
   4   0   0 1212.75   21.70
   4   0   0 1216.54   22.95
  -4   0   0 1229.83   23.64
  -4   0   0 1302.98   24.12
   4   0   0 1248.64   22.59
  -4   0   0 1261.42   24.37
   4   0   1  342.69   10.36
   4   0   1  348.99    9.87
  -4   0  -1  363.23   11.00
   4   0   1  355.29   10.64
   4   0   1  315.55    9.63
  -4   0  -1  351.80   10.35
  -4   0  -1  358.41   10.05
   4   0   1  338.82   10.10
  -4   0  -1  362.39   10.84
  -4   0  -2  244.01    8.54
   4   0   2  216.53    7.86
   4   0   2  219.05    8.39
  -4   0  -2  245.50    8.63
  -4   0  -2  253.71    8.12
   4   0   2  202.90    8.29
   4   0   2  209.99    7.72
  -4   0  -2  227.37    8.51
  -4   0  -2  241.95    8.05
  -4   0  -2  249.53    8.85
   4   0   2  205.57    7.93
  -4   0  -2  218.26    8.94
  -4   0  -3   68.44    4.66
   4   0   3   86.92    5.35
  -4   0  -3   71.13    4.58
  -4   0  -3   70.66    4.91
   4   0   3   81.62    5.00
  -4   0  -3   75.72    4.94
  -4   0  -3   66.05    4.01
  -4   0  -3   65.52    4.45
  -4   0  -3   64.94    4.61
  -4   0  -3   65.62    4.52
  -4   0  -4  124.49    6.45
   4   0   4  120.02    6.39
  -4   0  -4  111.80    5.35
  -4   0  -4  118.05    5.89
  -4   0  -4  112.87    5.56
  -4   0  -4  105.00    5.08
  -4   0  -4  117.33    6.45
   4   0   4  139.42    7.10
  -4   0  -4  113.62    6.21
   4   0   4  131.63    7.04
  -4   0  -5   34.63    3.28
  -4   0  -5   43.73    4.13
  -4   0  -5   33.33    3.43
  -4   0  -5   39.52    3.52
   4   0   5   33.38    3.75
   4   0   5   32.35    3.67
   4   0   5   34.99    3.88
   4   0   5   28.63    3.25
  -4   0  -5   32.58    3.54
  -4   0  -6  103.05    6.39
  -4   0  -6   99.51    5.66
  -4   0  -6  106.04    6.18
  -4   0  -6   99.13    5.79
   4   0   6   97.00    6.58
   4   0   6   98.88    6.16
   4   0   6  102.42    6.54
   4   0   6  100.28    6.77
   4   0   6   96.14    6.52
  -4   0  -6  102.78    6.17
  -4   0  -6  104.49    6.43
   4   0   6   88.62    5.66
  -4   0  -6   91.55    5.78
  -4   0  -7   31.60    3.33
  -4   0  -7   33.25    3.59
  -4   0  -7   38.31    3.72
   4   0   7   41.10    3.90
   4   0   7   44.07    4.28
   4   0   7   35.97    3.68
   4   0   7   35.84    3.62
  -4   0  -7   37.02    3.64
  -4   0  -7   31.03    3.27
  -4   0  -8    2.65    1.24
   4   0   8    5.05    1.43
  -4   0  -8    2.95    1.24
  -4   0  -8    2.30    1.26
   4   0   8    4.81    1.61
  -4   0  -8    1.57    1.11
   4   0   9    5.93    1.44
  -4   0  -9    2.79    1.04
   4   0  10   15.97    1.54
   4   0  10   22.40    1.96
  -4   0 -10   16.95    1.67
   4   0  10   21.40    1.76
   4   1 -11    0.70    0.71
  -4  -1  11    1.12    0.74
   4   1 -11    1.25    0.97
  -4  -1  11    0.65    0.71
  -4  -1  11    1.13    0.78
   4   1 -10    3.58    1.33
  -4  -1  10    3.03    1.30
  -4  -1  10    2.98    1.34
  -4  -1  10    2.18    1.05
  -4  -1  10    1.71    1.16
  -4  -1  10    2.20    1.09
  -4  -1   9  175.82    8.06
   4   1  -9  170.30    7.12
   4   1  -9  166.65    8.03
   4   1  -9  174.58    8.13
   4   1  -9  169.34    7.44
  -4  -1   9  177.52    8.05
  -4  -1   9  190.27    8.68
  -4  -1   8    6.31    2.05
  -4  -1   8    8.61    2.19
   4   1  -8    4.48    1.53
  -4  -1   8    6.47    1.89
   4   1  -8    3.75    1.62
   4   1  -8    6.48    2.00
  -4  -1   8    5.50    1.54
  -4  -1   8    6.77    1.97
   4   1  -8    4.19    1.56
   4   1  -7    9.21    2.20
   4   1  -7    9.42    2.21
   4   1  -7    7.84    1.91
  -4  -1   7    6.35    1.89
   4   1  -7    9.46    2.25
   4   1  -7    8.84    2.24
  -4  -1   7    5.24    1.79
  -4  -1   7    6.84    1.93
   4   1  -7    8.59    2.02
  -4  -1   7    5.71    1.93
  -4  -1   6  133.68    6.83
   4   1  -6  143.89    7.59
   4   1  -6  143.94    7.44
   4   1  -6  137.05    6.75
  -4  -1   6  130.84    7.04
   4   1  -6  138.86    7.24
  -4  -1   6  139.42    7.56
   4   1  -6  129.07    7.12
   4   1  -6  139.90    7.41
  -4  -1   6  141.32    7.54
  -4  -1   5   17.64    2.63
  -4  -1   5   17.60    2.47
  -4  -1   5   17.16    2.71
  -4  -1   5   15.67    2.53
   4   1  -5   17.10    2.57
  -4  -1   5   16.31    2.55
   4   1  -5   16.48    2.63
   4   1  -5   13.82    2.31
   4   1  -5   15.77    2.34
  -4  -1   5   17.73    2.56
  -4  -1   5   17.05    2.48
  -4  -1   5   13.26    1.92
  -4  -1   5   16.36    2.42
  -4  -1   5   15.65    2.59
   4   1  -5   16.48    2.73
  -4  -1   4   20.69    2.84
   4   1  -4   20.23    2.85
  -4  -1   4   22.41    2.84
  -4  -1   4   21.27    2.81
  -4  -1   4   16.60    2.23
   4   1  -4   20.88    2.42
  -4  -1   4   17.64    2.45
  -4  -1   4   18.45    2.74
  -4  -1   4   20.51    2.63
  -4  -1   4   18.68    2.62
  -4  -1   4   18.54    2.68
   4   1  -4   22.55    2.70
  -4  -1   4   20.39    2.73
  -4  -1   4   19.03    2.31
   4   1  -4   19.59    2.55
   4   1  -4   20.70    2.66
   4   1  -4   19.32    2.84
  -4  -1   4   15.80    2.32
  -4  -1   4   18.87    2.60
  -4  -1   3  241.10    9.18
  -4  -1   3  227.64    8.99
  -4  -1   3  221.03    8.40
  -4  -1   3  225.57    8.27
   4   1  -3  226.46    8.33
   4   1  -3  213.99    7.22
  -4  -1   3  237.28    8.92
  -4  -1   3  231.05    8.09
  -4  -1   3  220.40    9.06
   4   1  -3  225.75    8.74
   4   1  -3  251.09    8.76
  -4  -1   3  233.89    8.92
   4   1  -3  236.85    8.93
  -4  -1   3  234.97    8.27
   4   1  -3  228.91    8.23
  -4  -1   3  235.51    9.16
  -4  -1   3  220.43    8.61
  -4  -1   2  209.12    8.39
  -4  -1   2  201.60    7.84
   4   1  -2  220.46    8.07
   4   1  -2  220.77    8.31
  -4  -1   2  217.32    8.46
   4   1  -2  240.73    8.33
  -4  -1   2  190.24    7.93
  -4  -1   2  198.48    7.36
   4   1  -2  222.79    8.39
  -4  -1   2  197.21    7.78
   4   1  -2  216.13    7.53
   4   1  -2  217.11    8.47
   4   1  -2  203.16    7.40
  -4  -1   2  213.48    8.48
  -4  -1   2  204.63    8.08
  -4  -1   1   41.84    3.69
  -4  -1   1   45.43    3.70
   4   1  -1   47.69    3.67
   4   1  -1   51.55    3.86
   4   1  -1   46.73    3.76
   4   1  -1   49.48    3.86
  -4  -1   1   42.97    3.49
   4   1  -1   46.08    3.68
  -4  -1   1   41.06    3.54
  -4  -1   1   46.05    3.80
   4   1  -1   48.00    3.21
   4   1  -1   51.99    3.88
  -4  -1   1   42.17    3.55
   4   1  -1   49.14    3.62
   4   1   0  269.97    9.10
  -4  -1   0  240.85    9.16
   4   1   0  273.57    9.35
  -4  -1   0  236.28    8.09
   4   1   0  275.34    9.42
  -4  -1   0  253.44    9.09
  -4  -1   0  242.57    9.08
   4   1   0  276.98    9.19
  -4  -1   0  256.13    9.42
   4   1   0  253.14    7.19
   4   1   0  277.46    9.31
   4   1   0  268.33    9.08
   4   1   0  279.80    9.20
   4   1   0  262.65    9.10
  -4  -1   0  258.98    9.52
  -4  -1   0  246.68    8.98
   4   1   1   11.11    1.96
  -4  -1  -1    8.14    1.54
  -4  -1  -1    7.41    1.63
  -4  -1  -1    7.93    1.69
   4   1   1   13.07    2.13
  -4  -1  -1    8.67    1.83
  -4  -1  -1    7.85    1.77
  -4  -1  -1    8.32    1.79
  -4  -1  -1    8.36    1.69
   4   1   1   10.54    1.90
   4   1   1   12.90    2.12
   4   1   1   10.68    1.88
  -4  -1  -1    9.20    1.91
   4   1   1   11.74    1.97
   4   1   1   11.90    2.11
   4   1   1   11.30    1.93
   4   1   1   11.58    2.05
  -4  -1  -2   89.57    5.01
  -4  -1  -2   96.19    5.71
   4   1   2   75.07    4.93
  -4  -1  -2   97.69    5.52
   4   1   2   77.41    4.97
  -4  -1  -2   94.81    5.29
   4   1   2   78.60    4.91
  -4  -1  -2   93.84    5.74
   4   1   2   79.71    4.98
  -4  -1  -2   80.68    5.22
   4   1   2   85.09    5.22
  -4  -1  -2   97.66    5.99
   4   1   2   74.06    5.16
  -4  -1  -2   87.62    5.35
   4   1   3  199.46    8.77
  -4  -1  -3  195.66    8.05
   4   1   3  190.08    8.38
  -4  -1  -3  200.05    8.49
  -4  -1  -3  197.84    8.85
   4   1   3  203.83    8.64
  -4  -1  -3  193.89    7.82
   4   1   3  196.60    8.07
  -4  -1  -3  189.35    8.37
  -4  -1  -3  173.43    7.71
   4   1   3  198.75    8.42
   4   1   3  185.87    8.22
  -4  -1  -3  166.02    7.82
  -4  -1  -4  212.00    9.01
  -4  -1  -4  205.05    7.47
   4   1   4  171.74    7.33
   4   1   4  185.53    8.72
  -4  -1  -4  189.62    7.70
   4   1   4  174.78    7.75
   4   1   4  186.17    8.20
   4   1   4  195.85    8.72
  -4  -1  -4  209.74    8.73
  -4  -1  -4  223.15    9.52
   4   1   4  188.91    8.79
  -4  -1  -4  206.01    9.07
  -4  -1  -5   13.27    2.54
  -4  -1  -5   13.47    2.15
  -4  -1  -5   15.16    2.48
  -4  -1  -5   14.19    2.28
   4   1   5   20.27    3.18
   4   1   5   16.07    2.42
   4   1   5   16.80    2.33
   4   1   5   21.56    3.02
   4   1   5   20.18    3.01
   4   1   5   18.49    2.96
  -4  -1  -5   14.28    2.74
  -4  -1  -5   16.01    2.79
  -4  -1  -6   11.15    2.39
  -4  -1  -6   12.19    2.27
  -4  -1  -6    9.65    1.97
  -4  -1  -6   10.61    1.97
   4   1   6   10.44    2.17
  -4  -1  -6   11.87    2.41
   4   1   6   13.07    2.41
   4   1   6   11.08    2.32
  -4  -1  -6   13.07    2.66
  -4  -1  -6   11.33    2.16
  -4  -1  -6   13.20    2.48
  -4  -1  -7   20.97    2.62
  -4  -1  -7   22.80    2.91
  -4  -1  -7   21.74    2.79
   4   1   7   25.18    3.01
   4   1   7   25.62    3.19
   4   1   7   24.62    3.03
  -4  -1  -7   24.32    3.32
  -4  -1  -7   22.92    3.13
  -4  -1  -8   36.76    3.36
  -4  -1  -8   35.56    3.23
   4   1   8   42.81    3.25
   4   1   8   43.22    3.54
   4   1   8   42.76    3.40
  -4  -1  -8   35.40    3.45
  -4  -1  -8   39.65    3.56
  -4  -1  -9   25.90    2.42
   4   1   9   23.79    2.49
  -4  -1  -9   24.84    2.39
  -4  -1  -9   26.93    2.58
   4   1   9   21.76    2.25
  -4  -2  11    5.54    0.90
  -4  -2  11    4.99    0.96
  -4  -2  10   10.14    1.80
  -4  -2  10   15.87    2.13
  -4  -2  10    9.06    1.68
   4   2 -10   13.80    2.01
  -4  -2  10   13.42    1.97
   4   2  -9   35.40    3.59
  -4  -2   9   32.04    3.42
   4   2  -9   33.27    2.97
   4   2  -9   36.35    3.42
   4   2  -9   34.23    3.16
  -4  -2   9   27.69    3.21
   4   2  -9   32.43    3.34
  -4  -2   9   27.54    3.16
   4   2  -8   68.03    5.21
   4   2  -8   72.93    5.46
  -4  -2   8   73.24    5.38
   4   2  -8   68.91    4.93
  -4  -2   8   70.25    5.21
   4   2  -8   61.87    4.51
   4   2  -8   70.13    5.11
   4   2  -7   65.72    4.71
   4   2  -7   72.22    5.48
   4   2  -7   67.79    5.43
  -4  -2   7   79.61    5.73
   4   2  -7   64.82    4.51
   4   2  -7   75.31    5.35
   4   2  -7   70.26    5.29
  -4  -2   7   78.93    5.65
  -4  -2   7   81.92    5.91
   4   2  -7   69.61    5.45
   4   2  -7   69.29    5.38
   4   2  -6  184.89    8.26
  -4  -2   6  202.47    8.96
   4   2  -6  178.56    8.01
   4   2  -6  196.61    8.87
   4   2  -6  181.51    8.68
   4   2  -6  181.85    8.85
  -4  -2   6  196.00    8.95
  -4  -2   6  198.56    8.74
  -4  -2   6  181.74    7.85
   4   2  -6  189.96    8.83
  -4  -2   6  196.45    9.05
   4   2  -6  169.72    8.58
   4   2  -6  190.55    9.01
  -4  -2   6  211.58    9.57
   4   2  -6  182.60    8.82
  -4  -2   5   46.60    4.35
   4   2  -5   46.71    4.51
   4   2  -5   49.90    4.47
  -4  -2   5   45.31    4.40
  -4  -2   5   43.69    4.04
  -4  -2   5   37.31    3.53
  -4  -2   5   44.93    4.11
   4   2  -5   48.19    4.38
  -4  -2   5   43.96    3.95
  -4  -2   5   48.22    4.21
  -4  -2   5   54.74    4.82
   4   2  -5   48.14    4.21
   4   2  -5   45.47    4.11
   4   2  -5   43.64    4.19
  -4  -2   5   48.15    3.87
  -4  -2   5   46.25    4.34
   4   2  -5   46.24    4.31
   4   2  -5   41.16    3.82
  -4  -2   5   51.26    4.59
   4   2  -5   50.79    4.51
  -4  -2   4   45.95    4.22
  -4  -2   4   44.20    4.11
   4   2  -4   44.27    4.25
  -4  -2   4   46.30    3.96
  -4  -2   4   45.70    4.02
   4   2  -4   52.98    4.46
  -4  -2   4   45.76    4.35
  -4  -2   4   43.96    4.16
   4   2  -4   42.72    3.92
   4   2  -4   45.75    4.07
   4   2  -4   51.99    4.44
  -4  -2   4   45.91    3.92
  -4  -2   4   43.99    4.18
   4   2  -4   43.27    4.01
   4   2  -4   42.40    4.26
   4   2  -4   39.71    3.85
   4   2  -4   52.10    4.37
  -4  -2   4   48.05    4.36
   4   2  -3  185.07    8.13
   4   2  -3  178.56    8.06
  -4  -2   3  179.71    7.29
  -4  -2   3  196.67    8.19
  -4  -2   3  198.70    8.73
  -4  -2   3  193.08    8.55
  -4  -2   3  204.67    9.04
   4   2  -3  185.90    7.92
   4   2  -3  181.86    8.40
   4   2  -3  184.73    8.11
  -4  -2   3  182.24    7.97
  -4  -2   3  201.36    8.60
  -4  -2   3  198.14    8.66
  -4  -2   3  186.62    8.15
   4   2  -3  198.63    8.43
  -4  -2   3  201.55    8.63
   4   2  -2   35.93    3.56
  -4  -2   2   40.56    3.94
   4   2  -2   30.22    3.00
   4   2  -2   42.64    3.81
  -4  -2   2   41.66    3.83
   4   2  -2   36.04    3.62
  -4  -2   2   38.22    3.51
  -4  -2   2   41.38    3.79
   4   2  -2   33.73    3.48
  -4  -2   2   46.42    4.03
   4   2  -2   36.48    3.58
   4   2  -2   33.82    3.41
  -4  -2   2   42.68    3.80
  -4  -2   2   39.10    3.72
  -4  -2   2   40.77    3.79
  -4  -2   2   38.63    3.54
  -4  -2   1   64.29    4.74
  -4  -2   1   61.23    4.62
   4   2  -1   45.01    3.92
   4   2  -1   54.21    4.29
  -4  -2   1   58.94    4.73
   4   2  -1   45.69    3.75
   4   2  -1   51.43    3.93
  -4  -2   1   55.54    4.32
  -4  -2   1   59.02    4.45
  -4  -2   1   64.47    4.73
   4   2  -1   49.16    4.15
  -4  -2   1   63.33    4.67
   4   2  -1   55.85    4.26
  -4  -2   1   58.15    4.54
   4   2  -1   52.82    4.18
  -4  -2   0    2.09    1.34
   4   2   0    6.15    1.65
   4   2   0    5.85    1.56
   4   2   0    5.63    1.61
   4   2   0    5.81    1.62
  -4  -2   0    4.58    1.55
   4   2   0    8.14    1.86
  -4  -2   0    5.47    1.57
   4   2   0    7.08    1.67
   4   2   0    4.33    1.44
   4   2   0    7.34    1.76
  -4  -2   0    4.05    1.51
  -4  -2   0    2.65    1.22
   4   2   1   73.59    5.27
   4   2   1   77.58    5.12
   4   2   1   82.46    5.21
  -4  -2  -1   66.88    4.98
  -4  -2  -1   60.81    4.85
  -4  -2  -1   64.22    4.88
   4   2   1   78.78    5.20
   4   2   1   77.46    5.09
  -4  -2  -1   63.91    4.57
  -4  -2  -1   68.65    5.09
  -4  -2  -1   59.37    4.78
   4   2   1   73.40    4.60
  -4  -2  -1   64.47    4.82
   4   2   1   76.96    4.85
  -4  -2  -1   68.15    5.11
  -4  -2  -1   64.81    4.91
   4   2   2    3.57    1.56
   4   2   2    1.71    1.04
  -4  -2  -2    3.09    1.37
   4   2   2    1.98    1.10
   4   2   2    2.79    1.39
  -4  -2  -2    1.65    1.21
  -4  -2  -2    1.07    1.18
  -4  -2  -2    0.93    1.13
   4   2   2    2.31    1.18
   4   2   2    2.91    1.13
  -4  -2  -2    2.08    1.12
  -4  -2  -2    1.63    1.02
   4   2   2    3.59    1.49
  -4  -2  -2    0.90    1.07
   4   2   2    2.06    1.25
  -4  -2  -3    6.27    1.87
  -4  -2  -3    9.04    2.11
  -4  -2  -3    6.12    1.71
  -4  -2  -3    5.34    1.91
   4   2   3   10.13    2.12
   4   2   3    3.77    1.24
  -4  -2  -3    5.40    1.55
   4   2   3    2.66    1.45
   4   2   3    2.71    1.16
  -4  -2  -3    5.20    1.63
  -4  -2  -3    6.28    1.79
   4   2   3    3.42    1.46
  -4  -2  -3    5.96    1.93
  -4  -2  -4  179.73    8.74
  -4  -2  -4  184.32    8.39
  -4  -2  -4  186.49    8.94
  -4  -2  -4  180.47    8.59
  -4  -2  -4  184.94    8.89
   4   2   4  157.09    7.39
   4   2   4  165.21    8.20
  -4  -2  -4  159.41    7.62
   4   2   4  175.86    8.29
  -4  -2  -4  169.44    8.45
   4   2   4  159.63    7.90
  -4  -2  -4  155.39    8.48
   4   2   5    8.49    1.74
  -4  -2  -5    8.93    2.20
  -4  -2  -5   11.25    1.97
   4   2   5    6.06    1.61
   4   2   5    7.06    1.83
  -4  -2  -5   11.54    2.53
   4   2   5    6.98    1.81
  -4  -2  -5    8.20    2.16
  -4  -2  -5    7.92    2.04
  -4  -2  -6   59.76    4.34
  -4  -2  -6   48.37    3.95
  -4  -2  -6   59.78    4.91
   4   2   6   50.74    4.11
  -4  -2  -6   59.61    4.73
  -4  -2  -6   60.80    4.91
  -4  -2  -6   57.17    4.08
  -4  -2  -6   57.96    4.71
  -4  -2  -6   67.13    4.83
  -4  -2  -7  140.20    6.37
   4   2   7  140.66    6.15
   4   2   7  139.67    6.02
  -4  -2  -7  135.88    5.97
  -4  -2  -7  139.48    6.61
   4   2   7  155.37    7.30
  -4  -2  -7  156.60    7.14
  -4  -2  -7  154.10    7.19
  -4  -2  -8   32.59    2.74
   4   2   8   27.05    2.82
   4   2   8   27.23    2.66
   4   2   8   31.10    3.03
  -4  -2  -8   35.46    3.07
  -4  -2  -8   34.21    2.91
   4   2   9    1.57    0.72
   4   2   9    1.63    0.75
  -4  -3  10   21.87    2.11
  -4  -3  10   17.41    1.78
   4   3  -9   24.82    2.55
   4   3  -9   22.20    2.39
   4   3  -9   26.60    2.82
  -4  -3   9   25.57    2.64
  -4  -3   9   30.92    3.16
  -4  -3   8   52.39    4.54
  -4  -3   8   53.35    4.53
   4   3  -8   62.12    4.35
   4   3  -8   56.19    4.05
  -4  -3   8   43.57    3.80
   4   3  -8   63.22    4.55
   4   3  -8   61.35    4.61
  -4  -3   7   14.78    2.68
   4   3  -7    7.74    1.82
  -4  -3   7   11.17    2.35
   4   3  -7    6.78    1.98
   4   3  -7    7.64    2.04
   4   3  -7    6.96    1.77
  -4  -3   7    7.21    1.81
   4   3  -6  116.06    6.30
  -4  -3   6  154.61    7.92
   4   3  -6  111.48    6.02
   4   3  -6  121.05    6.87
  -4  -3   6  137.90    7.22
   4   3  -6  130.04    7.48
   4   3  -6  137.42    7.60
  -4  -3   6  107.56    6.05
  -4  -3   6  141.18    7.58
   4   3  -6  125.87    7.32
   4   3  -6  135.30    7.27
  -4  -3   6  112.36    6.13
  -4  -3   6  134.39    6.93
  -4  -3   6  161.42    8.22
   4   3  -5   79.25    5.37
   4   3  -5   78.30    5.29
  -4  -3   5   75.10    5.13
   4   3  -5   85.67    5.84
  -4  -3   5   93.59    6.25
   4   3  -5   72.03    5.14
  -4  -3   5   72.86    5.43
   4   3  -5   88.72    5.94
  -4  -3   5   79.20    5.64
  -4  -3   5   75.89    5.68
  -4  -3   5   59.66    4.93
  -4  -3   5   62.47    4.89
  -4  -3   5   74.07    5.40
   4   3  -5   83.76    6.07
   4   3  -5   86.35    6.10
  -4  -3   5   84.84    5.88
  -4  -3   4    5.77    1.80
  -4  -3   4    4.28    1.58
  -4  -3   4    4.75    1.54
   4   3  -4    6.19    1.86
   4   3  -4    5.46    1.83
   4   3  -4    5.94    1.74
  -4  -3   4    5.71    1.65
   4   3  -4    6.23    2.02
  -4  -3   4    4.69    1.62
   4   3  -4    5.35    1.74
  -4  -3   4    4.69    1.69
  -4  -3   4    5.30    1.80
   4   3  -4    5.16    1.73
  -4  -3   4    5.35    1.71
  -4  -3   4    5.54    1.80
   4   3  -3   91.68    6.08
  -4  -3   3   81.43    5.70
  -4  -3   3   84.06    5.68
  -4  -3   3   76.30    5.57
   4   3  -3  104.48    6.38
  -4  -3   3   89.10    6.10
  -4  -3   3   86.26    5.99
   4   3  -3   91.01    5.88
   4   3  -3   79.75    4.82
   4   3  -3   95.67    6.00
  -4  -3   3   69.93    4.93
  -4  -3   3   89.97    5.86
  -4  -3   3   82.78    5.88
   4   3  -3   99.87    6.30
   4   3  -3   89.83    6.02
  -4  -3   3   82.74    5.76
   4   3  -3   96.99    6.21
  -4  -3   2   22.09    2.94
  -4  -3   2   19.98    2.80
   4   3  -2   30.35    3.52
  -4  -3   2   19.61    2.94
   4   3  -2   33.76    3.68
   4   3  -2   26.77    3.35
   4   3  -2   25.30    2.86
  -4  -3   2   19.27    2.78
   4   3  -2   26.40    3.32
  -4  -3   2   21.49    3.02
  -4  -3   2   18.26    2.87
   4   3  -2   28.52    3.64
  -4  -3   2   22.26    3.03
   4   3  -2   28.37    3.38
   4   3  -2   26.95    3.10
   4   3  -2   22.96    2.62
  -4  -3   2   19.33    2.90
   4   3  -2   28.07    3.46
   4   3  -1  131.24    7.15
  -4  -3   1  116.71    6.91
   4   3  -1  103.24    5.77
   4   3  -1  111.50    6.36
   4   3  -1  117.18    6.13
  -4  -3   1  107.70    6.42
  -4  -3   1  114.42    6.62
   4   3  -1  130.50    7.16
   4   3  -1  127.34    7.22
  -4  -3   1  116.29    6.61
   4   3  -1  117.06    6.46
   4   3  -1  117.70    6.57
  -4  -3   1  106.11    6.28
   4   3  -1  122.80    6.78
  -4  -3   1  115.08    6.76
   4   3   0   66.08    4.76
  -4  -3   0   63.63    5.03
  -4  -3   0   66.49    5.22
   4   3   0   68.01    5.29
  -4  -3   0   61.31    4.89
   4   3   0   64.69    4.63
  -4  -3   0   68.41    5.09
   4   3   0   65.16    4.73
   4   3   0   67.46    5.09
   4   3   0   73.10    4.98
  -4  -3   0   63.97    5.12
   4   3   0   68.50    4.87
  -4  -3   0   65.80    5.19
  -4  -3   0   68.79    5.28
  -4  -3  -1  123.86    7.09
   4   3   1  139.49    7.15
  -4  -3  -1  136.48    7.55
   4   3   1  134.79    7.37
  -4  -3  -1  127.47    7.16
  -4  -3  -1  122.43    7.14
   4   3   1  121.91    6.22
  -4  -3  -1  122.81    7.02
   4   3   1  137.53    7.32
   4   3   1  137.79    6.86
  -4  -3  -1  122.41    7.19
   4   3   1  138.49    7.24
  -4  -3  -1  133.10    7.45
   4   3   2   22.19    3.06
   4   3   2   27.22    3.36
  -4  -3  -2   14.61    2.68
  -4  -3  -2   16.10    2.68
  -4  -3  -2   15.39    2.81
  -4  -3  -2   16.31    2.80
   4   3   2   18.35    2.48
  -4  -3  -2   13.93    2.60
  -4  -3  -2   17.14    2.84
  -4  -3  -2   16.25    2.81
   4   3   2   23.61    3.20
   4   3   2   23.47    2.94
  -4  -3  -2   13.75    2.54
   4   3   2   19.03    2.88
  -4  -3  -2   18.22    2.95
  -4  -3  -3    9.89    2.32
  -4  -3  -3    9.83    2.24
  -4  -3  -3   11.44    2.47
   4   3   3    5.06    1.69
  -4  -3  -3    9.99    2.17
  -4  -3  -3   10.84    2.39
   4   3   3    6.17    1.61
  -4  -3  -3    6.57    1.84
   4   3   3    6.30    1.79
  -4  -3  -3    9.10    2.12
   4   3   3    5.68    1.68
  -4  -3  -4   50.61    4.58
  -4  -3  -4   53.11    4.79
   4   3   4   54.75    4.50
  -4  -3  -4   46.22    4.28
  -4  -3  -4   52.41    4.51
  -4  -3  -4   52.68    4.74
   4   3   4   54.27    4.46
  -4  -3  -4   45.09    4.49
  -4  -3  -4   52.64    4.79
   4   3   5   13.00    2.21
   4   3   5   14.44    2.33
  -4  -3  -5   15.80    2.75
  -4  -3  -5   13.96    2.58
  -4  -3  -5   15.54    2.13
  -4  -3  -6   12.55    2.28
  -4  -3  -6   11.17    2.04
   4   3   6    7.96    1.55
   4   3   6    9.36    1.91
  -4  -3  -6   10.69    2.19
   4   3   6   11.24    2.30
  -4  -3  -6   11.37    1.91
   4   3   7   15.89    2.25
  -4  -3  -7   20.63    2.42
  -4  -3  -7   16.99    2.17
   4   3   7   14.63    2.26
  -4  -3  -7   18.93    2.46
  -4  -3  -7   17.19    2.01
   4   3   7   12.63    1.94
   4   3   8   33.30    2.49
   4   3   8   30.05    2.29
  -4  -3  -8   29.90    2.38
  -4  -3  -8   27.23    2.17
  -4  -3  -8   26.50    2.29
  -4  -4  10    8.43    1.05
  -4  -4  10   10.21    1.17
   4   4  -9   18.47    1.93
  -4  -4   9   15.89    2.00
   4   4  -8   14.25    2.15
  -4  -4   8   13.44    2.18
  -4  -4   8   14.44    2.28
  -4  -4   7    1.46    1.25
  -4  -4   7    1.42    1.06
   4   4  -7    1.87    1.32
  -4  -4   7    1.49    1.11
   4   4  -7    1.94    1.08
  -4  -4   6   25.61    2.97
   4   4  -6   37.32    3.79
  -4  -4   6   35.89    3.84
   4   4  -6   32.02    3.38
  -4  -4   6   32.42    3.44
  -4  -4   6   40.11    4.07
  -4  -4   5    5.96    1.64
   4   4  -5    9.45    2.15
   4   4  -5    6.92    1.84
  -4  -4   5    4.79    1.55
   4   4  -5    5.73    1.75
  -4  -4   5    6.82    1.95
  -4  -4   4   41.16    3.62
  -4  -4   4   50.80    4.55
  -4  -4   4   60.81    5.17
   4   4  -4   43.84    4.36
   4   4  -4   47.35    4.43
  -4  -4   4   56.62    4.99
  -4  -4   4   51.26    4.53
   4   4  -4   51.10    4.80
  -4  -4   4   44.28    4.11
   4   4  -4   50.70    4.79
   4   4  -4   49.99    4.49
  -4  -4   4   52.39    4.74
  -4  -4   4   58.52    4.84
  -4  -4   3   33.35    3.52
  -4  -4   3   39.00    4.12
  -4  -4   3   37.69    4.19
   4   4  -3   32.84    3.91
   4   4  -3   34.03    3.85
  -4  -4   3   36.50    3.92
   4   4  -3   34.54    3.96
  -4  -4   3   29.28    3.76
  -4  -4   3   35.47    3.87
   4   4  -3   26.25    3.05
  -4  -4   3   36.51    3.83
   4   4  -3   30.93    3.77
  -4  -4   3   38.14    4.02
   4   4  -2   30.82    3.68
  -4  -4   2   33.57    4.02
  -4  -4   2   34.78    3.83
   4   4  -2   28.71    3.83
  -4  -4   2   34.67    3.97
  -4  -4   2   32.38    3.71
  -4  -4   2   39.37    4.19
  -4  -4   2   28.14    3.68
   4   4  -2   24.45    3.14
  -4  -4   2   31.27    3.65
   4   4  -2   25.00    3.34
  -4  -4   2   30.68    3.65
  -4  -4   2   35.83    3.91
   4   4  -2   24.69    2.71
   4   4  -1   18.31    2.53
  -4  -4   1   16.69    2.86
  -4  -4   1   16.94    2.52
   4   4  -1   15.63    2.56
   4   4  -1   14.99    2.65
   4   4  -1   17.97    2.58
  -4  -4   1   16.45    2.92
  -4  -4   1   12.51    2.72
  -4  -4   1   14.10    2.56
  -4  -4   0   17.98    2.99
   4   4   0   13.81    2.63
   4   4   0   14.21    2.33
  -4  -4   0   19.24    3.09
  -4  -4   0   20.39    3.16
   4   4   0   15.21    2.84
  -4  -4   0   15.51    2.55
  -4  -4   0   17.88    2.92
   4   4   0   13.52    2.21
  -4  -4   0   17.24    2.90
  -4  -4   0   17.35    2.85
   4   4   0   17.06    2.82
  -4  -4   0   19.44    2.75
   4   4   0   13.71    2.25
  -4  -4  -1    2.04    1.29
  -4  -4  -1    4.17    1.72
   4   4   1    4.61    1.83
   4   4   1    3.96    1.53
  -4  -4  -1    1.97    1.29
  -4  -4  -1    3.54    1.63
   4   4   1    4.28    1.89
  -4  -4  -1    4.43    1.49
  -4  -4  -2   21.92    2.98
   4   4   2   28.77    3.39
   4   4   2   29.53    3.78
  -4  -4  -2   23.38    3.31
  -4  -4  -2   22.14    3.16
  -4  -4  -2   23.50    3.41
  -4  -4  -2   22.27    3.27
   4   4   2   32.66    3.68
  -4  -4  -2   20.05    3.10
   4   4   2   29.34    3.51
   4   4   2   22.82    2.97
  -4  -4  -2   23.11    3.32
  -4  -4  -3   41.95    3.93
  -4  -4  -3   39.22    4.09
  -4  -4  -3   38.34    4.15
   4   4   3   35.15    3.72
   4   4   3   27.74    3.27
  -4  -4  -3   35.27    3.69
  -4  -4  -3   31.40    3.44
   4   4   3   28.11    3.38
  -4  -4  -3   42.60    4.26
   4   4   3   28.69    3.18
  -4  -4  -4   92.81    5.73
  -4  -4  -4  104.07    6.30
   4   4   4   97.21    5.75
   4   4   4   94.24    5.30
  -4  -4  -4   78.98    5.28
   4   4   4   93.38    5.84
  -4  -4  -4   96.96    6.04
   4   4   4   88.72    5.70
  -4  -4  -4  100.41    6.29
  -4  -4  -4   99.42    6.06
  -4  -4  -4   92.01    5.95
  -4  -4  -5   47.86    3.98
  -4  -4  -5   41.46    3.55
   4   4   5   37.87    3.45
  -4  -4  -5   49.09    4.05
   4   4   5   40.63    3.72
  -4  -4  -5   50.58    4.14
   4   4   5   44.72    3.93
  -4  -4  -6   13.93    2.04
   4   4   6   13.47    1.77
  -4  -4  -6    9.81    1.54
  -4  -4  -6   13.54    2.05
  -4  -4  -6   14.27    1.95
   4   4   6   15.72    2.21
  -4  -4  -6   14.41    2.02
  -4  -4  -7    3.48    0.91
  -4  -4  -7    3.63    0.90
   4   4   7    3.14    0.96
  -4  -5   9    5.18    0.85
  -4  -5   8    1.12    0.73
   4   5  -8    0.55    0.81
  -4  -5   7   50.20    3.64
  -4  -5   7   49.19    3.65
   4   5  -7   48.00    3.53
   4   5  -7   44.80    3.34
  -4  -5   6   93.44    5.46
   4   5  -6  101.70    5.40
  -4  -5   6   89.11    5.26
  -4  -5   5  208.66    8.66
   4   5  -5  194.64    8.10
   4   5  -5  195.08    7.99
  -4  -5   5  207.82    8.92
  -4  -5   5  180.29    7.72
  -4  -5   5  204.79    8.65
   4   5  -4   42.46    4.07
  -4  -5   4   44.92    4.08
   4   5  -4   41.71    3.79
  -4  -5   4   32.32    3.11
  -4  -5   4   43.26    4.28
  -4  -5   4   43.63    4.12
  -4  -5   4   45.44    4.39
   4   5  -3  112.34    6.72
  -4  -5   3  117.97    6.71
  -4  -5   3  115.96    6.46
  -4  -5   3  110.13    6.64
  -4  -5   3   97.95    5.83
  -4  -5   3  123.90    6.98
  -4  -5   3  101.38    5.87
  -4  -5   3   95.76    5.54
   4   5  -3   90.41    5.32
   4   5  -3  105.19    5.93
  -4  -5   3  115.69    6.66
  -4  -5   2    6.59    1.88
  -4  -5   2    6.17    1.70
   4   5  -2    4.20    1.47
  -4  -5   2    7.77    1.99
  -4  -5   2    6.44    1.81
   4   5  -2    6.35    2.15
  -4  -5   2    8.26    2.26
   4   5  -2    4.02    1.56
  -4  -5   2    8.12    1.92
  -4  -5   1   38.43    3.85
  -4  -5   1   34.73    3.90
  -4  -5   1   41.77    4.35
  -4  -5   1   40.95    4.31
  -4  -5   1   34.91    3.71
  -4  -5   1   38.00    3.86
  -4  -5   1   31.82    3.53
   4   5  -1   32.62    3.63
   4   5   0   25.49    3.27
  -4  -5   0   23.58    3.37
  -4  -5   0   25.54    3.55
  -4  -5   0   25.92    3.25
  -4  -5   0   21.94    3.08
   4   5   0   19.50    3.08
  -4  -5  -1   19.81    2.97
   4   5   1   24.10    3.24
   4   5   1   22.86    3.11
  -4  -5  -1   16.73    2.65
  -4  -5  -1   20.91    3.14
  -4  -5  -1   21.54    2.95
   4   5   1   24.26    3.21
  -4  -5  -2   32.42    3.50
  -4  -5  -2   35.03    3.86
   4   5   2   28.08    3.44
   4   5   2   25.70    3.17
  -4  -5  -2   38.23    3.86
  -4  -5  -2   31.32    3.47
  -4  -5  -3   94.83    5.77
  -4  -5  -3   63.73    4.34
   4   5   3   91.45    5.15
  -4  -5  -3   75.07    4.74
  -4  -5  -3   92.18    5.64
   4   5   3   68.14    4.38
  -4  -5  -3   91.68    5.46
   4   5   3   95.48    5.50
   4   5   4   60.95    4.10
  -4  -5  -4   62.59    4.23
   4   5   4   46.75    3.52
  -4  -5  -4   64.92    4.22
   4   5   4   57.01    3.91
  -4  -5  -4   61.57    4.04
  -4  -5  -4   67.06    4.41
   4   5   4   64.92    4.22
  -4  -5  -5   17.15    2.12
  -4  -5  -5   14.69    1.80
   4   5   5   18.38    1.97
  -4  -5  -5   16.71    2.02
   4   5   5   17.58    2.03
   4   5   5   14.36    1.84
  -4  -5  -5   14.64    1.79
   4   5   6   50.39    2.67
   4   5   6   38.82    2.39
   4   6  -7   26.37    1.99
  -4  -6   7   26.21    2.09
   4   6  -6    7.77    1.38
  -4  -6   6    4.90    1.01
  -4  -6   6    4.55    1.17
  -4  -6   5   35.28    2.96
   4   6  -5   33.39    2.69
  -4  -6   5   46.95    3.44
   4   6  -5   41.12    3.07
  -4  -6   5   35.79    3.21
   4   6  -5   35.03    2.68
  -4  -6   5   37.73    2.90
  -4  -6   4  185.65    6.98
   4   6  -4  179.86    7.01
  -4  -6   4  204.83    7.72
   4   6  -4  189.85    6.72
  -4  -6   4  188.46    7.54
  -4  -6   4  197.97    8.01
   4   6  -3   13.55    1.84
  -4  -6   3   23.43    2.84
  -4  -6   3   23.81    3.01
  -4  -6   3   20.25    2.69
  -4  -6   3   24.60    2.75
  -4  -6   2    9.57    1.94
  -4  -6   2   10.95    2.25
   4   6  -2    6.14    1.48
  -4  -6   2    8.05    1.76
  -4  -6   2   11.07    2.05
  -4  -6   1   18.54    2.20
   4   6  -1   27.77    2.98
  -4  -6   1   24.39    2.85
  -4  -6   1   20.37    2.77
  -4  -6   1   29.72    3.24
  -4  -6   1   28.51    3.30
  -4  -6   1   23.55    2.59
   4   6  -1   28.50    3.00
   4   6   0    0.29    0.91
  -4  -6   0   -0.09    0.80
  -4  -6   0    0.67    0.77
  -4  -6   0    0.53    0.73
  -4  -6   0    0.98    0.98
  -4  -6   0    1.34    1.10
  -4  -6   0    0.90    1.11
  -4  -6   0    0.88    1.02
   4   6   0   -0.20    1.06
  -4  -6  -1   11.96    2.07
  -4  -6  -1   10.89    1.75
  -4  -6  -1   11.37    1.78
  -4  -6  -1    9.23    1.70
  -4  -6  -1    9.88    1.86
   4   6   1    3.78    1.08
   4   6   1    8.22    1.78
  -4  -6  -2    8.74    1.62
  -4  -6  -2    8.27    1.41
   4   6   2    8.84    1.63
  -4  -6  -2   11.68    1.87
  -4  -6  -2   11.63    1.98
  -4  -6  -2    9.26    1.57
  -4  -6  -2    8.80    1.73
   4   6   3   12.86    1.79
  -4  -6  -3   13.53    1.70
  -4  -6  -3   12.27    1.77
   4   6   3    9.24    1.48
  -4  -6  -3   11.11    1.38
  -4  -6  -4    0.56    0.68
  -4  -6  -4    0.10    0.56
   4   6   4    0.81    0.61
   4   6   4    0.44    0.55
  -4  -7   4    0.67    0.56
   4   7  -4    0.25    0.55
   4   7  -4    0.21    0.57
  -4  -7   4    0.67    0.65
   4   7  -3   14.31    1.70
  -4  -7   3   13.26    1.62
   4   7  -3   13.62    1.66
  -4  -7   3    9.23    1.54
  -4  -7   3   12.80    1.68
  -4  -7   3   10.54    1.46
   4   7  -2    9.39    1.53
  -4  -7   2    7.92    1.35
   4   7  -2    7.67    1.44
  -4  -7   2    7.27    1.41
   4   7  -2    7.49    1.14
  -4  -7   2    8.89    1.44
   4   7  -1   43.05    2.67
   4   7  -1   40.38    2.66
  -4  -7   1   46.40    2.98
  -4  -7   1   38.40    3.04
  -4  -7   1   40.07    2.86
  -4  -7   1   43.92    3.01
  -4  -7   0   36.98    2.68
  -4  -7   0   48.67    3.11
   4   7   0   37.68    2.52
   4   7   0   37.33    2.62
  -4  -7   0   46.97    2.73
  -4  -7   0   49.42    2.94
   4   7   0   48.45    2.93
  -4  -7   0   39.41    2.85
   4   7   0   35.70    2.51
  -4  -7  -1    3.15    0.81
  -4  -7  -1    2.32    0.78
   4   7   1    3.34    0.88
   4   7   1    2.94    0.83
  -5  10   0    9.86    1.49
  -5  10   0   12.43    1.82
  -5  10  -1    8.33    1.48
  -5  10  -1    6.42    1.26
  -5  10  -2    6.16    1.22
  -5  10  -3   18.91    1.90
  -5  10  -4    7.70    1.12
  -5   9   6    9.97    1.24
  -5   9   5   24.98    2.36
  -5   9   5   31.87    2.70
  -5   9   5   30.28    2.57
  -5   9   4    2.22    1.10
  -5   9   4    1.34    0.89
  -5   9   4    1.97    1.10
  -5   9   4    1.76    0.91
  -5   9   3  157.40    6.34
  -5   9   3  190.69    7.86
  -5   9   2   67.02    4.55
  -5   9   2   73.60    4.94
  -5   9   2   66.05    4.72
  -5   9   2   67.92    4.71
  -5   9   1  135.90    6.94
  -5   9   1  141.45    6.87
  -5   9   1  134.80    6.78
  -5   9   1  132.82    7.01
  -5   9   0   24.09    3.14
  -5   9   0   22.69    2.89
  -5   9   0   25.53    3.06
  -5   9  -1   53.78    4.49
  -5   9  -1   52.73    4.14
  -5   9  -1   53.60    4.33
  -5   9  -2   55.68    4.38
  -5   9  -2   57.81    4.31
  -5   9  -2   58.14    4.47
  -5   9  -2   53.19    3.84
  -5   9  -3    7.66    1.78
  -5   9  -3    6.75    1.69
  -5   9  -4   41.53    3.46
   5  -9   5   20.77    1.96
  -5   9  -5   23.30    2.37
   5  -9   6    2.69    0.84
  -5   9  -6    1.59    0.71
  -5   8   7    3.91    1.11
  -5   8   7    3.40    0.94
  -5   8   6    7.90    1.55
  -5   8   6    8.95    1.70
  -5   8   6    6.27    1.36
  -5   8   6    5.36    1.18
  -5   8   5   30.32    3.23
  -5   8   5   31.88    3.34
  -5   8   5   30.56    3.09
  -5   8   5   30.89    3.21
  -5   8   5   27.45    2.71
  -5   8   4   11.82    2.03
  -5   8   4   16.67    2.60
  -5   8   4   13.37    2.30
  -5   8   4   12.53    2.40
  -5   8   4   13.97    2.08
  -5   8   3   23.19    2.41
  -5   8   3   26.12    3.31
  -5   8   3   22.25    2.99
  -5   8   3   22.74    2.88
  -5   8   3   20.60    2.95
  -5   8   3   20.91    2.54
  -5   8   3   25.12    3.31
  -5   8   2   13.33    1.99
  -5   8   2   16.84    2.80
  -5   8   2   16.11    2.70
  -5   8   2   21.98    3.08
  -5   8   2   17.33    2.55
  -5   8   2   16.94    2.73
  -5   8   2   17.20    2.83
  -5   8   2   19.25    2.86
  -5   8   2   18.88    2.97
  -5   8   1  105.95    6.69
  -5   8   1   88.06    5.04
  -5   8   1  100.17    6.28
  -5   8   1   78.44    4.78
  -5   8   1  107.46    6.79
  -5   8   1  100.15    6.38
  -5   8   1  107.98    6.40
  -5   8   1  111.15    6.79
  -5   8   0   43.43    4.49
  -5   8   0   36.63    3.80
  -5   8   0   38.52    3.83
  -5   8   0   39.74    4.19
  -5   8   0   36.66    3.72
  -5   8   0   39.42    4.21
  -5   8   0   38.82    4.11
  -5   8  -1   20.27    3.18
  -5   8  -1   16.96    2.53
  -5   8  -1   24.56    3.27
  -5   8  -1   21.90    2.81
  -5   8  -1   19.50    2.89
  -5   8  -2   14.83    2.24
  -5   8  -2   12.88    2.22
  -5   8  -2   12.84    1.97
  -5   8  -2   16.87    2.79
  -5   8  -3    6.16    1.91
  -5   8  -3    4.77    1.32
  -5   8  -3    2.76    1.05
  -5   8  -3    3.23    1.42
  -5   8  -4   59.50    4.62
  -5   8  -4   55.41    4.06
  -5   8  -4   45.89    3.62
   5  -8   5    2.63    1.12
  -5   8  -5    4.16    1.24
  -5   8  -5    5.91    1.63
  -5   8  -6    7.56    1.57
   5  -8   6   11.81    1.74
   5  -8   6   11.29    1.64
   5  -8   7    5.20    1.21
  -5   8  -7    7.79    1.26
   5  -8   7    5.05    1.14
   5  -8   7    4.73    0.98
  -5   7   8   34.91    2.76
  -5   7   8   34.56    2.66
  -5   7   8   30.21    2.29
  -5   7   7   26.06    2.89
  -5   7   7   25.19    2.79
  -5   7   7   21.54    2.32
  -5   7   7   21.49    2.39
  -5   7   7   16.31    2.07
  -5   7   6  120.56    6.62
  -5   7   6  113.87    5.98
  -5   7   6  121.87    6.41
  -5   7   6  104.36    5.55
  -5   7   5  247.85   10.29
  -5   7   5  237.98    9.52
  -5   7   5  252.73   10.22
  -5   7   5  238.20    8.92
  -5   7   4   36.46    4.00
  -5   7   4   35.00    3.61
  -5   7   4   35.29    3.76
  -5   7   4   41.67    4.32
  -5   7   4   32.60    3.30
  -5   7   3  117.61    6.94
  -5   7   3  122.21    7.34
  -5   7   3  126.60    7.59
  -5   7   3  100.73    5.62
  -5   7   3  109.71    6.73
  -5   7   3  122.46    7.25
  -5   7   3  121.18    7.04
  -5   7   2   20.74    2.90
  -5   7   2   19.30    2.32
  -5   7   2   23.92    3.39
  -5   7   2   18.17    2.35
  -5   7   2   19.62    3.21
   5  -7  -2   14.93    2.53
  -5   7   2   20.56    3.20
  -5   7   2   22.24    3.19
  -5   7   2   20.88    3.05
  -5   7   2   19.00    3.02
  -5   7   1   61.11    4.14
   5  -7  -1   63.27    5.01
  -5   7   1   74.58    5.73
  -5   7   1   79.37    5.92
  -5   7   1   66.51    5.72
  -5   7   1   71.18    5.32
  -5   7   1   75.92    5.69
  -5   7   1   72.38    5.49
  -5   7   0  100.21    5.78
   5  -7   0  112.50    6.95
   5  -7   0   98.13    6.43
  -5   7   0  101.91    5.70
  -5   7   0  118.26    7.34
  -5   7   0  110.97    6.98
  -5   7   0  114.75    7.00
  -5   7   0   99.69    7.04
  -5   7   0  104.03    6.40
  -5   7   0  110.71    6.53
  -5   7  -1   69.01    4.98
   5  -7   1   74.59    5.89
   5  -7   1   75.71    5.89
  -5   7  -1   66.53    4.89
  -5   7  -1   77.99    5.75
  -5   7  -1   71.32    5.35
  -5   7  -1   69.82    5.80
  -5   7  -1   66.33    4.94
  -5   7  -1   71.45    5.01
   5  -7   2  425.39   14.95
   5  -7   2  425.64   14.91
  -5   7  -2  434.18   13.72
  -5   7  -2  464.08   14.50
  -5   7  -2  462.12   14.42
  -5   7  -2  423.45   13.07
  -5   7  -2  419.05   14.61
  -5   7  -2  447.41   14.75
  -5   7  -2  444.02   13.40
  -5   7  -3   31.61    3.54
   5  -7   3   35.17    4.23
   5  -7   3   35.60    4.27
  -5   7  -3   28.00    3.59
  -5   7  -3   25.94    3.29
  -5   7  -3   25.39    2.81
  -5   7  -3   29.42    3.59
  -5   7  -3   28.73    3.54
  -5   7  -3   29.49    3.55
  -5   7  -4  221.88    9.65
  -5   7  -4  182.78    7.86
  -5   7  -4  229.34    8.98
  -5   7  -4  229.17    9.44
  -5   7  -4  254.59   10.40
  -5   7  -4  236.98    9.76
  -5   7  -4  188.80    8.38
  -5   7  -5   16.19    2.60
  -5   7  -5   13.81    2.38
  -5   7  -5   15.83    2.64
  -5   7  -6   31.47    3.15
   5  -7   6   28.41    2.84
   5  -7   6   28.94    2.91
   5  -7   7   21.31    2.42
  -5   7  -7   21.38    2.25
  -5   7  -7   22.35    2.49
  -5   7  -7   18.82    2.21
   5  -7   7   17.94    2.01
   5  -7   7   18.16    2.08
   5  -7   8   12.69    1.61
   5  -7   8   11.68    1.64
   5  -7   8   13.54    1.68
  -5   7  -8    7.88    1.28
  -5   7  -8    7.16    1.16
  -5   7  -8    6.39    0.92
  -5   6   9    6.57    1.10
  -5   6   9    7.20    1.22
  -5   6   9    7.78    1.27
  -5   6   8   47.71    3.43
  -5   6   8   53.69    3.95
  -5   6   8   52.31    3.90
  -5   6   8   44.16    3.02
  -5   6   7    3.91    1.38
  -5   6   7    7.38    1.72
  -5   6   7    6.60    1.89
  -5   6   7    4.90    1.31
  -5   6   6  157.01    7.30
  -5   6   6  169.27    8.58
  -5   6   6  159.91    8.03
  -5   6   6  174.04    8.69
  -5   6   6  157.77    7.38
  -5   6   5  167.39    7.58
  -5   6   5  155.71    7.16
  -5   6   5  173.98    8.79
  -5   6   5  170.35    8.00
   5  -6  -5  179.13    9.02
   5  -6  -4  190.71    8.84
  -5   6   4  176.30    8.61
  -5   6   4  180.62    7.75
  -5   6   4  201.75    9.58
  -5   6   4  211.93    9.86
  -5   6   4  199.69    9.45
  -5   6   4  198.54    8.82
   5  -6  -3   34.78    3.88
  -5   6   3   42.94    4.41
  -5   6   3   43.45    3.61
  -5   6   3   46.02    4.45
  -5   6   3   41.49    3.89
  -5   6   3   50.47    4.82
  -5   6   3   47.31    4.52
  -5   6   3   47.61    4.28
   5  -6  -2   38.67    3.70
  -5   6   2   47.36    4.65
  -5   6   2   56.20    5.04
  -5   6   2   52.27    4.75
  -5   6   2   43.38    4.15
  -5   6   2   54.32    4.88
  -5   6   2   42.46    3.81
  -5   6   2   48.17    4.55
  -5   6   2   48.17    4.38
  -5   6   2   47.99    4.29
   5  -6  -1  173.42    8.18
  -5   6   1  182.05    9.24
  -5   6   1  168.78    8.62
  -5   6   1  163.67    8.42
  -5   6   1  145.61    6.57
  -5   6   1  155.96    7.46
  -5   6   1  158.04    7.48
  -5   6   1  163.23    8.14
  -5   6   1  154.77    7.69
  -5   6   1  161.49    8.08
  -5   6   0   67.36    4.97
   5  -6   0   58.57    4.98
   5  -6   0   57.22    4.79
  -5   6   0   69.66    5.66
  -5   6   0   60.18    4.49
  -5   6   0   65.09    5.16
  -5   6   0   73.44    5.81
  -5   6   0   68.56    5.52
  -5   6   0   76.82    5.54
  -5   6   0   67.41    5.04
  -5   6   0   65.48    4.84
  -5   6  -1  106.98    6.25
  -5   6  -1  103.63    6.36
   5  -6   1  110.46    7.03
   5  -6   1   97.62    6.52
  -5   6  -1   81.34    5.10
  -5   6  -1  104.06    6.90
  -5   6  -1   98.43    6.06
  -5   6  -1   96.02    5.57
  -5   6  -1   98.91    5.79
  -5   6  -1  113.89    6.77
  -5   6  -1  114.02    7.22
  -5   6  -1  109.93    6.42
  -5   6  -2  205.52    9.26
  -5   6  -2  216.27    9.53
   5  -6   2  217.06   10.28
   5  -6   2  221.56   10.36
  -5   6  -2  223.41    9.62
  -5   6  -2  225.00   10.32
  -5   6  -2  204.83    8.57
  -5   6  -2  220.41    9.53
  -5   6  -2  213.71    9.19
  -5   6  -2  212.76    9.87
  -5   6  -2  176.87    8.18
  -5   6  -3   54.62    4.80
   5  -6   3   60.58    5.52
  -5   6  -3   56.85    4.90
  -5   6  -3   55.47    5.10
  -5   6  -3   51.91    4.73
  -5   6  -3   48.39    4.60
  -5   6  -3   42.35    4.24
  -5   6  -3   58.81    4.96
  -5   6  -4   31.16    3.86
  -5   6  -4   28.63    3.50
  -5   6  -4   27.38    3.64
   5  -6   4   33.01    4.16
   5  -6   4   30.69    3.93
  -5   6  -4   27.35    3.25
  -5   6  -4   26.02    3.46
  -5   6  -4   29.41    3.73
  -5   6  -5   10.69    2.18
  -5   6  -5   10.68    2.28
   5  -6   5   13.32    2.33
  -5   6  -5   10.55    2.21
  -5   6  -5    9.42    2.28
  -5   6  -5    9.88    2.23
  -5   6  -6   15.09    2.57
  -5   6  -6   14.96    2.34
  -5   6  -6   13.18    2.24
   5  -6   6   16.31    2.41
  -5   6  -6   17.90    2.63
   5  -6   6   15.30    2.54
  -5   6  -6   18.53    2.86
  -5   6  -7   11.89    2.08
   5  -6   7    8.18    1.61
  -5   6  -7   12.84    2.28
   5  -6   7    8.79    1.83
  -5   6  -7   11.45    1.80
  -5   6  -7   16.26    2.44
   5  -6   8    8.33    1.54
   5  -6   8    8.33    1.61
   5  -6   8   10.95    1.78
   5  -6   8    9.97    1.79
   5  -6   8    8.85    1.74
  -5   6  -8    6.30    1.39
   5  -6   9    5.79    1.02
   5  -6   9    4.66    1.01
   5  -6   9    5.24    1.05
  -5   6  -9    3.34    0.86
  -5   5  10    4.79    0.85
   5  -5 -10    5.75    1.07
  -5   5   9    2.84    1.01
  -5   5   9    1.29    0.89
  -5   5   9    2.41    1.02
  -5   5   8  208.72    8.53
  -5   5   8  204.22    8.70
  -5   5   8  178.06    7.07
  -5   5   8  186.60    7.61
  -5   5   7   10.63    2.34
  -5   5   7   10.51    2.08
  -5   5   7   10.07    2.09
  -5   5   7    9.37    2.08
  -5   5   6  112.80    7.13
   5  -5  -6  107.96    7.25
   5  -5  -6  111.83    7.38
  -5   5   6  100.87    5.93
  -5   5   6   99.97    6.19
  -5   5   6  108.34    6.80
  -5   5   6   92.13    5.47
  -5   5   5   11.59    2.10
  -5   5   5   12.64    2.60
  -5   5   5    9.64    2.06
   5  -5  -5    5.33    1.74
  -5   5   5    8.66    1.83
  -5   5   4   15.37    2.66
  -5   5   4   16.49    2.84
  -5   5   4   17.76    2.98
   5  -5  -4   11.77    2.39
  -5   5   4   13.16    2.16
  -5   5   4   20.89    3.26
  -5   5   4   15.71    2.25
  -5   5   4   15.30    2.55
  -5   5   4   16.67    2.47
   5  -5  -3   10.70    2.25
  -5   5   3   13.05    2.43
  -5   5   3   13.44    2.22
  -5   5   3   12.77    2.44
  -5   5   3   12.04    2.45
  -5   5   3    9.30    2.08
  -5   5   3   11.95    2.34
  -5   5   3   11.94    2.46
   5  -5  -2   55.50    4.33
  -5   5   2   60.32    4.71
  -5   5   2   61.15    4.55
  -5   5   2   69.52    5.53
  -5   5   2   59.91    5.02
  -5   5   2   67.55    5.22
  -5   5   2   60.92    4.65
  -5   5   2   52.82    4.46
  -5   5   2   60.21    4.85
  -5   5   1  490.46   14.75
  -5   5   1  484.29   14.78
  -5   5   1  474.39   13.52
  -5   5   1  464.28   13.73
   5  -5  -1  472.86   13.95
   5  -5  -1  412.56   12.46
  -5   5   1  508.76   14.35
  -5   5   1  449.73   13.53
  -5   5   1  446.74   13.41
  -5   5   0  163.54    7.82
  -5   5   0  144.17    6.68
   5  -5   0  155.36    7.80
   5  -5   0  136.04    7.09
   5  -5   0  155.34    6.85
  -5   5   0  150.05    6.86
  -5   5   0  161.59    7.77
  -5   5   0  169.68    8.04
  -5   5   0  165.60    8.39
  -5   5   0  151.33    6.82
  -5   5  -1    0.98    0.85
  -5   5  -1    0.52    0.95
   5  -5   1    1.14    1.04
   5  -5   1    1.11    1.01
  -5   5  -1    0.24    0.86
  -5   5  -1    0.87    1.16
  -5   5  -1    0.31    1.01
  -5   5  -1    1.15    1.08
  -5   5  -1    1.03    0.95
  -5   5  -2   25.46    3.25
   5  -5   2   25.16    3.44
   5  -5   2   20.64    3.19
  -5   5  -2   26.07    3.43
  -5   5  -2   24.95    3.12
  -5   5  -2   22.32    3.15
  -5   5  -2   24.97    3.04
  -5   5  -2   27.88    3.35
  -5   5  -2   29.33    3.86
  -5   5  -3   11.60    2.28
   5  -5   3   13.57    2.73
   5  -5   3   12.44    2.54
  -5   5  -3   11.26    2.27
  -5   5  -3   13.22    2.47
  -5   5  -3   13.99    2.47
  -5   5  -3   10.90    2.35
  -5   5  -4   61.10    5.11
  -5   5  -4   69.60    5.59
   5  -5   4   69.08    4.83
   5  -5   4   59.03    5.54
   5  -5   4   67.10    5.49
  -5   5  -4   59.30    4.80
  -5   5  -4   61.13    4.93
  -5   5  -4   63.91    5.30
  -5   5  -4   53.18    4.86
  -5   5  -5   32.65    3.31
  -5   5  -5   36.74    4.15
  -5   5  -5   37.06    3.71
  -5   5  -5   32.10    3.74
   5  -5   5   34.08    3.38
   5  -5   5   36.50    4.03
  -5   5  -5   40.59    4.21
  -5   5  -5   33.85    4.00
  -5   5  -6   29.76    3.49
  -5   5  -6   23.23    2.80
  -5   5  -6   30.06    3.53
  -5   5  -6   23.09    2.82
   5  -5   6   31.50    3.83
   5  -5   6   32.56    3.62
  -5   5  -6   27.05    3.59
  -5   5  -7    0.45    0.91
  -5   5  -7    0.44    1.15
  -5   5  -7    0.54    0.93
  -5   5  -7    1.61    0.89
   5  -5   7    0.24    1.16
   5  -5   7    0.22    1.01
  -5   5  -7    0.38    0.93
   5  -5   8   39.39    3.36
   5  -5   8   36.27    3.14
   5  -5   8   37.33    3.15
   5  -5   8   33.11    3.19
  -5   5  -8   39.86    3.53
  -5   5  -8   37.68    3.30
  -5   5  -8   42.55    3.46
   5  -5   9    2.61    0.82
   5  -5   9    3.72    1.02
  -5   5  -9    5.54    1.05
  -5   5  -9    4.20    1.02
  -5   5  -9    5.10    1.14
   5  -5   9    2.72    0.90
   5  -5   9    3.00    1.05
   5  -4 -10   32.11    2.60
  -5   4  10   37.28    2.72
  -5   4  10   34.36    2.46
  -5   4   9   11.54    1.87
   5  -4  -9   13.10    1.80
  -5   4   9   14.68    2.28
  -5   4   8   14.08    2.45
  -5   4   8   12.58    2.18
   5  -4  -8   11.37    1.88
  -5   4   8   13.44    2.40
  -5   4   8   12.53    2.06
  -5   4   7   70.28    5.58
  -5   4   7   68.34    5.38
  -5   4   7   61.62    4.70
  -5   4   7   67.79    4.74
  -5   4   7   70.35    5.32
  -5   4   6   49.42    4.80
   5  -4  -6   44.46    4.62
   5  -4  -6   42.32    4.66
  -5   4   6   42.51    3.92
  -5   4   6   46.68    4.38
  -5   4   6   41.57    4.00
  -5   4   5   62.38    5.26
  -5   4   5   60.01    5.33
   5  -4  -5   54.63    4.97
  -5   4   5   46.63    4.08
  -5   4   5   57.32    4.92
  -5   4   5   59.84    5.12
  -5   4   5   48.83    3.97
  -5   4   5   56.14    4.58
  -5   4   5   60.69    4.86
  -5   4   4   61.00    5.09
  -5   4   4   59.06    4.95
   5  -4  -4   63.39    5.13
  -5   4   4   50.58    4.38
  -5   4   4   51.45    4.47
  -5   4   4   59.55    5.04
  -5   4   4   57.49    4.96
  -5   4   4   49.35    4.05
  -5   4   4   55.71    4.65
   5  -4  -3   25.80    2.86
   5  -4  -3   21.76    3.02
  -5   4   3   17.95    2.72
  -5   4   3   16.69    2.79
  -5   4   3   14.91    2.51
  -5   4   3   16.82    2.72
  -5   4   3   15.45    2.59
  -5   4   3   16.14    2.77
   5  -4  -2   37.37    3.52
   5  -4  -2   39.39    3.37
  -5   4   2   48.93    4.16
  -5   4   2   49.59    4.22
  -5   4   2   56.76    4.87
  -5   4   2   42.82    4.00
  -5   4   2   51.82    4.52
  -5   4   2   50.31    3.80
  -5   4   1  144.98    7.23
   5  -4  -1  162.38    7.48
   5  -4  -1  151.49    6.78
  -5   4   1  136.05    6.10
  -5   4   1  138.68    6.45
  -5   4   1  163.07    8.26
  -5   4   1  146.28    7.27
  -5   4   1  142.60    7.08
  -5   4   0  328.77   10.24
  -5   4   0  336.73   10.62
   5  -4   0  320.72   10.86
   5  -4   0  360.17   11.89
   5  -4   0  363.15   11.20
   5  -4   0  327.54    9.48
  -5   4   0  338.00   11.64
  -5   4   0  339.22   11.08
  -5   4   0  379.67   13.28
  -5   4   0  338.74   11.45
  -5   4   0  346.45   12.24
  -5   4   0  289.90    8.98
  -5   4   0  356.86   11.92
  -5   4   0  307.93    8.91
  -5   4  -1   99.14    4.90
  -5   4  -1  115.79    6.27
   5  -4   1  122.56    6.78
   5  -4   1  131.52    7.11
   5  -4   1  115.53    5.51
  -5   4  -1  122.88    6.38
  -5   4  -1  112.35    6.71
  -5   4  -1  102.52    5.47
  -5   4  -1  112.44    5.83
  -5   4  -2   63.91    4.15
  -5   4  -2   80.81    5.45
   5  -4   2   80.13    5.75
   5  -4   2   86.38    5.08
  -5   4  -2   73.81    5.04
  -5   4  -2   75.10    5.43
  -5   4  -2   75.40    5.03
  -5   4  -2   76.91    5.18
  -5   4  -3  304.91   11.12
   5  -4   3  311.57   11.74
   5  -4   3  301.40   10.52
  -5   4  -3  300.74   10.41
  -5   4  -3  308.97   11.06
  -5   4  -3  314.94   11.26
  -5   4  -3  311.78   11.37
  -5   4  -4    3.51    1.22
   5  -4   4    3.37    1.33
  -5   4  -4    8.87    1.86
   5  -4   4    1.30    1.25
  -5   4  -4    5.18    1.70
  -5   4  -4    4.91    1.95
  -5   4  -4    5.60    1.78
   5  -4   5  114.55    6.87
  -5   4  -5  117.80    7.25
   5  -4   5  132.49    6.98
   5  -4   5  116.10    7.03
  -5   4  -5  127.99    7.63
  -5   4  -5   98.96    5.83
  -5   4  -6   60.17    4.91
   5  -4   6   50.89    4.35
   5  -4   6   64.54    5.25
  -5   4  -6   47.42    4.12
  -5   4  -7    2.84    1.40
  -5   4  -7    2.38    1.16
  -5   4  -7    2.43    1.15
  -5   4  -7    2.42    1.34
   5  -4   7    5.68    1.86
  -5   4  -8    3.33    1.12
  -5   4  -8    2.54    1.21
   5  -4   8    1.56    1.09
  -5   4  -8    3.07    1.29
   5  -4   8    2.91    1.21
   5  -4   8    1.74    1.04
   5  -4   8    1.02    1.08
  -5   4  -8    2.86    1.00
   5  -4   8    1.63    1.25
  -5   4  -8    2.56    1.39
  -5   4  -9   15.17    1.96
  -5   4  -9   14.23    1.75
   5  -4   9   16.03    1.92
   5  -4   9   16.29    1.98
   5  -4   9   18.11    2.03
  -5   4  -9   12.53    1.65
   5  -3 -10   26.27    2.25
  -5   3  10   21.28    2.14
  -5   3   9   59.92    4.46
  -5   3   9   59.03    4.42
  -5   3   9   42.51    3.58
   5  -3  -9   61.70    4.39
   5  -3  -9   49.02    3.63
  -5   3   9   52.81    3.81
   5  -3  -9   58.46    3.94
   5  -3  -8    0.10    0.82
  -5   3   8    0.56    0.79
  -5   3   8    0.67    1.34
  -5   3   8    0.22    0.80
  -5   3   8    0.67    1.16
  -5   3   8    1.01    1.11
   5  -3  -7    0.99    1.02
   5  -3  -7    0.15    1.10
  -5   3   7    0.88    1.27
  -5   3   7    2.24    1.18
  -5   3   7    1.42    1.23
   5  -3  -6    6.63    2.01
  -5   3   6   13.36    2.65
  -5   3   6   13.55    2.73
  -5   3   6   10.52    2.38
  -5   3   6   13.76    2.60
  -5   3   6   10.29    2.20
  -5   3   5  243.34   10.16
  -5   3   5  253.79   10.72
   5  -3  -5  244.44   10.60
  -5   3   5  240.25   10.07
  -5   3   5  240.69   10.00
  -5   3   5  240.94   10.37
  -5   3   5  199.03    8.59
  -5   3   5  237.58    9.73
  -5   3   4  100.27    6.27
  -5   3   4   98.73    6.11
   5  -3  -4   81.95    5.86
   5  -3  -4   78.96    5.04
  -5   3   4   88.42    5.66
  -5   3   4   87.60    5.83
  -5   3   4   92.12    6.20
  -5   3   4   87.84    5.51
  -5   3   4   87.59    5.72
  -5   3   4   86.80    5.40
  -5   3   4   87.58    5.57
  -5   3   3   59.83    4.56
   5  -3  -3   67.68    4.54
   5  -3  -3   79.53    5.50
   5  -3  -3   72.64    4.77
  -5   3   3   64.86    4.60
  -5   3   3   66.58    5.00
  -5   3   3   66.28    4.88
  -5   3   3   67.84    5.13
  -5   3   3   57.50    4.31
  -5   3   2   29.40    3.25
  -5   3   2   28.69    3.04
   5  -3  -2   22.73    2.80
   5  -3  -2   32.25    3.17
  -5   3   2   22.91    2.60
  -5   3   2   27.85    3.36
  -5   3   2   22.76    2.96
  -5   3   2   28.79    3.33
  -5   3   2   23.49    2.62
  -5   3   2   25.42    3.19
  -5   3   1   36.24    3.56
  -5   3   1   32.14    3.11
   5  -3  -1   27.61    2.75
  -5   3   1   37.67    3.84
  -5   3   1   38.07    3.41
  -5   3   1   38.11    3.59
   5  -3  -1   27.58    3.13
   5  -3  -1   28.36    2.99
  -5   3   1   34.47    3.10
  -5   3   1   34.55    3.53
  -5   3   1   41.29    3.24
  -5   3   0   66.07    4.84
  -5   3   0   71.81    4.37
  -5   3   0   62.99    4.36
   5  -3   0   65.42    4.22
  -5   3   0   65.10    4.88
  -5   3   0   68.43    4.51
  -5   3   0   70.09    4.64
   5  -3   0   75.96    5.16
   5  -3   0   71.36    4.79
  -5   3   0   71.25    4.69
  -5   3   0   73.14    5.36
  -5   3   0   61.05    3.81
  -5   3  -1   20.32    2.44
  -5   3  -1   20.84    2.52
  -5   3  -1   21.44    2.91
  -5   3  -1   21.05    2.60
   5  -3   1   15.83    2.54
  -5   3  -1   22.04    2.61
  -5   3  -1   18.44    2.36
   5  -3   1   16.59    2.26
  -5   3  -1   23.89    3.07
  -5   3  -1   22.93    2.90
  -5   3  -1   24.63    3.16
   5  -3   2   81.10    4.73
  -5   3  -2   91.85    5.32
  -5   3  -2   95.96    6.17
  -5   3  -2  104.41    6.17
  -5   3  -2   79.82    4.86
   5  -3   2   87.44    5.27
  -5   3  -2   97.37    5.85
  -5   3  -2   94.08    5.96
  -5   3  -3  142.25    7.09
   5  -3   3  169.12    7.39
   5  -3   3  170.43    8.28
  -5   3  -3  159.41    7.67
   5  -3   3  166.69    7.80
  -5   3  -3  158.92    7.41
  -5   3  -4  153.56    7.16
   5  -3   4  184.89    8.68
  -5   3  -4  163.97    8.34
   5  -3   4  183.66    8.47
   5  -3   4  180.53    8.53
  -5   3  -4  166.56    8.41
  -5   3  -4  170.32    8.49
   5  -3   4  173.89    7.44
  -5   3  -5   65.63    4.77
   5  -3   5   68.56    5.57
  -5   3  -5   69.98    5.52
   5  -3   5   67.24    5.26
   5  -3   5   61.55    4.90
  -5   3  -5   68.36    5.56
  -5   3  -5   71.95    5.50
  -5   3  -6   46.21    3.99
   5  -3   6   64.55    5.34
  -5   3  -6   57.04    4.99
   5  -3   6   61.95    4.95
   5  -3   6   60.02    5.07
   5  -3   7   38.05    3.79
  -5   3  -7   42.21    3.57
   5  -3   7   38.62    4.08
  -5   3  -7   42.81    3.77
  -5   3  -7   40.49    3.74
   5  -3   7   39.16    3.96
  -5   3  -7   48.88    4.41
   5  -3   8   26.27    2.72
   5  -3   8   26.25    2.87
   5  -3   8   28.51    3.09
  -5   3  -8   18.05    2.67
  -5   3  -8   18.37    2.37
  -5   3  -8   19.46    2.62
   5  -3   8   28.52    3.21
  -5   3  -9   25.52    2.57
   5  -3   9   28.81    2.63
  -5   3  -9   23.51    2.25
  -5   2  11   12.75    1.42
   5  -2 -11   17.14    1.66
  -5   2  10    2.40    1.15
  -5   2  10    1.69    0.85
   5  -2 -10    2.51    0.94
   5  -2 -10    2.76    1.10
   5  -2 -10    1.97    1.04
  -5   2   9   28.82    2.98
   5  -2  -9   42.15    3.78
   5  -2  -9   40.75    3.45
  -5   2   9   35.27    3.56
  -5   2   9   28.18    2.79
  -5   2   8   44.41    4.10
   5  -2  -8   46.78    4.25
   5  -2  -8   41.00    3.77
  -5   2   8   54.48    4.77
  -5   2   8   41.60    4.00
  -5   2   8   48.58    4.55
   5  -2  -7   31.88    4.07
  -5   2   7   36.48    3.97
   5  -2  -7   31.36    3.38
   5  -2  -7   29.13    3.65
  -5   2   7   39.04    4.21
  -5   2   7   28.40    3.54
  -5   2   7   36.72    4.06
  -5   2   7   38.12    4.23
  -5   2   6   28.58    3.66
  -5   2   6   27.74    3.60
  -5   2   6   32.34    3.94
   5  -2  -6   26.48    3.64
  -5   2   6   29.42    3.66
   5  -2  -6   24.21    2.92
  -5   2   6   30.56    3.76
  -5   2   6   23.95    2.92
  -5   2   5   86.53    5.66
  -5   2   5  113.25    6.93
  -5   2   5  115.78    7.06
   5  -2  -5  114.44    7.13
   5  -2  -5  100.15    6.38
  -5   2   5  117.85    6.84
  -5   2   5  107.41    6.12
  -5   2   5  111.29    7.01
  -5   2   5  102.54    5.83
  -5   2   5  110.53    6.71
  -5   2   5   91.12    5.34
  -5   2   4   23.71    3.28
   5  -2  -4   16.33    2.59
  -5   2   4   23.41    3.01
  -5   2   4   21.54    2.83
  -5   2   4   23.93    3.37
  -5   2   4   24.06    3.02
  -5   2   4   25.73    3.16
  -5   2   4   21.51    2.99
  -5   2   3   82.13    5.71
  -5   2   3   85.26    5.65
  -5   2   3   78.24    4.95
   5  -2  -3   71.77    5.14
   5  -2  -3   78.67    5.18
  -5   2   3   74.68    4.81
  -5   2   3   69.13    4.87
  -5   2   3   82.27    5.45
  -5   2   3   79.58    5.10
  -5   2   3   73.17    4.99
  -5   2   2  359.74   12.55
  -5   2   2  354.85   11.62
  -5   2   2  345.97   11.60
  -5   2   2  351.95   10.95
   5  -2  -2  358.44   11.62
   5  -2  -2  365.27   11.61
  -5   2   2  332.29    9.94
  -5   2   2  335.78   11.32
  -5   2   2  366.01   12.04
  -5   2   2  346.45   11.03
  -5   2   2  360.53   11.42
  -5   2   2  345.75   10.92
  -5   2   1   75.03    5.59
  -5   2   1   79.81    5.11
  -5   2   1   74.22    4.95
  -5   2   1   64.05    4.42
   5  -2  -1   69.38    4.88
   5  -2  -1   72.28    4.90
  -5   2   1   70.09    5.05
   5  -2  -1   67.29    4.13
  -5   2   1   69.96    4.57
  -5   2   1   66.95    4.69
   5  -2   0   15.42    2.15
  -5   2   0   21.05    2.60
  -5   2   0   16.59    2.45
   5  -2   0   16.21    2.53
   5  -2   0   21.21    2.68
  -5   2   0   18.36    2.53
   5  -2   0   17.46    2.36
  -5   2   0   19.64    2.85
  -5   2   0   18.63    2.35
  -5   2   0   19.56    2.63
  -5   2   0   20.29    2.94
  -5   2  -1  108.86    5.96
  -5   2  -1  105.30    6.06
   5  -2   1  117.54    6.38
  -5   2  -1  105.88    6.02
   5  -2   1  117.00    6.07
  -5   2  -1  105.68    6.24
  -5   2  -1  118.00    6.87
   5  -2   1  112.65    5.49
  -5   2  -2  110.23    6.58
   5  -2   2  119.62    6.73
   5  -2   2  119.37    6.36
  -5   2  -2  114.28    6.40
   5  -2   2  100.25    5.55
  -5   2  -2  114.05    6.31
  -5   2  -2  110.55    6.40
   5  -2   3  102.19    5.68
  -5   2  -3  123.22    6.86
  -5   2  -3  123.64    6.98
  -5   2  -3  117.71    5.96
   5  -2   3  116.15    6.32
   5  -2   3  114.41    6.66
  -5   2  -3  122.17    6.48
   5  -2   3  113.39    6.52
  -5   2  -3  123.75    6.51
  -5   2  -3  117.19    6.58
  -5   2  -3  125.72    6.96
  -5   2  -4   60.27    4.73
   5  -2   4   57.55    4.87
   5  -2   4   62.03    5.05
   5  -2   4   49.73    4.41
   5  -2   4   53.41    4.15
  -5   2  -4   65.53    5.21
  -5   2  -4   59.92    4.40
  -5   2  -4   66.03    5.31
   5  -2   4   54.66    4.45
   5  -2   5   29.33    3.57
  -5   2  -5   23.31    3.13
   5  -2   5   24.10    3.46
   5  -2   5   25.40    3.21
  -5   2  -5   21.69    2.71
  -5   2  -5   29.96    3.70
  -5   2  -5   19.51    2.53
  -5   2  -5   27.14    3.54
   5  -2   6    9.17    2.20
  -5   2  -6    7.55    1.94
   5  -2   6    7.63    2.03
  -5   2  -6    8.66    2.12
  -5   2  -6    7.73    1.67
  -5   2  -6    7.32    2.04
   5  -2   6    7.88    2.10
   5  -2   7  378.86   11.79
  -5   2  -7  335.02   10.93
   5  -2   7  365.18   11.86
  -5   2  -7  316.39   10.29
  -5   2  -7  341.91   11.58
   5  -2   7  348.92   11.94
   5  -2   8  195.01    7.02
  -5   2  -8  214.05    7.56
  -5   2  -8  216.21    8.71
   5  -2   8  211.74    7.88
   5  -2   9    1.28    0.80
  -5   2  -9    2.25    0.93
  -5   2  -9    1.36    0.88
   5  -1 -11   51.90    2.57
   5  -1 -11   51.52    2.78
  -5   1  11   46.35    2.61
  -5   1  10  100.87    5.18
   5  -1 -10  118.02    5.29
  -5   1  10  103.48    5.12
   5  -1 -10  107.15    4.77
   5  -1 -10  100.17    4.74
   5  -1 -10  107.40    5.19
   5  -1  -9  258.71    9.47
   5  -1  -9  245.65    8.84
  -5   1   9  233.85    8.97
  -5   1   8   16.29    2.70
   5  -1  -8   23.93    3.17
   5  -1  -8   19.38    2.72
  -5   1   8   11.40    2.14
  -5   1   8   14.13    2.41
  -5   1   8   12.69    2.07
  -5   1   8   18.38    3.05
   5  -1  -7   51.64    4.61
   5  -1  -7   40.83    3.96
  -5   1   7   58.54    4.71
  -5   1   7   68.80    5.51
  -5   1   7   55.57    4.80
  -5   1   7   70.78    5.58
   5  -1  -7   47.43    4.05
   5  -1  -7   42.13    3.70
   5  -1  -7   45.83    4.63
  -5   1   7   46.19    3.93
  -5   1   6   64.17    5.23
  -5   1   6   50.30    4.39
  -5   1   6   53.34    4.80
   5  -1  -6   50.57    4.50
   5  -1  -6   45.10    4.03
  -5   1   6   61.94    5.29
   5  -1  -6   50.00    4.36
   5  -1  -6   44.26    3.96
  -5   1   6   43.33    3.82
   5  -1  -6   50.64    4.78
  -5   1   5   10.42    2.14
  -5   1   5   16.49    2.78
   5  -1  -5   13.71    2.19
   5  -1  -5   11.22    2.12
   5  -1  -5   11.78    2.42
   5  -1  -5   12.97    2.61
  -5   1   5   17.15    2.88
   5  -1  -5   12.40    2.26
  -5   1   5   14.25    2.38
  -5   1   5   12.49    2.00
   5  -1  -5   15.44    2.71
  -5   1   5   15.35    2.66
  -5   1   4   59.21    4.91
   5  -1  -4   53.73    4.09
   5  -1  -4   50.38    4.52
   5  -1  -4   60.57    4.89
  -5   1   4   60.75    4.97
  -5   1   4   56.83    4.62
  -5   1   4   56.99    4.72
  -5   1   4   59.42    4.81
  -5   1   3    3.46    1.42
  -5   1   3    3.29    1.13
   5  -1  -3    2.93    1.30
   5  -1  -3    3.17    1.30
  -5   1   3    3.30    1.49
  -5   1   3    3.80    1.54
  -5   1   3    4.17    1.42
  -5   1   3    3.24    1.31
  -5   1   2  268.57    9.94
   5  -1  -2  248.27    9.09
  -5   1   2  262.54   10.79
  -5   1   2  261.87    9.70
  -5   1   2  262.44    9.80
   5  -1  -2  240.96    9.22
   5  -1  -2  257.34    9.89
  -5   1   2  271.37   10.33
  -5   1   2  236.60    8.59
  -5   1   2  254.62    9.66
  -5   1   2  256.46    9.89
   5  -1  -1   50.90    3.81
  -5   1   1   43.73    3.88
  -5   1   1   45.01    4.01
   5  -1  -1   52.80    3.56
  -5   1   1   39.57    3.67
   5  -1  -1   51.56    3.84
  -5   1   1   47.07    4.48
   5  -1  -1   53.69    3.95
  -5   1   1   41.78    3.71
  -5   1   1   45.35    3.89
  -5   1   1   47.63    4.03
   5  -1  -1   54.71    4.06
   5  -1  -1   58.93    4.49
  -5   1   1   40.40    3.45
   5  -1  -1   53.83    3.89
   5  -1   0  319.38   10.53
  -5   1   0  330.39   11.36
   5  -1   0  329.95    9.56
  -5   1   0  336.35   11.70
   5  -1   0  336.06   11.10
   5  -1   0  318.33   10.19
   5  -1   0  310.63   10.15
  -5   1   0  318.51    9.81
  -5   1   0  337.91   10.60
  -5   1   0  314.20    9.51
   5  -1   0  318.15    9.79
  -5   1   0  351.50   11.45
  -5   1   0  294.88   10.30
   5  -1   0  323.60   10.20
   5  -1   0  346.54   11.43
  -5   1   0  334.14   12.46
   5  -1   0  308.83    9.62
  -5   1   0  314.32   10.07
   5  -1   1  159.22    6.84
  -5   1  -1  143.99    6.75
   5  -1   1  159.10    6.98
  -5   1  -1  146.94    6.66
  -5   1  -1  137.09    6.56
  -5   1  -1  160.21    8.22
   5  -1   1  171.32    7.43
   5  -1   1  167.71    6.65
  -5   1  -1  157.59    7.77
   5  -1   1  173.10    7.74
  -5   1  -1  155.15    7.53
  -5   1  -1  146.90    7.16
   5  -1   2  140.06    6.85
  -5   1  -2  140.74    6.87
   5  -1   2  132.67    6.26
  -5   1  -2  138.41    7.31
  -5   1  -2  135.03    6.83
   5  -1   2  143.36    7.34
  -5   1  -2  122.42    7.15
  -5   1  -2  137.33    7.16
   5  -1   2  139.69    7.13
  -5   1  -2  130.70    6.63
   5  -1   2  141.54    7.14
  -5   1  -3   60.15    4.73
  -5   1  -3   56.51    4.84
  -5   1  -3   53.26    4.35
  -5   1  -3   58.12    4.71
  -5   1  -3   52.88    4.33
   5  -1   3   62.33    4.91
   5  -1   3   57.29    4.45
  -5   1  -3   49.25    4.39
  -5   1  -3   58.59    4.49
   5  -1   3   57.77    4.68
   5  -1   4    8.99    2.01
   5  -1   4   10.20    2.37
  -5   1  -4    6.30    1.95
  -5   1  -4    7.08    1.85
   5  -1   4    9.25    2.13
  -5   1  -4    5.92    1.42
   5  -1   4    8.21    2.02
  -5   1  -4    6.45    1.96
  -5   1  -4    7.20    1.78
   5  -1   5   31.15    3.50
  -5   1  -5   27.25    2.81
   5  -1   5   31.15    3.78
  -5   1  -5   40.40    4.15
  -5   1  -5   33.25    3.54
  -5   1  -5   31.84    3.19
   5  -1   5   32.93    3.84
   5  -1   5   32.20    3.91
   5  -1   5   33.65    3.87
  -5   1  -5   36.69    3.95
  -5   1  -5   29.31    3.30
  -5   1  -6   26.18    2.97
   5  -1   6   27.61    3.62
   5  -1   6   27.30    3.45
  -5   1  -6   31.12    3.61
   5  -1   6   31.09    3.72
  -5   1  -6   29.61    3.43
  -5   1  -6   27.94    3.21
   5  -1   6   30.42    3.46
   5  -1   7   47.41    4.03
  -5   1  -7   61.54    4.58
   5  -1   7   51.66    4.36
  -5   1  -7   54.90    4.04
   5  -1   7   38.13    3.32
   5  -1   7   47.00    3.87
   5  -1   8  167.01    6.90
  -5   1  -8  151.07    6.44
   5  -1   8  167.84    6.70
   5  -1   9   25.98    2.20
   5  -1   9   26.02    2.27
   5  -1   9   25.71    2.05
  -5   1  -9   20.35    2.14
  -5   0  11    7.27    1.03
   5   0 -11    8.06    1.11
   5   0 -10   12.17    1.88
  -5   0  10    9.50    1.68
   5   0 -10   12.82    1.73
  -5   0  10    9.98    1.73
  -5   0  10    9.67    1.54
   5   0 -10   13.23    1.96
   5   0  -9  188.78    7.50
   5   0  -9  200.63    8.06
  -5   0   9  184.18    7.92
  -5   0   9  185.70    8.01
   5   0  -9  203.97    8.03
  -5   0   9  155.51    6.53
   5   0  -9  192.95    7.48
  -5   0   9  158.80    7.33
  -5   0   8   84.82    5.60
   5   0  -8   86.15    5.57
   5   0  -8   82.81    5.36
   5   0  -8   91.34    5.81
  -5   0   8   72.77    4.87
  -5   0   8   87.05    5.87
  -5   0   8   71.85    4.88
   5   0  -8   81.31    4.97
  -5   0   8   75.09    4.85
  -5   0   7   28.69    3.29
   5   0  -7   35.98    3.74
   5   0  -7   35.45    3.89
  -5   0   7   31.51    3.80
  -5   0   7   26.77    3.47
  -5   0   7   31.62    3.61
  -5   0   7   32.62    3.70
   5   0  -7   36.49    3.78
   5   0  -7   39.54    3.84
  -5   0   6   31.68    3.72
  -5   0   6   29.23    3.57
  -5   0   6   26.74    3.42
   5   0  -6   23.79    3.05
   5   0  -6   24.60    3.28
   5   0  -6   21.78    3.05
  -5   0   6   27.19    3.22
  -5   0   6   30.34    3.79
   5   0  -6   24.24    3.32
   5   0  -6   23.79    3.12
  -5   0   6   30.58    3.59
  -5   0   5   35.23    3.90
  -5   0   5   43.29    4.25
   5   0  -5   44.76    3.90
   5   0  -5   44.97    4.09
   5   0  -5   40.61    4.54
  -5   0   5   40.94    3.74
   5   0  -5   41.95    3.94
  -5   0   5   42.34    4.02
  -5   0   5   48.90    4.59
   5   0  -5   49.43    4.54
  -5   0   5   51.33    4.50
  -5   0   4   78.04    5.68
  -5   0   4   66.19    5.40
   5   0  -4   56.09    4.20
  -5   0   4   74.13    5.40
   5   0  -4   57.63    4.40
   5   0  -4   64.11    5.24
  -5   0   4   65.58    4.51
   5   0  -4   54.63    4.38
  -5   0   4   71.81    5.06
  -5   0   4   70.71    5.28
   5   0  -3    3.89    1.23
  -5   0   3    7.16    2.01
   5   0  -3    3.93    1.47
  -5   0   3    5.08    1.48
  -5   0   3    6.49    1.62
   5   0  -3    4.79    1.65
   5   0  -3    4.54    1.51
  -5   0   3    7.75    1.56
   5   0  -3    5.16    1.56
  -5   0   3    6.42    1.58
  -5   0   3    5.24    1.71
  -5   0   3    8.13    2.00
   5   0  -3    5.02    1.57
  -5   0   3    7.73    1.92
   5   0  -2  243.45    9.41
   5   0  -2  248.78    9.61
   5   0  -2  237.82    9.32
  -5   0   2  258.54    9.60
  -5   0   2  239.68    9.27
   5   0  -2  219.84    8.72
   5   0  -2  249.84    9.97
   5   0  -2  234.96    8.84
  -5   0   2  248.65    9.39
  -5   0   2  264.16   10.50
  -5   0   2  263.64   10.31
  -5   0   2  261.23   10.17
  -5   0   2  242.18   10.62
   5   0  -1    8.94    1.87
  -5   0   1    4.76    1.32
   5   0  -1   12.38    2.24
  -5   0   1    6.24    1.57
   5   0  -1   11.04    2.11
   5   0  -1   10.66    2.02
  -5   0   1    6.45    1.62
   5   0  -1    9.97    1.84
   5   0  -1    8.54    1.84
   5   0  -1    8.45    1.77
  -5   0   1    6.73    1.75
  -5   0   1    5.82    1.78
   5   0  -1    9.99    1.94
  -5   0   1    4.37    1.63
  -5   0   1    5.46    1.81
   5   0   0   44.08    3.98
   5   0   0   53.05    3.98
  -5   0   0   53.24    4.68
   5   0   0   54.29    4.42
   5   0   0   48.09    3.97
   5   0   0   45.44    3.80
   5   0   0   45.21    3.93
  -5   0   0   56.84    4.20
  -5   0   0   53.47    3.96
  -5   0   0   48.24    3.71
   5   0   0   48.69    4.13
   5   0   0   52.08    4.04
  -5   0   0   52.57    4.09
   5   0   0   47.87    3.54
   5   0   0   55.31    4.48
  -5   0   0   50.11    4.13
  -5   0   0   53.07    4.88
   5   0   1   63.96    4.39
  -5   0  -1   73.26    4.40
   5   0   1   71.37    4.86
   5   0   1   61.53    4.73
  -5   0  -1   85.35    5.36
  -5   0  -1   87.05    5.16
   5   0   1   70.20    4.90
  -5   0  -1   80.59    5.32
   5   0   1   68.35    5.03
   5   0   1   64.70    4.76
   5   0   1   71.28    4.72
  -5   0  -1   83.18    5.74
   5   0   1   67.58    4.99
   5   0   1   64.55    4.98
  -5   0  -1   71.25    5.59
  -5   0  -2   40.73    3.59
   5   0   2   49.34    4.29
  -5   0  -2   48.80    4.27
  -5   0  -2   41.64    3.90
   5   0   2   47.23    4.42
  -5   0  -2   46.87    4.31
   5   0   2   45.54    4.13
   5   0   2   49.12    4.35
  -5   0  -2   47.60    4.24
   5   0   2   47.48    4.37
  -5   0  -2   39.24    4.16
   5   0   3   16.21    2.84
  -5   0  -3   17.72    2.69
   5   0   3   15.20    2.66
  -5   0  -3   16.26    2.67
   5   0   3   17.16    2.75
   5   0   3   14.85    2.56
  -5   0  -3   17.88    2.63
   5   0   3   13.54    2.48
  -5   0  -3   16.54    2.74
  -5   0  -3   19.66    2.92
   5   0   3   14.43    2.62
  -5   0  -3   12.51    2.38
  -5   0  -3   15.75    2.81
   5   0   4  102.47    6.62
   5   0   4   90.99    6.09
   5   0   4  104.43    6.33
   5   0   4   93.12    5.43
  -5   0  -4   92.05    5.80
  -5   0  -4   88.46    5.98
  -5   0  -4   94.02    6.60
  -5   0  -4   81.35    4.85
   5   0   5   10.56    2.36
  -5   0  -5   10.21    2.26
  -5   0  -5   10.90    2.28
   5   0   5    8.30    1.76
  -5   0  -5    8.84    1.79
  -5   0  -5   10.12    1.73
   5   0   5    7.54    1.88
   5   0   5   10.16    2.25
  -5   0  -5    7.53    2.04
   5   0   6   19.47    2.80
  -5   0  -6   21.91    2.90
  -5   0  -6   23.23    3.04
   5   0   6   24.62    3.11
  -5   0  -6   23.73    2.76
   5   0   6   22.84    3.07
   5   0   7   45.55    3.67
  -5   0  -7   52.15    3.71
   5   0   7   49.49    3.86
   5   0   7   54.93    4.05
  -5   0  -7   49.45    3.62
   5   0   8   12.21    1.55
   5   0   8   14.52    1.88
  -5   0  -8   18.11    2.05
   5   0   8   17.57    2.01
   5   0   9   11.70    1.29
  -5   0  -9   12.96    1.32
  -5   0  -9   12.80    1.53
   5   0   9   13.13    1.50
   5   1 -10   50.71    3.23
  -5  -1  10   46.52    3.16
  -5  -1  10   46.56    3.17
   5   1  -9  100.55    4.96
   5   1  -9  116.26    5.81
   5   1  -9  114.49    5.52
  -5  -1   9  119.70    5.55
   5   1  -9  109.24    5.06
   5   1  -8    1.15    0.93
   5   1  -8    1.43    1.17
  -5  -1   8    0.88    0.90
   5   1  -8    0.47    1.18
  -5  -1   8    0.81    0.91
   5   1  -8    1.50    1.08
  -5  -1   8    0.50    0.90
  -5  -1   8    0.96    1.14
   5   1  -8    0.35    0.96
   5   1  -7   48.27    4.24
   5   1  -7   44.75    3.98
   5   1  -7   50.69    4.46
   5   1  -7   53.14    4.58
  -5  -1   7   35.72    3.70
   5   1  -7   49.34    4.42
   5   1  -7   51.40    4.40
  -5  -1   7   39.66    4.00
   5   1  -7   49.10    4.48
  -5  -1   7   38.26    4.02
  -5  -1   6   10.26    2.13
   5   1  -6   14.30    2.63
   5   1  -6   14.45    2.70
  -5  -1   6    8.92    1.87
   5   1  -6   14.32    2.57
  -5  -1   6    7.89    1.94
  -5  -1   6    7.25    1.66
  -5  -1   6    8.17    2.07
   5   1  -6   16.22    2.87
  -5  -1   6    9.60    2.30
   5   1  -6   15.81    2.76
  -5  -1   5  265.14   11.13
  -5  -1   5  246.64    9.64
   5   1  -5  245.98   10.15
  -5  -1   5  235.77    9.39
   5   1  -5  236.62    9.72
  -5  -1   5  236.00    9.46
  -5  -1   5  234.09    9.69
   5   1  -5  258.14   10.62
  -5  -1   5  255.45   10.74
   5   1  -5  242.64    9.68
  -5  -1   4  134.11    7.58
   5   1  -4  121.28    7.09
  -5  -1   4  129.17    7.31
  -5  -1   4  108.17    6.11
  -5  -1   4  121.80    6.51
   5   1  -4  119.01    6.99
  -5  -1   4  137.15    7.79
   5   1  -4  119.37    6.94
   5   1  -4  117.38    6.93
   5   1  -4  113.67    6.87
  -5  -1   4  124.15    6.37
  -5  -1   4  124.60    6.77
   5   1  -4  114.84    6.37
   5   1  -4  114.59    7.22
  -5  -1   4  111.22    7.25
   5   1  -4  111.59    6.42
  -5  -1   4  134.65    7.25
   5   1  -3   43.49    3.99
   5   1  -3   43.43    4.21
  -5  -1   3   51.40    4.30
  -5  -1   3   45.53    4.20
   5   1  -3   44.68    4.12
  -5  -1   3   43.46    3.86
  -5  -1   3   52.33    4.76
  -5  -1   3   46.99    4.11
   5   1  -3   46.42    4.32
  -5  -1   3   53.23    4.86
  -5  -1   3   53.08    4.72
  -5  -1   3   56.98    4.88
  -5  -1   3   47.35    4.16
   5   1  -2   63.76    4.91
   5   1  -2   56.87    4.73
   5   1  -2   50.65    4.49
  -5  -1   2   65.19    4.60
  -5  -1   2   66.98    4.99
   5   1  -2   56.08    4.65
  -5  -1   2   63.04    4.62
  -5  -1   2   74.59    5.52
   5   1  -2   57.43    4.86
   5   1  -2   56.02    4.54
  -5  -1   2   67.68    5.43
  -5  -1   2   63.40    4.90
  -5  -1   2   68.09    5.10
  -5  -1   2   65.56    5.21
  -5  -1   2   72.49    5.46
  -5  -1   2   59.71    4.40
   5   1  -1   47.33    4.22
   5   1  -1   43.23    3.94
   5   1  -1   43.81    4.19
  -5  -1   1   44.80    3.86
   5   1  -1   46.02    4.23
  -5  -1   1   44.50    4.04
  -5  -1   1   48.02    4.34
   5   1  -1   44.13    4.10
  -5  -1   1   50.75    4.54
   5   1  -1   41.84    4.09
   5   1  -1   42.57    3.95
  -5  -1   1   44.10    4.22
   5   1  -1   46.80    4.08
  -5  -1   1   46.43    4.57
  -5  -1   1   45.38    4.23
  -5  -1   1   49.62    4.56
  -5  -1   1   39.46    3.39
   5   1   0   69.24    4.96
   5   1   0   64.38    4.87
   5   1   0   68.68    5.06
  -5  -1   0   51.56    4.26
   5   1   0   65.21    4.87
  -5  -1   0   53.11    4.08
   5   1   0   67.71    5.14
  -5  -1   0   56.50    4.64
  -5  -1   0   56.97    4.90
   5   1   0   62.95    4.92
   5   1   0   58.21    4.63
  -5  -1   0   53.90    4.74
   5   1   0   63.27    4.70
  -5  -1   0   48.94    4.71
   5   1   0   70.39    5.19
  -5  -1   0   54.31    4.62
   5   1   0   60.06    4.85
  -5  -1   0   53.82    4.81
  -5  -1  -1   47.97    4.42
   5   1   1   43.26    4.30
  -5  -1  -1   49.85    4.76
   5   1   1   49.65    4.25
  -5  -1  -1   48.97    4.59
   5   1   1   44.70    4.18
   5   1   1   41.51    4.01
   5   1   1   47.45    4.35
  -5  -1  -1   44.34    3.59
  -5  -1  -1   46.06    4.19
  -5  -1  -1   52.61    4.27
   5   1   1   48.40    4.38
  -5  -1  -1   59.84    4.95
   5   1   1   43.43    3.91
   5   1   1   47.09    4.30
  -5  -1  -1   49.84    4.61
  -5  -1  -1   38.98    4.38
   5   1   2  140.57    7.80
  -5  -1  -2  125.43    7.19
   5   1   2  137.76    7.38
   5   1   2  145.19    7.56
  -5  -1  -2  110.71    7.19
  -5  -1  -2  135.28    6.59
  -5  -1  -2  141.15    7.54
   5   1   2  149.08    7.66
  -5  -1  -2  144.05    7.29
   5   1   2  144.74    7.32
   5   1   2  131.89    7.13
  -5  -1  -2  136.99    7.86
  -5  -1  -2  133.35    7.48
  -5  -1  -3   12.97    2.49
  -5  -1  -3   16.29    2.56
   5   1   3   19.96    3.00
  -5  -1  -3   15.57    2.70
  -5  -1  -3   13.96    2.04
   5   1   3   18.83    2.88
   5   1   3   18.16    2.75
  -5  -1  -3   13.16    2.41
   5   1   3   21.54    3.06
  -5  -1  -3   12.71    2.55
   5   1   3   23.59    3.42
  -5  -1  -3   12.10    2.51
   5   1   3   22.37    2.99
  -5  -1  -4  118.35    6.55
  -5  -1  -4  111.33    5.73
   5   1   4  126.34    7.22
   5   1   4  125.51    6.50
   5   1   4  118.41    7.06
  -5  -1  -4  132.98    7.40
  -5  -1  -4  109.41    7.19
   5   1   4  118.89    6.89
  -5  -1  -5  106.97    5.63
   5   1   5  132.37    7.32
  -5  -1  -5  128.58    6.80
   5   1   5  119.09    6.17
   5   1   5  126.68    6.91
   5   1   5  137.86    7.36
  -5  -1  -5  116.90    6.69
  -5  -1  -5  128.43    7.10
  -5  -1  -6   14.08    2.06
  -5  -1  -6   13.62    2.14
  -5  -1  -6   15.72    2.52
   5   1   6   20.11    2.62
  -5  -1  -7    4.77    1.19
  -5  -1  -7    7.22    1.61
   5   1   7    5.41    1.32
   5   1   7    3.96    1.32
  -5  -1  -8   38.74    2.66
  -5  -1  -8   36.87    2.70
   5   2 -10    9.87    1.22
  -5  -2  10    7.31    1.00
  -5  -2  10   10.09    1.32
  -5  -2   9   28.21    2.76
   5   2  -9   27.03    2.22
   5   2  -9   31.57    2.67
   5   2  -9   32.37    2.73
  -5  -2   9   31.24    2.70
   5   2  -8   54.13    3.94
  -5  -2   8   54.71    4.08
   5   2  -8   52.65    3.84
  -5  -2   8   42.49    3.41
   5   2  -8   57.37    4.03
   5   2  -8   58.90    4.21
   5   2  -8   54.89    4.03
   5   2  -7   10.00    2.13
   5   2  -7    8.09    1.66
   5   2  -7    9.42    2.12
   5   2  -7    9.05    1.80
   5   2  -7    9.14    2.04
  -5  -2   7    9.02    1.97
   5   2  -7    7.83    1.91
  -5  -2   6    5.62    1.76
   5   2  -6    4.97    1.95
   5   2  -6    4.07    1.72
  -5  -2   6    5.63    1.70
   5   2  -6    3.55    1.63
   5   2  -6    3.28    1.52
   5   2  -6    4.17    1.71
   5   2  -6    3.20    1.44
   5   2  -5   18.70    2.88
  -5  -2   5   12.10    2.16
   5   2  -5   22.06    3.21
   5   2  -5   19.18    2.80
  -5  -2   5   17.63    2.77
   5   2  -5   19.64    2.94
  -5  -2   5   15.20    2.59
  -5  -2   5   19.06    3.01
   5   2  -5   24.38    3.60
   5   2  -5   24.53    3.40
  -5  -2   5   21.15    3.20
  -5  -2   4  160.11    8.59
   5   2  -4  165.02    8.25
   5   2  -4  164.70    8.23
  -5  -2   4  151.69    7.38
   5   2  -4  147.60    7.68
  -5  -2   4  155.44    7.71
  -5  -2   4  142.17    7.84
  -5  -2   4  152.01    8.15
  -5  -2   4  148.79    7.75
   5   2  -4  171.88    8.35
   5   2  -3   48.31    4.53
  -5  -2   3   42.63    4.45
   5   2  -3   37.45    3.51
  -5  -2   3   37.82    4.23
   5   2  -3   44.55    4.33
   5   2  -3   34.54    3.55
   5   2  -3   41.78    4.26
  -5  -2   3   29.42    3.10
  -5  -2   3   37.00    3.88
  -5  -2   3   28.64    3.35
   5   2  -3   40.30    4.16
   5   2  -3   41.17    4.31
   5   2  -3   40.80    4.39
  -5  -2   3   35.26    3.68
  -5  -2   3   35.04    4.18
  -5  -2   3   33.91    3.77
  -5  -2   3   38.18    4.16
   5   2  -3   40.56    4.33
  -5  -2   3   36.73    3.78
   5   2  -3   44.38    4.36
   5   2  -2   53.11    4.34
  -5  -2   2   55.24    4.45
  -5  -2   2   53.82    4.76
  -5  -2   2   51.98    4.77
   5   2  -2   48.03    4.65
   5   2  -2   55.00    4.63
  -5  -2   2   50.28    4.64
   5   2  -2   55.32    4.77
   5   2  -2   40.22    3.75
   5   2  -2   46.30    4.05
  -5  -2   2   58.17    5.20
  -5  -2   2   57.48    4.92
  -5  -2   2   61.85    5.21
   5   2  -2   50.76    4.67
  -5  -2   2   52.29    4.33
   5   2  -1  112.13    6.79
   5   2  -1  103.18    6.11
  -5  -2   1   92.04    5.24
   5   2  -1  115.76    6.92
  -5  -2   1  103.36    6.32
  -5  -2   1  107.82    6.75
  -5  -2   1  106.85    6.82
   5   2  -1   94.55    6.21
   5   2  -1  107.38    6.47
   5   2  -1  107.02    6.47
  -5  -2   1  100.91    6.94
  -5  -2   1   91.15    6.26
   5   2  -1  112.56    6.70
   5   2  -1   99.59    6.01
  -5  -2   1   95.57    6.43
   5   2  -1  105.47    6.47
  -5  -2   1   87.68    5.36
  -5  -2   0   81.12    5.53
   5   2   0   71.43    5.21
  -5  -2   0   72.68    4.92
  -5  -2   0   78.41    5.70
  -5  -2   0   78.76    5.89
   5   2   0   61.76    5.01
   5   2   0   60.73    4.94
   5   2   0   63.11    5.06
  -5  -2   0   87.19    6.33
   5   2   0   67.81    5.19
   5   2   0   67.23    5.14
   5   2   0   67.91    5.13
  -5  -2   0   78.57    5.81
  -5  -2   0   64.06    4.33
   5   2   1  128.45    7.21
  -5  -2  -1  119.32    6.02
  -5  -2  -1  129.55    7.22
   5   2   1  138.26    7.33
  -5  -2  -1  129.26    6.78
  -5  -2  -1  141.88    7.79
   5   2   1  109.90    6.03
   5   2   1  112.91    6.60
   5   2   1  134.24    7.33
  -5  -2  -1  120.69    7.46
   5   2   1  126.60    7.10
  -5  -2  -1  132.01    7.65
   5   2   1  128.93    7.13
  -5  -2  -1  134.02    7.70
   5   2   1  122.33    7.09
  -5  -2  -1  132.59    7.70
  -5  -2  -2   92.43    5.92
   5   2   2   83.70    5.39
   5   2   2   88.28    5.70
  -5  -2  -2   92.14    6.43
  -5  -2  -2   83.49    5.87
   5   2   2   99.88    6.24
  -5  -2  -2   87.62    6.34
   5   2   2  101.31    6.24
  -5  -2  -2   87.71    5.38
  -5  -2  -2   95.77    6.31
  -5  -2  -3    2.83    1.34
  -5  -2  -3    3.35    1.54
   5   2   3    1.68    1.12
   5   2   3    1.09    1.01
  -5  -2  -3    3.09    1.52
  -5  -2  -3    4.61    1.76
   5   2   3    2.27    1.31
  -5  -2  -3    2.06    1.26
  -5  -2  -3    4.05    1.55
   5   2   3    1.45    1.20
  -5  -2  -4    8.58    1.71
   5   2   4    7.33    1.92
  -5  -2  -4    7.69    1.90
   5   2   4    6.27    1.55
  -5  -2  -5    0.63    1.10
   5   2   5    1.28    1.06
  -5  -2  -5    1.34    1.05
  -5  -2  -5    0.94    0.83
  -5  -2  -5    0.92    1.22
  -5  -2  -6    4.35    1.14
   5   2   6    3.60    1.25
   5   2   6    4.18    1.49
   5   2   6    4.28    1.20
   5   2   7    5.94    1.28
  -5  -2  -7    2.58    1.01
   5   2   7    6.35    1.40
   5   2   7    6.13    1.30
  -5  -3   9   21.84    1.97
   5   3  -9   23.55    1.81
  -5  -3   9   17.61    1.85
  -5  -3   9   19.19    1.89
  -5  -3   8    4.07    1.20
  -5  -3   8    2.77    0.89
   5   3  -8    5.72    1.45
   5   3  -8    5.46    1.35
  -5  -3   8    4.08    1.26
  -5  -3   7    5.20    1.47
   5   3  -7    8.63    1.85
   5   3  -7    7.78    1.74
  -5  -3   7    4.52    1.47
  -5  -3   6    5.12    1.57
  -5  -3   6    4.86    1.68
   5   3  -6    3.07    1.38
  -5  -3   6    3.87    1.38
   5   3  -6    4.86    1.63
   5   3  -5   14.01    2.35
  -5  -3   5   15.95    2.36
   5   3  -5   12.92    2.34
  -5  -3   5   16.79    2.65
   5   3  -5   15.53    2.53
  -5  -3   5   15.99    2.61
  -5  -3   5   14.93    2.52
   5   3  -5   13.34    2.45
  -5  -3   4    9.13    2.31
  -5  -3   4    6.43    1.93
  -5  -3   4    4.63    1.45
   5   3  -4    5.49    1.75
  -5  -3   4    6.72    1.79
   5   3  -4    4.86    1.85
  -5  -3   4    7.92    1.95
   5   3  -4    4.59    1.25
   5   3  -4    6.10    1.82
  -5  -3   4    7.39    2.17
  -5  -3   4    8.45    2.06
  -5  -3   4   10.64    2.28
  -5  -3   4    7.92    1.93
   5   3  -4    4.93    1.83
  -5  -3   3   20.41    3.26
  -5  -3   3   17.04    2.89
   5   3  -3   17.15    2.35
   5   3  -3   19.52    3.02
  -5  -3   3   17.49    2.44
  -5  -3   3   19.08    2.92
   5   3  -3   19.32    3.11
  -5  -3   3   18.84    2.86
  -5  -3   3   17.97    3.18
  -5  -3   3   15.57    2.75
  -5  -3   3   17.65    2.91
   5   3  -3   20.81    3.22
  -5  -3   3   19.68    2.87
   5   3  -2  124.85    7.11
  -5  -3   2  117.93    7.26
   5   3  -2   91.99    5.37
   5   3  -2  106.66    5.93
  -5  -3   2  105.74    6.28
  -5  -3   2  132.38    7.49
   5   3  -2  114.95    7.19
   5   3  -2  100.03    6.61
   5   3  -2  104.16    5.92
  -5  -3   2  118.04    7.17
   5   3  -2  118.38    6.90
  -5  -3   2  101.44    6.09
  -5  -3   2  115.84    6.94
   5   3  -1   80.72    5.55
   5   3  -1   88.54    5.58
  -5  -3   1   94.13    5.35
  -5  -3   1  107.70    6.57
  -5  -3   1  112.43    6.92
  -5  -3   1   90.19    6.25
   5   3  -1   82.27    5.81
   5   3  -1   89.84    6.17
  -5  -3   1   99.83    6.97
  -5  -3   1   86.47    6.33
  -5  -3   1  107.40    6.54
   5   3  -1   87.83    5.80
  -5  -3   1  108.07    6.04
   5   3  -1   89.52    6.03
  -5  -3   1  112.34    6.91
  -5  -3   0   22.16    3.12
   5   3   0   26.29    3.21
  -5  -3   0   20.02    2.69
  -5  -3   0   25.76    3.40
   5   3   0   29.62    3.78
  -5  -3   0   18.50    2.91
   5   3   0   25.41    3.36
  -5  -3   0   19.61    3.29
  -5  -3   0   20.70    3.16
  -5  -3   0   19.06    2.95
   5   3   0   26.29    3.11
  -5  -3   0   21.75    2.64
   5   3   0   26.31    3.37
   5   3   1  128.00    6.93
  -5  -3  -1  112.29    5.80
  -5  -3  -1  135.25    7.45
  -5  -3  -1  117.70    6.50
  -5  -3  -1  130.10    7.44
   5   3   1  120.69    7.01
  -5  -3  -1  134.45    7.51
  -5  -3  -1  117.26    7.21
   5   3   1  113.73    6.86
  -5  -3  -1  131.76    7.53
  -5  -3  -2   26.66    2.99
  -5  -3  -2   28.32    3.30
   5   3   2   25.67    3.24
   5   3   2   27.21    3.36
  -5  -3  -2   29.41    3.59
  -5  -3  -2   25.00    3.35
   5   3   2   27.63    3.52
  -5  -3  -2   33.10    3.82
   5   3   3   41.52    4.14
  -5  -3  -3   42.00    3.67
  -5  -3  -3   43.24    4.12
  -5  -3  -3   48.20    4.19
   5   3   3   43.51    3.81
   5   3   3   43.98    3.96
  -5  -3  -3   49.07    4.42
  -5  -3  -3   34.60    3.46
  -5  -3  -3   53.14    4.68
   5   3   3   39.51    3.55
   5   3   4   14.73    2.14
   5   3   4   14.29    2.24
   5   3   4   15.10    2.48
  -5  -3  -4   11.41    2.19
  -5  -3  -4    9.86    2.12
  -5  -3  -4   10.41    1.95
  -5  -3  -5   43.31    3.47
   5   3   5   33.80    2.87
  -5  -3  -5   32.58    2.84
   5   3   5   40.61    3.37
   5   3   5   32.20    3.08
  -5  -3  -5   39.03    3.42
  -5  -3  -5   38.88    3.21
  -5  -3  -5   34.22    3.21
   5   3   6    1.00    0.76
  -5  -3  -6    0.68    0.66
   5   3   6    1.82    0.97
  -5  -3  -6    1.13    0.79
   5   3   6    2.20    0.95
   5   3   7   31.72    2.06
  -5  -3  -7   44.43    2.40
   5   4  -8    5.91    1.11
   5   4  -8    7.02    1.19
   5   4  -7    7.66    1.54
  -5  -4   7    8.33    1.60
  -5  -4   7    5.61    1.17
  -5  -4   7    7.38    1.49
   5   4  -6   61.87    4.00
  -5  -4   6   56.91    4.04
  -5  -4   6   65.76    4.45
  -5  -4   5   30.13    2.97
   5   4  -5   31.96    3.31
  -5  -4   5   29.36    3.11
   5   4  -5   37.02    3.50
   5   4  -5   30.68    3.01
   5   4  -4   25.78    3.15
  -5  -4   4   29.48    3.24
  -5  -4   4   28.69    3.13
   5   4  -4   28.95    3.26
  -5  -4   4   27.05    3.20
  -5  -4   4   26.72    3.30
   5   4  -4   27.05    3.24
  -5  -4   4   28.59    3.06
  -5  -4   3    2.27    1.39
   5   4  -3    1.41    1.41
  -5  -4   3    2.67    1.29
  -5  -4   3    3.76    1.51
  -5  -4   3    3.56    1.38
   5   4  -3    0.59    1.23
   5   4  -3    2.10    1.27
  -5  -4   3    3.20    1.61
  -5  -4   3    4.50    1.57
  -5  -4   3    2.27    1.19
  -5  -4   2   30.28    3.31
  -5  -4   2   37.53    4.00
   5   4  -2   32.42    3.86
  -5  -4   2   35.67    3.63
  -5  -4   2   34.54    3.67
   5   4  -2   25.27    2.84
  -5  -4   2   28.19    3.35
   5   4  -2   32.63    3.43
  -5  -4   2   28.20    3.17
  -5  -4   2   31.64    3.58
  -5  -4   1   22.77    3.14
   5   4  -1   21.81    2.84
  -5  -4   1   21.39    3.03
   5   4  -1   24.74    2.85
  -5  -4   1   23.39    2.82
  -5  -4   1   24.23    3.51
  -5  -4   1   24.11    3.15
  -5  -4   1   21.99    2.93
  -5  -4   1   24.50    3.17
  -5  -4   0   52.94    4.08
  -5  -4   0   62.44    4.90
  -5  -4   0   58.12    4.91
   5   4   0   62.68    5.04
   5   4   0   50.33    4.31
  -5  -4   0   49.13    4.00
  -5  -4   0   51.15    3.84
  -5  -4   0   55.35    4.99
  -5  -4   0   59.82    4.79
  -5  -4   0   54.18    4.50
   5   4   1    8.70    2.09
  -5  -4  -1   10.01    2.12
  -5  -4  -1   11.38    2.06
  -5  -4  -1   12.81    2.43
   5   4   1    9.09    1.97
   5   4   1    8.24    1.92
  -5  -4  -1   10.02    1.89
  -5  -4  -1   12.45    2.41
   5   4   1    8.69    2.05
  -5  -4  -1   14.87    2.51
  -5  -4  -2   18.80    2.26
  -5  -4  -2   23.56    2.82
   5   4   2   20.22    2.63
   5   4   2   17.36    2.47
  -5  -4  -2   18.49    2.44
   5   4   2   16.53    2.58
  -5  -4  -2   19.91    2.69
  -5  -4  -2   22.56    2.92
   5   4   2   18.40    2.44
   5   4   3  129.51    5.83
   5   4   3  122.21    5.61
  -5  -4  -3  109.01    5.54
  -5  -4  -3   84.84    4.74
  -5  -4  -3  106.33    5.04
  -5  -4  -3  116.57    5.99
  -5  -4  -3  120.58    6.12
   5   4   4  136.66    5.18
   5   4   4  141.03    5.85
  -5  -4  -4  150.88    5.66
   5   4   4  134.50    5.39
  -5  -4  -4  112.25    4.80
   5   4   4  145.61    5.96
  -5  -4  -4  160.97    6.47
   5   4   5    0.05    0.52
  -5  -4  -5    1.27    0.70
   5   4   5    0.30    0.69
  -5  -4  -5    1.24    0.79
   5   4   5    0.44    0.64
   5   5  -6   57.54    3.23
   5   5  -6   54.43    3.03
  -5  -5   5   14.71    1.94
   5   5  -5   11.87    1.52
   5   5  -5   18.37    2.07
   5   5  -5   16.81    1.92
  -5  -5   4   23.37    2.65
   5   5  -4   34.92    2.87
  -5  -5   4   22.84    2.11
   5   5  -4   34.20    2.85
  -5  -5   4   30.56    2.87
  -5  -5   3   10.64    2.06
  -5  -5   3    9.88    1.68
   5   5  -3   15.66    1.98
  -5  -5   3   10.27    1.64
   5   5  -3   16.57    2.10
  -5  -5   3   12.60    2.01
  -5  -5   3   12.29    2.00
  -5  -5   2    9.03    1.79
  -5  -5   2    9.43    1.70
   5   5  -2    7.19    1.47
  -5  -5   2    9.62    1.78
  -5  -5   2    8.50    1.69
   5   5  -2    5.78    1.30
  -5  -5   2    7.99    1.58
  -5  -5   2    8.69    1.92
  -5  -5   1   10.12    1.92
  -5  -5   1    9.14    1.69
  -5  -5   1    9.54    1.67
   5   5  -1    9.93    1.76
  -5  -5   1    8.88    2.00
  -5  -5   1   11.98    1.99
  -5  -5   1    9.71    1.76
  -5  -5   1    8.97    1.79
  -5  -5   0   45.09    3.71
   5   5   0   48.57    3.63
   5   5   0   47.13    3.59
  -5  -5   0   42.78    3.48
  -5  -5   0   39.62    3.65
  -5  -5   0   38.01    3.40
  -5  -5   0   40.19    3.32
  -5  -5   0   45.48    3.58
   5   5   1   52.77    3.66
   5   5   1   49.68    3.64
  -5  -5  -1   51.52    3.74
  -5  -5  -1   42.85    3.47
  -5  -5  -1   48.62    3.59
  -5  -5  -1   55.25    3.77
  -5  -5  -1   45.84    3.23
  -5  -5  -2    6.92    1.35
   5   5   2    9.90    1.64
   5   5   2   10.10    1.70
  -5  -5  -2    7.08    1.48
  -5  -5  -2    6.62    1.42
  -5  -5  -2    4.98    1.16
  -5  -5  -2    6.66    1.35
  -5  -5  -2    5.34    1.23
  -5  -5  -3   93.27    4.06
   5   5   3   79.91    3.77
  -5  -5  -3   84.43    3.86
  -5  -5  -4   50.13    2.60
   5   5   4   56.64    2.64
  -5  -6   4   23.35    1.90
  -5  -6   3   37.03    2.62
   5   6  -3   40.21    2.55
  -5  -6   3   34.07    2.16
   5   6  -3   42.69    2.66
  -5  -6   2    0.36    0.65
   5   6  -2    2.48    0.91
  -5  -6   2    0.49    0.49
   5   6  -2    2.20    0.78
   5   6  -2    1.99    0.92
   5   6  -1    0.37    0.60
  -5  -6   1    0.36    0.62
  -5  -6   1    0.75    0.59
   5   6  -1    0.46    0.48
  -5  -6   1    0.20    0.69
  -5  -6   0    7.22    1.18
   5   6   0    6.71    1.15
  -5  -6   0    5.86    1.15
   5   6   0    6.95    1.14
   5   6   0    6.57    1.05
  -5  -6  -1   18.19    1.65
  -5  -6  -1   22.84    1.83
   5   6   1   20.41    1.65
  -6  10   1   26.95    2.09
  -6  10   0    6.03    1.12
  -6  10  -1   42.14    2.69
  -6  10  -2    1.11    0.62
  -6  10  -3    1.51    0.59
  -6   9   5    3.83    0.78
  -6   9   4   25.27    2.35
  -6   9   4   23.79    2.35
  -6   9   3   27.67    2.66
  -6   9   2   17.21    2.25
  -6   9   2   15.00    2.13
  -6   9   2   14.88    2.06
  -6   9   1   14.75    2.19
  -6   9   1   16.50    2.13
  -6   9   0   41.31    3.62
  -6   9  -1   11.79    2.04
  -6   9  -2   75.24    4.50
  -6   9  -3   24.49    2.54
  -6   9  -4   41.60    3.00
  -6   9  -5   22.57    1.89
  -6   8   7   44.96    2.42
  -6   8   6   70.04    3.78
  -6   8   6   71.60    3.75
  -6   8   5   33.78    2.97
  -6   8   5   36.53    3.14
  -6   8   4   77.09    4.83
  -6   8   4   61.80    4.15
  -6   8   4   70.78    4.73
  -6   8   3    9.77    2.01
  -6   8   3    7.84    1.61
  -6   8   3    7.37    1.75
  -6   8   3    7.39    1.71
  -6   8   2   24.33    2.87
  -6   8   2   24.95    3.09
  -6   8   2   22.26    2.98
  -6   8   1   46.27    3.88
  -6   8   1   51.41    4.20
  -6   8   1   59.12    4.75
  -6   8   1   52.20    4.36
  -6   8   0   15.01    2.62
  -6   8   0   12.73    2.08
  -6   8   0   18.74    2.86
  -6   8   0   19.08    2.73
  -6   8  -1   58.29    4.48
  -6   8  -1   54.58    4.65
  -6   8  -1   63.85    4.95
  -6   8  -2   43.32    3.73
  -6   8  -2   47.94    4.20
  -6   8  -2   43.07    3.46
  -6   8  -2   48.00    4.12
  -6   8  -3  480.58   13.17
  -6   8  -3  492.85   13.55
  -6   8  -3  448.09   12.59
  -6   8  -3  441.76   11.71
  -6   8  -4   68.74    4.31
  -6   8  -4   66.07    4.41
   6  -8   4   52.47    3.50
  -6   8  -4   64.36    3.70
  -6   8  -4   63.96    3.90
  -6   8  -5   54.34    3.42
  -6   8  -5   46.87    3.36
   6  -8   5   48.50    2.91
  -6   8  -5   45.67    3.05
   6  -8   5   53.30    3.20
  -6   8  -6   28.93    2.04
  -6   8  -6   25.79    2.12
  -6   7   8    2.37    0.71
  -6   7   8    3.91    0.82
  -6   7   7   38.41    2.99
  -6   7   7   39.10    3.03
  -6   7   7   37.34    2.73
  -6   7   6  101.07    5.38
  -6   7   5  182.76    8.08
  -6   7   5  192.60    8.34
  -6   7   4  196.17    8.25
  -6   7   4  234.32    9.47
  -6   7   4  214.64    8.23
  -6   7   4  227.80    9.61
  -6   7   4  220.78    9.12
  -6   7   4  234.83    9.75
  -6   7   3    6.92    1.94
  -6   7   3    7.65    1.92
  -6   7   3    7.57    1.86
  -6   7   3    8.99    2.26
  -6   7   2   14.12    2.42
  -6   7   2   16.54    2.74
  -6   7   2   16.27    2.43
  -6   7   2   21.69    3.13
  -6   7   2   19.60    3.09
  -6   7   1   55.68    4.39
  -6   7   1   55.42    4.64
  -6   7   1   62.15    5.20
  -6   7   1   60.08    5.23
  -6   7   0    6.16    1.45
  -6   7   0    7.04    1.80
  -6   7   0    7.35    1.64
  -6   7   0    8.84    1.94
  -6   7   0    9.44    2.22
  -6   7   0    9.42    2.31
  -6   7  -1   26.75    3.08
  -6   7  -1   25.13    2.75
  -6   7  -1   28.46    3.60
  -6   7  -1   27.52    3.57
  -6   7  -1   27.18    3.25
  -6   7  -2   47.71    4.37
  -6   7  -2   46.20    4.46
  -6   7  -2   46.67    4.50
  -6   7  -2   44.36    4.11
  -6   7  -2   49.49    4.26
  -6   7  -3   89.27    5.73
  -6   7  -3   92.74    5.76
  -6   7  -3  100.79    6.03
  -6   7  -3   91.95    5.99
  -6   7  -3   93.63    5.82
  -6   7  -3   97.40    5.91
  -6   7  -4   80.83    5.24
  -6   7  -4   61.52    4.15
  -6   7  -4   71.35    4.74
  -6   7  -4   60.34    4.55
  -6   7  -4   72.90    5.02
  -6   7  -4   71.19    4.94
  -6   7  -5   29.00    3.01
  -6   7  -5   22.95    2.80
  -6   7  -5   20.44    2.41
  -6   7  -5   24.13    2.79
   6  -7   5   24.37    2.75
  -6   7  -6   49.92    3.07
   6  -7   6   57.09    3.59
  -6   7  -6   58.27    3.75
   6  -7   7   12.96    1.65
   6  -7   7   13.15    1.57
  -6   7  -7    8.51    1.09
   6  -7   7    9.80    1.29
   6  -7   7   12.50    1.61
   6  -7   7   12.68    1.58
  -6   7  -7   14.66    1.61
  -6   6   8   14.96    1.90
  -6   6   8   13.74    1.84
  -6   6   8   14.26    1.51
  -6   6   7   57.83    3.99
  -6   6   6   27.19    3.23
  -6   6   5    8.78    2.19
  -6   6   5    6.23    1.87
  -6   6   5    6.86    1.94
  -6   6   4   82.32    6.09
  -6   6   4   66.62    5.46
  -6   6   4   74.20    5.48
  -6   6   4   63.52    4.36
  -6   6   4   70.41    5.46
  -6   6   4   77.18    5.75
  -6   6   3   23.70    3.48
  -6   6   3   17.69    2.94
  -6   6   3   19.28    2.89
  -6   6   3   16.24    2.58
  -6   6   3   20.61    3.21
  -6   6   3   18.48    2.77
  -6   6   2   33.16    3.64
  -6   6   2   30.50    3.41
  -6   6   2   41.35    4.30
   6  -6  -2   39.86    4.30
  -6   6   2   45.35    4.71
  -6   6   2   30.96    3.93
  -6   6   2   35.22    3.97
  -6   6   2   38.45    3.84
   6  -6  -1   18.88    2.92
  -6   6   1   17.33    2.32
  -6   6   1   23.19    3.14
  -6   6   1   17.40    2.51
  -6   6   1   15.92    2.45
  -6   6   1   20.94    3.24
  -6   6   1   17.88    2.86
  -6   6   1   17.39    2.51
  -6   6   0    3.30    1.44
  -6   6   0    2.72    1.13
   6  -6   0    5.16    1.76
  -6   6   0    3.06    1.26
  -6   6   0    3.49    1.55
  -6   6   0    4.15    1.70
  -6   6   0    4.36    1.72
  -6   6   0    2.33    1.15
  -6   6  -1   56.00    4.43
  -6   6  -1   63.21    5.13
   6  -6   1   60.05    5.38
  -6   6  -1   60.33    4.80
  -6   6  -1   64.18    5.62
  -6   6  -1   62.18    5.17
  -6   6  -1   57.86    5.35
  -6   6  -1   53.77    4.10
   6  -6   2    4.95    1.79
  -6   6  -2    2.07    1.26
  -6   6  -2    2.32    1.19
  -6   6  -2    2.13    1.39
  -6   6  -2    4.25    1.78
  -6   6  -2    2.69    1.52
  -6   6  -3  204.05    8.80
  -6   6  -3  206.56   10.23
  -6   6  -3  202.66    9.07
  -6   6  -3  211.55    9.44
  -6   6  -3  185.87    8.39
  -6   6  -3  214.99    9.52
   6  -6   4   11.63    1.95
  -6   6  -4   10.99    2.09
  -6   6  -4   11.96    2.45
  -6   6  -4   14.64    2.64
  -6   6  -4   13.13    2.32
  -6   6  -4   11.80    2.36
  -6   6  -5   14.48    2.38
  -6   6  -5   14.43    2.10
  -6   6  -5    9.48    2.06
  -6   6  -5   15.85    2.57
   6  -6   5    9.60    2.00
  -6   6  -5   12.59    2.35
  -6   6  -6   44.35    3.73
   6  -6   6   39.06    3.49
  -6   6  -6   34.70    3.26
   6  -6   6   37.28    3.16
  -6   6  -7   40.09    3.11
  -6   6  -7   36.15    2.93
   6  -6   7   40.37    2.69
   6  -6   7   44.28    3.18
  -6   6  -8   73.73    3.23
   6  -6   8   75.31    3.31
  -6   5   9   84.61    3.65
  -6   5   9   98.71    4.30
   6  -5  -8   43.73    2.98
  -6   5   8   56.57    3.98
  -6   5   8   50.70    3.32
  -6   5   8   53.30    3.82
  -6   5   7   36.53    3.56
  -6   5   7   32.11    3.49
  -6   5   6   39.72    3.46
  -6   5   6   45.63    4.41
  -6   5   6   45.49    4.32
  -6   5   5   35.23    3.99
  -6   5   5   31.82    3.77
  -6   5   5   24.14    2.69
   6  -5  -4    8.28    2.17
  -6   5   4    6.74    2.04
  -6   5   4    6.60    2.00
  -6   5   4    7.16    1.92
  -6   5   4    7.89    2.14
  -6   5   4    7.61    2.03
   6  -5  -3   22.25    3.28
  -6   5   3   17.72    2.93
  -6   5   3   24.28    3.43
  -6   5   3   20.25    2.87
  -6   5   3   21.68    3.18
  -6   5   3   22.92    3.29
  -6   5   3   19.36    3.03
   6  -5  -2  154.92    7.82
   6  -5  -2  162.13    8.61
  -6   5   2  149.97    8.48
  -6   5   2  151.23    7.44
  -6   5   2  151.88    8.08
  -6   5   2  147.31    7.83
  -6   5   2  172.00    8.56
  -6   5   2  179.40    9.29
   6  -5  -1   18.22    2.89
  -6   5   1   26.39    3.77
  -6   5   1   19.78    2.55
  -6   5   1   21.98    3.13
  -6   5   1   21.20    3.11
  -6   5   1   17.09    2.77
  -6   5   1   19.58    2.79
   6  -5   0   96.93    6.70
   6  -5   0   96.33    5.87
  -6   5   0  105.78    7.12
  -6   5   0  117.19    7.67
  -6   5   0  114.21    6.86
  -6   5   0   89.85    5.24
  -6   5   0  107.74    6.80
  -6   5   0   91.80    5.43
   6  -5   1   12.07    2.29
  -6   5  -1    6.92    1.96
  -6   5  -1    7.74    2.01
  -6   5  -1    7.09    1.61
  -6   5  -1    9.38    1.93
   6  -5   2   16.68    3.06
   6  -5   2   15.27    2.63
  -6   5  -2   18.43    2.61
  -6   5  -2   19.50    3.06
  -6   5  -2   19.52    2.69
  -6   5  -2   22.01    3.04
  -6   5  -2   22.69    3.02
   6  -5   3   50.03    4.96
  -6   5  -3   44.58    4.19
  -6   5  -3   43.55    4.29
  -6   5  -3   42.34    3.95
  -6   5  -3   49.44    5.05
  -6   5  -3   53.43    4.96
   6  -5   4   16.13    2.55
  -6   5  -4   17.22    2.48
  -6   5  -4   18.06    2.91
  -6   5  -4   24.56    3.28
  -6   5  -4   22.52    3.39
  -6   5  -4   18.33    2.80
  -6   5  -5    8.22    1.98
   6  -5   5    2.94    1.29
  -6   5  -5    7.73    1.95
  -6   5  -5    7.50    1.94
   6  -5   5    5.61    1.89
  -6   5  -5    7.06    2.05
  -6   5  -6   20.41    2.78
   6  -5   6   20.08    2.31
   6  -5   6   18.80    2.69
  -6   5  -6   19.46    2.71
   6  -5   6   18.58    2.68
  -6   5  -6   18.13    2.53
  -6   5  -7    4.03    1.29
   6  -5   7    6.82    1.59
  -6   5  -7    3.27    1.19
  -6   5  -7    2.37    1.10
  -6   5  -7    3.03    1.13
  -6   5  -7    3.00    1.04
   6  -5   7    4.35    1.34
   6  -5   7    5.85    1.45
   6  -5   8   10.53    1.43
   6  -5   8   10.76    1.46
  -6   5  -8    5.36    1.11
   6  -5   8    8.36    1.25
  -6   5  -8    5.75    1.08
   6  -5   8    7.21    1.25
   6  -4  -9   38.94    2.66
  -6   4   9   36.70    2.95
   6  -4  -8   28.93    2.72
  -6   4   8   28.41    2.80
  -6   4   8   28.36    3.02
  -6   4   8   29.02    2.80
  -6   4   7   86.43    5.19
   6  -4  -7   88.69    5.07
  -6   4   7   93.96    6.05
  -6   4   6   37.62    3.58
  -6   4   6   40.73    4.37
   6  -4  -6   45.80    3.76
  -6   4   5  119.48    7.11
  -6   4   5  104.34    5.74
  -6   4   5  115.60    6.97
   6  -4  -5   98.13    6.93
  -6   4   4   15.70    2.81
  -6   4   4   15.79    3.04
  -6   4   4   20.98    3.17
  -6   4   4   14.05    2.58
   6  -4  -4   15.36    2.89
  -6   4   3   12.50    2.61
  -6   4   3    9.85    2.41
   6  -4  -3   17.85    3.01
  -6   4   3    8.33    2.08
  -6   4   3   11.25    2.34
  -6   4   3   10.58    2.37
  -6   4   3   11.54    2.53
  -6   4   2   10.67    2.17
  -6   4   2   11.30    2.52
  -6   4   2    9.40    2.23
  -6   4   2    9.45    2.27
  -6   4   2    9.90    1.96
   6  -4  -2   11.41    2.18
   6  -4  -2    9.15    2.04
  -6   4   1   17.25    3.07
  -6   4   1   15.68    2.65
   6  -4  -1   18.58    2.96
   6  -4  -1   21.92    2.95
  -6   4   1   17.70    2.42
  -6   4   1   17.77    2.68
  -6   4   0   16.64    2.84
  -6   4   0   15.00    2.45
  -6   4   0   14.32    2.14
  -6   4   0   11.80    2.55
   6  -4   0   11.30    2.45
   6  -4   0   14.89    2.48
  -6   4   0   17.55    3.02
  -6   4   0   13.94    2.35
  -6   4   0   12.25    2.64
  -6   4  -1   69.35    4.63
  -6   4  -1   62.91    4.78
  -6   4  -1   68.86    6.03
   6  -4   1   56.71    5.23
   6  -4   1   56.06    4.82
  -6   4  -1   62.85    5.44
  -6   4  -1   66.22    5.07
  -6   4  -1   78.58    5.82
  -6   4  -2   61.11    5.29
  -6   4  -2   49.74    3.99
  -6   4  -2   49.77    4.21
   6  -4   2   62.52    5.20
  -6   4  -2   47.34    4.07
  -6   4  -2   52.03    4.91
  -6   4  -2   43.77    4.07
  -6   4  -2   67.54    5.27
  -6   4  -3    2.49    1.42
   6  -4   3    7.37    1.71
   6  -4   3    7.62    2.10
  -6   4  -3    1.93    1.20
  -6   4  -3    2.72    1.32
  -6   4  -3    3.27    1.37
  -6   4  -3    3.29    1.68
  -6   4  -3    3.42    1.15
   6  -4   4    5.80    1.76
  -6   4  -4    7.18    1.89
  -6   4  -4    7.87    2.20
  -6   4  -4    5.28    1.34
   6  -4   5    9.05    2.01
  -6   4  -5   13.65    2.52
  -6   4  -5   13.51    2.55
   6  -4   6   19.90    2.62
   6  -4   6   17.76    2.74
  -6   4  -6   22.97    2.87
  -6   4  -6   22.86    3.02
  -6   4  -6   23.16    2.95
  -6   4  -7   58.14    3.94
   6  -4   7   61.26    4.02
   6  -4   7   68.07    4.38
  -6   4  -7   67.95    4.02
  -6   4  -7   58.69    4.18
  -6   4  -7   54.72    4.09
   6  -4   8    3.20    1.04
   6  -4   8    3.96    1.03
  -6   4  -8    2.08    0.89
   6  -4   8    2.93    0.90
  -6   4  -8    2.52    0.83
  -6   3  10   40.73    2.52
   6  -3 -10   58.29    2.91
   6  -3  -9   45.79    3.12
   6  -3  -9   50.37    3.17
  -6   3   9   51.75    3.18
   6  -3  -8  100.80    5.23
  -6   3   8   96.68    5.26
  -6   3   8  107.00    5.60
  -6   3   8  102.34    5.66
   6  -3  -7   19.95    2.60
  -6   3   7   18.55    2.77
  -6   3   7   16.99    2.60
  -6   3   7   20.24    2.77
  -6   3   7   24.47    3.24
   6  -3  -6   58.92    4.40
  -6   3   6   85.98    6.19
  -6   3   6   74.62    5.90
  -6   3   6   70.15    5.30
  -6   3   6   76.02    5.70
  -6   3   6   71.67    5.06
  -6   3   6   74.60    5.52
  -6   3   5   32.20    3.79
  -6   3   5   29.52    3.76
   6  -3  -5   18.44    3.17
  -6   3   5   30.95    3.57
  -6   3   5   32.00    3.61
  -6   3   5   31.05    3.86
  -6   3   5   20.31    2.90
  -6   3   5   25.62    3.05
  -6   3   4  104.73    6.93
   6  -3  -4  111.89    6.56
  -6   3   4   92.22    5.84
  -6   3   4  105.62    6.53
  -6   3   4  110.12    6.54
  -6   3   4   83.38    6.13
  -6   3   4   85.43    5.20
  -6   3   3   74.80    5.63
  -6   3   3   61.47    4.74
  -6   3   3   76.53    5.75
  -6   3   3   62.29    4.54
  -6   3   3   69.34    5.41
  -6   3   3   68.83    5.54
   6  -3  -3   56.58    5.07
   6  -3  -3   60.28    4.94
  -6   3   3   60.72    5.37
  -6   3   3   64.46    4.85
  -6   3   2    1.91    1.09
  -6   3   2    3.96    1.75
   6  -3  -2    4.52    1.41
  -6   3   2    2.52    1.19
  -6   3   2    2.63    1.46
  -6   3   2    2.14    1.34
   6  -3  -2    6.23    1.76
   6  -3  -2    4.76    1.67
  -6   3   2    3.74    1.21
  -6   3   2    2.31    1.38
  -6   3   1    2.30    1.07
  -6   3   1    3.26    1.57
  -6   3   1    1.56    0.92
  -6   3   1    2.08    1.10
   6  -3  -1    2.81    1.18
  -6   3   1    2.13    1.36
  -6   3   1    3.03    1.31
   6  -3  -1    1.92    1.14
   6  -3  -1    2.28    1.42
   6  -3  -1    2.07    1.24
  -6   3   1    2.01    1.07
  -6   3   1    3.82    1.63
  -6   3   0    0.35    0.70
  -6   3   0    0.85    1.16
  -6   3   0    0.62    0.85
  -6   3   0    0.59    1.39
   6  -3   0    0.60    0.86
  -6   3   0    0.95    1.22
  -6   3   0    0.59    1.07
   6  -3   0    0.42    0.97
   6  -3   0    0.75    1.01
  -6   3   0    1.48    1.18
  -6   3   0    0.88    0.92
  -6   3  -1   22.40    3.25
  -6   3  -1   18.10    2.62
   6  -3   1   18.61    2.57
   6  -3   1   20.77    3.25
   6  -3   1   23.32    3.27
  -6   3  -1   19.71    2.80
   6  -3   1   20.99    2.85
  -6   3  -1   24.50    3.49
  -6   3  -1   21.90    3.07
  -6   3  -1   22.23    3.33
  -6   3  -1   17.81    2.49
  -6   3  -2  136.73    7.19
  -6   3  -2  165.00    8.52
  -6   3  -2  170.94    8.53
   6  -3   2  145.78    7.43
   6  -3   2  144.52    8.18
   6  -3   2  166.98    8.58
  -6   3  -2  148.42    7.53
   6  -3   2  151.10    7.64
  -6   3  -2  147.34    7.87
  -6   3  -2  139.87    8.02
  -6   3  -2  130.42    7.08
  -6   3  -2  131.81    6.78
   6  -3   2  143.77    6.88
  -6   3  -3   61.68    4.95
  -6   3  -3   77.55    5.84
   6  -3   3   81.14    5.43
   6  -3   3   78.83    5.99
   6  -3   3   80.13    6.09
  -6   3  -3   71.58    5.19
   6  -3   3   75.64    5.61
  -6   3  -3   69.17    5.15
   6  -3   3   70.09    4.68
  -6   3  -3   65.41    5.28
  -6   3  -3   57.27    4.93
  -6   3  -4   26.52    3.48
   6  -3   4   22.75    3.19
  -6   3  -4   25.25    3.34
  -6   3  -4   36.22    3.98
   6  -3   4   21.48    2.83
  -6   3  -4   25.26    3.16
   6  -3   4   28.18    3.55
  -6   3  -5   76.62    5.60
  -6   3  -5   63.72    5.07
  -6   3  -5   70.31    5.19
   6  -3   5   77.14    5.44
   6  -3   6   18.48    2.66
  -6   3  -6   16.78    2.68
   6  -3   6   18.82    2.70
   6  -3   6   19.64    2.83
   6  -3   6   19.23    2.87
  -6   3  -6   17.33    2.50
  -6   3  -6   21.57    2.76
   6  -3   7   20.11    2.44
  -6   3  -7   21.32    2.61
   6  -3   7   21.34    2.62
  -6   3  -7   19.92    2.23
   6  -3   7   22.48    2.56
  -6   3  -7   26.24    2.48
   6  -3   8   58.10    3.32
   6  -3   8   50.90    3.24
  -6   3  -8   46.94    3.13
  -6   2  10   38.84    2.39
   6  -2 -10   44.09    2.32
  -6   2   9    8.09    1.31
   6  -2  -9    6.22    1.35
  -6   2   9    8.93    1.52
   6  -2  -9    5.95    1.38
  -6   2   9    9.77    1.68
   6  -2  -9    9.58    1.69
  -6   2   8   59.25    4.35
  -6   2   8   74.61    4.89
   6  -2  -8   72.23    4.52
  -6   2   8   65.99    4.53
  -6   2   8   67.05    4.56
  -6   2   7   42.01    4.05
  -6   2   7   39.17    3.91
  -6   2   7   40.56    4.00
   6  -2  -7   38.28    3.60
  -6   2   7   44.12    4.03
  -6   2   7   46.69    4.40
  -6   2   6   93.04    6.36
   6  -2  -6   85.60    5.33
  -6   2   6   91.95    5.92
  -6   2   6   96.02    6.48
  -6   2   6   83.37    5.58
   6  -2  -6   89.77    5.48
   6  -2  -5  147.85    8.10
  -6   2   5  105.77    6.70
  -6   2   5  154.01    8.18
  -6   2   5  151.96    8.29
   6  -2  -5  130.15    7.60
   6  -2  -5  134.89    8.04
  -6   2   5  139.81    7.25
  -6   2   5  151.47    8.41
  -6   2   5  146.15    7.22
  -6   2   5  113.77    5.91
  -6   2   5  140.08    7.70
  -6   2   4   97.59    6.49
  -6   2   4   82.16    6.16
   6  -2  -4   83.85    6.18
   6  -2  -4   95.76    6.41
  -6   2   4   74.28    5.08
  -6   2   4   69.93    4.98
  -6   2   4   83.22    5.80
  -6   2   4   81.78    5.80
  -6   2   4   69.63    5.71
  -6   2   3    5.94    1.90
  -6   2   3    4.39    1.54
  -6   2   3    4.35    1.75
  -6   2   3    3.81    1.62
  -6   2   3    4.10    1.36
  -6   2   3    2.99    1.34
   6  -2  -3    7.26    1.95
   6  -2  -3    5.95    1.84
   6  -2  -3    4.20    1.62
  -6   2   3    4.31    1.50
  -6   2   3    3.47    1.58
  -6   2   2   96.30    6.86
  -6   2   2   98.55    6.30
   6  -2  -2   82.20    5.42
  -6   2   2   91.14    5.89
   6  -2  -2   91.00    6.05
   6  -2  -2   88.58    6.15
  -6   2   2   84.99    5.80
  -6   2   2   98.35    6.53
  -6   2   2   97.83    6.60
  -6   2   2   85.56    5.87
  -6   2   2   90.61    5.80
   6  -2  -2   84.65    5.33
  -6   2   2   79.41    5.08
  -6   2   2   79.13    5.43
   6  -2  -1  505.03   13.69
  -6   2   1  512.27   14.80
   6  -2  -1  569.81   15.25
   6  -2  -1  546.90   14.33
  -6   2   1  555.42   16.12
  -6   2   1  539.82   15.58
   6  -2  -1  566.44   15.85
   6  -2  -1  604.61   16.91
  -6   2   1  528.36   15.95
  -6   2   1  517.41   15.47
   6  -2  -1  553.96   15.69
  -6   2   1  572.55   17.11
  -6   2   1  530.02   17.19
  -6   2   1  531.70   14.95
  -6   2   1  550.19   15.96
  -6   2   0   99.15    6.99
   6  -2   0   97.63    5.66
   6  -2   0   98.75    5.84
  -6   2   0  117.49    6.90
  -6   2   0  106.56    6.45
   6  -2   0   93.96    5.93
   6  -2   0  104.49    6.63
  -6   2   0  108.04    6.92
  -6   2   0  101.76    6.03
   6  -2   0   95.79    6.09
  -6   2   0  127.17    7.46
   6  -2   0   88.40    5.37
  -6   2   0  112.09    6.21
   6  -2   0   97.92    5.97
  -6   2   0  121.56    6.95
  -6   2  -1   57.82    4.43
   6  -2   1   77.55    5.55
  -6   2  -1   60.99    5.05
   6  -2   1   72.38    5.29
  -6   2  -1   71.71    5.60
   6  -2   1   74.80    5.06
  -6   2  -1   69.54    5.42
   6  -2   1   75.55    5.25
   6  -2   1   78.98    5.00
  -6   2  -1   54.89    4.07
   6  -2   1   70.87    5.02
   6  -2   1   81.81    5.90
  -6   2  -1   61.30    5.53
  -6   2  -1   58.37    4.90
  -6   2  -1   72.68    5.40
  -6   2  -2   52.25    4.79
   6  -2   2   40.31    4.06
   6  -2   2   34.86    3.60
  -6   2  -2   44.40    4.38
  -6   2  -2   37.87    4.00
  -6   2  -2   35.60    3.35
   6  -2   2   33.43    3.60
   6  -2   2   36.31    3.93
  -6   2  -2   42.83    4.30
   6  -2   2   40.78    4.24
  -6   2  -2   45.87    4.43
  -6   2  -2   37.77    4.24
   6  -2   3   18.34    2.83
  -6   2  -3   15.63    2.72
  -6   2  -3   18.10    2.89
   6  -2   3   22.13    3.22
   6  -2   3   19.24    3.12
   6  -2   3   18.88    2.93
  -6   2  -3   19.57    2.87
   6  -2   3   19.47    2.72
  -6   2  -3   20.53    2.59
   6  -2   3   20.09    3.24
  -6   2  -3   22.32    3.21
   6  -2   4   56.03    4.39
   6  -2   4   63.59    5.22
   6  -2   4   61.87    5.23
  -6   2  -4   53.44    4.11
   6  -2   4   59.42    4.75
  -6   2  -4   64.92    4.97
   6  -2   5   53.66    4.32
  -6   2  -5   50.11    4.10
   6  -2   5   56.92    4.75
   6  -2   5   58.24    4.82
  -6   2  -5   41.33    3.47
  -6   2  -5   53.00    4.56
  -6   2  -6   32.21    2.96
   6  -2   6   42.90    3.89
   6  -2   6   42.74    3.86
   6  -2   6   38.86    3.45
   6  -2   6   41.86    3.90
   6  -2   6   42.15    3.84
   6  -2   7   10.03    1.79
   6  -2   7   10.13    1.75
  -6   2  -7   13.06    2.04
   6  -2   7    8.70    1.55
   6  -2   7    9.06    1.80
  -6   2  -7   12.40    1.59
   6  -2   8   15.57    1.74
  -6   2  -8   10.60    1.51
  -6   1  10   47.00    2.57
   6  -1 -10   45.51    2.52
   6  -1  -9   87.16    4.32
  -6   1   9   82.30    4.42
  -6   1   9   88.78    4.59
   6  -1  -9   88.00    4.23
   6  -1  -9   99.16    4.69
  -6   1   9   74.26    4.20
   6  -1  -9  104.02    4.95
   6  -1  -8  102.24    5.61
  -6   1   8   94.49    5.53
   6  -1  -8   95.45    5.15
  -6   1   8   95.31    5.43
  -6   1   8  104.71    5.65
  -6   1   8   90.18    5.02
  -6   1   8   88.22    4.99
   6  -1  -8   98.62    5.60
  -6   1   7    4.13    1.57
   6  -1  -7    2.32    1.26
  -6   1   7    2.14    1.04
  -6   1   7    3.65    1.53
  -6   1   7    2.99    1.46
   6  -1  -7    1.50    0.92
   6  -1  -7    1.18    1.14
   6  -1  -7    1.66    1.22
   6  -1  -6   30.06    3.68
  -6   1   6   28.36    3.20
  -6   1   6   33.42    3.90
   6  -1  -6   27.27    3.18
  -6   1   6   33.91    3.64
  -6   1   6   34.97    4.03
  -6   1   6   30.80    3.66
   6  -1  -6   29.22    3.48
   6  -1  -6   24.32    2.87
   6  -1  -5   47.57    4.55
  -6   1   5   38.86    3.77
   6  -1  -5   52.61    4.72
  -6   1   5   50.17    4.71
   6  -1  -5   43.20    3.79
   6  -1  -5   43.50    4.62
  -6   1   5   44.57    4.10
  -6   1   5   55.44    5.20
  -6   1   5   47.97    4.26
  -6   1   5   49.02    4.63
  -6   1   5   52.51    4.82
   6  -1  -5   49.01    4.18
   6  -1  -5   47.36    4.46
  -6   1   4   58.99    5.05
   6  -1  -4   65.60    5.17
  -6   1   4   44.88    4.71
   6  -1  -4   64.25    5.15
  -6   1   4   62.44    5.13
  -6   1   4   63.56    5.29
   6  -1  -4   63.82    5.50
   6  -1  -4   55.16    5.03
  -6   1   4   48.34    4.07
  -6   1   4   64.38    5.16
  -6   1   4   62.80    5.18
   6  -1  -4   49.65    4.63
   6  -1  -3   49.93    4.52
  -6   1   3   46.66    4.35
  -6   1   3   37.33    3.59
   6  -1  -3   52.16    4.75
   6  -1  -3   51.62    4.90
  -6   1   3   43.93    4.32
  -6   1   3   41.09    4.39
   6  -1  -3   52.43    4.53
  -6   1   3   42.53    4.31
  -6   1   3   41.72    4.61
   6  -1  -2   30.22    3.22
  -6   1   2   29.69    3.64
  -6   1   2   27.43    3.44
  -6   1   2   36.64    4.21
   6  -1  -2   32.24    3.48
  -6   1   2   27.55    3.50
   6  -1  -2   29.89    3.58
   6  -1  -2   32.64    3.57
  -6   1   2   30.92    3.52
  -6   1   2   28.56    3.55
   6  -1  -2   28.28    3.40
   6  -1  -2   33.71    3.95
  -6   1   2   27.36    3.13
  -6   1   2   27.88    3.87
   6  -1  -1  930.21   20.83
   6  -1  -1  901.22   20.35
  -6   1   1 1010.46   22.83
  -6   1   1 1042.48   23.98
   6  -1  -1  976.53   22.89
  -6   1   1 1099.39   24.85
  -6   1   1  832.18   20.75
   6  -1  -1  905.83   20.82
  -6   1   1  992.14   23.06
   6  -1  -1  969.76   22.12
  -6   1   1 1116.18   23.12
   6  -1  -1  991.70   22.64
   6  -1  -1  939.37   21.10
  -6   1   1  988.31   23.32
   6  -1  -1  924.03   21.21
   6  -1  -1  966.87   23.30
  -6   1   1  953.90   21.06
  -6   1   1  929.78   24.43
   6  -1   0  204.32    8.58
   6  -1   0  201.68    8.75
  -6   1   0  203.52    8.99
  -6   1   0  213.61    9.75
   6  -1   0  218.14    9.56
  -6   1   0  219.07   10.12
  -6   1   0  193.38    8.89
   6  -1   0  186.53    7.78
   6  -1   0  211.01    8.77
   6  -1   0  210.98    9.00
   6  -1   0  208.39    8.17
  -6   1   0  196.84    8.93
  -6   1   0  209.23    9.58
   6  -1   0  200.12    8.27
  -6   1   0  194.77    8.29
  -6   1   0  185.82    9.80
   6  -1   1    5.38    1.86
  -6   1  -1    2.27    1.31
   6  -1   1    5.55    1.68
  -6   1  -1    3.99    1.76
   6  -1   1    5.65    1.75
   6  -1   1    6.68    1.92
   6  -1   1    5.16    1.69
   6  -1   1    5.78    1.63
   6  -1   1    4.62    1.58
  -6   1  -1    1.88    1.11
   6  -1   1    4.86    1.69
  -6   1  -1    4.51    1.71
  -6   1  -1    3.60    1.43
  -6   1  -1    4.15    1.58
   6  -1   2   32.85    3.82
   6  -1   2   32.96    3.63
  -6   1  -2   29.25    3.70
  -6   1  -2   32.57    3.58
  -6   1  -2   30.25    3.37
   6  -1   2   31.22    3.81
   6  -1   2   35.39    4.01
  -6   1  -2   35.69    4.05
  -6   1  -2   28.82    3.57
   6  -1   2   28.29    3.56
   6  -1   2   36.91    3.80
  -6   1  -2   23.14    3.39
   6  -1   3    1.16    1.54
  -6   1  -3    1.37    1.25
   6  -1   3    1.63    1.14
  -6   1  -3    1.10    1.06
  -6   1  -3    1.24    1.01
  -6   1  -3    0.92    0.94
   6  -1   3    2.26    1.48
   6  -1   3    1.47    1.13
   6  -1   3    1.20    1.19
  -6   1  -3    0.91    1.16
   6  -1   3    1.10    1.32
  -6   1  -3    0.24    0.78
   6  -1   3    2.74    1.44
   6  -1   4    4.88    1.94
   6  -1   4    3.16    1.50
  -6   1  -4    6.88    1.99
  -6   1  -4    6.70    1.69
   6  -1   4    5.15    1.51
  -6   1  -5   84.81    5.57
   6  -1   5   71.97    5.12
  -6   1  -5   75.99    4.87
   6  -1   5   79.30    5.31
  -6   1  -6   84.17    4.99
   6  -1   6   96.49    5.30
   6  -1   6   85.41    5.33
   6  -1   6   92.22    5.29
  -6   1  -7   46.96    3.41
   6  -1   7   52.03    3.39
  -6   1  -7   41.50    3.28
   6  -1   7   57.60    3.59
   6  -1   8   54.16    2.66
  -6   1  -8   54.24    2.96
   6   0 -10   17.50    1.45
  -6   0   9   36.17    2.82
  -6   0   9   34.96    2.74
   6   0  -9   42.32    2.98
   6   0  -9   36.71    2.69
  -6   0   9   30.71    2.67
  -6   0   8   54.81    3.63
   6   0  -8   63.23    4.09
  -6   0   8   72.32    4.47
  -6   0   8   61.73    3.95
   6   0  -8   59.34    3.78
   6   0  -8   63.78    4.26
  -6   0   8   70.56    4.65
  -6   0   8   72.54    4.61
   6   0  -8   54.58    3.38
   6   0  -8   58.96    3.91
   6   0  -7   17.66    2.64
   6   0  -7   17.27    2.53
  -6   0   7   19.36    2.83
   6   0  -7   18.16    2.53
   6   0  -7   20.05    2.84
  -6   0   7   20.36    2.71
  -6   0   7   24.49    3.03
  -6   0   7   20.56    2.64
   6   0  -7   18.85    2.56
   6   0  -7   16.88    2.30
  -6   0   6   55.62    4.81
   6   0  -6   57.44    4.79
   6   0  -6   63.90    4.70
  -6   0   6   51.09    4.28
  -6   0   6   57.07    4.96
   6   0  -6   59.21    4.88
   6   0  -6   61.76    4.88
   6   0  -6   64.01    4.92
   6   0  -6   60.28    4.92
  -6   0   6   56.49    4.84
  -6   0   6   52.74    4.35
   6   0  -6   62.02    4.53
  -6   0   6   50.90    4.32
  -6   0   6   39.55    3.40
   6   0  -5   76.84    5.69
   6   0  -5   79.46    5.51
  -6   0   5   82.17    5.52
  -6   0   5   75.84    5.11
   6   0  -5   79.31    5.79
  -6   0   5   89.22    6.06
  -6   0   5   83.61    5.69
   6   0  -5   70.31    4.84
  -6   0   5   68.57    4.53
   6   0  -5   86.98    5.98
   6   0  -4   63.43    5.28
  -6   0   4   59.77    5.05
  -6   0   4   50.89    3.97
   6   0  -4   60.02    5.01
  -6   0   4   62.36    5.33
   6   0  -4   60.47    5.09
   6   0  -4   60.28    5.04
  -6   0   4   68.77    5.29
  -6   0   4   58.47    4.95
   6   0  -4   52.70    5.14
  -6   0   4   51.07    3.88
  -6   0   4   48.19    4.94
   6   0  -3  123.03    7.00
  -6   0   3  105.66    6.88
   6   0  -3  114.31    6.93
   6   0  -3  119.00    7.14
   6   0  -3  119.47    6.94
  -6   0   3  103.09    6.35
  -6   0   3  103.99    6.25
   6   0  -3  108.39    7.12
   6   0  -3  111.25    6.15
  -6   0   3   81.45    4.90
  -6   0   3  110.40    7.03
  -6   0   3   80.22    6.52
  -6   0   3  104.94    6.76
   6   0  -2   12.01    2.38
  -6   0   2    4.45    1.65
   6   0  -2   10.73    2.33
  -6   0   2    6.85    1.77
   6   0  -2   12.20    2.38
   6   0  -2    9.11    2.26
  -6   0   2    6.59    1.95
  -6   0   2    7.62    2.05
  -6   0   2    6.77    2.03
  -6   0   2    6.75    1.82
   6   0  -2   11.76    2.26
  -6   0   2    4.90    1.33
   6   0  -1  228.30    9.33
   6   0  -1  231.02    9.78
   6   0  -1  238.03    9.92
  -6   0   1  188.67    7.77
   6   0  -1  230.34    9.85
   6   0  -1  223.18    9.28
  -6   0   1  222.30    9.32
   6   0  -1  229.49   10.22
  -6   0   1  221.97    9.91
  -6   0   1  231.95   10.55
   6   0  -1  237.67   10.25
   6   0  -1  232.99    9.40
  -6   0   1  194.59   10.25
   6   0   0   25.26    3.08
   6   0   0   22.68    3.18
   6   0   0   22.43    3.08
   6   0   0   22.13    3.13
  -6   0   0   22.31    2.82
   6   0   0   29.25    3.50
  -6   0   0   27.86    3.30
   6   0   0   25.10    3.50
   6   0   0   23.97    3.20
  -6   0   0   24.46    3.56
   6   0   0   21.84    3.17
  -6   0   0   21.77    3.45
   6   0   0   21.88    3.00
  -6   0  -1   56.92    5.46
   6   0   1   63.91    5.05
  -6   0  -1   65.48    4.84
   6   0   1   57.88    4.73
   6   0   1   64.52    5.00
   6   0   1   56.64    4.98
  -6   0  -1   70.38    5.17
  -6   0  -1   67.33    5.46
   6   0   1   54.87    4.86
   6   0   1   61.84    5.08
   6   0   1   56.81    4.68
   6   0   2  117.97    7.08
   6   0   2  107.13    6.53
   6   0   2  119.56    6.82
   6   0   2  107.72    6.84
  -6   0  -2  131.74    7.27
   6   0   2  118.39    6.88
   6   0   2  119.98    7.15
  -6   0  -2  125.80    6.97
   6   0   3   73.03    5.32
   6   0   3   78.02    5.48
   6   0   3   75.86    5.68
  -6   0  -3   58.64    4.58
   6   0   3   69.92    5.26
   6   0   3   73.06    5.54
  -6   0  -3   68.52    5.08
   6   0   4  128.23    6.88
   6   0   4  128.57    7.16
   6   0   4  126.71    6.46
   6   0   4  125.14    6.91
  -6   0  -4  126.59    7.10
  -6   0  -4  125.23    6.73
   6   0   5   13.79    2.12
  -6   0  -5   19.19    2.63
   6   0   5   14.96    2.47
  -6   0  -5   18.02    2.50
  -6   0  -6   41.08    3.22
  -6   0  -6   46.17    3.40
   6   0   6   52.43    3.67
  -6   0  -7    5.30    1.02
   6   0   7   10.06    1.43
  -6  -1   9   34.82    2.36
  -6  -1   9   32.64    2.47
   6   1  -9   36.65    2.40
   6   1  -9   39.89    2.53
  -6  -1   9   42.28    2.71
   6   1  -8    5.12    1.31
   6   1  -8    5.42    1.27
   6   1  -8    5.23    1.19
  -6  -1   8    7.69    1.54
   6   1  -8    3.99    1.25
  -6  -1   8    8.32    1.53
  -6  -1   8    6.25    1.30
  -6  -1   7    6.20    1.52
  -6  -1   7    8.16    1.81
   6   1  -7    6.57    1.57
  -6  -1   7    6.40    1.55
   6   1  -7    4.12    1.41
  -6  -1   7    5.63    1.58
   6   1  -7    4.97    1.55
   6   1  -7    6.55    1.56
   6   1  -6   57.00    4.42
  -6  -1   6   48.27    4.22
  -6  -1   6   45.86    3.67
  -6  -1   6   45.52    3.78
  -6  -1   6   57.12    4.53
  -6  -1   6   52.50    4.49
   6   1  -6   55.05    4.57
   6   1  -6   55.82    4.37
   6   1  -6   57.09    4.46
   6   1  -5    0.91    1.11
  -6  -1   5    1.67    1.09
   6   1  -5    0.40    1.24
   6   1  -5   -0.13    1.21
  -6  -1   5    1.15    0.85
   6   1  -5    0.22    1.14
  -6  -1   5    1.75    1.08
  -6  -1   5    2.59    1.29
   6   1  -5    0.27    1.12
  -6  -1   5    1.67    1.41
   6   1  -5    0.63    1.23
   6   1  -5   -0.27    1.38
  -6  -1   5    0.83    0.88
  -6  -1   4    5.65    1.58
   6   1  -4   10.31    2.31
  -6  -1   4    8.88    2.25
   6   1  -4   11.09    2.62
  -6  -1   4    8.21    2.12
  -6  -1   4    6.19    1.69
   6   1  -4   12.32    2.44
   6   1  -4   13.52    2.56
   6   1  -4   10.75    2.31
   6   1  -4   10.72    1.96
  -6  -1   4    7.20    1.65
   6   1  -3    7.26    1.89
   6   1  -3    8.79    2.22
  -6  -1   3    5.61    1.57
   6   1  -3    7.31    2.03
  -6  -1   3    5.31    1.44
  -6  -1   3    5.94    2.01
  -6  -1   3    5.61    2.04
  -6  -1   3    5.47    1.71
   6   1  -3    7.28    2.03
   6   1  -3    8.28    1.91
   6   1  -2   21.68    3.14
  -6  -1   2   17.79    2.35
   6   1  -2   21.60    2.99
   6   1  -2   19.19    3.07
  -6  -1   2   18.82    2.57
   6   1  -2   21.64    3.03
  -6  -1   2   18.96    2.53
   6   1  -2   18.49    3.01
  -6  -1   2   24.28    3.40
   6   1  -2   24.37    3.24
   6   1  -2   19.87    2.85
  -6  -1   2   18.56    2.86
   6   1  -1   70.36    5.19
   6   1  -1   72.42    5.25
   6   1  -1   60.71    4.86
   6   1  -1   70.86    5.38
  -6  -1   1   56.46    4.33
   6   1  -1   77.19    5.41
   6   1  -1   69.67    5.42
   6   1  -1   58.91    4.24
   6   1  -1   70.98    5.64
  -6  -1   1   64.27    5.45
  -6  -1   1   57.34    5.29
  -6  -1   1   57.68    5.21
  -6  -1   1   57.96    4.86
   6   1   0   50.46    4.43
   6   1   0   50.00    4.48
  -6  -1   0   41.44    3.87
  -6  -1   0   38.80    3.43
   6   1   0   49.21    4.01
   6   1   0   45.89    4.52
  -6  -1   0   37.36    4.25
  -6  -1   0   42.84    4.56
  -6  -1   0   48.08    4.67
  -6  -1   0   46.28    4.35
  -6  -1  -1   13.02    2.36
  -6  -1  -1   10.16    2.01
   6   1   1   10.24    2.02
   6   1   1   12.79    2.40
   6   1   1   13.08    2.56
  -6  -1  -1    9.65    2.33
  -6  -1  -1   13.57    2.48
  -6  -1  -1   13.27    2.64
   6   1   2   20.19    3.01
  -6  -1  -2   24.24    3.08
  -6  -1  -2   23.06    2.91
   6   1   2   15.62    2.48
   6   1   2   15.60    2.60
  -6  -1  -2   24.81    3.43
  -6  -1  -2   22.78    3.15
  -6  -1  -2   23.76    3.13
   6   1   2   12.99    2.42
  -6  -1  -3   79.61    5.15
   6   1   3   59.12    4.51
   6   1   3   71.08    5.06
  -6  -1  -3   68.49    4.68
   6   1   3   60.76    4.29
  -6  -1  -3   77.01    5.70
  -6  -1  -3   76.11    5.34
  -6  -1  -4   11.88    2.11
   6   1   4    8.88    1.84
  -6  -1  -4   12.04    2.31
  -6  -1  -4   11.09    2.12
   6   1   5    4.77    1.36
  -6  -1  -5    6.97    1.53
  -6  -1  -5    5.98    1.48
  -6  -1  -5    8.13    1.79
  -6  -1  -6   14.78    1.95
   6   1   6   18.29    1.96
  -6  -1  -6   16.88    1.94
   6   1   6   18.26    2.02
  -6  -1  -6   13.76    1.58
   6   1   6   16.76    1.92
  -6  -1  -7    1.87    0.55
   6   1   7    0.53    0.52
  -6  -1  -7    0.87    0.49
  -6  -2   8    6.68    1.01
  -6  -2   8    9.60    1.43
   6   2  -8    9.12    1.34
   6   2  -8    9.01    1.31
   6   2  -8    9.76    1.36
   6   2  -7   29.11    2.72
  -6  -2   7   28.41    2.49
  -6  -2   7   30.96    2.88
   6   2  -7   30.79    2.87
  -6  -2   7   36.53    3.16
  -6  -2   7   25.04    2.59
  -6  -2   6   55.64    4.17
   6   2  -6   51.59    4.11
   6   2  -6   58.37    4.15
  -6  -2   6   48.93    3.62
  -6  -2   6   54.71    4.17
   6   2  -6   48.34    3.76
   6   2  -6   46.65    3.62
  -6  -2   6   43.55    3.61
   6   2  -5   13.25    2.30
  -6  -2   5   14.64    2.21
   6   2  -5   13.15    2.15
  -6  -2   5   14.88    2.18
  -6  -2   5   12.29    2.12
   6   2  -5   14.78    2.41
  -6  -2   5   18.96    2.72
   6   2  -5   14.37    2.56
   6   2  -5   16.44    2.53
   6   2  -4   16.77    2.70
  -6  -2   4   12.82    2.07
   6   2  -4   18.66    2.81
  -6  -2   4   14.72    2.27
   6   2  -4   18.92    2.84
  -6  -2   4   18.66    2.92
  -6  -2   4   15.19    2.61
  -6  -2   4   20.72    3.01
   6   2  -4   17.67    2.75
   6   2  -4   16.10    2.28
   6   2  -3   17.59    2.49
   6   2  -3   22.32    3.16
   6   2  -3   20.97    3.14
  -6  -2   3   23.02    2.79
   6   2  -3   20.26    3.00
  -6  -2   3   25.02    3.38
  -6  -2   3   26.61    3.55
  -6  -2   3   28.23    3.34
  -6  -2   3   29.29    3.59
   6   2  -3   22.09    3.20
  -6  -2   2   77.62    5.63
   6   2  -2   71.21    5.39
   6   2  -2   73.36    5.59
  -6  -2   2   67.54    4.67
   6   2  -2   73.78    5.32
  -6  -2   2   79.20    5.85
   6   2  -2   54.69    4.25
  -6  -2   2   80.62    5.58
  -6  -2   2   57.43    4.19
   6   2  -2   64.23    4.68
  -6  -2   1   16.89    2.45
   6   2  -1   14.42    2.44
   6   2  -1   16.64    2.61
   6   2  -1   13.41    2.28
  -6  -2   1   19.71    3.14
   6   2  -1   14.10    2.35
  -6  -2   1   19.76    3.25
  -6  -2   1   23.82    3.14
  -6  -2   1   18.00    2.87
  -6  -2   1   20.32    3.10
   6   2  -1   15.96    2.67
  -6  -2   0    5.74    1.79
   6   2   0    5.77    1.70
  -6  -2   0    6.88    2.03
   6   2   0    6.82    2.06
   6   2   0    6.11    1.78
   6   2   0    4.53    1.61
  -6  -2   0    5.48    1.74
  -6  -2   0    4.97    1.55
   6   2   0    6.46    1.86
  -6  -2  -1   17.65    2.60
   6   2   1   20.74    2.86
  -6  -2  -1   12.91    2.10
   6   2   1   24.58    3.22
   6   2   1   23.98    3.08
  -6  -2  -1   14.88    2.62
  -6  -2  -1   17.92    2.74
   6   2   1   19.09    2.85
  -6  -2  -1   21.18    3.09
   6   2   1   21.28    2.54
  -6  -2  -2    9.18    1.95
  -6  -2  -2    8.60    1.80
  -6  -2  -2    9.43    2.09
  -6  -2  -2    9.50    1.99
   6   2   2    6.34    1.54
  -6  -2  -2    9.19    2.06
   6   2   2    4.03    1.45
   6   2   3   19.73    2.18
  -6  -2  -3   14.23    2.01
  -6  -2  -3   20.74    2.54
  -6  -2  -3   22.23    2.87
   6   2   4   23.85    2.55
  -6  -2  -4   23.04    2.68
  -6  -2  -4   23.66    2.62
  -6  -2  -5    1.61    0.84
   6   2   5    1.12    0.72
  -6  -2  -5    1.32    0.79
   6   2   5    0.51    0.75
  -6  -2  -5    1.29    0.68
   6   2   5    1.16    0.86
   6   2   5    1.01    0.91
  -6  -2  -6    2.83    0.73
   6   2   6    4.21    0.85
   6   2   6    3.30    0.74
   6   2   6    1.92    0.64
  -6  -2  -6    4.99    0.90
  -6  -3   7   12.29    1.43
   6   3  -7   17.48    1.81
   6   3  -7   16.15    1.74
  -6  -3   7   10.05    1.35
   6   3  -6    2.66    1.02
  -6  -3   6    1.35    0.64
   6   3  -6    3.60    1.14
  -6  -3   6    2.51    0.92
  -6  -3   5   18.65    2.23
   6   3  -5   14.91    2.02
  -6  -3   5   18.63    2.33
   6   3  -5   19.23    2.44
  -6  -3   4    0.09    0.67
  -6  -3   4    0.31    0.99
   6   3  -4   -0.10    1.11
  -6  -3   4    0.62    0.97
   6   3  -4   -0.21    1.05
  -6  -3   3   12.00    1.98
  -6  -3   3   11.53    2.16
  -6  -3   3   15.83    2.59
   6   3  -3   13.73    2.49
  -6  -3   3   11.59    2.12
   6   3  -3   15.60    2.46
  -6  -3   2    9.80    2.07
   6   3  -2   12.39    2.16
  -6  -3   2    7.68    1.70
  -6  -3   2   10.80    2.15
   6   3  -2   11.34    1.83
   6   3  -2   11.98    2.41
   6   3  -1   17.60    2.30
  -6  -3   1   18.62    2.73
   6   3  -1   21.56    2.56
  -6  -3   1   21.24    3.06
  -6  -3   1   17.91    2.42
  -6  -3   1   17.43    2.70
  -6  -3   1   18.59    2.66
   6   3  -1   20.42    2.44
  -6  -3   1   14.01    2.15
   6   3   0   25.89    3.16
  -6  -3   0   21.23    2.73
  -6  -3   0   23.02    2.99
   6   3   0   25.29    2.85
  -6  -3   0   23.79    3.09
   6   3   0   27.35    3.04
  -6  -3   0   25.28    3.14
  -6  -3   0   29.71    3.24
  -6  -3   0   23.00    2.73
  -6  -3  -1   17.33    2.36
   6   3   1   20.95    2.65
   6   3   1   17.90    2.35
  -6  -3  -1   21.25    2.74
  -6  -3  -1   14.94    2.31
  -6  -3  -1   18.07    2.44
  -6  -3  -1   19.37    2.69
   6   3   1   19.15    2.53
   6   3   2   10.23    1.92
  -6  -3  -2   12.64    1.80
   6   3   2   10.09    1.66
   6   3   2   11.43    1.94
   6   3   2   11.14    1.76
  -6  -3  -2   12.44    1.91
  -6  -3  -2   11.64    1.91
  -6  -3  -2   14.98    2.20
  -6  -3  -3   22.04    2.39
   6   3   3   19.49    2.20
   6   3   3   16.85    1.80
  -6  -3  -3   18.57    2.13
   6   3   3   17.02    2.18
  -6  -3  -4   20.98    2.07
  -6  -3  -4   16.82    1.75
  -6  -3  -4   18.92    1.83
  -6  -3  -5   25.26    1.76
  -6  -3  -5   28.50    1.86
  -6  -4   6    1.49    0.63
  -6  -4   6    1.82    0.58
  -6  -4   6    1.84    0.63
   6   4  -6    1.35    0.58
  -6  -4   5   14.86    1.66
   6   4  -5   24.32    2.06
   6   4  -5   22.14    2.01
  -6  -4   5   17.09    1.93
   6   4  -4   24.90    2.24
  -6  -4   4   21.06    2.06
   6   4  -4   24.15    2.28
  -6  -4   4   21.25    2.20
  -6  -4   4   25.42    2.28
  -6  -4   3    1.87    0.87
  -6  -4   3    0.78    0.94
  -6  -4   3    1.48    0.82
   6   4  -3    3.18    1.07
   6   4  -3    2.86    1.20
  -6  -4   2   23.94    2.39
  -6  -4   2   24.62    2.56
  -6  -4   2   22.33    2.38
   6   4  -2   19.55    2.22
   6   4  -2   21.60    2.51
  -6  -4   1    4.07    1.25
  -6  -4   1    3.86    1.16
   6   4  -1    3.40    0.97
  -6  -4   1    4.15    1.21
  -6  -4   1    4.77    1.45
  -6  -4   1    5.01    1.28
   6   4  -1    6.47    1.34
  -6  -4   1    4.07    1.05
  -6  -4   0    3.67    1.07
   6   4   0    3.36    1.16
   6   4   0    3.27    1.07
  -6  -4   0    4.36    1.13
   6   4   0    3.00    1.01
  -6  -4   0    4.29    1.22
  -6  -4   0    3.73    1.27
  -6  -4   0    4.42    1.22
  -6  -4   0    4.00    1.16
  -6  -4  -1   13.18    1.78
   6   4   1    8.51    1.42
  -6  -4  -1   11.31    1.53
  -6  -4  -1   10.77    1.64
  -6  -4  -1   13.83    1.83
   6   4   1    9.82    1.52
  -6  -4  -1   10.69    1.55
  -6  -4  -1   13.05    1.81
  -6  -4  -2   30.19    2.43
  -6  -4  -2   35.48    2.64
   6   4   2   37.42    2.63
   6   4   2   32.02    2.26
  -6  -4  -2   39.35    2.69
  -6  -4  -3    7.75    1.06
   6   4   3    6.93    1.08
  -6  -4  -3    8.40    1.16
  -6  -4  -3    6.49    0.99
   6   5  -2    6.04    0.96
   6   5  -2    6.00    1.01
  -6  -5   2    5.38    0.84
   6   5  -1    0.08    0.50
  -7   9   2   22.74    2.07
  -7   9   1   43.51    2.98
  -7   9   0   21.05    2.15
  -7   9   0   21.01    2.19
  -7   9  -1   38.90    2.76
  -7   9  -1   32.00    2.58
  -7   9  -2    7.52    1.23
  -7   9  -2    8.15    1.20
  -7   9  -3    6.13    0.98
  -7   8   5   46.26    2.62
  -7   8   5   52.72    3.02
  -7   8   4    8.89    1.32
  -7   8   3   12.86    1.87
  -7   8   3   14.43    1.95
  -7   8   2   13.95    2.08
  -7   8   2   17.72    2.36
  -7   8   2   17.52    2.34
  -7   8   2   16.12    2.07
  -7   8   1   55.35    4.01
  -7   8   1   47.74    3.32
  -7   8   1   56.35    4.07
  -7   8   0   54.23    4.13
  -7   8   0   59.26    4.12
  -7   8   0   61.27    4.23
  -7   8  -1   30.39    3.03
  -7   8  -1   30.91    2.95
  -7   8  -1   29.98    2.92
  -7   8  -2   40.10    3.19
  -7   8  -2   41.35    3.22
  -7   8  -2   35.10    2.93
  -7   8  -3   25.91    2.22
  -7   8  -3   25.59    2.37
  -7   8  -3   24.28    2.13
  -7   8  -4   47.78    2.69
  -7   8  -4   42.70    2.64
   7  -8   4   49.58    2.71
  -7   7   6  122.86    4.77
  -7   7   6  120.73    4.90
  -7   7   6  132.43    5.14
  -7   7   5   95.38    4.64
  -7   7   5   98.75    5.06
  -7   7   4   12.35    1.84
  -7   7   4   13.26    1.88
  -7   7   3   24.34    3.02
  -7   7   3   20.14    2.31
  -7   7   3   23.52    2.86
  -7   7   3   22.32    2.47
  -7   7   3   23.73    2.86
  -7   7   2   14.95    2.25
  -7   7   2   15.04    2.42
  -7   7   1    3.24    1.24
  -7   7   1    2.91    1.29
  -7   7   0  130.10    6.67
  -7   7   0  149.26    7.57
  -7   7  -1   51.09    4.03
  -7   7  -1   51.50    4.10
  -7   7  -1   54.01    4.48
  -7   7  -1   41.97    3.38
  -7   7  -2   64.80    4.76
  -7   7  -2   66.98    4.35
  -7   7  -2   81.42    4.92
  -7   7  -2   68.35    4.51
   7  -7   2   67.88    3.93
  -7   7  -3   15.26    2.27
  -7   7  -3   15.40    2.15
   7  -7   3   14.70    1.90
  -7   7  -3   13.98    1.98
  -7   7  -3   16.80    2.27
  -7   7  -3   13.13    1.93
  -7   7  -4   20.95    2.35
  -7   7  -4   19.61    2.29
  -7   7  -4   15.42    1.80
  -7   7  -4   16.31    2.07
   7  -7   5    2.04    0.86
  -7   7  -5    0.63    0.66
  -7   7  -5    0.43    0.40
  -7   7  -6    3.20    0.72
  -7   6   7   52.92    3.15
  -7   6   7   56.04    3.16
  -7   6   6   58.15    3.90
  -7   6   6   50.07    3.48
  -7   6   5   80.14    5.00
  -7   6   5   93.67    5.49
  -7   6   5   88.00    4.88
  -7   6   4   49.02    3.75
  -7   6   4   48.23    4.04
  -7   6   4   58.09    4.63
  -7   6   3   79.12    5.47
  -7   6   3   70.17    4.44
  -7   6   3   75.31    5.09
  -7   6   3   76.62    5.06
  -7   6   3   92.20    5.71
  -7   6   3   97.50    6.21
  -7   6   2   11.64    2.22
  -7   6   2    9.03    1.84
  -7   6   2   12.49    2.12
  -7   6   2   14.78    2.45
  -7   6   2   15.18    2.79
  -7   6   1   86.87    5.42
  -7   6   1  114.88    7.01
  -7   6   1  106.11    6.16
  -7   6   1   77.77    5.03
  -7   6   0   50.63    3.91
  -7   6   0   48.64    3.79
  -7   6   0   69.15    5.53
  -7   6   0   60.24    4.59
  -7   6   0   65.33    5.03
  -7   6   0   44.31    3.72
  -7   6  -1    6.04    1.61
  -7   6  -1    6.08    1.63
  -7   6  -1    5.23    1.75
  -7   6  -2   30.54    3.28
  -7   6  -2   31.10    3.16
  -7   6  -3   43.27    4.13
  -7   6  -3   34.52    3.08
  -7   6  -3   44.33    3.83
   7  -6   3   43.87    3.53
  -7   6  -3   36.17    3.27
  -7   6  -4   15.55    2.42
  -7   6  -4   11.61    1.62
   7  -6   4   17.15    2.33
   7  -6   4   14.45    1.89
  -7   6  -4   15.45    2.11
  -7   6  -5    6.17    1.42
  -7   6  -5    4.42    1.23
   7  -6   5    6.17    1.48
  -7   6  -5    4.84    1.28
  -7   6  -5    4.84    1.23
   7  -6   5    7.63    1.50
  -7   6  -6    1.20    0.61
   7  -6   6    1.06    0.76
  -7   6  -6    0.81    0.56
  -7   6  -6    0.64    0.63
   7  -5  -8   17.96    1.69
  -7   5   8   16.99    1.68
   7  -5  -7   39.94    2.67
  -7   5   7   50.10    3.55
  -7   5   7   50.75    3.42
  -7   5   7   49.47    3.37
   7  -5  -6   38.84    2.92
  -7   5   6   47.12    3.92
  -7   5   6   48.90    3.67
  -7   5   5    4.85    1.64
  -7   5   5    5.68    1.50
  -7   5   4   13.17    2.10
  -7   5   4   12.77    2.40
  -7   5   4   13.94    2.50
  -7   5   4   15.83    2.59
  -7   5   3   17.99    2.34
  -7   5   3   21.46    3.14
  -7   5   3   19.60    2.93
  -7   5   3   20.81    2.97
  -7   5   2   58.06    5.02
  -7   5   2   48.35    4.45
  -7   5   2   42.61    4.02
  -7   5   2   55.35    4.41
  -7   5   1  183.18    9.12
  -7   5   1  176.94    7.87
  -7   5   1  162.05    8.17
  -7   5   1  149.12    7.04
  -7   5   0    2.02    1.06
  -7   5   0    2.38    1.58
   7  -5   0    5.36    1.41
  -7   5   0    1.33    0.95
  -7   5  -1   23.36    3.23
  -7   5  -1   17.14    2.40
  -7   5  -1   20.75    3.27
  -7   5  -2   15.44    2.26
  -7   5  -2   21.91    3.19
   7  -5   2   10.38    1.84
  -7   5  -2   18.84    3.13
  -7   5  -3    4.71    1.42
  -7   5  -3    3.77    1.55
  -7   5  -3    5.21    1.64
   7  -5   3    8.96    1.93
   7  -5   4   18.18    2.13
  -7   5  -4   20.43    2.60
   7  -5   4   19.31    2.49
  -7   5  -4   22.82    2.91
  -7   5  -4   23.25    2.86
   7  -5   5   18.48    2.45
  -7   5  -5   18.78    2.33
   7  -5   5   15.76    2.00
  -7   5  -5   19.29    2.57
  -7   5  -5   15.78    2.19
   7  -5   5   17.08    1.97
  -7   5  -5   19.90    2.46
   7  -5   5   16.48    2.27
  -7   5  -6    8.47    1.44
  -7   5  -6    9.54    1.50
  -7   5  -6    9.44    1.57
   7  -5   6   10.60    1.38
  -7   5  -6    6.71    1.20
  -7   5  -6    9.22    1.43
   7  -5   6    9.88    1.58
   7  -4  -8    1.42    0.79
   7  -4  -8    1.21    0.68
  -7   4   8    1.29    0.66
  -7   4   8    3.14    0.95
  -7   4   8    2.91    0.93
   7  -4  -7   23.90    2.44
  -7   4   7   30.06    2.81
  -7   4   7   32.92    3.11
  -7   4   6   72.87    4.62
  -7   4   6   80.96    5.31
   7  -4  -5    6.21    1.49
  -7   4   5    8.31    1.70
   7  -4  -4   87.00    4.98
  -7   4   4   87.12    5.15
  -7   4   4  105.58    6.75
  -7   4   4   97.06    6.00
  -7   4   3   16.47    2.86
  -7   4   3   15.91    2.80
  -7   4   3   16.80    2.75
   7  -4  -3   17.02    2.42
  -7   4   2    7.31    1.74
  -7   4   2    7.30    2.10
  -7   4   2    6.28    1.91
  -7   4   2    7.04    1.96
   7  -4  -2    6.42    1.72
  -7   4   1   84.37    5.55
   7  -4  -1   92.32    5.44
  -7   4   1   96.44    6.55
  -7   4   0   62.51    5.17
   7  -4   0   61.18    4.49
   7  -4   0   58.35    4.44
  -7   4   0   61.25    5.36
  -7   4   0   52.43    4.23
  -7   4  -1   12.74    2.53
  -7   4  -1   14.89    2.85
   7  -4   1   12.24    2.03
  -7   4  -1   11.01    2.15
  -7   4  -1    9.26    1.69
  -7   4  -2   86.91    6.34
  -7   4  -2   94.30    6.15
   7  -4   2   89.13    5.41
   7  -4   2   78.08    4.60
   7  -4   3  149.77    6.58
   7  -4   3  169.07    7.86
  -7   4  -3  170.27    8.77
  -7   4  -3  133.92    6.74
   7  -4   3  131.00    6.26
  -7   4  -3  191.28    8.43
  -7   4  -4    6.40    1.63
   7  -4   4    6.91    1.72
  -7   4  -4    6.66    1.99
   7  -4   4    4.32    1.37
  -7   4  -4    8.92    1.92
   7  -4   4    5.87    1.89
  -7   4  -5   31.59    3.07
   7  -4   5   26.37    2.80
  -7   4  -5   23.33    2.66
   7  -4   5   29.71    2.92
  -7   4  -5   26.65    3.16
   7  -4   5   28.99    2.72
   7  -4   5   31.00    3.10
   7  -4   5   31.09    3.18
  -7   4  -5   29.23    2.91
  -7   4  -6    3.45    0.98
  -7   4  -6    2.54    0.98
   7  -4   6    2.17    0.95
  -7   4  -6    3.89    1.06
  -7   4  -6    2.30    0.85
   7  -4   6    2.42    0.94
   7  -4   6    2.46    1.07
   7  -4   7   17.77    1.61
   7  -4   7   18.38    1.50
   7  -4   7   18.62    1.55
  -7   4  -7   14.82    1.56
  -7   3   8    2.00    0.84
   7  -3  -8    1.23    0.77
   7  -3  -8    1.43    0.85
  -7   3   8    0.98    0.71
  -7   3   8    2.40    0.89
   7  -3  -7    5.20    1.45
   7  -3  -7    3.83    1.21
  -7   3   7    3.18    1.23
   7  -3  -6    8.78    1.89
   7  -3  -6    7.80    1.74
  -7   3   5   46.42    4.33
   7  -3  -5   41.72    3.94
  -7   3   5   44.40    4.29
   7  -3  -5   39.97    3.59
   7  -3  -5   42.14    3.79
  -7   3   4  100.71    5.77
   7  -3  -4  102.09    6.03
   7  -3  -4   93.41    5.57
  -7   3   3   99.77    6.67
  -7   3   3   92.12    5.80
  -7   3   3  101.95    6.55
   7  -3  -3   84.41    5.38
  -7   3   3   99.78    6.51
  -7   3   3   85.38    5.31
   7  -3  -3   84.68    5.11
  -7   3   2   43.84    4.22
  -7   3   2   44.03    4.31
   7  -3  -2   46.47    3.85
   7  -3  -2   49.09    4.22
  -7   3   2   40.51    3.63
  -7   3   1    1.60    1.05
  -7   3   1    1.87    1.22
  -7   3   1    0.86    1.07
   7  -3  -1    1.06    1.07
  -7   3   1    2.85    1.63
   7  -3  -1    1.28    1.05
  -7   3   1    1.08    0.82
   7  -3   0   58.80    4.62
   7  -3   0   57.87    4.24
  -7   3   0   55.24    4.47
  -7   3   0   55.42    5.03
  -7   3   0   64.17    5.32
   7  -3   0   53.14    4.25
  -7   3   0   52.98    4.42
  -7   3   0   68.46    5.31
  -7   3  -1    1.37    1.27
  -7   3  -1    1.30    1.11
   7  -3   1    0.13    1.04
  -7   3  -1    0.61    1.23
   7  -3   1    0.29    0.78
  -7   3  -1    0.56    1.31
   7  -3   1    0.34    0.92
   7  -3   1    0.61    1.12
  -7   3  -1    1.33    1.01
  -7   3  -2    5.02    1.65
   7  -3   2    2.79    1.36
  -7   3  -2    4.74    1.82
   7  -3   2    2.05    1.15
   7  -3   2    2.25    1.17
   7  -3   2    3.58    1.67
  -7   3  -2    4.75    1.54
  -7   3  -2    7.00    1.90
  -7   3  -3    3.31    1.36
   7  -3   3    4.04    1.57
  -7   3  -3    3.82    1.63
   7  -3   3    3.96    1.33
  -7   3  -3    3.45    1.52
   7  -3   3    3.81    1.41
   7  -3   3    3.21    1.23
   7  -3   3    2.02    1.48
  -7   3  -3    4.48    1.38
   7  -3   4   58.63    4.46
   7  -3   4   57.80    4.17
  -7   3  -4   56.44    4.15
   7  -3   4   66.47    4.82
   7  -3   5    6.71    1.63
   7  -3   5    5.63    1.59
   7  -3   5    7.53    1.64
   7  -3   5    6.47    1.46
  -7   3  -5    4.14    1.21
  -7   3  -6   67.21    3.59
  -7   3  -6   83.27    4.57
  -7   3  -6   63.74    3.02
  -7   3  -6   82.88    4.25
  -7   3  -6   86.96    4.00
   7  -3   6   87.56    4.19
   7  -3   7   18.02    1.55
  -7   3  -7   16.47    1.61
  -7   2   8   12.67    1.61
   7  -2  -8   12.37    1.67
   7  -2  -8   12.10    1.66
   7  -2  -8   10.90    1.53
   7  -2  -8   12.76    1.71
   7  -2  -7   21.44    2.54
   7  -2  -7   25.85    2.70
  -7   2   7   26.08    2.79
   7  -2  -6    1.33    1.22
  -7   2   6    0.92    1.08
  -7   2   6    0.59    1.04
  -7   2   6    1.04    1.04
   7  -2  -6    0.76    1.10
  -7   2   6    0.34    0.86
   7  -2  -6    0.64    0.99
   7  -2  -6    1.38    1.09
   7  -2  -5   10.32    2.23
  -7   2   5    7.29    1.92
  -7   2   5    6.96    1.97
   7  -2  -5    8.53    1.97
   7  -2  -5   10.86    2.13
   7  -2  -5    9.10    2.03
  -7   2   5    7.54    1.85
   7  -2  -4   98.31    6.20
  -7   2   4  117.40    6.99
  -7   2   4  122.34    6.94
   7  -2  -4   94.87    5.95
  -7   2   4  111.83    6.38
   7  -2  -4   91.98    5.68
  -7   2   4  104.35    6.18
   7  -2  -4   88.90    4.94
   7  -2  -3   83.83    5.66
  -7   2   3   84.23    6.09
  -7   2   3   81.95    5.93
  -7   2   3   76.20    5.30
  -7   2   3   89.91    6.10
   7  -2  -3   72.24    4.95
   7  -2  -3   78.59    5.65
   7  -2  -3   76.94    5.24
   7  -2  -2  116.85    6.79
   7  -2  -2  103.61    5.84
  -7   2   2   87.07    5.41
  -7   2   2  108.90    6.59
  -7   2   2   95.17    5.82
  -7   2   2   80.39    4.86
   7  -2  -2   95.78    5.45
  -7   2   2   89.69    5.59
   7  -2  -2  112.48    6.46
   7  -2  -1  153.73    7.57
  -7   2   1  180.75    8.50
  -7   2   1  154.04    7.31
  -7   2   1  181.10    9.00
  -7   2   1  134.20    7.10
  -7   2   1  155.71    7.57
  -7   2   1  153.36    7.30
  -7   2   1  148.68    7.20
   7  -2  -1  148.72    7.26
   7  -2   0   39.57    3.73
   7  -2   0   36.13    3.53
  -7   2   0   32.31    3.30
  -7   2   0   40.07    4.04
  -7   2   0   38.73    4.23
   7  -2   0   39.26    3.50
  -7   2   0   29.40    3.53
  -7   2   0   33.93    3.33
   7  -2   0   36.42    3.44
   7  -2   0   45.72    4.16
  -7   2   0   35.89    3.73
   7  -2   0   42.73    4.24
  -7   2   0   31.23    3.31
   7  -2   1   23.59    3.10
  -7   2  -1   23.52    2.69
  -7   2  -1   28.40    3.41
  -7   2  -1   27.85    3.53
   7  -2   1   23.48    2.82
  -7   2  -1   21.21    3.11
   7  -2   1   27.18    3.19
  -7   2  -1   26.91    3.34
   7  -2   1   23.38    3.20
  -7   2  -1   21.61    2.71
  -7   2  -2   25.86    3.07
   7  -2   2   25.66    3.26
  -7   2  -2   26.37    3.29
  -7   2  -2   26.96    3.28
  -7   2  -2   22.73    3.19
  -7   2  -2   30.01    3.52
   7  -2   2   28.87    3.37
  -7   2  -2   17.58    2.36
   7  -2   2   24.45    2.93
   7  -2   2   28.13    3.13
   7  -2   3   17.55    2.44
   7  -2   3   20.22    2.67
   7  -2   3   18.92    2.84
  -7   2  -3   23.19    2.93
   7  -2   3   19.81    2.68
  -7   2  -3   21.34    2.62
   7  -2   4    2.16    1.29
  -7   2  -4    1.00    0.76
   7  -2   4    3.30    1.31
   7  -2   4    3.32    1.46
  -7   2  -4    0.44    1.01
   7  -2   4    2.85    1.45
  -7   2  -4    1.24    0.94
   7  -2   5    3.14    1.24
   7  -2   5    2.81    1.15
   7  -2   5    2.44    1.22
   7  -2   5    3.60    1.33
  -7   2  -5    1.23    0.82
  -7   2  -6   15.96    1.92
   7  -2   6   13.81    1.69
   7  -2   6   16.31    1.83
  -7   2  -6   16.89    1.62
  -7   2  -6   15.37    1.62
   7  -1  -8    7.18    1.21
   7  -1  -8    6.10    1.20
   7  -1  -8    5.27    1.02
  -7   1   7   30.21    2.79
  -7   1   7   29.43    2.77
   7  -1  -7   25.49    2.64
  -7   1   7   30.48    2.87
   7  -1  -7   22.66    2.45
   7  -1  -7   26.39    2.69
   7  -1  -7   27.98    2.76
  -7   1   6   27.12    3.08
   7  -1  -6   24.46    2.82
   7  -1  -6   23.47    2.74
   7  -1  -6   20.61    2.09
  -7   1   6   25.38    2.91
   7  -1  -6   23.77    2.86
   7  -1  -6   24.57    2.91
  -7   1   5    9.65    2.03
   7  -1  -5    4.42    1.55
  -7   1   5    7.78    1.82
  -7   1   5    7.31    1.96
  -7   1   5    8.95    1.82
   7  -1  -5    4.91    1.56
   7  -1  -5    5.58    1.71
  -7   1   5    6.77    1.75
   7  -1  -5    5.05    1.38
   7  -1  -5    4.89    1.71
   7  -1  -4   16.80    2.59
  -7   1   4   18.29    2.70
   7  -1  -4   13.42    2.53
   7  -1  -4   13.57    2.47
  -7   1   4   19.13    2.84
   7  -1  -4   12.02    2.41
  -7   1   4   14.32    2.51
  -7   1   4   12.21    1.92
  -7   1   4   17.36    2.69
   7  -1  -4   15.04    2.66
   7  -1  -3    6.22    1.81
   7  -1  -3    6.54    1.96
  -7   1   3    2.66    1.43
  -7   1   3    4.09    1.63
   7  -1  -3    7.90    1.85
  -7   1   3    3.35    1.42
  -7   1   3    2.05    1.48
   7  -1  -3    6.03    1.80
  -7   1   3    4.11    1.52
   7  -1  -2   74.56    5.27
   7  -1  -2   68.09    5.14
   7  -1  -2   61.74    4.60
  -7   1   2   62.44    4.87
  -7   1   2   60.11    4.84
  -7   1   2   52.62    4.05
   7  -1  -2   64.07    4.61
  -7   1   2   58.91    4.74
  -7   1   2   57.17    4.07
   7  -1  -1    3.96    1.67
   7  -1  -1    5.71    1.70
   7  -1  -1    5.68    1.75
  -7   1   1    1.74    1.15
  -7   1   1    2.12    1.37
  -7   1   1    4.67    1.90
   7  -1  -1    5.95    1.55
  -7   1   1    2.37    1.30
   7  -1  -1    2.47    1.12
  -7   1   1    2.33    1.26
  -7   1   1    1.37    1.05
   7  -1   0   66.24    4.94
   7  -1   0   58.09    4.50
  -7   1   0   50.15    4.43
  -7   1   0   48.89    4.26
  -7   1   0   43.85    3.66
   7  -1   0   58.58    4.33
  -7   1   0   59.59    5.02
  -7   1   0   49.05    3.84
  -7   1   0   53.99    4.39
  -7   1   0   57.25    4.86
   7  -1   1   87.48    5.58
   7  -1   1   82.44    5.40
  -7   1  -1   75.71    5.00
  -7   1  -1   89.45    6.00
  -7   1  -1   87.81    5.87
   7  -1   1   90.03    5.42
   7  -1   1   85.79    5.55
  -7   1  -1   60.58    4.56
  -7   1  -1   89.37    5.83
   7  -1   1   99.79    6.15
  -7   1  -1   78.37    5.33
  -7   1  -1   74.66    4.63
   7  -1   2   36.47    3.53
   7  -1   2   35.20    3.61
  -7   1  -2   31.49    3.09
  -7   1  -2   38.00    3.90
  -7   1  -2   32.73    3.43
   7  -1   2   39.92    3.62
   7  -1   2   41.08    3.86
  -7   1  -2   27.13    3.13
  -7   1  -2   34.83    3.66
   7  -1   2   37.47    3.76
  -7   1  -2   28.87    2.82
   7  -1   3   73.34    4.91
  -7   1  -3   51.68    4.19
   7  -1   3   73.72    4.79
  -7   1  -3   57.87    3.95
   7  -1   3   66.73    4.74
  -7   1  -3   76.48    5.19
  -7   1  -3   67.91    4.81
   7  -1   4   18.49    2.45
  -7   1  -4   11.56    1.93
   7  -1   4   18.11    2.34
   7  -1   4   17.94    2.24
   7  -1   4   15.18    2.36
  -7   1  -4   13.03    2.11
  -7   1  -4   14.55    2.24
   7  -1   5    3.68    1.12
  -7   1  -5    3.54    1.09
  -7   1  -5    4.08    1.09
  -7   1  -5    3.83    1.12
   7  -1   6    6.23    1.11
  -7   1  -6    5.76    1.02
  -7   1  -6    5.26    0.94
  -7   0   8   12.58    1.45
   7   0  -8   17.44    1.66
   7   0  -8   17.50    1.65
  -7   0   7   10.53    1.65
   7   0  -7   12.16    1.65
  -7   0   7    9.37    1.52
  -7   0   7   10.66    1.56
   7   0  -7   11.73    1.67
   7   0  -7   12.53    1.80
   7   0  -7   10.47    1.24
   7   0  -6   22.54    2.54
   7   0  -6   23.70    2.33
  -7   0   6   31.63    3.06
   7   0  -6   23.19    2.33
   7   0  -6   26.60    2.82
  -7   0   6   26.76    2.78
   7   0  -6   19.94    2.45
   7   0  -6   23.32    2.65
   7   0  -5    0.84    0.98
  -7   0   5    0.61    0.77
   7   0  -5    2.34    1.33
  -7   0   5    0.64    0.76
   7   0  -5    1.09    0.99
  -7   0   5    0.34    1.11
  -7   0   5    0.97    0.91
  -7   0   5    0.53    0.71
   7   0  -5    2.07    1.08
   7   0  -5    1.36    1.25
   7   0  -5    0.36    0.86
  -7   0   4   76.16    4.85
   7   0  -4   73.56    5.12
   7   0  -4   66.22    4.77
  -7   0   4   71.02    4.73
   7   0  -4   57.59    4.41
   7   0  -4   70.53    5.00
   7   0  -4   68.55    4.63
  -7   0   4   75.58    5.10
   7   0  -4   73.25    4.92
   7   0  -4   63.45    4.26
  -7   0   4   74.65    5.15
   7   0  -4   74.22    5.12
   7   0  -4   76.45    4.85
   7   0  -3    4.01    1.62
  -7   0   3    1.19    1.00
  -7   0   3    1.40    1.21
   7   0  -3    2.48    1.31
  -7   0   3    2.17    1.27
   7   0  -3    3.45    1.37
  -7   0   3    1.80    1.30
   7   0  -3    4.41    1.54
   7   0  -3    3.15    1.50
  -7   0   3    1.63    1.28
   7   0  -3    6.04    1.95
   7   0  -2   54.81    4.51
   7   0  -2   53.74    4.36
   7   0  -2   53.17    4.50
  -7   0   2   60.64    4.73
  -7   0   2   54.20    4.50
   7   0  -2   48.99    4.09
   7   0  -2   52.79    4.32
  -7   0   2   54.25    4.56
  -7   0   2   50.12    3.97
  -7   0   1    3.99    1.38
   7   0  -1    5.38    1.73
   7   0  -1    5.74    1.45
  -7   0   1    3.60    1.35
   7   0  -1    6.69    1.64
  -7   0   1    4.53    1.76
  -7   0   1    4.45    1.49
   7   0  -1    5.69    1.67
  -7   0   1    4.86    1.61
  -7   0   0   33.58    3.50
  -7   0   0   34.11    3.78
   7   0   0   25.13    2.82
   7   0   0   28.56    3.11
   7   0   0   28.63    3.27
  -7   0   0   30.81    3.15
   7   0   0   26.75    3.22
  -7   0   0   33.27    3.61
  -7   0  -1   28.13    3.15
  -7   0  -1   26.41    3.18
   7   0   1   27.17    2.96
   7   0   1   29.51    3.13
   7   0   1   32.07    3.40
  -7   0  -1   30.68    3.06
  -7   0  -1   29.64    3.33
   7   0   2    9.25    1.83
   7   0   2    7.10    1.63
   7   0   2    7.13    1.74
  -7   0  -2    4.66    1.36
  -7   0  -2    5.85    1.54
   7   0   2    8.50    1.88
  -7   0  -2    4.30    1.27
  -7   0  -3   32.40    3.16
   7   0   3   27.49    2.86
   7   0   3   26.41    2.74
  -7   0  -3   22.64    2.24
  -7   0  -3   26.60    2.62
  -7   0  -3   27.67    2.65
  -7   0  -4   10.98    1.53
   7   0   4   13.86    1.93
  -7   0  -4   12.00    1.85
   7   0   5    7.41    1.28
  -7   0  -5    7.92    1.26
   7   1  -7    6.12    0.92
  -7  -1   7    4.44    0.89
  -7  -1   7    4.35    0.96
  -7  -1   6   10.73    1.74
   7   1  -6   13.16    1.68
  -7  -1   6    8.68    1.39
   7   1  -6   13.63    1.90
  -7  -1   6    9.34    1.43
   7   1  -6   14.10    1.80
  -7  -1   5  121.31    5.35
   7   1  -5  156.09    6.47
   7   1  -5  127.76    5.30
  -7  -1   5  158.70    6.83
  -7  -1   5  166.89    6.83
   7   1  -5  153.34    6.48
   7   1  -5  169.15    6.43
  -7  -1   5  152.04    6.16
   7   1  -5  157.39    6.53
   7   1  -4    8.49    1.58
  -7  -1   4   12.32    2.08
  -7  -1   4   12.08    2.12
   7   1  -4    9.41    1.99
   7   1  -4    9.78    1.84
   7   1  -4   10.37    1.91
   7   1  -4    8.50    1.80
  -7  -1   3   10.05    1.70
   7   1  -3    8.31    2.02
   7   1  -3    8.11    1.68
   7   1  -3    9.68    1.99
   7   1  -3    9.30    1.85
  -7  -1   3   12.89    2.28
   7   1  -2   13.82    2.20
  -7  -1   2   14.36    2.12
   7   1  -2   14.84    2.50
  -7  -1   2   16.72    2.35
   7   1  -2   18.55    2.67
  -7  -1   2   19.45    2.72
   7   1  -2   13.17    2.04
  -7  -1   1   10.80    2.12
   7   1  -1    8.92    1.80
  -7  -1   1   10.31    1.96
  -7  -1   1    9.74    1.85
  -7  -1   1   13.17    2.40
   7   1  -1    9.05    1.87
   7   1  -1    9.25    1.78
  -7  -1   1   12.21    2.20
   7   1  -1    7.66    1.83
  -7  -1   0   41.50    3.50
   7   1   0   42.28    3.52
   7   1   0   41.21    3.76
  -7  -1   0   44.21    3.93
   7   1   0   31.00    2.89
  -7  -1   0   39.70    3.71
  -7  -1   0   39.22    3.72
  -7  -1   0   45.65    3.87
   7   1   0   36.33    3.28
  -7  -1  -1   40.83    3.69
  -7  -1  -1   45.68    3.71
  -7  -1  -1   41.99    3.62
   7   1   1   33.57    2.66
   7   1   1   45.44    3.57
  -7  -1  -1   43.77    3.48
   7   1   1   38.37    3.24
  -7  -1  -1   42.52    3.75
   7   1   1   45.14    3.66
   7   1   2    7.11    1.43
  -7  -1  -2    4.35    1.22
  -7  -1  -2    4.74    1.26
  -7  -1  -2    3.54    1.21
  -7  -1  -2    5.34    1.49
   7   1   2    8.59    1.65
  -7  -1  -2    4.73    1.41
   7   1   2    6.18    1.48
  -7  -1  -2    5.81    1.48
  -7  -1  -3    7.73    1.36
  -7  -1  -3    7.64    1.38
  -7  -1  -3    6.08    1.41
   7   1   3    7.40    1.47
  -7  -1  -3    6.15    1.39
   7   1   3    7.10    1.41
  -7  -1  -4   13.44    1.71
  -7  -1  -4   15.55    1.71
   7   1   4   15.84    1.74
  -7  -1  -4   12.97    1.56
  -7  -1  -4   13.40    1.48
  -7  -2   6    5.51    0.96
  -7  -2   6    5.21    1.00
   7   2  -6    4.99    0.93
  -7  -2   5    0.92    0.77
   7   2  -5    3.36    0.98
  -7  -2   5    2.58    0.88
   7   2  -5    2.27    0.75
  -7  -2   4   35.81    2.88
  -7  -2   4   43.56    3.25
   7   2  -4   47.94    3.37
   7   2  -4   50.36    3.32
  -7  -2   4   44.50    3.35
   7   2  -4   43.41    3.06
  -7  -2   3   33.54    3.06
  -7  -2   3   33.86    3.04
   7   2  -3   36.99    3.08
   7   2  -3   35.65    2.99
  -7  -2   3   29.90    2.85
   7   2  -3   30.52    2.92
   7   2  -2    7.08    1.36
   7   2  -2    9.06    1.86
  -7  -2   2    7.48    1.60
  -7  -2   2    6.71    1.54
   7   2  -2    7.59    1.59
   7   2  -1   65.68    3.89
  -7  -2   1   66.75    4.45
   7   2  -1   68.63    3.88
  -7  -2   1   70.67    4.49
  -7  -2   1   68.48    4.12
  -7  -2   0    8.59    1.57
   7   2   0    7.59    1.36
   7   2   0    6.49    1.58
   7   2   0    5.39    1.13
  -7  -2   0    9.57    1.75
   7   2   1   10.50    1.37
   7   2   1   15.18    1.92
  -7  -2  -1   11.50    1.76
   7   2   1   10.50    1.52
  -7  -2  -1   10.30    1.64
  -7  -2  -1   10.95    1.66
   7   2   1   12.11    1.73
   7   2   2   10.14    1.46
  -7  -2  -2   11.38    1.59
  -7  -2  -2   13.65    1.73
   7   2   2   11.83    1.61
  -7  -2  -2   11.66    1.54
  -7  -2  -2   12.39    1.68
  -7  -2  -3    2.81    0.74
  -7  -2  -3    2.70    0.76
   7   2   3    3.01    0.82
  -7  -2  -3    3.19    0.82
  -7  -2  -3    2.57    0.72
  -7  -2  -3    2.42    0.71
  -7  -3   4    4.43    0.88
  -7  -3   4    2.79    0.73
  -7  -3   3    5.82    1.11
  -7  -3   3    7.62    1.20
  -7  -3   3    5.71    1.02
   7   3  -3    8.24    1.25
   7   3  -2   32.81    2.46
  -7  -3   2   29.88    2.33
   7   3  -2   35.79    2.44
  -7  -3   1   13.80    1.71
  -7  -3   1   18.86    1.87
   7   3  -1   13.53    1.55
  -7  -3   1   15.33    1.73
   7   3  -1   13.70    1.51
  -7  -3   0   17.67    1.78
  -7  -3   0   19.01    1.84
  -7  -3   0   19.40    1.81
  -7  -3  -1    0.61    0.46
  -7  -3  -1    0.41    0.45
  -8   8   2   20.81    1.80
  -8   8   1    3.63    0.96
  -8   8   0    4.39    0.94
  -8   8   0    5.12    1.05
  -8   8  -1    4.77    0.91
  -8   7   4   14.86    1.58
  -8   7   3   26.85    2.17
  -8   7   3   23.00    2.10
  -8   7   2    0.81    0.81
  -8   7   2    0.84    0.71
  -8   7   1    5.92    1.40
  -8   7   0   39.83    2.58
  -8   7  -1    5.67    0.93
   8  -7   1    7.67    1.17
  -8   7  -1    7.69    1.38
  -8   7  -2   21.45    1.91
  -8   7  -2   25.56    2.31
  -8   7  -3    1.60    0.62
  -8   6   6    2.46    0.64
  -8   6   5   10.28    1.35
  -8   6   4   13.64    1.67
  -8   6   4   16.92    2.00
  -8   6   3   36.34    2.95
  -8   6   3   41.71    3.29
  -8   6   2    0.57    0.69
  -8   6   2    0.38    0.75
  -8   6   1   57.67    4.14
   8  -6   0    1.61    0.80
  -8   6   0    2.93    1.18
  -8   6  -1   32.36    3.11
  -8   6  -2   24.66    2.61
   8  -6   2   23.96    2.13
   8  -6   2   26.70    2.40
  -8   6  -2   22.06    2.15
   8  -6   3   14.48    1.68
   8  -6   3   14.64    1.74
   8  -6   3   13.47    1.53
   8  -6   4    6.61    1.07
  -8   6  -4    9.41    1.22
  -8   6  -4    8.14    1.22
  -8   5   6   27.84    2.16
   8  -5  -6   24.91    2.02
  -8   5   6   26.69    2.12
   8  -5  -5    0.32    0.68
  -8   5   5    1.05    0.75
   8  -5  -5    0.43    0.63
  -8   5   4    2.60    1.02
   8  -5  -4    3.43    0.91
   8  -5  -4    4.35    1.14
  -8   5   4    2.18    1.03
  -8   5   3    2.17    1.02
  -8   5   3    1.68    0.91
  -8   5   3    1.99    1.08
   8  -5  -3    0.84    0.83
  -8   5   3    1.92    0.97
  -8   5   2   12.57    2.05
  -8   5   2   12.49    1.88
   8  -5  -2   17.31    2.03
  -8   5   2   15.22    2.22
   8  -5  -1    6.40    1.31
  -8   5   1   10.46    1.98
  -8   5   1   11.94    1.98
  -8   5   0   41.17    3.69
  -8   5   0   33.70    3.10
   8  -5   0   33.29    2.99
   8  -5   1   39.37    2.81
  -8   5  -1   46.04    3.80
  -8   5  -1   34.17    2.96
  -8   5  -1   39.98    3.16
   8  -5   1   38.72    3.00
  -8   5  -2    8.64    1.73
  -8   5  -2    6.87    1.42
   8  -5   2   10.15    1.72
   8  -5   2    7.30    1.43
  -8   5  -3   11.01    1.77
   8  -5   3    9.21    1.56
  -8   5  -3   14.50    1.84
   8  -5   3   12.26    1.71
  -8   5  -4    8.83    1.43
   8  -5   4    9.59    1.42
   8  -5   4    8.69    1.34
   8  -5   4    8.66    1.23
   8  -5   4    9.26    1.35
   8  -4  -6   27.20    2.28
  -8   4   6   24.13    2.23
   8  -4  -6   25.88    2.16
   8  -4  -5   79.43    4.30
  -8   4   5   81.11    4.41
   8  -4  -5   81.21    4.11
   8  -4  -4   13.53    2.00
   8  -4  -4   13.13    1.79
  -8   4   4   10.95    1.89
   8  -4  -4   12.18    1.76
  -8   4   3   11.25    1.76
  -8   4   3   11.78    2.04
  -8   4   3   11.80    1.96
   8  -4  -3   12.49    1.75
   8  -4  -3   11.16    1.88
  -8   4   2    4.26    1.29
   8  -4  -2    3.87    1.17
  -8   4   2    3.56    1.14
  -8   4   2    4.11    1.47
   8  -4  -2    3.97    1.31
   8  -4  -1    3.24    1.34
  -8   4   1    3.11    1.28
  -8   4   1    3.38    1.22
   8  -4  -1    3.86    1.25
   8  -4   0   27.52    2.91
  -8   4   0   28.43    3.12
   8  -4   0   29.39    2.67
  -8   4   0   34.40    3.36
   8  -4   1   45.55    3.50
   8  -4   1   41.07    3.05
   8  -4   1   41.24    2.91
  -8   4  -1   45.46    3.82
   8  -4   2   21.86    2.32
   8  -4   2   24.26    2.47
  -8   4  -2   25.80    2.81
   8  -4   2   24.93    2.72
   8  -4   3    4.37    1.25
   8  -4   3    5.13    1.30
  -8   4  -3    6.89    1.47
  -8   4  -4   56.17    3.20
   8  -4   4   47.36    2.97
  -8   4  -4   46.19    3.07
   8  -4   4   54.33    3.17
  -8   4  -5    2.10    0.62
  -8   3   7   10.30    1.16
   8  -3  -6   41.55    2.80
   8  -3  -6   41.59    2.86
   8  -3  -6   36.73    2.50
  -8   3   6   42.56    2.93
   8  -3  -5    3.41    1.03
   8  -3  -5    6.39    1.44
   8  -3  -5    5.13    1.25
   8  -3  -5    3.87    1.04
  -8   3   5    3.18    1.12
   8  -3  -4    7.27    1.35
   8  -3  -4    7.87    1.63
   8  -3  -4    8.37    1.63
   8  -3  -4    8.92    1.65
  -8   3   4    5.34    1.47
  -8   3   4    4.80    1.42
  -8   3   3    8.65    1.75
  -8   3   3   10.38    1.98
   8  -3  -3    8.55    1.80
   8  -3  -3    7.00    1.60
  -8   3   2   43.64    3.57
   8  -3  -2   52.30    3.77
   8  -3  -2   41.92    3.19
   8  -3  -2   51.88    3.89
   8  -3  -1    9.33    1.93
  -8   3   1    7.62    1.53
   8  -3  -1    8.86    1.57
   8  -3  -1    8.39    1.78
   8  -3   0   19.71    2.40
  -8   3   0   16.64    2.23
   8  -3   0   20.97    2.66
  -8   3  -1    2.30    1.05
   8  -3   1    4.17    1.21
   8  -3   1    4.52    1.35
   8  -3   1    2.55    1.04
   8  -3   2   16.23    2.11
   8  -3   2   14.03    1.94
  -8   3  -2   15.78    2.12
   8  -3   3   32.85    2.80
  -8   3  -3   25.59    2.48
   8  -3   3   34.64    2.83
   8  -3   3   30.81    2.63
   8  -3   3   25.97    2.05
  -8   3  -4   42.46    2.74
   8  -3   4   45.67    2.37
   8  -3   4   54.30    3.06
  -8   3  -4   53.90    3.03
   8  -3   4   54.70    3.18
  -8   2   6   37.22    2.69
   8  -2  -6   46.15    2.89
   8  -2  -6   46.10    2.78
   8  -2  -6   47.13    2.95
   8  -2  -6   43.33    2.69
   8  -2  -5   32.24    2.81
   8  -2  -5   26.78    2.36
  -8   2   5   28.19    2.59
   8  -2  -5   24.48    2.11
   8  -2  -5   28.72    2.39
   8  -2  -5   31.76    2.54
   8  -2  -5   29.39    2.64
   8  -2  -4   20.09    2.41
  -8   2   4   17.99    2.22
  -8   2   4   17.09    2.27
  -8   2   4   18.20    2.33
   8  -2  -4   16.04    1.76
   8  -2  -4   19.75    2.29
   8  -2  -4   24.60    2.53
   8  -2  -4   20.12    2.35
   8  -2  -3    1.39    0.98
  -8   2   3    3.48    1.17
  -8   2   3    4.38    1.39
   8  -2  -3    2.71    1.20
   8  -2  -3    3.56    1.36
   8  -2  -3    3.52    1.32
   8  -2  -3    2.73    1.19
  -8   2   2   77.84    4.37
   8  -2  -2   82.23    4.76
   8  -2  -2   92.40    5.12
  -8   2   2   97.34    5.54
  -8   2   1  362.02   11.10
   8  -2  -1  365.28   10.68
   8  -2   0   70.86    4.57
   8  -2   0   71.95    4.43
   8  -2   0   72.37    4.41
  -8   2   0   86.67    5.07
   8  -2   1   22.86    2.54
  -8   2  -1   16.40    2.06
   8  -2   1   24.47    2.69
   8  -2   1   20.53    2.01
   8  -2   1   19.61    2.29
   8  -2   2    6.52    1.45
  -8   2  -2    3.72    0.95
  -8   2  -2    5.60    1.28
  -8   2  -2    5.31    1.19
   8  -2   2    5.82    1.17
   8  -2   3   15.07    1.87
  -8   2  -3   11.21    1.35
   8  -2   3   15.54    1.74
   8  -2   3   15.09    1.63
  -8   2  -3   14.52    1.63
  -8   2  -4   17.36    1.60
   8  -2   4   14.95    1.38
   8  -2   4   19.30    1.77
   8  -1  -6    1.45    0.66
  -8   1   6    0.94    0.54
   8  -1  -5   16.81    1.92
  -8   1   5   16.18    1.95
   8  -1  -5   14.20    1.57
   8  -1  -5   15.77    1.86
   8  -1  -5   18.72    1.87
   8  -1  -5   15.05    1.77
   8  -1  -4   21.88    2.38
  -8   1   4   18.12    2.05
   8  -1  -4   17.28    2.01
  -8   1   4   20.10    2.20
   8  -1  -4   18.69    1.91
   8  -1  -4   17.18    1.89
   8  -1  -4   24.20    2.47
   8  -1  -4   20.57    2.21
   8  -1  -4   22.92    2.37
   8  -1  -4   19.79    1.74
  -8   1   3    7.70    1.51
   8  -1  -3    8.31    1.68
  -8   1   3    7.71    1.47
   8  -1  -3    9.35    1.62
  -8   1   3    9.17    1.72
   8  -1  -3    9.07    1.71
  -8   1   3    7.38    1.41
   8  -1  -3   11.11    1.88
   8  -1  -3    8.85    1.43
   8  -1  -2   91.08    4.83
  -8   1   2   88.03    4.87
  -8   1   2   81.09    4.31
   8  -1  -2   93.70    4.89
   8  -1  -1   72.13    4.32
  -8   1   1   78.51    4.68
  -8   1   1   74.53    4.54
  -8   1   1   65.62    3.76
   8  -1  -1   73.98    4.44
   8  -1  -1   69.47    4.31
   8  -1   0   25.25    2.59
  -8   1   0   24.71    2.65
   8  -1   0   21.19    2.48
   8  -1   0   23.83    2.55
  -8   1   0   21.50    2.19
  -8   1  -1    1.44    0.76
   8  -1   1    0.74    0.67
   8  -1   1    2.72    0.95
   8  -1   1    2.01    1.03
  -8   1  -1    1.17    0.88
   8  -1   1    2.08    1.00
   8  -1   1    1.72    1.00
   8  -1   1    1.48    0.72
  -8   1  -2   43.72    3.01
  -8   1  -2   45.45    3.01
   8  -1   2   45.66    2.78
   8  -1   2   46.65    2.93
   8  -1   3   11.95    1.36
  -8   1  -3   12.30    1.44
   8   0  -5   16.14    1.56
  -8   0   5   12.82    1.49
  -8   0   4   12.90    1.57
   8   0  -4    9.20    1.31
   8   0  -4   10.02    1.33
   8   0  -4   11.62    1.57
   8   0  -4   11.41    1.29
  -8   0   3   26.35    2.21
  -8   0   3   31.88    2.61
  -8   0   3   22.86    1.92
   8   0  -3   28.54    2.48
  -8   0   3   32.62    2.56
   8   0  -3   32.59    2.39
   8   0  -3   31.32    2.46
   8   0  -2   37.15    2.91
   8   0  -2   38.60    2.88
  -8   0   2   32.12    2.58
   8   0  -2   43.01    3.05
  -8   0   1   36.64    2.92
  -8   0   1   28.12    2.42
  -8   0   1   27.61    2.39
  -8   0   1   33.33    2.55
   8   0  -1   42.29    3.02
  -8   0   0   10.85    1.41
   8   0   0   12.11    1.56
  -8   0   0   12.59    1.69
   8   0   0   11.02    1.60
  -8   0   0   11.15    1.55
   8   0   0   11.13    1.69
  -8   0   0    9.71    1.37
  -8   0   0   10.30    1.45
   8   0   1    4.81    1.03
  -8   0  -1    5.56    1.09
  -8   0  -1    5.37    1.05
  -8   0  -2   31.71    2.17
   8   1  -3    4.06    0.85
   8   1  -3    3.01    0.71
   8   1  -3    2.86    0.80
  -8  -1   2    2.23    0.69
   8   1  -2    4.11    0.85
   8   1  -2    4.10    0.87
   8   1  -2    3.76    0.99
  -8  -1   1    4.64    0.97
  -8  -1   1    4.56    0.86
   8   1   0   21.92    1.69
  -9   4   2    1.61    0.61
   9  -4  -2    3.41    0.79
  -9   4   1   15.09    1.48
   9  -4  -1   23.21    1.85
  -9   3   2    0.41    0.43
   9  -3  -2    0.25    0.50
   9  -3  -2    0.04    0.49
   9  -3  -1   19.45    1.65
   0   0   0    0.00    0.00
TITL cpf_35HBA in P-1
REM P-1 (#2 in standard setting)
CELL 1.54184   7.216457   8.829791  10.118396  92.9972  95.2189 111.5567
ZERR    8.00   0.000244   0.000403   0.000284   0.0029   0.0025   0.0037
LATT  1
SFAC C H N O Cl
UNIT 8.00 8.00 8.00 8.00 8.00
TREF
HKLF 4
END
_computing_structure_solution     'SHELXT 2018/2 (Sheldrick, 2018)'
_computing_structure_solution     'SHELXT 2018/2 (Sheldrick, 2018)'
_computing_structure_solution     'SHELXT 2018/2 (Sheldrick, 2018)'
_computing_structure_solution     'SHELXT 2018/2 (Sheldrick, 2018)'
;
_shelx_hkl_checksum              14816
_shelx_res_file
;
TITL cpf_35hba_a.res in P1
    cpf_35hba.res
    created by SHELXL-2018/3 at 14:46:36 on 25-Oct-2021
REM Old TITL cpf_35HBA in P-1
REM SHELXT solution in P1: R1 0.082, Rweak 0.031, Alpha 0.000
REM <I/s> 0.000 for 0 systematic absences, Orientation as input
REM Flack x = 0.029 ( 0.007 ) from 1899 Parsons' quotients
REM Formula found by SHELXT: C24 N4 O7 Cl F
CELL 1.54184 7.2165 8.8298 10.1184 92.997 95.219 111.557
ZERR 1 0.0002 0.0004 0.0003 0.003 0.002 0.004
LATT -1
SFAC C H Cl F N O
UNIT 24 27 1 1 3 8
EQIV $1 +X,+Y,-1+Z
EQIV $2 +X,1+Y,-1+Z
EQIV $3 +X,-1+Y,+Z
EQIV $4 -1+X,-1+Y,1+Z
EQIV $5 -1+X,+Y,+Z
EQIV $6 +X,1+Y,+Z
L.S. 20
PLAN  5
SIZE 0.28 0.2 0.05
TEMP -180
CONF
HTAB O2 O3
HTAB N3 O1_$2
HTAB N3 Cl1
HTAB C10 F1_$3
HTAB C12 O7_$4
HTAB C14 F1
HTAB C16 Cl1_$5
HTAB O4 Cl1
HTAB O6 Cl1_$6
HTAB O7 O8
HTAB O8 Cl1_$2
HTAB O8 O5_$1
HTAB
BOND
list 4
MORE -1
BOND $H
fmap 2 53
acta
SHEL 99 0.8
REM <olex2.extras>
REM <HklSrc "%.\\cpf_35HBA.hkl">
REM </olex2.extras>
WGHT    0.058900    0.070900
FVAR       0.85896
CL1   3    0.851441    0.468630    0.406630    11.00000    0.03152    0.02668 =
         0.02192    0.00292    0.00523    0.01512
F1    4    0.459862    0.518475    0.981366    11.00000    0.04448    0.01997 =
         0.02031   -0.00008    0.00571    0.01524
O1    6    0.322374   -0.370342    1.297763    11.00000    0.03764    0.02525 =
         0.02419    0.00582    0.00112    0.01415
O2    6    0.364162   -0.149866    1.431521    11.00000    0.04185    0.02888 =
         0.01758    0.00479    0.00321    0.01322
AFIX 147
H2    2    0.379572   -0.051835    1.423817    11.00000   -1.50000
AFIX   0
O3    6    0.397229    0.114320    1.327196    11.00000    0.04260    0.02937 =
         0.01440    0.00035    0.00484    0.01604
N1    5    0.284038   -0.144451    0.960344    11.00000    0.02696    0.02200 =
         0.01683   -0.00015    0.00237    0.01170
N2    5    0.379564    0.345661    0.733370    11.00000    0.02545    0.02321 =
         0.01442    0.00078    0.00095    0.00966
N3    5    0.440727    0.466133    0.477836    11.00000    0.03031    0.02855 =
         0.01730    0.00459    0.00470    0.01739
AFIX  23
H3A   2    0.412202    0.525266    0.413562    11.00000   -1.20000
H3B   2    0.528778    0.423848    0.448534    11.00000   -1.20000
AFIX   0
C1    1    0.337048   -0.227392    1.312644    11.00000    0.02426    0.03254 =
         0.02017    0.00500    0.00267    0.01310
C2    1    0.327567   -0.134217    1.197048    11.00000    0.02377    0.02656 =
         0.01793    0.00413    0.00364    0.01081
C3    1    0.365522    0.036563    1.213805    11.00000    0.02623    0.02724 =
         0.01753    0.00381    0.00438    0.01314
C4    1    0.368732    0.115450    1.090682    11.00000    0.02340    0.02679 =
         0.01771    0.00066    0.00349    0.01167
C5    1    0.415769    0.284958    1.093692    11.00000    0.02823    0.02324 =
         0.01815   -0.00111    0.00361    0.01171
AFIX  43
H5    2    0.444144    0.349621    1.176480    11.00000   -1.20000
AFIX   0
C6    1    0.420337    0.355567    0.977334    11.00000    0.02668    0.01756 =
         0.02059   -0.00056    0.00317    0.00939
C7    1    0.382808    0.266730    0.850342    11.00000    0.02220    0.02277 =
         0.01715    0.00160    0.00176    0.01046
C8    1    0.338910    0.100269    0.848344    11.00000    0.02385    0.02300 =
         0.01673   -0.00234    0.00214    0.00949
AFIX  43
H8    2    0.314618    0.036841    0.765286    11.00000   -1.20000
AFIX   0
C9    1    0.329728    0.024061    0.966143    11.00000    0.02103    0.02172 =
         0.01878    0.00051    0.00304    0.00841
C10   1    0.288206   -0.216775    1.073041    11.00000    0.02416    0.02150 =
         0.02245    0.00496    0.00334    0.01120
AFIX  43
H10   2    0.262685   -0.330555    1.066643    11.00000   -1.20000
AFIX   0
C11   1    0.256806   -0.239670    0.832413    11.00000    0.02911    0.02131 =
         0.01729   -0.00094    0.00239    0.01214
AFIX  13
H11   2    0.381927   -0.228926    0.791979    11.00000   -1.20000
AFIX   0
C12   1    0.074044   -0.266718    0.736646    11.00000    0.03172    0.02432 =
         0.02134    0.00059   -0.00054    0.01172
AFIX  23
H12A  2    0.087678   -0.270948    0.640183    11.00000   -1.20000
H12B  2   -0.021768   -0.217677    0.763308    11.00000   -1.20000
AFIX   0
C13   1    0.092589   -0.404678    0.812399    11.00000    0.03292    0.02111 =
         0.02420   -0.00042    0.00376    0.01100
AFIX  23
H13A  2    0.007825   -0.440061    0.885206    11.00000   -1.20000
H13B  2    0.117236   -0.493315    0.762121    11.00000   -1.20000
AFIX   0
C14   1    0.568551    0.477063    0.713869    11.00000    0.02806    0.02334 =
         0.01832    0.00107    0.00209    0.01034
AFIX  23
H14A  2    0.667670    0.429259    0.691921    11.00000   -1.20000
H14B  2    0.623427    0.549862    0.797431    11.00000   -1.20000
AFIX   0
C15   1    0.535128    0.575703    0.602231    11.00000    0.03350    0.02402 =
         0.01982    0.00402    0.00499    0.01159
AFIX  23
H15A  2    0.447094    0.632955    0.628102    11.00000   -1.20000
H15B  2    0.665144    0.659131    0.586453    11.00000   -1.20000
AFIX   0
C16   1    0.253644    0.330611    0.500077    11.00000    0.02909    0.02413 =
         0.01916    0.00116    0.00063    0.01111
AFIX  23
H16A  2    0.198514    0.256713    0.417103    11.00000   -1.20000
H16B  2    0.152583    0.375766    0.523119    11.00000   -1.20000
AFIX   0
C17   1    0.293967    0.235142    0.611250    11.00000    0.02636    0.02421 =
         0.01744    0.00057    0.00061    0.01214
AFIX  23
H17A  2    0.167365    0.147006    0.626540    11.00000   -1.20000
H17B  2    0.388812    0.184215    0.586309    11.00000   -1.20000
AFIX   0
O4    6    0.830695    0.724268    0.215743    11.00000    0.04322    0.02696 =
         0.02399    0.00556    0.00770    0.01937
AFIX 147
H4    2    0.845149    0.674900    0.282288    11.00000   -1.50000
AFIX   0
O5    6    0.828116    0.910841    0.372092    11.00000    0.05402    0.03185 =
         0.02163    0.00248    0.00745    0.02241
O6    6    0.925262    1.404828    0.101886    11.00000    0.04225    0.02142 =
         0.02204   -0.00070    0.00459    0.01334
AFIX 147
H6    2    0.922943    1.426566    0.183393    11.00000   -1.50000
AFIX   0
O7    6    0.768456    0.947076   -0.217273    11.00000    0.04079    0.02644 =
         0.01865   -0.00033    0.00464    0.01401
AFIX 147
H7    2    0.769716    1.019031   -0.268691    11.00000   -1.50000
AFIX   0
C18   1    0.831032    0.868909    0.256140    11.00000    0.02686    0.02712 =
         0.02303    0.00255    0.00479    0.01371
C19   1    0.837331    0.975946    0.144795    11.00000    0.02398    0.02646 =
         0.02162    0.00170    0.00394    0.01160
C20   1    0.875313    1.139542    0.178224    11.00000    0.02543    0.02550 =
         0.01956   -0.00032    0.00294    0.01170
AFIX  43
H20   2    0.894255    1.180995    0.269053    11.00000   -1.20000
AFIX   0
C21   1    0.885472    1.242858    0.077112    11.00000    0.02436    0.02049 =
         0.02426   -0.00186    0.00235    0.00924
C22   1    0.853106    1.180454   -0.056543    11.00000    0.02494    0.02467 =
         0.02154    0.00351    0.00448    0.01146
AFIX  43
H22   2    0.860643    1.250739   -0.125512    11.00000   -1.20000
AFIX   0
C23   1    0.809868    1.015001   -0.087727    11.00000    0.02402    0.02813 =
         0.01870   -0.00096    0.00233    0.01188
C24   1    0.804811    0.910688    0.012288    11.00000    0.02607    0.02591 =
         0.02317   -0.00072    0.00584    0.01224
AFIX  43
H24   2    0.779908    0.798399   -0.009350    11.00000   -1.20000
AFIX   0
O8    6    0.777452    1.132697   -0.430599    11.00000    0.04376    0.02862 =
         0.02117    0.00173    0.00443    0.01457
H8A   2    0.798796    1.230021   -0.456821    11.00000   -1.50000
H8B   2    0.778538    1.068335   -0.491710    11.00000   -1.50000
HKLF 4
REM  cpf_35hba_a.res in P1
REM wR2 = 0.0941, GooF = S = 1.122, Restrained GooF = 1.121 for all data
REM R1 = 0.0341 for 4323 Fo > 4sig(Fo) and 0.0347 for all 4420 data
REM 344 parameters refined using 3 restraints
END
WGHT      0.0591      0.0709
REM Instructions for potential hydrogen bonds
HTAB O2 O3
HTAB N3 O1_$2
HTAB N3 Cl1
HTAB C10 F1_$3
HTAB C12 O7_$4
EQIV $7 x-1, y-2, z+1
HTAB C13 O6_$7
HTAB C14 F1
HTAB C16 O3_$1
HTAB C16 Cl1_$5
HTAB O4 Cl1
HTAB O6 Cl1_$6
HTAB O7 O8
HTAB C20 Cl1_$6
HTAB O8 Cl1_$2
HTAB O8 O5_$1
REM Highest difference peak  0.245,  deepest hole -0.468,  1-sigma level  0.051
Q1    1   1.0163  0.5154  0.4075  11.00000  0.05    0.25
Q2    1   0.7051  0.4379  0.4125  11.00000  0.05    0.23
Q3    1   0.9863  0.3929  0.4411  11.00000  0.05    0.20
Q4    1   1.0050  0.6158  0.4448  11.00000  0.05    0.17
Q5    1   0.5971 -0.1026  1.4637  11.00000  0.05    0.17
;
_shelx_res_checksum              3217
loop_
_space_group_symop_operation_xyz
'x, y, z'
loop_
_atom_site_type_symbol
_atom_site_label
_atom_site_fract_x
_atom_site_fract_y
_atom_site_fract_z
_atom_site_U_iso_or_equiv
_atom_site_adp_type
_atom_site_calc_flag
_atom_site_occupancy
_atom_site_disorder_assembly
_atom_site_disorder_group
Cl Cl1 0.85144(9) 0.46863(8) 0.40663(7) 0.02533(17) Uani d 1 . .
F F1 0.4599(3) 0.5185(2) 0.98137(17) 0.0273(4) Uani d 1 . .
O O1 0.3224(3) -0.3703(3) 1.2978(2) 0.0284(5) Uani d 1 . .
O O2 0.3642(4) -0.1499(3) 1.4315(2) 0.0294(5) Uani d 1 . .
H H2 0.379572 -0.051835 1.423817 0.044 Uiso calc 1 . .
O O3 0.3972(3) 0.1143(3) 1.3272(2) 0.0280(5) Uani d 1 . .
N N1 0.2840(4) -0.1445(3) 0.9603(2) 0.0213(5) Uani d 1 . .
N N2 0.3796(4) 0.3457(3) 0.7334(2) 0.0210(5) Uani d 1 . .
N N3 0.4407(4) 0.4661(3) 0.4778(2) 0.0233(5) Uani d 1 . .
H H3A 0.412202 0.525266 0.413562 0.028 Uiso calc 1 . .
H H3B 0.528778 0.423848 0.448534 0.028 Uiso calc 1 . .
C C1 0.3370(4) -0.2274(4) 1.3126(3) 0.0249(6) Uani d 1 . .
C C2 0.3276(4) -0.1342(4) 1.1970(3) 0.0222(6) Uani d 1 . .
C C3 0.3655(4) 0.0366(4) 1.2138(3) 0.0226(6) Uani d 1 . .
C C4 0.3687(4) 0.1155(4) 1.0907(3) 0.0220(6) Uani d 1 . .
C C5 0.4158(4) 0.2850(4) 1.0937(3) 0.0227(6) Uani d 1 . .
H H5 0.444144 0.349621 1.176480 0.027 Uiso calc 1 . .
C C6 0.4203(4) 0.3556(4) 0.9773(3) 0.0214(6) Uani d 1 . .
C C7 0.3828(4) 0.2667(4) 0.8503(3) 0.0202(6) Uani d 1 . .
C C8 0.3389(4) 0.1003(4) 0.8483(3) 0.0212(6) Uani d 1 . .
H H8 0.314618 0.036841 0.765286 0.025 Uiso calc 1 . .
C C9 0.3297(4) 0.0241(4) 0.9661(3) 0.0204(6) Uani d 1 . .
C C10 0.2882(4) -0.2168(4) 1.0730(3) 0.0218(6) Uani d 1 . .
H H10 0.262685 -0.330555 1.066643 0.026 Uiso calc 1 . .
C C11 0.2568(4) -0.2397(4) 0.8324(3) 0.0219(6) Uani d 1 . .
H H11 0.381927 -0.228926 0.791979 0.026 Uiso calc 1 . .
C C12 0.0740(5) -0.2667(4) 0.7366(3) 0.0257(6) Uani d 1 . .
H H12A 0.087678 -0.270948 0.640183 0.031 Uiso calc 1 . .
H H12B -0.021768 -0.217677 0.763308 0.031 Uiso calc 1 . .
C C13 0.0926(5) -0.4047(4) 0.8124(3) 0.0259(6) Uani d 1 . .
H H13A 0.007825 -0.440061 0.885206 0.031 Uiso calc 1 . .
H H13B 0.117236 -0.493315 0.762121 0.031 Uiso calc 1 . .
C C14 0.5686(4) 0.4771(4) 0.7139(3) 0.0231(6) Uani d 1 . .
H H14A 0.667670 0.429259 0.691921 0.028 Uiso calc 1 . .
H H14B 0.623427 0.549862 0.797431 0.028 Uiso calc 1 . .
C C15 0.5351(5) 0.5757(4) 0.6022(3) 0.0253(6) Uani d 1 . .
H H15A 0.447094 0.632955 0.628102 0.030 Uiso calc 1 . .
H H15B 0.665144 0.659131 0.586453 0.030 Uiso calc 1 . .
C C16 0.2536(5) 0.3306(4) 0.5001(3) 0.0240(6) Uani d 1 . .
H H16A 0.198514 0.256713 0.417103 0.029 Uiso calc 1 . .
H H16B 0.152583 0.375766 0.523119 0.029 Uiso calc 1 . .
C C17 0.2940(4) 0.2351(4) 0.6112(3) 0.0221(6) Uani d 1 . .
H H17A 0.167365 0.147006 0.626540 0.027 Uiso calc 1 . .
H H17B 0.388812 0.184215 0.586309 0.027 Uiso calc 1 . .
O O4 0.8307(4) 0.7243(3) 0.2157(2) 0.0292(5) Uani d 1 . .
H H4 0.845149 0.674900 0.282288 0.044 Uiso calc 1 . .
O O5 0.8281(4) 0.9108(3) 0.3721(2) 0.0338(5) Uani d 1 . .
O O6 0.9253(4) 1.4048(3) 0.1019(2) 0.0282(5) Uani d 1 . .
H H6 0.922943 1.426566 0.183393 0.042 Uiso calc 1 . .
O O7 0.7685(4) 0.9471(3) -0.2173(2) 0.0282(5) Uani d 1 . .
H H7 0.769716 1.019031 -0.268691 0.042 Uiso calc 1 . .
C C18 0.8310(5) 0.8689(4) 0.2561(3) 0.0245(6) Uani d 1 . .
C C19 0.8373(4) 0.9759(4) 0.1448(3) 0.0233(6) Uani d 1 . .
C C20 0.8753(4) 1.1395(4) 0.1782(3) 0.0230(6) Uani d 1 . .
H H20 0.894255 1.180995 0.269053 0.028 Uiso calc 1 . .
C C21 0.8855(4) 1.2429(4) 0.0771(3) 0.0230(6) Uani d 1 . .
C C22 0.8531(4) 1.1805(4) -0.0565(3) 0.0229(6) Uani d 1 . .
H H22 0.860643 1.250739 -0.125512 0.028 Uiso calc 1 . .
C C23 0.8099(4) 1.0150(4) -0.0877(3) 0.0231(6) Uani d 1 . .
C C24 0.8048(4) 0.9107(4) 0.0123(3) 0.0243(6) Uani d 1 . .
H H24 0.779908 0.798399 -0.009350 0.029 Uiso calc 1 . .
O O8 0.7775(4) 1.1327(3) -0.4306(2) 0.0309(5) Uani d 1 . .
H H8A 0.799(7) 1.230(7) -0.457(5) 0.046 Uiso d 1 . .
H H8B 0.779(7) 1.068(7) -0.492(5) 0.046 Uiso d 1 . .
loop_
_atom_site_aniso_label
_atom_site_aniso_U_11
_atom_site_aniso_U_22
_atom_site_aniso_U_33
_atom_site_aniso_U_12
_atom_site_aniso_U_13
_atom_site_aniso_U_23
Cl1 0.0315(3) 0.0267(3) 0.0219(3) 0.0151(3) 0.0052(2) 0.0029(2)
F1 0.0445(10) 0.0200(9) 0.0203(8) 0.0152(8) 0.0057(7) -0.0001(7)
O1 0.0376(12) 0.0253(12) 0.0242(11) 0.0142(9) 0.0011(9) 0.0058(9)
O2 0.0419(13) 0.0289(12) 0.0176(10) 0.0132(10) 0.0032(9) 0.0048(8)
O3 0.0426(13) 0.0294(12) 0.0144(9) 0.0160(10) 0.0048(9) 0.0003(8)
N1 0.0270(12) 0.0220(13) 0.0168(12) 0.0117(10) 0.0024(9) -0.0002(9)
N2 0.0255(12) 0.0232(13) 0.0144(11) 0.0097(10) 0.0009(9) 0.0008(9)
N3 0.0303(12) 0.0286(13) 0.0173(11) 0.0174(10) 0.0047(9) 0.0046(10)
C1 0.0243(14) 0.0325(18) 0.0202(14) 0.0131(12) 0.0027(11) 0.0050(12)
C2 0.0238(13) 0.0266(15) 0.0179(13) 0.0108(11) 0.0036(10) 0.0041(12)
C3 0.0262(14) 0.0272(15) 0.0175(14) 0.0131(12) 0.0044(11) 0.0038(11)
C4 0.0234(13) 0.0268(15) 0.0177(13) 0.0117(11) 0.0035(10) 0.0007(11)
C5 0.0282(14) 0.0232(15) 0.0182(13) 0.0117(12) 0.0036(10) -0.0011(11)
C6 0.0267(14) 0.0176(13) 0.0206(14) 0.0094(11) 0.0032(11) -0.0006(11)
C7 0.0222(13) 0.0228(15) 0.0171(13) 0.0105(11) 0.0018(10) 0.0016(11)
C8 0.0239(13) 0.0230(15) 0.0167(13) 0.0095(11) 0.0021(10) -0.0023(11)
C9 0.0210(13) 0.0217(14) 0.0188(14) 0.0084(10) 0.0030(10) 0.0005(11)
C10 0.0242(13) 0.0215(15) 0.0225(14) 0.0112(11) 0.0033(11) 0.0050(11)
C11 0.0291(14) 0.0213(14) 0.0173(13) 0.0121(12) 0.0024(11) -0.0009(11)
C12 0.0317(15) 0.0243(15) 0.0213(13) 0.0117(12) -0.0005(12) 0.0006(11)
C13 0.0329(15) 0.0211(15) 0.0242(14) 0.0110(12) 0.0038(11) -0.0004(11)
C14 0.0281(14) 0.0233(15) 0.0183(13) 0.0103(12) 0.0021(11) 0.0011(11)
C15 0.0335(15) 0.0240(15) 0.0198(14) 0.0116(12) 0.0050(11) 0.0040(11)
C16 0.0291(15) 0.0241(15) 0.0192(13) 0.0111(12) 0.0006(11) 0.0012(11)
C17 0.0264(14) 0.0242(16) 0.0174(13) 0.0121(11) 0.0006(10) 0.0006(11)
O4 0.0432(13) 0.0270(12) 0.0240(11) 0.0194(10) 0.0077(9) 0.0056(9)
O5 0.0540(14) 0.0318(13) 0.0216(11) 0.0224(11) 0.0074(10) 0.0025(9)
O6 0.0423(12) 0.0214(11) 0.0220(10) 0.0133(9) 0.0046(9) -0.0007(8)
O7 0.0408(12) 0.0264(12) 0.0186(10) 0.0140(10) 0.0046(9) -0.0003(9)
C18 0.0269(14) 0.0271(16) 0.0230(14) 0.0137(12) 0.0048(11) 0.0025(12)
C19 0.0240(13) 0.0265(16) 0.0216(14) 0.0116(11) 0.0039(11) 0.0017(12)
C20 0.0254(13) 0.0255(15) 0.0196(13) 0.0117(11) 0.0029(11) -0.0003(11)
C21 0.0244(13) 0.0205(14) 0.0243(14) 0.0092(11) 0.0023(11) -0.0019(11)
C22 0.0249(14) 0.0247(15) 0.0215(14) 0.0115(11) 0.0045(11) 0.0035(12)
C23 0.0240(13) 0.0281(16) 0.0187(14) 0.0119(12) 0.0023(11) -0.0010(12)
C24 0.0261(14) 0.0259(15) 0.0232(15) 0.0122(12) 0.0058(11) -0.0007(12)
O8 0.0438(13) 0.0286(13) 0.0212(11) 0.0146(10) 0.0044(9) 0.0017(9)
loop_
_atom_type_symbol
_atom_type_description
_atom_type_scat_dispersion_real
_atom_type_scat_dispersion_imag
_atom_type_scat_source
C C 0.0181 0.0091 'International Tables Vol C Tables 4.2.6.8 and 6.1.1.4'
H H 0.0000 0.0000 'International Tables Vol C Tables 4.2.6.8 and 6.1.1.4'
Cl Cl 0.3639 0.7018 'International Tables Vol C Tables 4.2.6.8 and 6.1.1.4'
F F 0.0727 0.0534 'International Tables Vol C Tables 4.2.6.8 and 6.1.1.4'
N N 0.0311 0.0180 'International Tables Vol C Tables 4.2.6.8 and 6.1.1.4'
O O 0.0492 0.0322 'International Tables Vol C Tables 4.2.6.8 and 6.1.1.4'
loop_
_geom_angle_atom_site_label_1
_geom_angle_atom_site_label_2
_geom_angle_atom_site_label_3
_geom_angle_site_symmetry_1
_geom_angle_site_symmetry_3
_geom_angle
_geom_angle_publ_flag
C1 O2 H2 . . 109.5 ?
C9 N1 C11 . . 120.6(2) ?
C10 N1 C9 . . 119.9(3) ?
C10 N1 C11 . . 119.0(3) ?
C7 N2 C14 . . 115.7(2) ?
C7 N2 C17 . . 114.7(2) ?
C17 N2 C14 . . 111.0(2) ?
H3A N3 H3B . . 108.0 ?
C15 N3 H3A . . 109.3 ?
C15 N3 H3B . . 109.3 ?
C16 N3 H3A . . 109.3 ?
C16 N3 H3B . . 109.3 ?
C16 N3 C15 . . 111.4(2) ?
O1 C1 O2 . . 121.8(3) ?
O1 C1 C2 . . 121.2(3) ?
O2 C1 C2 . . 117.0(3) ?
C3 C2 C1 . . 121.3(3) ?
C10 C2 C1 . . 117.3(3) ?
C10 C2 C3 . . 121.4(3) ?
O3 C3 C2 . . 122.5(3) ?
O3 C3 C4 . . 122.3(3) ?
C2 C3 C4 . . 115.2(3) ?
C5 C4 C3 . . 120.8(3) ?
C5 C4 C9 . . 118.6(3) ?
C9 C4 C3 . . 120.6(3) ?
C4 C5 H5 . . 120.3 ?
C6 C5 C4 . . 119.5(3) ?
C6 C5 H5 . . 120.3 ?
F1 C6 C5 . . 119.0(3) ?
F1 C6 C7 . . 117.8(2) ?
C5 C6 C7 . . 123.2(3) ?
N2 C7 C6 . . 120.4(3) ?
C8 C7 N2 . . 122.6(3) ?
C8 C7 C6 . . 116.9(3) ?
C7 C8 H8 . . 119.4 ?
C7 C8 C9 . . 121.1(3) ?
C9 C8 H8 . . 119.4 ?
N1 C9 C4 . . 119.8(2) ?
C8 C9 N1 . . 119.6(3) ?
C8 C9 C4 . . 120.7(3) ?
N1 C10 C2 . . 123.0(3) ?
N1 C10 H10 . . 118.5 ?
C2 C10 H10 . . 118.5 ?
N1 C11 H11 . . 116.2 ?
N1 C11 C12 . . 118.9(3) ?
N1 C11 C13 . . 117.2(2) ?
C12 C11 H11 . . 116.2 ?
C13 C11 H11 . . 116.2 ?
C13 C11 C12 . . 60.8(2) ?
C11 C12 H12A . . 117.8 ?
C11 C12 H12B . . 117.8 ?
C11 C12 C13 . . 59.4(2) ?
H12A C12 H12B . . 115.0 ?
C13 C12 H12A . . 117.8 ?
C13 C12 H12B . . 117.8 ?
C11 C13 C12 . . 59.9(2) ?
C11 C13 H13A . . 117.8 ?
C11 C13 H13B . . 117.8 ?
C12 C13 H13A . . 117.8 ?
C12 C13 H13B . . 117.8 ?
H13A C13 H13B . . 114.9 ?
N2 C14 H14A . . 109.5 ?
N2 C14 H14B . . 109.5 ?
N2 C14 C15 . . 110.6(2) ?
H14A C14 H14B . . 108.1 ?
C15 C14 H14A . . 109.5 ?
C15 C14 H14B . . 109.5 ?
N3 C15 C14 . . 110.2(2) ?
N3 C15 H15A . . 109.6 ?
N3 C15 H15B . . 109.6 ?
C14 C15 H15A . . 109.6 ?
C14 C15 H15B . . 109.6 ?
H15A C15 H15B . . 108.1 ?
N3 C16 H16A . . 109.5 ?
N3 C16 H16B . . 109.5 ?
N3 C16 C17 . . 110.7(2) ?
H16A C16 H16B . . 108.1 ?
C17 C16 H16A . . 109.5 ?
C17 C16 H16B . . 109.5 ?
N2 C17 C16 . . 109.4(2) ?
N2 C17 H17A . . 109.8 ?
N2 C17 H17B . . 109.8 ?
C16 C17 H17A . . 109.8 ?
C16 C17 H17B . . 109.8 ?
H17A C17 H17B . . 108.2 ?
C18 O4 H4 . . 109.5 ?
C21 O6 H6 . . 109.5 ?
C23 O7 H7 . . 109.5 ?
O4 C18 C19 . . 113.1(3) ?
O5 C18 O4 . . 123.1(3) ?
O5 C18 C19 . . 123.8(3) ?
C20 C19 C18 . . 117.9(3) ?
C20 C19 C24 . . 121.7(3) ?
C24 C19 C18 . . 120.4(3) ?
C19 C20 H20 . . 120.3 ?
C19 C20 C21 . . 119.3(3) ?
C21 C20 H20 . . 120.3 ?
O6 C21 C20 . . 122.8(3) ?
O6 C21 C22 . . 117.1(3) ?
C20 C21 C22 . . 120.1(3) ?
C21 C22 H22 . . 120.2 ?
C23 C22 C21 . . 119.6(3) ?
C23 C22 H22 . . 120.2 ?
O7 C23 C22 . . 121.6(3) ?
O7 C23 C24 . . 117.3(3) ?
C22 C23 C24 . . 121.1(3) ?
C19 C24 C23 . . 118.2(3) ?
C19 C24 H24 . . 120.9 ?
C23 C24 H24 . . 120.9 ?
H8A O8 H8B . . 112(5) ?
loop_
_geom_bond_atom_site_label_1
_geom_bond_atom_site_label_2
_geom_bond_site_symmetry_2
_geom_bond_distance
_geom_bond_publ_flag
F1 C6 . 1.357(4) ?
O1 C1 . 1.227(4) ?
O2 H2 . 0.8400 ?
O2 C1 . 1.314(4) ?
O3 C3 . 1.263(4) ?
N1 C9 . 1.397(4) ?
N1 C10 . 1.339(4) ?
N1 C11 . 1.463(4) ?
N2 C7 . 1.407(4) ?
N2 C14 . 1.468(4) ?
N2 C17 . 1.467(4) ?
N3 H3A . 0.9100 ?
N3 H3B . 0.9100 ?
N3 C15 . 1.489(4) ?
N3 C16 . 1.484(4) ?
C1 C2 . 1.475(4) ?
C2 C3 . 1.428(4) ?
C2 C10 . 1.369(4) ?
C3 C4 . 1.457(4) ?
C4 C5 . 1.406(4) ?
C4 C9 . 1.407(4) ?
C5 H5 . 0.9500 ?
C5 C6 . 1.358(4) ?
C6 C7 . 1.419(4) ?
C7 C8 . 1.384(4) ?
C8 H8 . 0.9500 ?
C8 C9 . 1.394(4) ?
C10 H10 . 0.9500 ?
C11 H11 . 1.0000 ?
C11 C12 . 1.499(4) ?
C11 C13 . 1.492(4) ?
C12 H12A . 0.9900 ?
C12 H12B . 0.9900 ?
C12 C13 . 1.513(4) ?
C13 H13A . 0.9900 ?
C13 H13B . 0.9900 ?
C14 H14A . 0.9900 ?
C14 H14B . 0.9900 ?
C14 C15 . 1.517(4) ?
C15 H15A . 0.9900 ?
C15 H15B . 0.9900 ?
C16 H16A . 0.9900 ?
C16 H16B . 0.9900 ?
C16 C17 . 1.510(4) ?
C17 H17A . 0.9900 ?
C17 H17B . 0.9900 ?
O4 H4 . 0.8400 ?
O4 C18 . 1.320(4) ?
O5 C18 . 1.216(4) ?
O6 H6 . 0.8400 ?
O6 C21 . 1.356(4) ?
O7 H7 . 0.8400 ?
O7 C23 . 1.372(4) ?
C18 C19 . 1.501(4) ?
C19 C20 . 1.385(4) ?
C19 C24 . 1.395(4) ?
C20 H20 . 0.9500 ?
C20 C21 . 1.395(4) ?
C21 C22 . 1.399(4) ?
C22 H22 . 0.9500 ?
C22 C23 . 1.389(5) ?
C23 C24 . 1.398(4) ?
C24 H24 . 0.9500 ?
O8 H8A . 0.88(6) ?
O8 H8B . 0.82(6) ?
loop_
_geom_hbond_atom_site_label_D
_geom_hbond_atom_site_label_H
_geom_hbond_atom_site_label_A
_geom_hbond_site_symmetry_A
_geom_hbond_distance_DH
_geom_hbond_distance_HA
_geom_hbond_distance_DA
_geom_hbond_angle_DHA
_geom_hbond_publ_flag
O2 H2 O3 . 0.84 1.78 2.551(3) 152 yes
N3 H3A O1 1_564 0.91 1.75 2.652(3) 172 yes
N3 H3B Cl1 . 0.91 2.30 3.106(3) 148 yes
C10 H10 F1 1_545 0.95 2.46 3.158(4) 130 yes
C12 H12B O7 1_446 0.99 2.47 3.435(4) 166 yes
C14 H14B F1 . 0.99 2.27 2.927(3) 123 yes
C16 H16B Cl1 1_455 0.99 2.78 3.609(3) 142 yes
O4 H4 Cl1 . 0.84 2.28 3.082(2) 160 yes
O6 H6 Cl1 1_565 0.84 2.40 3.232(2) 170 yes
O7 H7 O8 . 0.84 1.96 2.769(3) 161 yes
O8 H8A Cl1 1_564 0.88(6) 2.51(6) 3.362(3) 164(4) yes
O8 H8B O5 1_554 0.82(6) 2.05(6) 2.865(4) 170(5) yes
loop_
_geom_torsion_atom_site_label_1
_geom_torsion_atom_site_label_2
_geom_torsion_atom_site_label_3
_geom_torsion_atom_site_label_4
_geom_torsion_site_symmetry_1
_geom_torsion_site_symmetry_2
_geom_torsion_site_symmetry_3
_geom_torsion_site_symmetry_4
_geom_torsion
_geom_torsion_publ_flag
F1 C6 C7 N2 . . . . -2.4(4) ?
F1 C6 C7 C8 . . . . -178.8(3) ?
O1 C1 C2 C3 . . . . -173.3(3) ?
O1 C1 C2 C10 . . . . 4.3(4) ?
O2 C1 C2 C3 . . . . 5.9(4) ?
O2 C1 C2 C10 . . . . -176.5(3) ?
O3 C3 C4 C5 . . . . 2.6(4) ?
O3 C3 C4 C9 . . . . -179.1(3) ?
N1 C11 C12 C13 . . . . -106.9(3) ?
N1 C11 C13 C12 . . . . 109.5(3) ?
N2 C7 C8 C9 . . . . -175.5(3) ?
N2 C14 C15 N3 . . . . -55.7(3) ?
N3 C16 C17 N2 . . . . 58.0(3) ?
C1 C2 C3 O3 . . . . -4.2(4) ?
C1 C2 C3 C4 . . . . 174.7(3) ?
C1 C2 C10 N1 . . . . -177.1(3) ?
C2 C3 C4 C5 . . . . -176.4(3) ?
C2 C3 C4 C9 . . . . 2.0(4) ?
C3 C2 C10 N1 . . . . 0.5(4) ?
C3 C4 C5 C6 . . . . 179.1(3) ?
C3 C4 C9 N1 . . . . 1.1(4) ?
C3 C4 C9 C8 . . . . -178.0(3) ?
C4 C5 C6 F1 . . . . 178.0(3) ?
C4 C5 C6 C7 . . . . -1.1(5) ?
C5 C4 C9 N1 . . . . 179.5(3) ?
C5 C4 C9 C8 . . . . 0.4(4) ?
C5 C6 C7 N2 . . . . 176.7(3) ?
C5 C6 C7 C8 . . . . 0.3(4) ?
C6 C7 C8 C9 . . . . 0.8(4) ?
C7 N2 C14 C15 . . . . -167.8(2) ?
C7 N2 C17 C16 . . . . 166.7(2) ?
C7 C8 C9 N1 . . . . 179.7(3) ?
C7 C8 C9 C4 . . . . -1.2(4) ?
C9 N1 C10 C2 . . . . 2.9(4) ?
C9 N1 C11 C12 . . . . -70.4(4) ?
C9 N1 C11 C13 . . . . -140.3(3) ?
C9 C4 C5 C6 . . . . 0.7(4) ?
C10 N1 C9 C4 . . . . -3.6(4) ?
C10 N1 C9 C8 . . . . 175.5(3) ?
C10 N1 C11 C12 . . . . 117.4(3) ?
C10 N1 C11 C13 . . . . 47.5(4) ?
C10 C2 C3 O3 . . . . 178.2(3) ?
C10 C2 C3 C4 . . . . -2.9(4) ?
C11 N1 C9 C4 . . . . -175.7(2) ?
C11 N1 C9 C8 . . . . 3.4(4) ?
C11 N1 C10 C2 . . . . 175.1(3) ?
C14 N2 C7 C6 . . . . 62.4(4) ?
C14 N2 C7 C8 . . . . -121.4(3) ?
C14 N2 C17 C16 . . . . -59.9(3) ?
C15 N3 C16 C17 . . . . -56.1(3) ?
C16 N3 C15 C14 . . . . 54.5(3) ?
C17 N2 C7 C6 . . . . -166.4(3) ?
C17 N2 C7 C8 . . . . 9.8(4) ?
C17 N2 C14 C15 . . . . 59.2(3) ?
O4 C18 C19 C20 . . . . -168.3(3) ?
O4 C18 C19 C24 . . . . 11.9(4) ?
O5 C18 C19 C20 . . . . 11.1(5) ?
O5 C18 C19 C24 . . . . -168.6(3) ?
O6 C21 C22 C23 . . . . -179.4(3) ?
O7 C23 C24 C19 . . . . -177.1(3) ?
C18 C19 C20 C21 . . . . 178.9(3) ?
C18 C19 C24 C23 . . . . 179.2(3) ?
C19 C20 C21 O6 . . . . -178.9(3) ?
C19 C20 C21 C22 . . . . 1.4(4) ?
C20 C19 C24 C23 . . . . -0.5(4) ?
C20 C21 C22 C23 . . . . 0.3(4) ?
C21 C22 C23 O7 . . . . 177.1(3) ?
C21 C22 C23 C24 . . . . -2.2(4) ?
C22 C23 C24 C19 . . . . 2.3(4) ?
C24 C19 C20 C21 . . . . -1.3(4) ?

_cod_database_fobs_code 2244034
