#------------------------------------------------------------------------------
#$Date: 2022-09-01 05:10:09 +0300 (Thu, 01 Sep 2022) $
#$Revision: 277534 $
#$URL: file:///home/coder/svn-repositories/cod/cif/2/24/41/2244156.cif $
#------------------------------------------------------------------------------
#
# This file is available in the Crystallography Open Database (COD),
# http://www.crystallography.net/. The original data for this entry
# were provided by IUCr Journals, http://journals.iucr.org/.
#
# The file may be used within the scientific community so long as
# proper attribution is given to the journal article from which the
# data were obtained.
#
data_2244156
loop_
_publ_author_name
'Bettinger, Reuben T.'
'Squattrito, Philip J.'
'Aulakh, Darpandeep'
'Gianopoulos, Christopher G.'
_publ_section_title
;
 Crystal structures of two new divalent transition-metal salts of
 carboxybenzenesulfonate anions
;
_journal_coeditor_code           MW2190
_journal_issue                   9
_journal_name_full               'Acta Crystallographica Section E'
_journal_page_first              961
_journal_page_last               965
_journal_paper_doi               10.1107/S2056989022008295
_journal_volume                  78
_journal_year                    2022
_chemical_formula_iupac          '[Co (H2 O1)6] (C7 H5 O5 S)2, 2H2 O'
_chemical_formula_moiety         'Co H12 O6 2+, 2(C7 H5 O5 S -), 2(H2 O)'
_chemical_formula_sum            'C14 H26 Co O18 S2'
_chemical_formula_weight         605.40
_chemical_name_common
;
Hexaaquacobalt(II) bis(3-carboxy-4-hydroxybenzenesulfonate) dihydrate
;
_space_group_crystal_system      triclinic
_space_group_IT_number           2
_space_group_name_Hall           '-P 1'
_space_group_name_H-M_alt        'P -1'
_atom_sites_solution_hydrogens   difmap
_atom_sites_solution_primary     dual
_atom_sites_solution_secondary   difmap
_audit_creation_method           SHELXL-2018/3
_cell_angle_alpha                91.107(2)
_cell_angle_beta                 90.401(2)
_cell_angle_gamma                117.5832(19)
_cell_formula_units_Z            1
_cell_length_a                   6.7774(11)
_cell_length_b                   6.9866(11)
_cell_length_c                   13.721(2)
_cell_measurement_reflns_used    4422
_cell_measurement_temperature    150(2)
_cell_measurement_theta_max      28.33
_cell_measurement_theta_min      2.97
_cell_volume                     575.66(16)
_computing_cell_refinement       'SAINT (Bruker, 2015)'
_computing_data_collection       'APEX3 (Bruker, 2015)'
_computing_data_reduction        'SAINT (Bruker, 2015)'
_computing_molecular_graphics    'CrystalMaker (Palmer, 2014)'
_computing_structure_refinement  '<i>SHELXL2018/3</i> (Sheldrick, 2015b)'
_computing_structure_solution    '<i>SHELXT2014/5</i> (Sheldrick, 2015a)'
_diffrn_ambient_temperature      150(2)
_diffrn_measured_fraction_theta_full 1.000
_diffrn_measured_fraction_theta_max 0.998
_diffrn_measurement_device_type  'Bruker Duo with APEXII CCD'
_diffrn_measurement_method       '\w scans'
_diffrn_radiation_type           MoK\a
_diffrn_radiation_wavelength     0.71073
_diffrn_reflns_av_R_equivalents  0.0200
_diffrn_reflns_av_unetI/netI     0.0223
_diffrn_reflns_limit_h_max       9
_diffrn_reflns_limit_h_min       -9
_diffrn_reflns_limit_k_max       9
_diffrn_reflns_limit_k_min       -9
_diffrn_reflns_limit_l_max       18
_diffrn_reflns_limit_l_min       -18
_diffrn_reflns_number            8197
_diffrn_reflns_theta_full        26.000
_diffrn_reflns_theta_max         28.371
_diffrn_reflns_theta_min         2.970
_diffrn_source                   'fine focus sealed tube'
_exptl_absorpt_coefficient_mu    1.014
_exptl_absorpt_correction_T_max  0.7457
_exptl_absorpt_correction_T_min  0.6884
_exptl_absorpt_correction_type   multi-scan
_exptl_absorpt_process_details   '(SADABS; Krause et al., 2015)'
_exptl_crystal_colour            red-pink
_exptl_crystal_density_diffrn    1.746
_exptl_crystal_description       plate
_exptl_crystal_F_000             313
_exptl_crystal_size_max          0.300
_exptl_crystal_size_mid          0.140
_exptl_crystal_size_min          0.080
_refine_diff_density_max         0.406
_refine_diff_density_min         -0.426
_refine_ls_extinction_method     none
_refine_ls_goodness_of_fit_ref   1.049
_refine_ls_hydrogen_treatment    mixed
_refine_ls_matrix_type           full
_refine_ls_number_parameters     196
_refine_ls_number_reflns         2881
_refine_ls_number_restraints     9
_refine_ls_restrained_S_all      1.048
_refine_ls_R_factor_all          0.0286
_refine_ls_R_factor_gt           0.0239
_refine_ls_shift/su_max          0.000
_refine_ls_shift/su_mean         0.000
_refine_ls_structure_factor_coef Fsqd
_refine_ls_weighting_details
'w=1/[\s^2^(Fo^2^)+(0.0300P)^2^+0.2552P] where P=(Fo^2^+2Fc^2^)/3'
_refine_ls_weighting_scheme      calc
_refine_ls_wR_factor_gt          0.0595
_refine_ls_wR_factor_ref         0.0619
_reflns_number_gt                2578
_reflns_number_total             2881
_reflns_threshold_expression     'I > 2\s(I)'
_cod_data_source_file            mw2190sup1.cif
_cod_data_source_block           II
_cod_database_code               2244156
_shelx_space_group_comment
;
The symmetry employed for this shelxl refinement is uniquely defined
by the following loop, which should always be used as a source of
symmetry information in preference to the above space-group names.
They are only intended as comments.
;
_shelx_hkl_file
;
  -1   0   0    0.90    0.70
  -1   0   0    0.00    0.50
   1   0   0    0.70    0.60
   1   0   0    1.30    0.70
  -2   0   0  499.65    8.00
  -2   0   0  482.85    9.00
   2   0   0  484.35    9.00
   2   0   0  500.85    8.50
  -3   0   0 2567.64   39.40
  -3   0   0 2615.74   37.70
   3   0   0 2579.74   39.60
   3   0   0 2639.14   38.50
  -4   0   0  179.78    6.00
  -4   0   0  181.78    4.50
   4   0   0  169.18    5.00
   4   0   0  178.18    6.00
  -5   0   0   11.40    2.50
   5   0   0    8.00    2.30
   5   0   0   12.00    2.10
  -6   0   0   19.80    3.30
   6   0   0   19.50    3.30
  -7   0   0   -3.40    2.10
   7   0   0   -1.90    2.10
  -8   0   0   66.09    6.70
   8   0   0   62.89    6.30
   8  -1   0  162.88    8.30
  -8   1   0  154.08    8.20
   7  -1   0  265.77    9.60
  -7   1   0  263.67    9.70
   6  -1   0    6.10    2.20
   6  -1   0    7.70    2.20
  -6   1   0   11.50    2.80
   5  -1   0  201.88    6.70
   5  -1   0  195.78    6.20
  -5   1   0  196.78    6.80
   4  -1   0  426.36    9.20
   4  -1   0  422.46    9.50
  -4   1   0  418.96    7.50
  -4   1   0  435.26    9.70
   3  -1   0  124.69    4.00
   3  -1   0  120.99    3.90
  -3   1   0  122.89    2.90
  -3   1   0  120.19    4.00
   2  -1   0 2681.73   38.30
   2  -1   0 2687.23   38.70
  -2   1   0 2648.44   37.50
  -2   1   0 2587.84   38.60
   1  -1   0   15.50    0.80
   1  -1   0   16.90    1.30
  -1   1   0   14.10    1.10
  -1   1   0   13.20    1.00
   0  -1   0  109.59    2.10
   0  -1   0  105.99    2.60
   0   1   0  108.89    2.20
  -1  -1   0 6324.37   90.99
   1   1   0 6587.74   89.39
   1   1   0 5983.20   88.29
   1   1   0 6168.98   89.69
  -2  -1   0  355.36    7.10
   2   1   0  363.36    7.70
   2   1   0  357.06    7.70
   2   1   0  371.16    6.50
  -3  -1   0    1.10    1.10
  -3  -1   0    3.20    1.40
   3   1   0    0.90    1.40
   3   1   0    1.40    1.00
  -4  -1   0 1783.92   27.80
  -4  -1   0 1821.82   30.10
   4   1   0 1720.53   30.10
   4   1   0 1757.92   27.60
  -5  -1   0   26.20    3.60
   5   1   0   31.00    4.00
  -6  -1   0    9.90    3.00
   6   1   0   10.10    2.90
  -7  -1   0  105.59    6.70
   7   1   0  110.59    7.20
   8  -2   0   -2.80    4.20
   8  -2   0    0.80    2.30
  -8   2   0    3.10    2.70
   7  -2   0   59.89    4.70
   7  -2   0   56.29    4.50
  -7   2   0   46.40    4.70
   6  -2   0  411.46   10.60
   6  -2   0  403.36   10.50
  -6   2   0  394.66   10.90
   5  -2   0   40.50    3.30
   5  -2   0   44.50    3.10
  -5   2   0   42.70    2.00
  -5   2   0   42.10    3.70
   4  -2   0  446.86    9.20
   4  -2   0  455.75    9.90
  -4   2   0  454.95    9.90
  -4   2   0  436.36    7.90
   3  -2   0    3.50    1.30
   3  -2   0    6.60    1.20
  -3   2   0    6.80    1.60
  -3   2   0    7.50    1.10
   2  -2   0   77.19    2.00
   2  -2   0   84.69    3.20
  -2   2   0   74.59    2.50
  -2   2   0   75.79    3.00
   1  -2   0  931.41   14.50
  -1   2   0  912.91   14.80
  -1   2   0  920.51   13.20
   0  -2   0 1126.89   17.00
   0  -2   0 1154.48   18.20
   0   2   0 1150.78   17.30
   0   2   0 1131.89   18.10
  -1  -2   0  594.24   11.10
   1   2   0  623.74   11.30
   1   2   0  604.94   11.00
   1   2   0  621.54    9.60
  -2  -2   0  448.16    9.20
   2   2   0  463.85    7.80
   2   2   0  453.35    9.80
   2   2   0  453.05    9.80
  -3  -2   0  112.69    4.90
  -3  -2   0   98.39    4.00
   3   2   0   94.49    3.10
   3   2   0   90.79    4.40
  -4  -2   0    7.70    1.90
  -4  -2   0   11.60    2.70
   4   2   0    5.10    2.10
  -5  -2   0  158.58    7.30
   5   2   0  150.68    7.10
  -6  -2   0   19.90    3.80
   6   2   0   18.60    3.50
   8  -3   0  172.68    7.70
   8  -3   0  188.98    8.20
  -8   3   0  182.78    8.60
   7  -3   0   30.60    3.70
   7  -3   0   41.30    4.50
  -7   3   0   33.70    4.40
   6  -3   0    7.70    2.20
   6  -3   0    6.80    1.90
  -6   3   0    7.80    2.40
   5  -3   0  143.19    4.80
   5  -3   0  144.09    5.70
  -5   3   0  143.89    5.70
  -5   3   0  137.39    3.90
   4  -3   0  825.72   15.70
   4  -3   0  830.22   14.00
  -4   3   0  818.52   13.90
  -4   3   0  827.62   15.60
   3  -3   0   29.90    2.70
   3  -3   0   25.80    1.40
  -3   3   0   31.00    2.70
  -3   3   0   27.60    2.00
   2  -3   0    3.90    1.20
  -2   3   0    5.40    0.50
  -2   3   0    4.10    1.30
  -2   3   0    3.60    1.30
   1  -3   0    3.30    1.10
  -1   3   0    4.80    1.50
  -1   3   0    4.80    0.80
  -1   3   0    3.20    1.20
   0  -3   0 3220.68   47.00
   0  -3   0 3341.67   49.10
   0   3   0 3311.17   47.50
   0   3   0 3229.48   48.80
  -1  -3   0  176.58    5.60
  -1  -3   0  181.48    3.90
   1   3   0  173.68    5.20
   1   3   0  177.68    5.70
  -2  -3   0   23.50    2.60
   2   3   0   17.70    2.50
   2   3   0   25.00    2.80
  -3  -3   0   94.69    4.60
   3   3   0   86.29    4.80
   3   3   0   89.79    5.00
  -4  -3   0  140.19    6.70
  -4  -3   0  156.58    6.10
   4   3   0  160.38    7.20
  -5  -3   0   38.70    4.60
   5   3   0   36.40    4.90
  -6  -3   0    5.00    3.20
   6   3   0    0.30    2.60
   9  -4   0   13.20    3.80
  -9   4   0   13.30    3.90
   8  -4   0   13.30    3.20
  -8   4   0    7.30    3.00
   7  -4   0  184.98    6.70
   7  -4   0  178.38    7.80
  -7   4   0  166.98    7.70
   6  -4   0   98.99    4.30
   6  -4   0  109.79    5.70
  -6   4   0   92.69    5.40
   5  -4   0    2.30    1.20
   5  -4   0    2.80    2.00
  -5   4   0   -0.10    1.50
  -5   4   0    2.60    1.30
   4  -4   0    3.80    1.80
  -4   4   0    3.40    1.80
  -4   4   0    1.50    0.80
  -4   4   0    3.00    1.30
   3  -4   0  496.25   10.60
  -3   4   0  480.75   10.10
  -3   4   0  483.75   10.60
   2  -4   0   60.89    3.10
  -2   4   0   59.09    1.50
  -2   4   0   54.99    3.20
  -2   4   0   61.59    3.30
   1  -4   0  854.51   16.20
   1  -4   0  851.81   14.70
  -1   4   0  881.11   16.10
  -1   4   0  849.72   13.70
   0  -4   0  615.24   13.00
   0  -4   0  618.94   10.90
   0   4   0  612.14   11.40
   0   4   0  617.44   12.70
  -1  -4   0   10.30    1.20
  -1  -4   0    7.80    2.00
   1   4   0   13.30    2.30
   1   4   0    8.80    1.80
  -2  -4   0  847.72   17.00
   2   4   0  838.72   17.00
   2   4   0  838.42   17.40
  -3  -4   0  179.98    7.10
   3   4   0  185.98    7.50
   3   4   0  186.08    7.60
  -4  -4   0   58.19    4.50
  -4  -4   0   43.70    5.00
   4   4   0   50.29    5.30
  -5  -4   0   50.99    5.80
   5   4   0   55.09    5.80
   9  -5   0   37.20    5.10
  -9   5   0   30.50    4.70
   8  -5   0  207.98    9.20
  -8   5   0  209.28    9.20
   7  -5   0  138.19    7.10
  -7   5   0  122.29    6.80
   6  -5   0   59.19    5.20
  -6   5   0   42.50    4.30
   5  -5   0  107.89    5.40
  -5   5   0  118.59    4.70
  -5   5   0  124.29    5.70
   4  -5   0    8.40    2.30
  -4   5   0   14.50    2.30
  -4   5   0    9.90    2.30
   3  -5   0  316.87    8.50
  -3   5   0  322.67    8.80
  -3   5   0  333.27    8.60
   2  -5   0   77.59    4.40
   2  -5   0   76.99    3.70
  -2   5   0   72.39    4.20
   1  -5   0   42.10    4.00
   1  -5   0   41.50    2.70
  -1   5   0   43.60    3.50
  -1   5   0   41.50    2.30
   0  -5   0  157.18    4.50
   0  -5   0  160.08    6.50
   0   5   0  152.48    6.10
   0   5   0  158.58    5.10
  -1  -5   0  922.01   19.20
   1   5   0  905.51   19.00
   1   5   0  954.60   17.90
  -2  -5   0    4.20    2.30
   2   5   0    5.70    2.60
   2   5   0    3.30    2.20
  -3  -5   0  161.88    7.30
   3   5   0  160.78    7.40
   3   5   0  161.18    7.80
  -4  -5   0  147.69    7.90
   4   5   0  157.88    8.00
   8  -6   0    1.90    2.80
  -8   6   0    1.20    2.50
   7  -6   0  427.96   13.00
  -7   6   0  407.96   12.50
   6  -6   0   83.29    5.50
  -6   6   0   91.09    4.60
  -6   6   0   78.49    5.40
   5  -6   0   19.50    3.20
  -5   6   0   19.70    2.90
  -5   6   0   17.50    3.00
   4  -6   0  521.85   12.70
   4  -6   0  528.25   12.70
  -4   6   0  535.25   13.10
  -4   6   0  516.35   12.40
   3  -6   0    2.70    1.90
   3  -6   0    0.60    1.80
  -3   6   0    2.40    1.90
   2  -6   0    5.70    1.90
   2  -6   0    5.90    2.60
  -2   6   0    7.70    2.40
   1  -6   0  100.69    4.10
   1  -6   0  103.39    5.80
  -1   6   0  101.59    5.50
   0  -6   0   26.70    3.80
   0   6   0   29.20    3.70
  -1  -6   0  138.19    7.00
   1   6   0  139.19    8.70
   1   6   0  134.29    6.90
  -2  -6   0   62.79    5.90
   2   6   0   56.49    5.80
   2   6   0   53.39    4.60
  -3  -6   0    2.30    2.60
   3   6   0    3.40    2.40
   3   6   0   -0.70    2.40
   8  -7   0   61.09    6.30
  -8   7   0   67.59    6.60
   7  -7   0   35.40    4.90
  -7   7   0   24.50    4.20
   6  -7   0  300.57    9.60
   6  -7   0  299.27   10.50
  -6   7   0  290.07   10.40
   5  -7   0   97.59    5.90
   5  -7   0  101.99    5.80
  -5   7   0   90.69    5.90
   4  -7   0   67.29    4.70
   4  -7   0   64.59    4.90
  -4   7   0   65.59    5.00
   3  -7   0  144.59    7.00
   3  -7   0  144.59    6.10
  -3   7   0  152.58    6.90
   2  -7   0   40.00    4.80
   2  -7   0   44.50    3.70
  -2   7   0   49.40    5.00
   1  -7   0    1.60    2.40
  -1   7   0    0.10    2.00
   0  -7   0  141.49    7.70
   0   7   0  135.59    7.10
  -1  -7   0    9.30    3.30
   1   7   0   13.50    3.70
  -2  -7   0   27.30    4.60
   2   7   0   31.30    4.80
   7  -8   0  227.68   10.00
  -7   8   0  241.38   10.20
   6  -8   0    4.60    2.90
   6  -8   0    6.30    3.00
  -6   8   0    4.40    2.90
   5  -8   0   96.29    6.30
   5  -8   0   95.89    6.10
  -5   8   0   93.09    6.30
   4  -8   0  184.48    7.60
   4  -8   0  190.08    8.70
  -4   8   0  187.78    8.50
   3  -8   0   10.20    3.10
  -3   8   0    6.60    3.00
   2  -8   0   78.69    6.00
  -2   8   0   68.69    5.50
   1  -8   0    8.80    3.30
  -1   8   0    3.80    2.90
   0  -8   0   25.60    4.50
   0   8   0   14.40    3.90
   6  -9   0  162.68    8.40
   6  -9   0  161.98    8.50
  -6   9   0  179.18    9.00
   5  -9   0    5.10    2.90
   5  -9   0   10.00    3.50
  -5   9   0    6.50    3.10
   4  -9   0  110.49    7.50
  -4   9   0  109.39    7.30
   3  -9   0  208.68   10.10
   2  -9   0    4.60    3.40
  -2   9   0    1.40    2.90
  -2   9  -1    3.80    3.10
   2  -9   1    9.00    3.80
  -3   9  -1   34.30    4.90
   3  -9   1   23.10    4.50
  -4   9  -1  264.87   10.80
   4  -9   1  272.37   11.10
  -5   9  -1    4.30    2.90
   5  -9   1   -1.10    2.40
   5  -9   1    0.80    2.90
  -6   9  -1   68.89    6.70
   6  -9   1   56.29    5.80
   6  -9   1   59.99    6.10
   0   8  -1   30.90    5.00
   0  -8   1   34.00    5.20
  -1   8  -1   46.20    5.60
   1  -8   1   45.70    5.70
  -2   8  -1   54.49    5.60
   2  -8   1   69.69    6.60
  -3   8  -1   90.09    6.20
   3  -8   1   91.79    6.30
  -4   8  -1    5.30    2.70
   4  -8   1    7.60    2.70
   4  -8   1    9.40    2.90
  -5   8  -1   71.59    5.70
   5  -8   1   63.69    5.80
   5  -8   1   60.89    5.70
  -6   8  -1    2.00    2.70
   6  -8   1    1.20    2.40
   6  -8   1   -0.70    2.30
  -7   8  -1    9.50    3.30
   7  -8   1    6.30    3.30
   2   7  -1   78.49    7.10
  -2  -7   1   76.59    6.50
   1   7  -1   19.00    3.90
  -1  -7   1   18.60    4.00
   0   7  -1  139.79    7.20
   0  -7   1  138.19    7.30
  -1   7  -1  107.29    6.40
   1  -7   1  112.79    6.80
  -2   7  -1    9.90    2.80
   2  -7   1   13.60    3.10
  -3   7  -1  481.85   13.20
   3  -7   1  511.15   12.00
   3  -7   1  466.95   13.10
  -4   7  -1   33.20    4.20
   4  -7   1   24.00    3.60
   4  -7   1   30.70    3.80
  -5   7  -1   13.40    3.10
   5  -7   1   18.60    3.30
   5  -7   1   17.00    3.30
  -6   7  -1  225.68    9.20
   6  -7   1  223.48    8.80
  -7   7  -1  156.78    8.10
   7  -7   1  154.28    8.00
  -8   7  -1    3.40    2.80
   8  -7   1    0.60    2.80
   3   6  -1    6.30    2.90
   3   6  -1    6.70    2.90
  -3  -6   1   14.20    3.70
   2   6  -1    0.50    2.00
   2   6  -1    3.50    2.60
  -2  -6   1    1.20    2.50
   1   6  -1  118.09    5.60
   1   6  -1  116.99    6.50
  -1  -6   1  112.89    6.50
   0   6  -1   47.00    4.50
   0  -6   1   35.00    4.10
  -1   6  -1   63.49    4.70
   1  -6   1   56.79    4.70
  -2   6  -1  162.28    6.80
   2  -6   1  177.38    7.20
   2  -6   1  185.38    6.00
  -3   6  -1    3.20    2.10
   3  -6   1    4.60    2.30
   3  -6   1    7.20    2.00
  -4   6  -1  422.76   11.40
   4  -6   1  449.36   11.30
   4  -6   1  440.16   11.30
  -5   6  -1  373.76   11.00
   5  -6   1  396.56   10.30
   5  -6   1  392.36   11.00
  -6   6  -1    7.60    2.50
   6  -6   1    9.30    2.80
  -7   6  -1  187.98    8.20
   7  -6   1  196.98    8.50
  -8   6  -1   95.79    6.70
   8  -6   1   99.59    6.60
   4   5  -1   51.59    5.50
  -4  -5   1   52.99    5.40
  -4  -5   1   50.69    5.70
   3   5  -1  186.88    7.90
   3   5  -1  170.38    7.90
  -3  -5   1  171.98    7.80
   2   5  -1   88.69    5.60
   2   5  -1   87.99    5.10
  -2  -5   1   73.29    5.10
   1   5  -1   29.10    3.20
   1   5  -1   39.00    4.20
  -1  -5   1   29.20    3.70
   0   5  -1  206.18    6.00
   0   5  -1  200.08    7.20
   0  -5   1  210.48    7.50
  -1   5  -1    7.90    2.10
  -1   5  -1   10.40    1.60
   1  -5   1    6.40    2.10
   1  -5   1    7.00    1.60
  -2   5  -1   93.29    3.90
  -2   5  -1  109.29    4.90
   2  -5   1   95.59    4.10
   2  -5   1  101.49    4.80
  -3   5  -1  401.06   10.20
   3  -5   1  410.46    9.80
   3  -5   1  425.36   10.10
  -4   5  -1  380.96    9.00
  -4   5  -1  340.37    9.60
   4  -5   1  390.06    9.30
   4  -5   1  369.56    9.80
  -5   5  -1    7.10    1.70
  -5   5  -1    6.50    2.30
   5  -5   1    6.10    2.30
  -6   5  -1  303.57    9.70
   6  -5   1  307.17    9.90
  -7   5  -1    3.60    2.50
   7  -5   1    7.70    3.00
  -8   5  -1   75.89    6.10
   8  -5   1   75.89    6.10
  -9   5  -1   31.30    4.90
   9  -5   1   41.30    5.20
   5   4  -1   64.69    6.50
  -5  -4   1   56.79    6.00
   4   4  -1  254.97    9.70
  -4  -4   1  242.48    8.70
  -4  -4   1  256.07    9.70
   3   4  -1    3.20    2.10
   3   4  -1    4.40    2.40
  -3  -4   1    0.00    1.90
   2   4  -1   98.89    4.90
   2   4  -1   93.59    5.00
  -2  -4   1   85.49    4.80
   1   4  -1  503.05   10.90
   1   4  -1  514.05   11.80
  -1  -4   1  507.05   11.80
   0   4  -1  129.39    4.20
   0   4  -1  129.79    5.10
   0  -4   1  127.49    3.50
   0  -4   1  127.69    5.10
  -1   4  -1    1.80    1.00
  -1   4  -1    3.50    1.60
   1  -4   1    4.50    1.20
   1  -4   1    1.80    1.50
  -2   4  -1  534.45   11.30
  -2   4  -1  534.75    8.70
   2  -4   1  541.55   11.20
   2  -4   1  545.85   10.70
  -3   4  -1   45.40    1.70
  -3   4  -1   44.20    2.80
  -3   4  -1   48.20    3.10
   3  -4   1   41.60    3.00
  -4   4  -1    3.30    1.00
  -4   4  -1    0.30    1.10
  -4   4  -1    1.80    1.70
   4  -4   1    2.90    1.80
  -5   4  -1  107.29    3.70
  -5   4  -1   92.39    4.90
   5  -4   1  103.89    3.80
   5  -4   1   92.89    5.00
  -6   4  -1   33.30    3.70
   6  -4   1   34.80    3.20
   6  -4   1   31.80    3.90
  -7   4  -1  359.06   11.20
   7  -4   1  370.76    9.90
   7  -4   1  360.26   11.30
  -8   4  -1   23.90    4.20
   8  -4   1   17.90    3.70
  -9   4  -1    8.80    3.50
   9  -4   1    8.40    3.50
   6   3  -1  160.88    8.40
  -6  -3   1  163.08    8.60
   5   3  -1    2.90    2.50
  -5  -3   1    5.50    2.90
   4   3  -1   77.29    5.00
  -4  -3   1   81.79    4.80
  -4  -3   1   76.29    5.20
   3   3  -1  920.91   18.70
   3   3  -1  960.30   18.90
  -3  -3   1  936.41   18.00
   2   3  -1  128.09    5.20
   2   3  -1  126.79    5.10
  -2  -3   1  131.39    5.10
   1   3  -1   20.70    2.30
   1   3  -1   18.00    2.10
  -1  -3   1   20.70    1.10
  -1  -3   1   22.80    2.60
   0   3  -1 3311.67   47.70
   0   3  -1 3238.18   48.70
   0  -3   1 3327.87   46.70
   0  -3   1 3207.18   48.90
  -1   3  -1   16.00    1.90
  -1   3  -1   18.60    1.40
   1  -3   1   21.70    1.80
   1  -3   1   16.50    2.00
  -2   3  -1  411.16    8.20
  -2   3  -1  417.16    8.70
  -2   3  -1  420.86    6.90
   2  -3   1  398.66    8.30
  -3   3  -1  211.98    5.10
  -3   3  -1  216.48    6.00
  -3   3  -1  215.88    4.60
   3  -3   1  222.28    6.00
  -4   3  -1   11.70    1.40
  -4   3  -1   10.20    2.00
   4  -3   1    9.80    1.50
   4  -3   1   11.90    2.10
  -5   3  -1  296.57    8.50
  -5   3  -1  303.37    6.10
   5  -3   1  300.77    7.50
   5  -3   1  309.97    8.60
  -6   3  -1  161.88    6.80
   6  -3   1  167.08    6.60
   6  -3   1  157.28    5.80
  -7   3  -1   42.60    4.60
   7  -3   1   43.00    4.30
   7  -3   1   46.10    4.20
  -8   3  -1  105.29    6.80
   8  -3   1  109.79    6.50
   8  -3   1   99.49    6.00
   6   2  -1   -2.60    2.00
  -6  -2   1    1.00    2.50
   5   2  -1  190.88    8.00
  -5  -2   1  187.48    7.70
   4   2  -1  176.78    7.10
  -4  -2   1  192.38    6.30
  -4  -2   1  184.78    7.10
   3   2  -1   92.99    4.40
   3   2  -1   97.29    4.60
  -3  -2   1   89.29    4.00
  -3  -2   1   91.19    4.40
   2   2  -1 2241.58   35.60
   2   2  -1 2357.76   32.60
   2   2  -1 2299.47   35.80
  -2  -2   1 2283.47   35.40
   1   2  -1  187.88    4.90
   1   2  -1  191.58    5.10
  -1  -2   1  188.18    3.10
  -1  -2   1  182.08    5.00
   0   2  -1 1068.19   17.00
   0   2  -1 1070.89   16.40
   0  -2   1 1073.29   15.70
   0  -2   1 1036.40   17.10
  -1   2  -1 1566.54   22.30
  -1   2  -1 1499.35   23.40
   1  -2   1 1548.84   23.40
   1  -2   1 1568.74   23.10
  -2   2  -1  472.75    8.90
  -2   2  -1  463.35    8.10
   2  -2   1  477.35    7.80
   2  -2   1  469.15    8.90
  -3   2  -1  179.48    5.10
  -3   2  -1  176.08    3.80
   3  -2   1  178.98    4.50
   3  -2   1  180.68    5.20
  -4   2  -1 1638.14   23.80
  -4   2  -1 1659.63   26.70
   4  -2   1 1633.54   26.00
   4  -2   1 1582.84   26.70
  -5   2  -1  144.09    5.70
   5  -2   1  151.48    5.70
   5  -2   1  155.98    5.50
  -6   2  -1   10.20    2.60
   6  -2   1    9.00    2.50
   6  -2   1   11.30    2.40
  -7   2  -1  400.16   11.90
   7  -2   1  410.66   11.40
   7  -2   1  421.16   11.80
  -8   2  -1   52.89    5.70
   8  -2   1   55.59    5.70
   8  -2   1   59.79    5.60
   7   1  -1   70.29    5.90
  -7  -1   1   66.39    6.20
   6   1  -1    5.00    2.40
  -6  -1   1    3.90    2.40
   5   1  -1   51.09    4.10
  -5  -1   1   49.00    4.50
   4   1  -1  348.37    9.40
   4   1  -1  352.16    7.30
  -4  -1   1  345.97    9.20
  -4  -1   1  349.96    8.10
   3   1  -1  305.47    7.90
   3   1  -1  315.97    6.20
  -3  -1   1  318.77    7.90
  -3  -1   1  323.77    7.20
   2   1  -1  256.67    6.30
   2   1  -1  261.17    4.70
   2   1  -1  250.37    6.10
  -2  -1   1  254.27    5.70
   1   1  -1 1615.04   24.70
   1   1  -1 1698.53   24.90
  -1  -1   1 1631.04   24.70
   0   1  -1  981.50   14.50
   0  -1   1  972.80   14.00
  -1   1  -1  395.16    6.30
   1  -1   1  385.16    6.20
  -2   1  -1 2080.59   28.90
  -2   1  -1 2067.49   30.50
   2  -1   1 2042.50   30.60
   2  -1   1 2028.50   30.20
  -3   1  -1  214.68    3.60
  -3   1  -1  217.28    5.70
   3  -1   1  215.08    5.50
   3  -1   1  204.68    5.40
  -4   1  -1    8.80    1.80
  -4   1  -1   11.50    0.90
   4  -1   1   11.60    2.00
   4  -1   1    9.80    1.80
  -5   1  -1  275.37    8.10
   5  -1   1  274.27    8.10
   5  -1   1  271.17    7.60
  -6   1  -1   12.60    2.80
   6  -1   1   25.20    3.20
   6  -1   1   15.20    2.90
  -7   1  -1    0.10    2.10
   7  -1   1    1.60    2.00
   7  -1   1   -0.40    2.00
  -8   1  -1  217.98    9.60
   8  -1   1  210.38    9.40
   8   0  -1  106.69    7.10
  -8   0   1  105.99    7.40
   7   0  -1   13.80    3.30
  -7   0   1   17.60    3.70
   6   0  -1   40.70    4.40
  -6   0   1   42.80    4.50
   5   0  -1   68.79    3.60
   5   0  -1   78.19    4.60
  -5   0   1   74.49    4.40
  -5   0   1   72.39    3.60
   4   0  -1   35.00    2.90
   4   0  -1   39.10    2.50
  -4   0   1   36.80    2.90
  -4   0   1   41.90    2.40
   3   0  -1  702.83   12.00
   3   0  -1  697.83   13.10
  -3   0   1  700.63   12.90
  -3   0   1  692.23   11.80
   2   0  -1   23.00    1.90
   2   0  -1   26.30    1.60
  -2   0   1   29.50    1.80
  -2   0   1   26.10    1.90
   1   0  -1    0.90    0.70
   1   0  -1    1.00    0.60
  -1   0   1    0.20    0.70
  -1   0   1    1.30    0.70
   0   0  -1    0.00    0.20
   0   0   1    0.20    0.20
   0   0   1    0.00    0.20
  -1   0  -1 2457.15   35.70
   1   0   1 2587.94   35.90
   1   0   1 2469.85   35.70
  -2   0  -1  264.57    5.80
  -2   0  -1  277.77    4.70
   2   0   1  282.07    5.70
   2   0   1  275.67    6.00
  -3   0  -1  154.58    3.40
  -3   0  -1  153.98    4.80
   3   0   1  153.28    4.40
   3   0   1  157.38    5.00
  -4   0  -1  382.76    9.30
  -4   0  -1  390.46    7.10
   4   0   1  385.56    8.60
   4   0   1  388.56    9.50
  -5   0  -1  183.38    6.60
   5   0   1  177.88    6.80
   5   0   1  174.48    5.80
  -6   0  -1  103.19    5.70
   6   0   1  107.09    5.90
   6   0   1  105.09    5.50
  -7   0  -1   31.10    4.20
   7   0   1   36.00    4.80
  -8   0  -1    8.20    3.50
   8   0   1    6.20    3.20
   8  -1  -1    4.10    2.60
  -8   1   1    3.40    2.90
   7  -1  -1   82.59    5.60
  -7   1   1   88.59    5.70
   6  -1  -1  131.69    6.10
   6  -1  -1  130.39    5.50
  -6   1   1  136.19    6.30
   5  -1  -1   86.59    4.50
   5  -1  -1   84.79    4.00
  -5   1   1   89.99    4.50
  -5   1   1   90.09    3.30
   4  -1  -1 1240.48   21.40
   4  -1  -1 1246.68   20.90
  -4   1   1 1248.78   21.50
  -4   1   1 1306.17   19.80
   3  -1  -1  130.79    4.00
   3  -1  -1  127.99    4.00
  -3   1   1  135.79    4.20
  -3   1   1  132.69    3.50
   2  -1  -1  155.98    4.00
   2  -1  -1  151.98    3.60
  -2   1   1  154.78    3.50
  -2   1   1  160.38    4.00
   1  -1  -1 4032.60   55.89
   1  -1  -1 3993.90   57.39
  -1   1   1 3642.74   56.59
  -1   1   1 4071.09   58.49
   0   1   1  268.27    5.00
   0   1   1  270.17    4.80
   0   1   1  273.17    4.60
   0   1   1  276.67    4.90
  -1  -1  -1 1903.51   27.30
   1   1   1 1862.71   27.10
   1   1   1 1885.51   27.60
   1   1   1 1794.02   27.60
  -2  -1  -1   80.39    2.70
  -2  -1  -1   84.89    3.40
   2   1   1   82.99    2.70
   2   1   1   79.19    3.30
  -3  -1  -1  324.17    8.10
  -3  -1  -1  334.07    6.80
   3   1   1  337.37    8.40
   3   1   1  334.37    7.10
  -4  -1  -1    2.50    1.20
  -4  -1  -1    3.90    1.90
   4   1   1    2.80    1.70
   4   1   1    4.20    1.40
  -5  -1  -1   17.40    2.90
   5   1   1   15.40    3.00
  -6  -1  -1   -1.50    2.20
   6   1   1   -1.10    1.90
  -7  -1  -1  146.09    7.90
   7   1   1  132.09    7.50
   8  -2  -1   79.69    5.80
  -8   2   1   77.39    6.00
   7  -2  -1   -0.40    1.90
   7  -2  -1   -1.30    1.90
  -7   2   1    5.30    2.60
   6  -2  -1    9.80    2.40
   6  -2  -1   10.80    2.50
  -6   2   1    6.70    2.40
   5  -2  -1  322.87    8.40
   5  -2  -1  309.77    8.00
  -5   2   1  311.37    6.60
  -5   2   1  314.17    8.50
   4  -2  -1   87.99    3.50
   4  -2  -1   90.79    4.00
  -4   2   1   87.99    4.00
  -4   2   1   91.69    3.00
   3  -2  -1 2094.19   32.10
   3  -2  -1 2091.89   30.80
  -3   2   1 2080.29   30.90
  -3   2   1 2066.39   31.90
   2  -2  -1 1354.66   19.30
   2  -2  -1 1333.37   21.10
  -2   2   1 1353.26   20.60
  -2   2   1 1315.97   20.80
   1  -2  -1  128.59    3.50
  -1   2   1  129.99    3.50
  -1   2   1  134.19    3.70
   0  -2  -1 9898.91  141.89
   0   2   1 9475.45  142.89
   0   2   1 9999.00  142.59
  -1  -2  -1  913.51   15.30
   1   2   1  913.11   15.50
   1   2   1  924.81   14.20
   1   2   1  891.01   15.20
  -2  -2  -1   30.30    2.30
   2   2   1   30.70    2.70
   2   2   1   30.40    1.80
   2   2   1   31.80    2.60
  -3  -2  -1  652.03   13.60
  -3  -2  -1  652.93   12.40
   3   2   1  649.64   11.60
   3   2   1  642.94   13.70
  -4  -2  -1   46.10    3.20
  -4  -2  -1   37.00    3.70
   4   2   1   37.90    3.80
  -5  -2  -1   43.00    4.50
   5   2   1   47.40    4.90
  -6  -2  -1   60.79    5.80
   6   2   1   43.70    5.00
   8  -3  -1    3.20    2.50
   8  -3  -1    2.00    2.40
  -8   3   1    0.20    2.70
   7  -3  -1  622.54   14.10
   7  -3  -1  602.44   14.80
  -7   3   1  610.44   15.30
   6  -3  -1    5.50    2.30
   6  -3  -1    3.90    1.80
  -6   3   1    5.20    2.10
   5  -3  -1    9.20    2.10
   5  -3  -1    7.50    1.60
  -5   3   1   10.10    1.60
  -5   3   1    6.90    2.10
   4  -3  -1    1.40    1.60
   4  -3  -1    2.10    0.90
  -4   3   1    1.10    1.00
  -4   3   1    1.70    1.50
   3  -3  -1  808.32   14.70
   3  -3  -1  817.62   12.30
  -3   3   1  795.32   14.50
  -3   3   1  795.02   13.90
   2  -3  -1  339.37    7.50
  -2   3   1  338.97    7.40
  -2   3   1  344.57    7.50
   1  -3  -1  445.96    8.50
  -1   3   1  445.26    7.10
  -1   3   1  438.86    8.90
  -1   3   1  446.66    9.10
   0  -3  -1  186.98    4.50
   0   3   1  186.18    4.50
   0   3   1  193.68    5.40
  -1  -3  -1 4097.59   58.59
  -1  -3  -1 3989.80   60.49
   1   3   1 4110.99   60.79
   1   3   1 4183.08   60.19
  -2  -3  -1  525.55   11.40
   2   3   1  541.55    9.50
   2   3   1  527.25   11.70
   2   3   1  549.15   11.90
  -3  -3  -1  233.68    7.00
   3   3   1  238.98    7.80
   3   3   1  228.18    7.70
  -4  -3  -1  534.75   12.20
  -4  -3  -1  538.25   13.80
   4   3   1  538.95   13.80
  -5  -3  -1  214.38    8.90
   5   3   1  200.98    8.70
  -6  -3  -1   17.10    4.10
   6   3   1   19.10    3.90
   9  -4  -1  295.27   11.20
  -9   4   1  301.57   11.70
   8  -4  -1   76.99    5.70
  -8   4   1   61.59    5.80
   7  -4  -1    4.50    2.40
  -7   4   1    6.50    2.60
   6  -4  -1  820.62   15.10
   6  -4  -1  791.42   17.30
  -6   4   1  799.92   17.30
   5  -4  -1    9.10    2.20
   5  -4  -1   12.10    1.60
  -5   4   1   14.20    2.00
  -5   4   1   14.20    2.60
   4  -4  -1    5.50    0.90
   4  -4  -1    7.60    2.00
  -4   4   1    4.90    1.80
  -4   4   1    6.40    1.60
   3  -4  -1   73.49    3.60
  -3   4   1   68.99    3.40
  -3   4   1   71.09    3.70
   2  -4  -1    3.90    1.40
  -2   4   1   -1.10    1.10
  -2   4   1    3.60    1.50
   1  -4  -1  611.44   11.60
  -1   4   1  613.24   10.20
  -1   4   1  628.24   12.50
  -1   4   1  623.34   12.60
   0  -4  -1   84.29    4.20
   0  -4  -1   91.19    3.20
   0   4   1   87.59    3.40
   0   4   1   94.99    4.20
  -1  -4  -1    3.00    1.80
  -1  -4  -1    3.20    1.10
   1   4   1    4.60    1.60
   1   4   1    0.30    1.60
  -2  -4  -1   62.89    4.10
   2   4   1   53.69    4.10
   2   4   1   62.39    4.00
  -3  -4  -1  493.15   12.10
   3   4   1  484.85   12.80
   3   4   1  492.75   12.70
  -4  -4  -1    3.30    2.70
   4   4   1    1.90    2.20
  -5  -4  -1    6.70    3.10
   5   4   1    7.80    3.20
   9  -5  -1    1.60    2.90
  -9   5   1    0.80    2.90
   8  -5  -1  154.38    8.00
  -8   5   1  167.48    8.30
   7  -5  -1   65.69    5.10
  -7   5   1   72.69    5.50
   6  -5  -1   82.69    5.40
  -6   5   1   86.99    5.40
  -6   5   1   94.49    4.40
   5  -5  -1  251.87    8.50
  -5   5   1  261.87    8.30
  -5   5   1  267.87    7.60
   4  -5  -1  452.95   11.10
  -4   5   1  455.35   10.50
  -4   5   1  446.56   11.00
   3  -5  -1   25.70    2.80
  -3   5   1   19.80    2.70
  -3   5   1   27.50    3.10
   2  -5  -1  449.86   10.10
  -2   5   1  447.76   10.60
  -2   5   1  441.66   10.70
   1  -5  -1   11.20    1.90
   1  -5  -1   10.90    2.30
  -1   5   1   14.20    1.50
  -1   5   1   15.00    2.40
   0  -5  -1   73.59    4.70
   0  -5  -1   63.59    3.00
   0   5   1   67.69    3.30
   0   5   1   71.69    4.40
  -1  -5  -1  236.28    8.30
   1   5   1  250.57    7.40
   1   5   1  241.18    8.30
  -2  -5  -1   24.80    3.50
   2   5   1   22.90    3.20
   2   5   1   29.10    3.90
  -3  -5  -1   -1.40    1.90
   3   5   1    1.00    2.00
   3   5   1   -2.10    1.90
  -4  -5  -1   38.40    5.00
   4   5   1   46.20    5.40
   8  -6  -1   30.50    4.70
  -8   6   1   33.10    4.80
   7  -6  -1  232.18    9.30
  -7   6   1  244.88    9.40
   6  -6  -1   88.49    5.80
  -6   6   1   80.89    4.60
  -6   6   1   84.49    5.50
   5  -6  -1   28.10    3.90
  -5   6   1   21.50    3.30
  -5   6   1   22.20    3.10
   4  -6  -1    5.60    2.40
  -4   6   1   11.20    2.80
  -4   6   1    6.90    2.30
   3  -6  -1  672.23   14.20
  -3   6   1  642.64   14.60
  -3   6   1  646.14   14.70
   2  -6  -1   14.80    2.40
   2  -6  -1   15.90    3.00
  -2   6   1   10.40    2.40
   1  -6  -1  119.19    6.10
   1  -6  -1  127.59    4.90
  -1   6   1  124.79    6.10
   0  -6  -1  425.16   12.00
   0   6   1  408.06   11.50
  -1  -6  -1   21.70    3.80
   1   6   1   17.60    3.30
  -2  -6  -1  197.78    8.50
   2   6   1  198.68    8.00
   2   6   1  203.88    8.70
  -3  -6  -1    8.70    3.20
   3   6   1    3.00    2.60
   3   6   1    2.20    2.40
   8  -7  -1  172.28    9.00
  -8   7   1  179.38    8.80
   7  -7  -1   30.30    4.50
  -7   7   1   30.70    4.60
   6  -7  -1   44.90    4.80
  -6   7   1   53.89    4.80
  -6   7   1   48.00    5.20
   5  -7  -1   55.39    5.20
  -5   7   1   54.09    4.50
  -5   7   1   63.99    5.20
   4  -7  -1   -0.10    2.00
   4  -7  -1    2.60    2.20
  -4   7   1    4.70    2.30
  -4   7   1    3.80    2.40
   3  -7  -1   68.09    5.10
   3  -7  -1   73.99    4.70
  -3   7   1   67.09    5.00
   2  -7  -1   78.79    5.50
   2  -7  -1   86.49    4.70
  -2   7   1   89.19    5.60
   1  -7  -1   46.40    5.20
  -1   7   1   39.20    4.70
   0  -7  -1   81.49    6.00
   0   7   1   83.09    5.90
  -1  -7  -1  233.28    9.80
   1   7   1  226.98    9.40
  -2  -7  -1    1.70    2.80
   2   7   1    4.70    3.10
   7  -8  -1  127.29    7.80
  -7   8   1  106.89    7.20
   6  -8  -1  194.08    8.90
   6  -8  -1  199.38    8.50
  -6   8   1  182.88    8.70
   5  -8  -1    6.30    2.90
   5  -8  -1    5.70    2.70
  -5   8   1    6.10    2.70
   4  -8  -1  153.68    7.10
   4  -8  -1  157.58    8.00
  -4   8   1  151.48    7.70
   3  -8  -1   25.90    3.80
   3  -8  -1   20.70    4.10
  -3   8   1   26.80    4.10
   2  -8  -1   27.90    4.50
  -2   8   1   23.20    4.00
   1  -8  -1   16.40    3.90
  -1   8   1   19.50    4.00
   0  -8  -1    0.50    2.70
   0   8   1   -2.30    2.70
   6  -9  -1   61.59    6.30
   6  -9  -1   65.09    6.50
  -6   9   1   57.99    6.00
   5  -9  -1  124.49    7.40
   5  -9  -1  145.39    8.20
  -5   9   1  151.78    8.20
   4  -9  -1   30.20    4.90
  -4   9   1   41.50    5.40
   3  -9  -1   34.30    5.20
  -3   9   1   21.30    4.10
  -3   9  -2  117.89    7.60
   3  -9   2  133.09    8.20
  -4   9  -2   -3.00    2.50
   4  -9   2    4.10    3.20
  -5   9  -2   31.10    5.00
   5  -9   2   39.40    5.20
   5  -9   2   35.90    4.70
  -6   9  -2   16.10    4.10
   6  -9   2   12.80    3.60
   0   8  -2  288.07   11.20
   0  -8   2  302.97   11.90
  -1   8  -2   16.00    3.60
   1  -8   2   23.80    4.40
  -2   8  -2   -0.80    2.30
   2  -8   2    2.50    2.80
  -3   8  -2  518.65   14.60
   3  -8   2  470.75   14.30
  -4   8  -2  325.07   11.20
   4  -8   2  347.97   11.60
   4  -8   2  342.47   10.50
  -5   8  -2   75.19    5.90
   5  -8   2   70.89    5.50
   5  -8   2   68.49    5.50
  -6   8  -2   71.19    6.60
   6  -8   2   67.49    6.20
  -7   8  -2   17.00    3.80
   7  -8   2   15.90    3.80
   2   7  -2    1.20    2.80
  -2  -7   2    1.20    2.70
   1   7  -2   44.80    5.30
  -1  -7   2   51.59    5.50
   0   7  -2   48.80    5.40
   0  -7   2   45.20    5.10
  -1   7  -2   99.49    6.20
   1  -7   2   86.39    6.10
  -2   7  -2  189.88    8.00
   2  -7   2  199.08    8.30
  -3   7  -2   15.80    3.10
   3  -7   2   20.00    3.00
   3  -7   2   15.50    3.40
  -4   7  -2  480.75   13.10
   4  -7   2  478.35   12.20
   4  -7   2  469.35   12.70
  -5   7  -2   25.50    4.00
   5  -7   2   16.70    3.20
   5  -7   2   19.50    3.30
  -6   7  -2   34.60    4.50
   6  -7   2   33.70    4.40
  -7   7  -2  370.66   12.50
   7  -7   2  383.26   12.70
  -8   7  -2    6.90    3.30
   8  -7   2    3.30    2.90
   3   6  -2  177.68    8.40
   3   6  -2  145.39    8.10
  -3  -6   2  155.98    8.00
   2   6  -2   23.20    3.90
   2   6  -2   22.50    3.80
  -2  -6   2   24.40    4.20
   1   6  -2  140.19    7.10
   1   6  -2  159.28    6.50
  -1  -6   2  149.99    7.40
   0   6  -2  185.38    7.50
   0   6  -2  190.48    9.00
   0  -6   2  181.58    7.60
  -1   6  -2   32.20    3.80
   1  -6   2   31.10    4.00
  -2   6  -2    4.90    2.20
   2  -6   2    1.30    1.90
   2  -6   2    5.80    1.80
  -3   6  -2  344.87   10.00
   3  -6   2  364.06    9.30
   3  -6   2  343.17    9.90
  -4   6  -2   41.90    4.00
   4  -6   2   41.80    3.90
   4  -6   2   47.20    3.80
  -5   6  -2  129.59    6.40
   5  -6   2  142.09    5.90
   5  -6   2  134.29    6.40
  -6   6  -2  191.88    7.90
   6  -6   2  182.08    7.90
  -7   6  -2   24.40    4.00
   7  -6   2   20.10    3.70
  -8   6  -2  110.89    7.20
   8  -6   2  113.09    7.30
   4   5  -2    0.40    2.40
  -4  -5   2    2.60    2.80
  -4  -5   2    0.40    2.70
   3   5  -2    0.10    2.20
   3   5  -2    2.50    2.60
  -3  -5   2   -0.10    2.40
   2   5  -2  542.15   13.40
   2   5  -2  539.25   14.00
  -2  -5   2  545.95   14.00
   1   5  -2  141.39    6.20
   1   5  -2  143.09    5.60
  -1  -5   2  138.99    6.50
   0   5  -2  195.38    6.00
   0   5  -2  192.08    7.00
   0  -5   2  195.68    7.10
  -1   5  -2  804.52   14.10
  -1   5  -2  755.62   15.90
   1  -5   2  796.12   14.00
   1  -5   2  818.92   16.60
  -2   5  -2  175.18    6.30
  -2   5  -2  164.18    4.20
   2  -5   2  183.08    6.40
   2  -5   2  169.98    5.30
  -3   5  -2  278.27    8.20
   3  -5   2  283.27    7.80
   3  -5   2  285.37    8.00
  -4   5  -2  867.81   17.40
   4  -5   2  861.01   17.20
   4  -5   2  854.01   16.40
  -5   5  -2   25.30    3.10
   5  -5   2   40.30    4.00
   5  -5   2   35.80    2.90
  -6   5  -2   -1.70    2.00
   6  -5   2   -0.20    2.00
  -7   5  -2  265.47    9.70
   7  -5   2  245.38    9.40
  -8   5  -2    0.50    2.40
   8  -5   2    3.30    2.70
   5   4  -2    3.80    2.60
  -5  -4   2    1.60    2.90
   4   4  -2  383.86   12.20
  -4  -4   2  397.96   11.60
  -4  -4   2  390.26   12.20
   3   4  -2   36.60    4.20
   3   4  -2   34.40    4.00
  -3  -4   2   38.40    4.10
   2   4  -2   54.29    3.90
   2   4  -2   42.60    4.20
  -2  -4   2   42.80    4.10
   1   4  -2  501.85   11.00
   1   4  -2  482.95   11.50
  -1  -4   2  507.45   11.80
   0   4  -2   54.19    3.50
   0   4  -2   59.59    3.00
   0  -4   2   55.89    2.20
   0  -4   2   53.79    3.50
  -1   4  -2   78.19    2.90
  -1   4  -2   79.59    3.80
   1  -4   2   81.39    4.10
   1  -4   2   79.69    3.00
  -2   4  -2 2069.69   29.90
  -2   4  -2 1939.91   32.20
   2  -4   2 2062.59   32.30
   2  -4   2 2039.80   31.50
  -3   4  -2   17.40    2.40
  -3   4  -2   16.90    1.50
   3  -4   2   19.10    2.30
   3  -4   2   18.50    2.40
  -4   4  -2  406.26    8.00
  -4   4  -2  396.96    9.70
   4  -4   2  408.26    8.60
   4  -4   2  391.26    9.80
  -5   4  -2  403.76   10.40
   5  -4   2  393.56    8.60
   5  -4   2  418.06    8.90
   5  -4   2  416.96   10.70
  -6   4  -2   14.90    3.00
   6  -4   2   13.90    2.80
   6  -4   2   16.50    2.40
  -7   4  -2  298.27   10.10
   7  -4   2  284.17    8.60
   7  -4   2  280.87    9.90
  -8   4  -2  232.88    9.60
   8  -4   2  222.28    9.40
   8  -4   2  231.08   10.30
   6   3  -2  220.98   10.10
  -6  -3   2  214.98    9.80
   5   3  -2  175.88    8.20
  -5  -3   2  166.68    7.90
   4   3  -2   64.69    4.70
  -4  -3   2   61.19    4.60
  -4  -3   2   66.49    4.50
   3   3  -2  443.76   11.40
   3   3  -2  462.05   11.70
  -3  -3   2  457.95   11.10
   2   3  -2    5.90    1.70
   2   3  -2    4.10    1.80
  -2  -3   2    5.90    1.80
   1   3  -2  201.18    5.70
   1   3  -2  194.48    6.00
  -1  -3   2  196.68    6.10
   0   3  -2  326.97    7.60
   0   3  -2  325.57    7.00
   0  -3   2  350.26    8.00
   0  -3   2  339.77    5.90
  -1   3  -2  312.47    7.10
  -1   3  -2  304.27    6.00
   1  -3   2  312.87    7.30
   1  -3   2  311.07    6.30
  -2   3  -2  160.28    4.80
  -2   3  -2  155.18    3.70
   2  -3   2  159.48    4.60
   2  -3   2  160.18    4.50
  -3   3  -2  321.27    6.40
  -3   3  -2  322.47    7.70
   3  -3   2  310.97    7.60
   3  -3   2  325.47    6.70
  -4   3  -2  380.66    9.10
   4  -3   2  377.46    9.30
   4  -3   2  373.06    7.10
   4  -3   2  362.26    7.90
  -5   3  -2   31.70    3.40
   5  -3   2   33.30    3.60
   5  -3   2   40.40    2.90
  -6   3  -2  860.11   18.20
   6  -3   2  855.41   18.20
   6  -3   2  901.01   17.40
  -7   3  -2    0.20    1.90
   7  -3   2    1.00    2.20
   7  -3   2    5.00    2.20
  -8   3  -2   21.70    3.80
   8  -3   2   26.60    4.10
   8  -3   2   28.30    4.00
   6   2  -2   29.20    4.60
  -6  -2   2   30.70    4.60
   5   2  -2    3.90    2.40
  -5  -2   2   -0.70    2.10
   4   2  -2  463.25   12.00
  -4  -2   2  467.25   10.90
  -4  -2   2  461.05   11.80
   3   2  -2  226.28    7.00
   3   2  -2  222.88    7.10
  -3  -2   2  220.68    6.60
  -3  -2   2  225.18    7.00
   2   2  -2  447.06    9.80
   2   2  -2  447.16    9.80
  -2  -2   2  464.65    9.70
   1   2  -2   83.09    3.30
   1   2  -2   84.19    3.40
  -1  -2   2   83.69    3.40
   0   2  -2   18.40    1.80
   0   2  -2   20.00    1.70
   0  -2   2   17.40    1.80
   0  -2   2   18.10    1.10
  -1   2  -2  144.39    3.40
  -1   2  -2  144.09    3.90
   1  -2   2  137.49    3.60
   1  -2   2  138.29    3.80
  -2   2  -2  343.97    6.50
  -2   2  -2  341.77    7.10
   2  -2   2  338.27    6.40
   2  -2   2  357.36    7.30
  -3   2  -2  464.35    9.40
   3  -2   2  459.75    7.60
   3  -2   2  450.55    9.50
   3  -2   2  457.15    8.80
  -4   2  -2  244.48    6.80
   4  -2   2  253.37    6.50
   4  -2   2  246.78    4.20
   4  -2   2  248.18    6.90
  -5   2  -2  387.86    9.90
   5  -2   2  392.26    9.80
   5  -2   2  383.16    9.50
  -6   2  -2    7.50    2.50
   6  -2   2   12.20    2.60
   6  -2   2   13.60    2.60
  -7   2  -2  159.88    7.40
   7  -2   2  143.09    6.70
   7  -2   2  147.29    6.90
  -8   2  -2   88.79    6.40
   8  -2   2   91.09    5.90
   8  -2   2   80.39    5.90
   7   1  -2    1.70    2.70
  -7  -1   2    3.10    2.90
   6   1  -2   18.20    3.40
  -6  -1   2   13.40    3.30
   5   1  -2  112.29    5.90
  -5  -1   2  110.79    5.70
  -5  -1   2  108.19    4.80
   4   1  -2  147.59    4.60
   4   1  -2  156.88    6.00
  -4  -1   2  150.68    5.10
  -4  -1   2  148.89    5.80
   3   1  -2  862.31   16.00
   3   1  -2  844.62   13.40
  -3  -1   2  845.92   15.10
  -3  -1   2  839.72   15.70
   2   1  -2   18.30    1.10
   2   1  -2   18.50    2.00
   2   1  -2   14.80    1.80
  -2  -1   2   24.60    2.20
   1   1  -2  405.76    7.70
   1   1  -2  410.96    7.50
  -1  -1   2  404.16    7.70
   0   1  -2 2453.65   35.60
   0   1  -2 2484.35   35.80
   0  -1   2 2560.34   36.10
   0  -1   2 2477.95   35.90
  -1   1  -2  420.06    7.20
  -1   1  -2  421.46    7.20
   1  -1   2  430.46    6.90
   1  -1   2  425.86    7.40
  -2   1  -2   87.59    2.90
   2  -1   2   82.39    3.10
   2  -1   2   85.79    2.90
  -3   1  -2  249.68    6.20
   3  -1   2  257.67    6.20
   3  -1   2  250.27    6.30
  -4   1  -2  137.59    4.90
   4  -1   2  137.49    4.90
   4  -1   2  131.99    4.80
  -5   1  -2    9.10    2.20
   5  -1   2    1.70    1.80
   5  -1   2    9.60    2.10
  -6   1  -2   78.59    4.90
   6  -1   2   75.39    5.00
   6  -1   2   90.19    4.90
  -7   1  -2  288.47   10.20
   7  -1   2  305.07    9.50
   7  -1   2  284.67   10.10
  -8   1  -2   18.70    3.90
   8  -1   2   30.40    4.80
   7   0  -2  128.19    7.20
  -7   0   2  117.99    6.90
   6   0  -2   20.00    3.30
  -6   0   2   18.80    3.30
   5   0  -2  164.98    6.50
   5   0  -2  168.28    5.30
  -5   0   2  161.38    6.30
  -5   0   2  162.88    5.30
   4   0  -2  343.47    7.50
   4   0  -2  336.97    8.80
  -4   0   2  356.36    8.80
  -4   0   2  353.36    7.80
   3   0  -2  342.47    8.00
   3   0  -2  350.26    6.90
  -3   0   2  342.87    7.80
  -3   0   2  343.37    7.30
   2   0  -2  748.23   12.10
   2   0  -2  785.32   13.20
  -2   0   2  772.82   12.70
  -2   0   2  751.02   12.80
   1   0  -2 1514.05   21.80
   1   0  -2 1506.55   21.30
  -1   0   2 1458.05   21.30
  -1   0   2 1395.06   21.80
   0   0  -2   37.10    1.40
   0   0   2   37.30    1.40
  -1   0  -2 1397.56   20.50
   1   0   2 1411.86   20.90
   1   0   2 1388.66   19.90
   1   0   2 1385.66   20.90
  -2   0  -2  171.88    3.10
  -2   0  -2  176.88    4.50
   2   0   2  167.18    4.50
   2   0   2  170.28    4.40
  -3   0  -2  861.11   12.80
  -3   0  -2  838.72   15.20
   3   0   2  848.12   14.80
   3   0   2  871.91   15.50
  -4   0  -2  558.94   11.90
  -4   0  -2  547.85    8.90
   4   0   2  550.94   11.20
   4   0   2  540.05   12.00
  -5   0  -2   85.69    4.90
   5   0   2   91.79    4.30
   5   0   2   88.19    4.90
  -6   0  -2   35.70    4.40
   6   0   2   37.10    4.40
   6   0   2   26.30    3.20
  -7   0  -2   92.49    6.30
   7   0   2   88.29    6.30
   8  -1  -2    1.60    2.60
  -8   1   2    0.00    2.70
   7  -1  -2   53.09    5.20
  -7   1   2   62.99    5.00
   6  -1  -2  292.87    8.30
   6  -1  -2  285.27    9.10
  -6   1   2  302.77    9.40
   5  -1  -2    1.40    1.50
   5  -1  -2    3.40    1.60
  -5   1   2    3.80    1.40
  -5   1   2    4.40    1.80
   4  -1  -2   80.49    3.50
   4  -1  -2   71.19    3.60
  -4   1   2   83.59    3.20
  -4   1   2   85.29    3.80
   3  -1  -2 2485.75   37.10
   3  -1  -2 2506.15   37.10
  -3   1   2 2474.95   36.70
  -3   1   2 2432.86   37.20
   2  -1  -2 1058.59   16.60
   2  -1  -2 1048.20   16.30
  -2   1   2 1040.70   16.40
  -2   1   2 1048.80   16.50
   1  -1  -2  740.23   11.90
   1  -1  -2  741.43   11.20
  -1   1   2  749.13   11.40
  -1   1   2  743.83   11.90
   0   1   2 3059.99   43.20
   0   1   2 3010.20   43.20
   0   1   2 3036.80   43.40
   0   1   2 2970.90   44.10
   1   1   2  968.00   15.50
   1   1   2 1002.20   15.50
   1   1   2  978.40   15.10
   1   1   2  987.80   15.80
  -2  -1  -2   32.10    1.80
  -2  -1  -2   30.70    2.40
   2   1   2   31.90    2.00
   2   1   2   26.80    2.20
  -3  -1  -2 1167.88   20.00
  -3  -1  -2 1140.89   18.10
   3   1   2 1137.69   20.30
   3   1   2 1162.08   19.10
  -4  -1  -2   39.80    3.70
  -4  -1  -2   30.00    2.10
   4   1   2   27.90    3.20
   4   1   2   30.60    2.60
  -5  -1  -2  134.79    6.30
   5   1   2  137.39    5.30
   5   1   2  139.39    6.50
  -6  -1  -2   42.30    4.60
   6   1   2   45.60    4.90
  -7  -1  -2   26.10    4.30
   7   1   2   24.80    4.60
   8  -2  -2  280.17   10.20
  -8   2   2  272.57   10.50
   7  -2  -2   68.89    4.70
   7  -2  -2   79.19    5.10
  -7   2   2   74.59    5.20
   6  -2  -2   69.59    4.30
   6  -2  -2   70.09    4.30
  -6   2   2   73.69    4.80
   5  -2  -2  322.27    8.30
   5  -2  -2  316.67    8.50
  -5   2   2  324.07    7.30
  -5   2   2  360.26    9.10
   4  -2  -2  576.94   11.90
   4  -2  -2  607.74   11.30
  -4   2   2  596.64   11.00
  -4   2   2  583.24   11.80
   3  -2  -2   53.19    2.20
   3  -2  -2   53.69    2.80
  -3   2   2   54.39    2.50
  -3   2   2   56.49    2.90
   2  -2  -2  938.91   15.40
   2  -2  -2  924.61   13.70
  -2   2   2  892.51   15.00
  -2   2   2  917.41   15.00
   1  -2  -2   28.40    2.00
   1  -2  -2   29.10    1.10
  -1   2   2   30.00    2.10
  -1   2   2   29.80    1.90
   0   2   2   84.09    2.80
   0   2   2   76.79    2.80
   0   2   2   78.39    2.90
   0   2   2   79.69    2.50
   1   2   2 1877.71   29.10
   1   2   2 1940.01   29.30
   1   2   2 1922.61   28.70
   1   2   2 1920.11   29.40
  -2  -2  -2   68.29    3.00
   2   2   2   68.89    2.80
   2   2   2   65.69    3.30
   2   2   2   59.29    3.10
  -3  -2  -2    0.50    1.00
  -3  -2  -2    0.60    1.60
   3   2   2   -0.60    1.00
   3   2   2    1.20    1.50
  -4  -2  -2  349.96    8.20
  -4  -2  -2  347.67    9.80
   4   2   2  352.36   10.10
  -5  -2  -2   36.20    4.50
   5   2   2   28.90    4.10
  -6  -2  -2    9.50    3.30
   6   2   2    8.10    3.30
   8  -3  -2   99.19    5.90
   8  -3  -2   95.89    6.20
  -8   3   2   90.19    6.10
   7  -3  -2   87.19    5.00
   7  -3  -2   85.59    5.40
  -7   3   2   93.09    5.70
   6  -3  -2  582.04   12.40
   6  -3  -2  543.25   13.30
  -6   3   2  595.04   13.80
   5  -3  -2   44.70    2.80
   5  -3  -2   45.40    3.40
  -5   3   2   49.99    3.70
  -5   3   2   46.70    2.70
   4  -3  -2  414.36    9.70
   4  -3  -2  399.26    7.80
  -4   3   2  404.66    9.30
  -4   3   2  404.66    8.60
   3  -3  -2  338.37    8.10
   3  -3  -2  330.57    5.80
  -3   3   2  347.57    7.60
  -3   3   2  333.97    7.70
   2  -3  -2   14.70    1.90
  -2   3   2   13.30    1.80
  -2   3   2   12.00    1.70
   1  -3  -2 1654.23   26.00
  -1   3   2 1682.83   26.50
  -1   3   2 1685.63   24.20
  -1   3   2 1675.73   26.10
   0  -3  -2   37.70    2.20
   0   3   2   45.30    2.70
   0   3   2   37.90    2.00
   0   3   2   40.20    2.70
  -1  -3  -2  592.94   12.00
   1   3   2  601.34   11.50
   1   3   2  599.74   12.00
   1   3   2  600.24   10.70
  -2  -3  -2  732.23   14.00
   2   3   2  690.43   14.10
   2   3   2  704.13   12.50
   2   3   2  721.33   14.50
  -3  -3  -2   30.70    3.00
   3   3   2   25.60    3.30
   3   3   2   22.60    3.10
  -4  -3  -2   47.00    4.90
   4   3   2   52.89    5.20
  -5  -3  -2  186.18    8.30
   5   3   2  191.98    8.60
   6   3   2   22.10    4.40
   9  -4  -2   -4.80    2.20
  -9   4   2    3.70    3.00
   8  -4  -2   61.59    5.80
  -8   4   2   62.99    6.00
   7  -4  -2    1.10    2.30
  -7   4   2    6.60    2.90
   6  -4  -2    6.80    2.40
  -6   4   2    6.20    2.40
  -6   4   2    8.40    1.80
   5  -4  -2  101.09    3.40
   5  -4  -2   97.49    5.10
  -5   4   2   99.19    4.20
  -5   4   2  102.29    5.00
   4  -4  -2    0.60    0.70
   4  -4  -2   -0.90    1.50
  -4   4   2    0.70    1.20
  -4   4   2    2.10    1.60
   3  -4  -2 1987.40   32.50
  -3   4   2 2010.10   32.20
  -3   4   2 2069.59   32.30
   2  -4  -2  603.34   11.90
  -2   4   2  589.24   12.10
  -2   4   2  571.94   11.80
   1  -4  -2   34.50    2.50
  -1   4   2   38.00    3.30
  -1   4   2   34.80    1.70
  -1   4   2   38.20    2.90
   0  -4  -2 2002.00   31.00
   0   4   2 2035.40   32.40
   0   4   2 2020.00   30.80
   0   4   2 1969.60   32.50
  -1  -4  -2  352.16    9.20
  -1  -4  -2  346.37    7.50
   1   4   2  338.87    9.10
   1   4   2  343.57    8.30
  -2  -4  -2  512.05   12.00
   2   4   2  488.15   12.20
   2   4   2  535.55   12.10
  -3  -4  -2  262.47    8.30
   3   4   2  271.07    9.00
   3   4   2  252.37    8.90
  -4  -4  -2  117.09    6.70
   4   4   2  110.99    6.50
  -5  -4  -2   49.90    5.50
   5   4   2   58.09    6.30
   8  -5  -2    0.60    2.60
  -8   5   2    0.40    2.40
   7  -5  -2  225.88    9.00
  -7   5   2  221.38    8.80
   6  -5  -2    8.80    2.80
  -6   5   2    8.70    2.80
  -6   5   2    8.10    2.10
   5  -5  -2    1.10    1.80
  -5   5   2    0.40    1.80
  -5   5   2    3.00    1.70
   4  -5  -2  192.68    6.80
  -4   5   2  190.38    6.60
  -4   5   2  192.58    6.50
   3  -5  -2  328.27    8.90
  -3   5   2  348.77    9.10
  -3   5   2  342.17    9.00
   2  -5  -2  429.66   10.00
  -2   5   2  442.86   10.80
  -2   5   2  438.76   10.40
   1  -5  -2  169.58    5.50
  -1   5   2  169.78    6.20
  -1   5   2  173.58    6.40
   0  -5  -2   78.29    4.80
   0  -5  -2   73.89    3.40
   0   5   2   72.79    3.40
   0   5   2   69.39    4.30
  -1  -5  -2 1212.88   23.10
   1   5   2 1167.78   22.70
   1   5   2 1211.48   21.60
  -2  -5  -2  299.67    9.70
   2   5   2  312.27   10.00
   2   5   2  314.07    9.50
  -3  -5  -2   10.30    2.90
   3   5   2    9.60    3.20
   3   5   2   11.40    3.00
  -4  -5  -2   62.99    6.30
   4   5   2   66.89    5.70
   8  -6  -2   51.39    5.90
  -8   6   2   49.99    5.40
   7  -6  -2    9.40    3.30
  -7   6   2   14.20    3.30
   6  -6  -2  573.14   15.00
  -6   6   2  592.24   13.60
  -6   6   2  600.94   14.70
   5  -6  -2   85.09    5.50
  -5   6   2   93.19    5.00
  -5   6   2  102.19    5.60
   4  -6  -2   29.80    3.60
  -4   6   2   27.20    3.40
  -4   6   2   27.90    3.40
   3  -6  -2    1.40    1.80
  -3   6   2    2.40    2.20
  -3   6   2    5.00    2.20
   2  -6  -2  200.48    6.80
  -2   6   2  200.58    7.50
  -2   6   2  182.78    7.00
   1  -6  -2  154.08    7.10
   1  -6  -2  172.88    5.90
  -1   6   2  180.18    7.10
   0  -6  -2   59.69    5.50
   0   6   2   56.69    4.60
  -1  -6  -2   61.79    5.10
   1   6   2   58.19    4.70
  -2  -6  -2  172.58    8.00
   2   6   2  178.48    8.20
  -3  -6  -2   52.39    5.50
   3   6   2   51.59    5.80
   3   6   2   56.69    5.70
   8  -7  -2   47.00    5.40
  -8   7   2   32.60    4.70
   7  -7  -2  308.27   11.30
  -7   7   2  333.67   11.40
   6  -7  -2    3.30    2.60
  -6   7   2   10.50    3.10
  -6   7   2    9.40    2.70
   5  -7  -2   -2.10    1.80
  -5   7   2    2.80    2.20
  -5   7   2    4.60    2.40
   4  -7  -2  331.37   10.20
  -4   7   2  324.97   10.20
  -4   7   2  333.87   10.50
   3  -7  -2   11.70    2.70
   3  -7  -2   16.60    3.40
  -3   7   2   14.20    3.00
  -3   7   2    8.80    2.60
   2  -7  -2   17.90    2.90
   2  -7  -2   12.00    3.00
  -2   7   2   14.00    3.00
   1  -7  -2   59.69    5.70
  -1   7   2   64.09    5.10
   0  -7  -2   19.40    3.80
   0   7   2   14.90    3.40
  -1  -7  -2   27.00    4.40
   1   7   2   36.50    5.00
  -2  -7  -2   15.80    3.80
   2   7   2   22.00    4.20
   7  -8  -2    3.30    3.10
  -7   8   2    4.40    3.00
   6  -8  -2   54.99    5.60
  -6   8   2   51.69    5.50
  -6   8   2   48.60    5.10
   5  -8  -2    3.40    2.60
   5  -8  -2    0.00    2.30
  -5   8   2   -0.10    2.20
  -5   8   2    0.30    2.20
   4  -8  -2    3.10    2.80
   4  -8  -2    3.30    2.50
  -4   8   2    2.10    2.50
   3  -8  -2  462.55   14.10
   3  -8  -2  471.65   12.70
  -3   8   2  471.05   13.70
   2  -8  -2    1.10    2.80
  -2   8   2    1.60    2.40
   1  -8  -2    2.60    3.00
  -1   8   2   -0.30    2.50
   0  -8  -2  227.98   10.40
   0   8   2  237.78   10.20
   5  -9  -2  103.89    7.20
   5  -9  -2  108.99    6.80
  -5   9   2  104.79    7.10
   4  -9  -2   -2.30    2.70
   4  -9  -2    0.30    2.50
  -4   9   2    0.10    2.50
   3  -9  -2   17.40    4.20
  -3   9   2   15.20    4.00
  -3   9  -3   62.89    6.40
   3  -9   3   78.99    6.60
  -4   9  -3   82.19    6.60
   4  -9   3   94.49    6.90
  -5   9  -3  100.09    7.10
   5  -9   3  111.89   11.10
   5  -9   3  108.39    7.10
   0   8  -3    1.20    2.70
   0  -8   3    7.30    3.50
  -1   8  -3  124.09    7.30
   1  -8   3  138.09    8.10
  -2   8  -3    0.60    2.50
   2  -8   3    2.40    2.70
  -3   8  -3    2.20    2.40
   3  -8   3   -1.00    2.30
  -4   8  -3   29.20    4.10
   4  -8   3   28.30    4.20
   4  -8   3   32.80    4.10
  -5   8  -3   20.50    3.70
   5  -8   3   30.60    4.20
   5  -8   3   28.50    4.20
  -6   8  -3   11.10    3.50
   6  -8   3   15.50    3.60
  -7   8  -3   17.40    4.20
   7  -8   3   15.80    3.80
   2   7  -3    1.00    2.60
  -2  -7   3   -4.10    2.60
   1   7  -3  202.58    9.10
  -1  -7   3  209.58    9.60
   0   7  -3   26.90    4.30
   0  -7   3   27.30    4.50
  -1   7  -3   10.50    3.10
   1  -7   3    9.70    3.00
  -2   7  -3  403.96   11.90
   2  -7   3  373.16   11.70
  -3   7  -3   64.69    4.90
   3  -7   3   70.89    5.40
   3  -7   3   62.69    4.20
  -4   7  -3    0.30    1.90
   4  -7   3   -2.30    1.80
   4  -7   3    2.40    2.40
  -5   7  -3   35.80    4.60
   5  -7   3   44.00    4.30
   5  -7   3   42.60    4.40
  -6   7  -3    8.60    2.80
   6  -7   3    7.40    3.00
  -7   7  -3   22.50    4.10
   7  -7   3   19.50    4.00
  -8   7  -3   45.20    5.70
   8  -7   3   57.69    6.30
   3   6  -3   -1.20    2.60
   3   6  -3   -0.70    2.30
  -3  -6   3    3.00    2.90
   2   6  -3    3.80    2.70
   2   6  -3    3.80    2.30
  -2  -6   3    3.30    2.60
   1   6  -3   -0.60    1.90
   1   6  -3    0.80    2.20
  -1  -6   3    6.40    2.90
   0   6  -3  956.20   20.10
   0   6  -3 1004.20   18.60
   0  -6   3  933.01   20.60
  -1   6  -3   91.19    5.20
   1  -6   3   94.59    5.50
  -2   6  -3   19.10    3.20
   2  -6   3   14.30    3.00
   2  -6   3   19.80    2.50
  -3   6  -3 1011.00   20.40
   3  -6   3 1027.10   20.30
   3  -6   3 1055.99   19.40
  -4   6  -3  518.15   13.00
   4  -6   3  501.75   12.30
   4  -6   3  506.05   12.20
  -5   6  -3    1.10    2.20
   5  -6   3    2.50    2.30
   5  -6   3    3.90    1.90
  -6   6  -3  245.98    9.00
   6  -6   3  269.97    9.70
  -7   6  -3    8.20    2.80
   7  -6   3   10.30    3.40
  -8   6  -3    3.90    3.00
   8  -6   3    4.90    2.90
   4   5  -3   38.60    5.00
  -4  -5   3   37.20    4.80
  -4  -5   3   39.40    5.20
   3   5  -3   77.79    5.50
   3   5  -3   86.89    6.00
  -3  -5   3   89.09    6.00
   2   5  -3   37.30    4.00
   2   5  -3   30.30    4.10
  -2  -5   3   41.60    4.60
   1   5  -3   49.90    3.80
   1   5  -3   49.10    4.00
  -1  -5   3   53.79    4.30
   0   5  -3   84.39    4.80
   0   5  -3   89.49    4.20
   0  -5   3   98.29    5.30
  -1   5  -3  330.97    9.10
  -1   5  -3  336.47    7.80
   1  -5   3  354.76    9.70
   1  -5   3  345.57    7.40
  -2   5  -3  558.64   10.40
  -2   5  -3  564.74   12.60
   2  -5   3  559.94   11.30
   2  -5   3  573.14   12.80
  -3   5  -3    2.80    1.00
  -3   5  -3   -0.20    1.60
   3  -5   3    1.30    1.50
   3  -5   3    0.70    1.60
  -4   5  -3  907.31   18.10
   4  -5   3  909.41   17.10
   4  -5   3  922.11   18.00
  -5   5  -3  396.46   10.80
   5  -5   3  404.06   11.00
   5  -5   3  410.76    9.30
  -6   5  -3   21.50    3.60
   6  -5   3   13.40    3.20
  -7   5  -3  250.07    9.60
   7  -5   3  249.08    9.60
  -8   5  -3   26.80    4.20
   8  -5   3   36.30    5.00
   5   4  -3   14.70    3.80
  -5  -4   3   14.70    3.80
   4   4  -3   46.50    5.10
  -4  -4   3   36.90    4.50
  -4  -4   3   44.50    4.70
   3   4  -3  542.75   13.90
   3   4  -3  560.24   14.00
  -3  -4   3  586.94   14.10
   2   4  -3    1.60    2.00
   2   4  -3    4.50    2.10
  -2  -4   3    2.40    2.20
   1   4  -3    2.70    1.60
   1   4  -3    2.50    1.70
  -1  -4   3    3.80    2.00
   0   4  -3  310.57    7.40
   0   4  -3  289.87    8.00
   0  -4   3  307.17    8.40
   0  -4   3  302.97    5.70
  -1   4  -3   47.60    3.20
  -1   4  -3   50.09    2.50
   1  -4   3   48.30    3.40
   1  -4   3   48.00    2.50
  -2   4  -3   14.50    2.10
  -2   4  -3   13.40    1.60
   2  -4   3   18.60    2.40
   2  -4   3   17.50    2.10
  -3   4  -3  562.44   11.90
  -3   4  -3  556.44   10.10
   3  -4   3  568.04   11.30
   3  -4   3  542.95   11.60
  -4   4  -3   82.99    4.30
  -4   4  -3   86.39    3.40
   4  -4   3   87.89    3.60
   4  -4   3   86.69    4.50
  -5   4  -3   67.79    4.30
  -5   4  -3   62.09    3.30
   5  -4   3   57.49    4.10
  -6   4  -3   77.39    4.90
   6  -4   3   77.59    5.20
   6  -4   3   88.09    4.30
  -7   4  -3   35.50    4.20
   7  -4   3   35.20    3.80
   7  -4   3   35.20    4.40
  -8   4  -3  104.99    6.90
   8  -4   3  124.39    7.30
   8  -4   3  114.99    6.20
   6   3  -3   43.80    5.30
  -6  -3   3   46.50    5.50
   5   3  -3  199.78    8.90
  -5  -3   3  190.18    8.40
   4   3  -3  226.78    8.40
  -4  -3   3  212.88    7.80
  -4  -3   3  214.38    8.10
   3   3  -3  163.28    6.50
   3   3  -3  171.58    6.80
  -3  -3   3  157.38    6.40
   2   3  -3  439.66   10.40
   2   3  -3  452.65   10.60
  -2  -3   3  429.76   10.40
   1   3  -3   14.40    2.00
   1   3  -3   14.60    2.20
  -1  -3   3   12.10    2.30
   0   3  -3  347.57    7.90
   0   3  -3  348.87    7.50
   0  -3   3  344.47    6.00
   0  -3   3  331.17    8.10
  -1   3  -3  680.43   11.80
  -1   3  -3  686.73   12.60
   1  -3   3  691.73   12.90
   1  -3   3  701.33   11.80
  -2   3  -3   19.50    2.10
  -2   3  -3   22.80    1.80
   2  -3   3   24.80    2.30
   2  -3   3   23.00    2.20
  -3   3  -3   20.30    1.90
  -3   3  -3   19.00    2.20
   3  -3   3   19.10    1.80
   3  -3   3   19.00    2.40
  -4   3  -3  721.93   14.30
   4  -3   3  717.13   13.30
   4  -3   3  725.43   14.60
   4  -3   3  719.93   11.90
  -5   3  -3  161.08    6.10
   5  -3   3  175.38    5.70
   5  -3   3  170.68    6.50
  -6   3  -3    2.70    2.10
   6  -3   3    1.60    1.70
   6  -3   3    2.90    2.30
  -7   3  -3  132.89    6.90
   7  -3   3  135.99    6.40
   7  -3   3  138.09    6.90
  -8   3  -3    4.20    2.80
   8  -3   3    1.90    2.30
   8  -3   3    4.60    2.90
   6   2  -3   91.39    6.40
  -6  -2   3   94.19    6.40
   5   2  -3    2.90    2.40
  -5  -2   3    1.30    2.10
  -5  -2   3    5.70    2.50
   4   2  -3    2.00    1.90
  -4  -2   3    3.30    1.90
  -4  -2   3    3.30    2.20
   3   2  -3  491.75   11.20
   3   2  -3  486.95   11.50
  -3  -2   3  485.25   11.20
  -3  -2   3  489.95   11.10
   2   2  -3    2.90    1.50
   2   2  -3    2.60    1.50
  -2  -2   3    1.20    1.50
   1   2  -3  118.99    4.00
   1   2  -3  121.99    4.10
  -1  -2   3  126.19    4.30
   0   2  -3  156.98    4.20
   0  -2   3  157.28    3.30
   0  -2   3  166.48    4.70
  -1   2  -3  369.36    7.10
  -1   2  -3  364.86    7.20
   1  -2   3  375.66    7.30
   1  -2   3  364.36    7.00
  -2   2  -3 2372.66   34.90
  -2   2  -3 2301.57   35.20
   2  -2   3 2379.36   35.60
   2  -2   3 2403.96   34.50
  -3   2  -3  466.05    9.60
   3  -2   3  490.45    7.80
   3  -2   3  476.35    9.40
   3  -2   3  476.15    9.90
  -4   2  -3   97.39    4.30
   4  -2   3   92.39    4.30
   4  -2   3   95.29    4.00
  -5   2  -3  583.74   12.90
   5  -2   3  583.24   12.90
   5  -2   3  566.54   12.60
  -6   2  -3  152.98    6.60
   6  -2   3  152.18    6.40
   6  -2   3  153.98    6.60
  -7   2  -3    0.50    2.20
   7  -2   3    3.30    2.40
   7  -2   3    0.90    2.10
  -8   2  -3  167.98    8.30
   8  -2   3  182.08    8.10
   8  -2   3  156.08    7.90
   7   1  -3   56.49    6.10
  -7  -1   3   56.49    6.00
   6   1  -3   85.09    5.80
  -6  -1   3   93.59    5.70
   5   1  -3  242.28    8.60
  -5  -1   3  244.58    7.50
  -5  -1   3  245.68    8.40
   4   1  -3  315.47    9.00
  -4  -1   3  307.27    8.10
  -4  -1   3  326.07    8.80
   3   1  -3 1060.29   19.10
   3   1  -3 1052.29   16.20
  -3  -1   3 1053.59   18.40
  -3  -1   3 1062.19   18.70
   2   1  -3    3.60    0.70
   2   1  -3    3.30    1.30
   2   1  -3    6.60    1.50
  -2  -1   3    7.00    1.60
   1   1  -3   95.39    3.00
   1   1  -3   92.99    3.30
   1   1  -3   93.89    2.00
  -1  -1   3   89.39    3.30
   0   1  -3   73.29    2.50
   0   1  -3   71.19    2.10
   0  -1   3   73.59    2.80
   0  -1   3   70.99    2.10
  -1   1  -3 3819.72   56.79
  -1   1  -3 3904.61   56.29
   1  -1   3 4008.80   55.89
   1  -1   3 4055.99   56.39
  -2   1  -3  542.55    9.60
   2  -1   3  539.15    9.80
   2  -1   3  542.05   10.10
   2  -1   3  527.75    8.10
  -3   1  -3  201.68    5.50
   3  -1   3  195.38    5.60
   3  -1   3  210.58    5.70
  -4   1  -3 1692.43   27.70
   4  -1   3 1669.63   27.80
   4  -1   3 1684.43   27.70
  -5   1  -3    4.90    2.10
   5  -1   3    3.50    1.70
   5  -1   3    4.30    1.90
  -6   1  -3  218.18    7.90
   6  -1   3  229.38    8.30
   6  -1   3  226.38    7.80
  -7   1  -3  208.98    8.70
   7  -1   3  225.58    9.00
   7  -1   3  221.68    8.30
  -8   1  -3    9.90    3.20
   8  -1   3   13.10    3.70
   7   0  -3  156.98    7.90
  -7   0   3  173.58    8.10
   6   0  -3  297.47    9.90
  -6   0   3  278.87    9.40
   5   0  -3    1.10    1.30
   5   0  -3    4.00    2.00
  -5   0   3   -0.80    1.30
  -5   0   3   -2.00    1.70
   4   0  -3 1690.13   28.00
   4   0  -3 1643.04   25.80
  -4   0   3 1606.74   27.40
  -4   0   3 1684.33   26.80
   3   0  -3   30.50    2.50
   3   0  -3   27.20    1.90
  -3   0   3   27.80    2.40
  -3   0   3   24.00    2.20
   2   0  -3  152.88    4.40
   2   0  -3  156.48    3.70
  -2   0   3  157.18    4.10
  -2   0   3  149.19    4.30
   1   0  -3 1227.28   19.00
   1   0  -3 1242.28   18.50
  -1   0   3 1259.47   19.30
  -1   0   3 1243.08   18.20
   0   0  -3  114.79    3.00
   0   0   3  119.29    3.10
   0   0   3  117.09    3.00
  -1   0  -3   55.99    1.90
   1   0   3   56.09    1.80
   1   0   3   57.89    2.50
   1   0   3   57.59    2.30
  -2   0  -3   73.89    2.90
   2   0   3   73.69    3.00
   2   0   3   75.19    3.20
   2   0   3   78.49    1.90
  -3   0  -3   84.39    1.90
  -3   0  -3   87.69    3.70
   3   0   3   83.09    3.60
   3   0   3   84.29    3.80
  -4   0  -3   29.50    3.00
   4   0   3   38.80    3.10
   4   0   3   36.60    3.00
  -5   0  -3  776.32   16.40
   5   0   3  804.82   15.90
   5   0   3  779.72   16.80
  -6   0  -3    1.40    2.20
   6   0   3    5.30    2.20
   6   0   3   -0.50    2.10
  -7   0  -3   38.50    4.60
   7   0   3   49.40    5.40
   8  -1  -3   16.50    3.80
  -8   1   3   12.00    3.40
   7  -1  -3    5.60    2.60
  -7   1   3    2.20    2.60
   6  -1  -3  177.88    6.20
   6  -1  -3  183.38    7.20
  -6   1   3  160.78    6.70
   5  -1  -3  251.77    7.00
   5  -1  -3  273.87    7.90
  -5   1   3  258.17    6.90
  -5   1   3  245.38    7.70
   4  -1  -3  161.28    5.30
   4  -1  -3  171.18    5.10
  -4   1   3  168.68    5.00
  -4   1   3  166.58    5.40
   3  -1  -3 1786.12   28.00
   3  -1  -3 1817.12   27.90
  -3   1   3 1792.12   27.90
  -3   1   3 1827.72   28.00
   2  -1  -3 1745.13   26.00
   2  -1  -3 1724.03   26.40
  -2   1   3 1732.43   25.90
  -2   1   3 1754.72   26.60
   1  -1  -3 1373.56   20.20
   1  -1  -3 1349.36   20.80
  -1   1   3 1397.76   20.90
  -1   1   3 1314.77   19.70
   0  -1  -3 1226.68   18.80
   0   1   3 1256.77   19.10
   0   1   3 1267.17   18.30
   1   1   3  558.54    9.50
   1   1   3  554.04    9.90
   1   1   3  547.05    9.30
   1   1   3  545.75    9.90
  -2  -1  -3    1.20    1.10
   2   1   3   -0.20    1.20
   2   1   3    0.80    0.80
   2   1   3    1.90    1.10
  -3  -1  -3  270.67    7.20
  -3  -1  -3  285.37    5.80
   3   1   3  279.07    6.80
   3   1   3  271.47    7.50
  -4  -1  -3   66.79    4.00
   4   1   3   69.89    4.40
   4   1   3   74.79    3.80
  -5  -1  -3   54.69    4.40
   5   1   3   53.69    4.90
   5   1   3   52.99    3.70
  -6  -1  -3  131.69    6.90
   6   1   3  134.19    7.20
  -7  -1  -3   42.50    5.40
   7   1   3   36.40    5.30
   8  -2  -3   10.00    3.00
  -8   2   3   10.60    3.30
   7  -2  -3  163.28    7.10
   7  -2  -3  152.68    6.70
  -7   2   3  165.28    7.40
   6  -2  -3    4.90    2.00
   6  -2  -3    5.80    2.10
  -6   2   3    4.50    2.20
   5  -2  -3   78.19    4.00
   5  -2  -3   81.59    4.20
  -5   2   3   77.39    4.30
  -5   2   3   85.59    3.70
   4  -2  -3  462.95    9.40
   4  -2  -3  466.45   10.20
  -4   2   3  469.75    9.60
  -4   2   3  463.35   10.00
   3  -2  -3 1924.61   30.20
   3  -2  -3 1964.00   29.00
  -3   2   3 1939.41   29.70
  -3   2   3 1905.51   29.80
   2  -2  -3   18.50    1.90
   2  -2  -3   18.40    1.30
  -2   2   3   20.20    1.80
  -2   2   3   12.70    1.50
   1  -2  -3   12.50    1.10
   1  -2  -3   10.90    1.50
  -1   2   3    9.00    1.60
  -1   2   3   12.30    1.40
   0   2   3    7.90    1.30
   0   2   3    7.20    1.40
   0   2   3    9.40    1.20
   0   2   3    6.20    1.20
   1   2   3 1205.48   19.50
   1   2   3 1227.98   19.80
   1   2   3 1212.28   19.60
   1   2   3 1208.38   19.50
  -2  -2  -3   10.20    1.60
   2   2   3    8.40    1.70
   2   2   3    4.30    1.20
   2   2   3    7.80    1.80
  -3  -2  -3  326.07    7.60
  -3  -2  -3  345.77    9.00
   3   2   3  335.47    9.10
   3   2   3  347.07    8.00
  -4  -2  -3  336.37    9.70
   4   2   3  323.67    9.70
   4   2   3  335.17    8.40
  -5  -2  -3   31.40    4.20
   5   2   3   21.90    3.70
  -6  -2  -3    5.30    2.90
   6   2   3    3.70    2.80
   8  -3  -3   20.60    3.70
   8  -3  -3   19.90    3.50
  -8   3   3   21.80    4.10
   7  -3  -3    9.10    2.50
   7  -3  -3   11.00    3.00
  -7   3   3   12.40    3.00
   6  -3  -3  360.86   10.10
   6  -3  -3  352.96    9.10
  -6   3   3  353.96   10.10
  -6   3   3  344.87    8.50
   5  -3  -3  193.58    6.80
   5  -3  -3  200.78    5.70
  -5   3   3  200.68    6.70
  -5   3   3  196.78    5.90
   4  -3  -3  300.97    8.10
   4  -3  -3  312.17    6.50
  -4   3   3  299.97    7.70
  -4   3   3  319.57    7.60
   3  -3  -3  127.09    4.60
   3  -3  -3  115.29    2.80
  -3   3   3  120.09    4.20
  -3   3   3  115.69    4.20
   2  -3  -3  895.51   13.20
   2  -3  -3  903.01   16.00
  -2   3   3  947.61   16.20
  -2   3   3  893.41   15.40
   1  -3  -3 1355.06   19.50
   1  -3  -3 1299.17   21.30
  -1   3   3 1295.07   21.00
  -1   3   3 1310.67   21.70
   0  -3  -3  365.76    7.70
   0   3   3  357.36    7.90
   0   3   3  347.47    8.20
   0   3   3  354.66    7.10
   1   3   3  632.04   12.10
   1   3   3  641.24   12.50
   1   3   3  620.54   12.30
   1   3   3  623.24   11.70
  -2  -3  -3   16.30    2.30
   2   3   3   15.40    2.40
   2   3   3   15.00    2.50
   2   3   3   13.60    1.80
  -3  -3  -3  276.67    8.60
  -3  -3  -3  272.47    7.60
   3   3   3  265.67    8.40
   3   3   3  278.47    8.60
  -4  -3  -3    6.20    2.60
   4   3   3   12.50    3.00
  -5  -3  -3   25.20    3.90
   5   3   3   28.10    4.40
  -6  -3  -3   91.69    6.90
   6   3   3  102.99    7.30
   8  -4  -3    8.90    3.10
  -8   4   3    6.10    3.10
   7  -4  -3  417.06   12.10
  -7   4   3  409.36   12.00
   6  -4  -3    7.50    2.40
  -6   4   3    5.00    2.10
  -6   4   3   12.00    2.20
   5  -4  -3   13.80    2.60
  -5   4   3    6.60    2.00
  -5   4   3   10.00    2.00
   4  -4  -3  378.66    8.00
   4  -4  -3  420.86   10.30
  -4   4   3  417.46    9.70
  -4   4   3  419.86    9.60
   3  -4  -3   59.69    3.50
  -3   4   3   60.79    3.40
  -3   4   3   60.09    3.30
   2  -4  -3 1254.07   21.70
  -2   4   3 1280.67   21.40
  -2   4   3 1266.97   22.00
   1  -4  -3  198.78    5.70
  -1   4   3  199.48    4.30
  -1   4   3  206.48    6.30
  -1   4   3  179.68    5.60
   0  -4  -3   17.40    2.00
   0   4   3   16.30    1.90
   0   4   3   18.50    2.40
   0   4   3   15.20    2.20
  -1  -4  -3  324.97    8.90
  -1  -4  -3  324.67    7.70
   1   4   3  346.97    9.00
   1   4   3  329.97    8.20
  -2  -4  -3  503.75   11.80
   2   4   3  487.45   12.00
   2   4   3  483.45   11.70
  -3  -4  -3    1.50    1.90
   3   4   3    5.00    2.20
   3   4   3    1.10    2.20
  -4  -4  -3  117.79    6.80
   4   4   3  115.89    6.70
  -5  -4  -3  165.88    8.50
   5   4   3  165.58    8.50
   8  -5  -3    0.50    2.50
  -8   5   3    3.50    2.80
   7  -5  -3   38.20    4.70
  -7   5   3   33.40    4.40
   6  -5  -3  449.56   12.40
  -6   5   3  439.96   10.80
  -6   5   3  427.66   11.70
   5  -5  -3    9.00    2.40
  -5   5   3    4.80    1.90
  -5   5   3    7.90    2.30
   4  -5  -3   22.60    3.10
  -4   5   3   25.00    3.10
  -4   5   3   25.40    3.10
   3  -5  -3 1845.62   31.20
  -3   5   3 1880.91   31.30
  -3   5   3 1855.51   30.90
   2  -5  -3  142.79    5.30
  -2   5   3  145.09    5.50
  -2   5   3  139.29    5.80
   1  -5  -3    3.30    1.60
  -1   5   3    1.40    1.70
  -1   5   3    2.10    1.70
   0  -5  -3  479.95   10.40
   0  -5  -3  488.35   12.20
   0   5   3  477.05   11.50
   0   5   3  480.25   10.10
  -1  -5  -3  121.79    6.00
   1   5   3  111.49    5.60
   1   5   3  127.09    5.20
  -2  -5  -3  152.88    6.80
   2   5   3  153.48    6.50
   2   5   3  147.09    6.80
  -3  -5  -3   48.30    4.80
   3   5   3   40.20    4.60
   3   5   3   44.80    5.00
  -4  -5  -3   13.10    3.60
   4   5   3   12.60    3.50
   8  -6  -3  125.29    7.40
  -8   6   3  133.69    7.60
   7  -6  -3   12.10    3.20
  -7   6   3   12.40    3.30
   6  -6  -3    2.50    2.60
  -6   6   3    5.60    2.50
  -6   6   3    5.30    2.30
   5  -6  -3  692.53   16.20
  -5   6   3  681.83   15.30
  -5   6   3  700.03   15.70
   4  -6  -3   18.80    3.10
  -4   6   3   18.00    2.90
  -4   6   3   19.90    3.20
   3  -6  -3   21.30    3.20
  -3   6   3   24.20    3.60
  -3   6   3   24.60    3.20
   2  -6  -3  474.55   11.50
  -2   6   3  480.85   12.30
  -2   6   3  475.05   12.00
   1  -6  -3   16.70    2.50
   1  -6  -3   23.20    3.40
  -1   6   3   20.50    3.30
  -1   6   3   20.00    3.20
   0  -6  -3   90.49    5.70
   0   6   3   90.79    5.40
  -1  -6  -3  322.97   10.60
   1   6   3  316.47   10.40
  -2  -6  -3  318.67   10.90
   2   6   3  337.07   11.20
  -3  -6  -3    6.40    3.10
   3   6   3   15.40    3.80
   8  -7  -3   95.19    7.10
  -8   7   3  105.39    7.00
   7  -7  -3  221.48    9.30
  -7   7   3  196.28    8.70
   6  -7  -3   56.59    5.70
  -6   7   3   56.29    5.50
  -6   7   3   60.89    5.40
   5  -7  -3  166.18    7.50
  -5   7   3  180.18    7.70
  -5   7   3  173.88    7.50
   4  -7  -3  138.59    6.60
  -4   7   3  146.79    7.00
  -4   7   3  151.58    6.90
   3  -7  -3  136.99    6.30
  -3   7   3  140.49    6.80
  -3   7   3  145.39    6.80
   2  -7  -3  326.27    9.50
   2  -7  -3  305.47   10.70
  -2   7   3  306.77   10.10
   1  -7  -3  188.18    8.60
  -1   7   3  197.68    8.20
   0  -7  -3   -1.20    2.20
   0   7   3    1.30    2.60
  -1  -7  -3  177.88    8.60
   1   7   3  181.78    8.50
   7  -8  -3    9.60    3.40
  -7   8   3    9.80    3.40
  -7   8   3    5.40    3.10
   6  -8  -3  152.48    8.00
  -6   8   3  146.19    7.60
  -6   8   3  152.78    7.90
   5  -8  -3   48.80    5.20
  -5   8   3   47.10    5.30
  -5   8   3   46.10    5.00
   4  -8  -3   25.60    3.90
  -4   8   3   22.00    4.00
  -4   8   3   29.40    4.40
   3  -8  -3  106.29    6.80
   3  -8  -3  120.99    6.40
  -3   8   3  121.49    6.80
   2  -8  -3   84.89    6.30
  -2   8   3   82.29    6.10
   1  -8  -3    4.90    3.20
  -1   8   3    4.90    3.00
   0  -8  -3  118.79    7.80
   0   8   3  111.59    7.20
   5  -9  -3  106.39    7.30
   5  -9  -3   95.79    6.70
  -5   9   3  100.69    6.90
   4  -9  -3  117.39    6.90
   4  -9  -3  117.29    7.80
  -4   9   3  114.79    7.20
   3  -9  -3    5.50    3.30
  -3   9   3    1.50    2.90
  -3   9  -4  119.49    7.70
   3  -9   4  126.09    8.10
  -4   9  -4    4.40    3.00
   4  -9   4   -0.80    2.50
  -5   9  -4    2.00    2.80
   5  -9   4    7.80    3.00
   0   8  -4    2.20    2.70
   0  -8   4    0.40    2.80
  -1   8  -4  151.88    8.10
   1  -8   4  158.48    8.40
  -2   8  -4   76.09    6.10
   2  -8   4   69.59    6.70
  -3   8  -4   31.60    4.40
   3  -8   4   36.80    4.90
  -4   8  -4  393.96   12.60
   4  -8   4  394.46   12.20
   4  -8   4  396.26   12.40
  -5   8  -4   75.69    5.90
   5  -8   4   81.19    5.70
   5  -8   4   81.69    5.90
  -6   8  -4   18.10    4.00
   6  -8   4   14.30    3.50
  -7   8  -4  183.68    9.20
   7  -8   4  176.88    9.00
   1   7  -4   26.90    4.50
  -1  -7   4   21.10    4.40
   0   7  -4  109.59    6.70
   0  -7   4  114.99    7.30
  -1   7  -4  206.28    8.60
   1  -7   4  199.58    8.80
  -2   7  -4   99.89    5.90
   2  -7   4  107.99    6.40
  -3   7  -4  139.09    7.00
   3  -7   4  141.29    6.90
   3  -7   4  134.89    5.80
  -4   7  -4  160.38    7.40
   4  -7   4  150.48    6.60
   4  -7   4  157.08    7.00
  -5   7  -4  229.38    9.10
   5  -7   4  238.08    8.80
   5  -7   4  234.78    8.30
  -6   7  -4    7.70    2.80
   6  -7   4    8.20    2.80
  -7   7  -4    9.10    3.20
   7  -7   4   14.40    3.50
  -8   7  -4  260.37   10.80
   8  -7   4  273.37   11.30
   3   6  -4   25.50    4.30
   3   6  -4   18.90    3.80
  -3  -6   4   20.40    4.20
   2   6  -4   74.19    5.40
   2   6  -4   78.79    5.90
  -2  -6   4   82.79    6.30
   1   6  -4   -0.30    2.20
   1   6  -4   -0.60    1.90
  -1  -6   4    1.30    2.20
   0   6  -4  112.59    6.00
   0   6  -4  120.19    5.40
   0  -6   4  116.59    6.50
  -1   6  -4  311.27    9.70
  -1   6  -4  282.77   10.80
   1  -6   4  300.37    9.80
  -2   6  -4   11.80    2.70
   2  -6   4    5.40    1.70
   2  -6   4    3.10    2.20
  -3   6  -4    6.40    2.40
   3  -6   4    5.70    2.20
   3  -6   4    5.50    2.00
  -4   6  -4  153.58    6.80
   4  -6   4  153.48    6.10
   4  -6   4  135.49    6.10
  -5   6  -4  450.95   12.30
   5  -6   4  443.56   12.10
   5  -6   4  434.06   10.70
  -6   6  -4    5.30    2.40
   6  -6   4    5.30    2.50
  -7   6  -4   69.09    5.60
   7  -6   4   56.99    5.70
  -8   6  -4   39.60    5.20
   8  -6   4   50.49    5.90
   4   5  -4    4.50    2.80
  -4  -5   4    6.40    3.10
  -4  -5   4   11.20    3.50
   3   5  -4   28.70    4.30
   3   5  -4   20.70    3.60
  -3  -5   4   28.30    4.30
   2   5  -4   21.70    3.40
   2   5  -4   24.10    3.60
  -2  -5   4   23.00    3.80
   1   5  -4  471.85   11.40
   1   5  -4  443.76   11.90
  -1  -5   4  453.35   12.40
   0   5  -4  116.49    5.60
   0   5  -4  141.89    5.40
   0  -5   4  135.19    6.10
  -1   5  -4  300.57    8.60
  -1   5  -4  296.97    7.40
   1  -5   4  302.07    6.80
   1  -5   4  290.27    8.90
  -2   5  -4  797.92   16.10
  -2   5  -4  794.92   14.20
   2  -5   4  787.72   16.20
   2  -5   4  798.02   14.80
  -3   5  -4  470.15    9.50
  -3   5  -4  489.85   11.50
   3  -5   4  498.95   11.10
   3  -5   4  468.65   11.00
  -4   5  -4   78.99    3.40
  -4   5  -4   79.79    4.70
   4  -5   4   76.19    4.00
   4  -5   4   83.69    4.70
  -5   5  -4    5.10    2.20
   5  -5   4    3.90    2.30
  -6   5  -4   75.59    5.00
   6  -5   4   70.49    5.20
  -7   5  -4   -1.60    2.30
   7  -5   4    1.00    2.20
  -8   5  -4    9.50    3.30
   8  -5   4   11.40    3.70
   5   4  -4   21.90    4.10
  -5  -4   4   18.90    3.80
   4   4  -4   14.30    3.50
  -4  -4   4   15.30    3.50
  -4  -4   4    6.40    2.80
   3   4  -4   17.60    3.40
   3   4  -4   19.30    3.50
  -3  -4   4   14.00    3.10
   2   4  -4   37.40    4.00
   2   4  -4   44.60    4.20
  -2  -4   4   43.80    4.40
   1   4  -4   75.09    4.20
   1   4  -4   77.69    4.40
  -1  -4   4   75.89    4.50
   0   4  -4  513.15   10.70
   0   4  -4  478.85   11.00
   0  -4   4  505.65   11.80
   0  -4   4  511.85    8.50
  -1   4  -4 2489.95   38.00
  -1   4  -4 2466.85   39.10
   1  -4   4 2541.75   37.40
   1  -4   4 2520.95   39.70
  -2   4  -4   82.79    4.00
  -2   4  -4   84.49    3.30
   2  -4   4   85.09    3.90
   2  -4   4   82.19    3.60
  -3   4  -4  530.35   10.40
  -3   4  -4  544.55   11.60
   3  -4   4  539.55   11.00
   3  -4   4  543.35   11.60
  -4   4  -4 1340.37   23.90
  -4   4  -4 1393.86   22.60
   4  -4   4 1362.06   22.10
   4  -4   4 1367.16   24.30
  -5   4  -4  170.18    6.50
  -5   4  -4  158.18    5.40
   5  -4   4  159.98    6.50
  -6   4  -4  120.99    5.20
  -6   4  -4  115.09    6.00
   6  -4   4  110.69    6.10
  -7   4  -4   33.30    4.50
   7  -4   4   30.90    3.80
   7  -4   4   33.10    4.60
  -8   4  -4    3.40    3.00
   8  -4   4    2.60    2.90
   8  -4   4    3.00    2.50
   6   3  -4   82.19    6.70
  -6  -3   4   74.49    6.90
   5   3  -4   33.70    4.50
  -5  -3   4   39.40    4.80
  -5  -3   4   37.50    4.50
   4   3  -4  281.87    9.70
  -4  -3   4  318.47   10.00
  -4  -3   4  307.37    9.60
   3   3  -4   80.99    4.90
   3   3  -4   85.99    4.80
  -3  -3   4   80.19    4.80
   2   3  -4  159.68    6.00
   2   3  -4  185.68    6.20
  -2  -3   4  175.38    6.50
   1   3  -4  164.18    5.40
   1   3  -4  152.48    5.30
  -1  -3   4  168.28    5.80
   0   3  -4  111.29    4.10
   0   3  -4  105.69    3.90
   0  -3   4  106.09    2.70
   0  -3   4  102.19    4.30
  -1   3  -4 1126.29   19.10
  -1   3  -4 1174.78   18.90
   1  -3   4 1155.38   19.60
   1  -3   4 1169.18   18.40
  -2   3  -4  857.41   15.30
  -2   3  -4  879.61   14.90
   2  -3   4  886.71   15.20
   2  -3   4  873.01   15.30
  -3   3  -4    0.10    1.00
  -3   3  -4    3.70    1.50
   3  -3   4    1.50    1.30
   3  -3   4    2.60    1.10
  -4   3  -4  941.31   16.70
  -4   3  -4  899.31   17.20
   4  -3   4  949.71   14.80
   4  -3   4  931.51   17.80
  -5   3  -4 1847.22   31.70
   5  -3   4 1946.01   31.30
   5  -3   4 1874.31   32.40
  -6   3  -4   58.29    4.50
   6  -3   4   69.69    4.70
   6  -3   4   73.99    4.40
  -7   3  -4  137.19    6.90
   7  -3   4  123.69    6.20
   7  -3   4  132.09    6.90
  -8   3  -4  185.88    8.70
   8  -3   4  188.38    8.30
   8  -3   4  181.58    8.60
   6   2  -4  695.33   18.30
  -6  -2   4  726.43   17.80
   5   2  -4  250.97    9.40
  -5  -2   4  247.68    9.00
  -5  -2   4  240.38    8.30
   4   2  -4   50.69    4.10
  -4  -2   4   53.69    4.10
  -4  -2   4   46.80    4.00
   3   2  -4  751.32   15.20
   3   2  -4  765.52   15.90
  -3  -2   4  779.52   15.50
  -3  -2   4  763.52   15.30
   2   2  -4  334.77    8.00
   2   2  -4  348.17    8.60
  -2  -2   4  328.07    8.40
   1   2  -4    0.40    1.20
   1   2  -4   -1.00    1.00
  -1  -2   4    1.30    1.30
   0   2  -4  696.93   12.00
   0   2  -4  692.13   12.40
   0  -2   4  699.63   11.10
   0  -2   4  700.23   12.80
  -1   2  -4  624.14   10.90
  -1   2  -4  638.24   11.30
   1  -2   4  624.44   11.20
   1  -2   4  635.24   11.00
  -2   2  -4  221.88    5.30
  -2   2  -4  216.28    5.30
   2  -2   4  218.18    4.90
   2  -2   4  206.28    5.60
  -3   2  -4 2184.38   34.20
  -3   2  -4 2209.88   34.30
   3  -2   4 2304.07   32.30
   3  -2   4 2245.38   35.00
  -4   2  -4   63.29    3.60
   4  -2   4   59.59    3.40
   4  -2   4   49.99    3.40
  -5   2  -4   54.49    3.90
   5  -2   4   53.39    4.00
   5  -2   4   55.89    3.80
  -6   2  -4  335.77    9.90
   6  -2   4  333.77   10.10
   6  -2   4  329.77    9.90
  -7   2  -4   30.50    4.10
   7  -2   4   39.30    4.60
   7  -2   4   28.30    4.00
  -8   2  -4   15.60    3.90
   8  -2   4   28.00    4.40
   8  -2   4   19.30    3.80
   7   1  -4  101.99    6.80
  -7  -1   4  118.79    7.20
   6   1  -4   44.40    5.20
  -6  -1   4   48.00    5.00
   5   1  -4  187.78    7.60
  -5  -1   4  178.08    7.20
  -5  -1   4  187.28    6.80
   4   1  -4  454.55   11.40
  -4  -1   4  449.26   10.50
  -4  -1   4  438.76   10.70
   3   1  -4   29.30    1.60
   3   1  -4   28.00    2.90
  -3  -1   4   29.90    2.70
  -3  -1   4   25.70    2.70
   2   1  -4 1161.98   17.30
   2   1  -4 1175.38   19.90
   2   1  -4 1165.58   19.00
  -2  -1   4 1165.38   19.70
   1   1  -4  470.75    9.20
   1   1  -4  466.65    8.40
  -1  -1   4  482.35    9.50
  -1  -1   4  477.15    7.80
   0   1  -4   41.60    2.40
   0   1  -4   41.10    1.70
   0  -1   4   33.80    2.30
   0  -1   4   38.10    1.90
  -1   1  -4 4889.61   70.39
   1  -1   4 4853.51   69.49
   1  -1   4 4859.91   71.29
  -2   1  -4   33.30    2.00
  -2   1  -4   27.40    2.20
   2  -1   4   31.50    1.50
   2  -1   4   28.90    2.40
  -3   1  -4  282.47    6.70
   3  -1   4  291.57    7.20
   3  -1   4  282.27    7.20
  -4   1  -4  846.52   15.90
   4  -1   4  849.81   16.30
   4  -1   4  841.82   16.30
  -5   1  -4   75.49    4.40
   5  -1   4   74.69    4.40
   5  -1   4   72.39    4.50
  -6   1  -4    3.00    2.20
   6  -1   4    2.90    2.30
   6  -1   4    4.20    2.20
  -7   1  -4   43.80    4.80
   7  -1   4   47.00    5.10
   7  -1   4   43.70    4.60
  -8   1  -4   24.40    4.30
   8  -1   4   10.50    3.50
   7   0  -4  157.18    7.80
  -7   0   4  157.88    7.70
   6   0  -4   40.40    4.40
  -6   0   4   43.20    4.60
   5   0  -4    0.80    1.90
  -5   0   4    2.90    1.70
  -5   0   4    2.30    1.90
   4   0  -4   83.79    4.20
   4   0  -4   78.39    3.20
  -4   0   4   80.39    4.00
  -4   0   4   76.69    4.00
   3   0  -4  153.48    5.10
   3   0  -4  160.38    4.20
  -3   0   4  164.78    5.20
  -3   0   4  163.68    4.90
   2   0  -4  185.78    5.00
   2   0  -4  191.38    4.40
  -2   0   4  185.68    5.20
  -2   0   4  189.48    4.50
   1   0  -4  227.38    5.20
  -1   0   4  223.18    4.70
  -1   0   4  221.08    4.10
   0   0  -4  437.36    8.20
   0   0   4  441.56    8.10
   0   0   4  455.35    8.20
  -1   0  -4  119.99    2.80
  -1   0  -4  115.29    3.60
   1   0   4  119.09    3.10
   1   0   4  124.49    3.80
  -2   0  -4  232.38    5.30
   2   0   4  227.78    5.90
   2   0   4  240.38    6.00
   2   0   4  234.78    4.40
  -3   0  -4  221.28    5.90
  -3   0  -4  221.08    4.00
   3   0   4  238.98    6.70
   3   0   4  221.18    6.20
  -4   0  -4   84.09    4.20
   4   0   4   79.99    4.10
   4   0   4   82.49    4.40
  -5   0  -4  396.16   10.60
   5   0   4  403.46   10.30
   5   0   4  394.76   10.90
  -6   0  -4   80.29    5.40
   6   0   4   93.29    5.30
   6   0   4   81.19    5.40
  -7   0  -4    1.70    2.40
   7   0   4    5.40    2.70
   8  -1  -4  128.69    7.50
  -8   1   4  126.99    7.50
   7  -1  -4   79.69    5.60
  -7   1   4   78.19    5.60
   6  -1  -4  176.58    7.10
   6  -1  -4  180.18    6.20
  -6   1   4  161.78    6.90
   5  -1  -4  147.39    5.80
   5  -1  -4  155.38    5.40
  -5   1   4  157.78    5.50
  -5   1   4  152.98    5.80
   4  -1  -4  172.08    5.60
   4  -1  -4  165.88    5.20
  -4   1   4  185.68    5.60
  -4   1   4  177.28    5.60
   3  -1  -4  162.38    4.80
   3  -1  -4  162.58    4.70
  -3   1   4  162.88    5.00
  -3   1   4  156.48    4.60
   2  -1  -4   24.50    2.00
   2  -1  -4   23.70    1.80
  -2   1   4   27.00    2.40
  -2   1   4   25.70    1.80
   1  -1  -4  545.85    9.80
   1  -1  -4  537.25    9.30
  -1   1   4  555.44    8.40
  -1   1   4  518.95    9.70
  -1   1   4  532.45    9.90
   0  -1  -4   44.70    2.10
   0   1   4   47.90    1.60
   0   1   4   47.80    2.40
   0   1   4   43.00    2.30
   1   1   4   13.80    1.60
   1   1   4   14.50    1.40
   1   1   4   15.40    1.50
   1   1   4   14.80    1.70
  -2  -1  -4  186.88    5.00
   2   1   4  167.98    5.10
   2   1   4  176.28    4.20
   2   1   4  175.28    5.40
  -3  -1  -4  367.16    8.70
  -3  -1  -4  372.56    7.10
   3   1   4  382.86    9.30
   3   1   4  361.16    8.70
  -4  -1  -4  552.94   12.40
   4   1   4  545.75   13.00
   4   1   4  548.65   12.00
  -5  -1  -4   43.10    4.50
   5   1   4   43.20    3.80
   5   1   4   37.60    4.20
  -6  -1  -4   27.40    4.00
   6   1   4   25.90    4.20
  -7  -1  -4  186.18    8.90
   7   1   4  187.58    9.30
   8  -2  -4    0.20    2.30
  -8   2   4    3.30    3.00
   7  -2  -4  122.49    6.10
   7  -2  -4  106.69    5.70
  -7   2   4  104.29    6.10
   6  -2  -4 1013.40   19.60
   6  -2  -4  999.30   19.30
  -6   2   4 1002.50   18.40
  -6   2   4  973.10   19.70
   5  -2  -4   31.80    3.20
   5  -2  -4   37.30    3.30
  -5   2   4   32.00    2.90
  -5   2   4   25.80    3.00
   4  -2  -4  486.75    9.80
   4  -2  -4  457.35   10.30
  -4   2   4  477.45   10.10
  -4   2   4  479.35   10.10
   3  -2  -4 2538.95   38.90
   3  -2  -4 2539.65   37.50
  -3   2   4 2514.25   38.60
  -3   2   4 2552.94   38.00
   2  -2  -4  182.18    5.10
   2  -2  -4  185.58    4.10
  -2   2   4  178.88    5.20
  -2   2   4  183.28    4.40
   1  -2  -4  608.64   10.00
   1  -2  -4  583.14   11.10
  -1   2   4  590.94   11.20
  -1   2   4  613.14   10.00
   0   2   4  409.06    7.70
   0   2   4  387.66    8.20
   0   2   4  410.66    8.30
   0   2   4  400.46    7.50
   1   2   4  603.74   11.20
   1   2   4  603.14   11.10
   1   2   4  609.94   11.50
   1   2   4  609.84   11.50
   2   2   4  373.46    8.40
   2   2   4  382.66    8.70
   2   2   4  367.56    7.90
   2   2   4  362.56    8.80
  -3  -2  -4   42.70    2.60
  -3  -2  -4   39.30    3.50
   3   2   4   42.60    3.50
   3   2   4   44.00    3.00
  -4  -2  -4   10.50    2.60
   4   2   4    3.10    2.00
   4   2   4    5.70    1.90
  -5  -2  -4  420.36   12.00
   5   2   4  397.46   12.20
  -6  -2  -4   80.59    6.10
   6   2   4   65.49    5.50
   8  -3  -4   76.19    5.40
   8  -3  -4   70.19    5.40
  -8   3   4   60.69    5.80
   7  -3  -4   57.69    5.20
   7  -3  -4   36.00    3.80
  -7   3   4   37.20    4.20
   6  -3  -4    3.50    2.10
   6  -3  -4    5.60    1.90
  -6   3   4    6.90    2.30
  -6   3   4    6.90    1.90
   5  -3  -4 1377.66   24.80
   5  -3  -4 1388.06   23.00
  -5   3   4 1402.56   24.30
  -5   3   4 1387.06   23.70
   4  -3  -4    1.90    1.60
   4  -3  -4    0.80    1.10
  -4   3   4    0.80    1.30
  -4   3   4    0.60    1.20
   3  -3  -4   60.39    3.50
   3  -3  -4   63.89    2.20
  -3   3   4   68.89    3.10
  -3   3   4   60.19    3.30
   2  -3  -4 1373.66   20.50
   2  -3  -4 1396.76   23.20
  -2   3   4 1407.76   23.20
  -2   3   4 1393.26   22.10
   1  -3  -4  180.78    5.30
   1  -3  -4  178.98    4.00
  -1   3   4  183.68    4.90
  -1   3   4  186.18    5.50
   0   3   4  485.35   10.40
   0   3   4  511.15   10.20
   0   3   4  503.95    9.90
   0   3   4  494.85    9.40
   1   3   4  310.47    7.70
   1   3   4  307.87    7.40
   1   3   4  322.87    7.60
   1   3   4  302.87    7.60
  -2  -3  -4  143.59    5.20
   2   3   4  139.39    4.90
   2   3   4  149.59    5.60
   2   3   4  142.09    5.50
  -3  -3  -4   53.89    3.50
  -3  -3  -4   61.09    4.30
   3   3   4   58.29    4.10
   3   3   4   61.59    3.50
  -4  -3  -4  326.97   10.30
   4   3   4  313.67   10.30
  -5  -3  -4   16.40    3.60
   5   3   4   21.90    4.10
  -6  -3  -4   62.79    6.10
   6   3   4   81.59    6.60
   8  -4  -4   -0.20    2.50
  -8   4   4    1.30    2.40
   7  -4  -4  189.48    8.00
  -7   4   4  184.68    7.80
   6  -4  -4   37.20    4.20
  -6   4   4   37.40    4.00
  -6   4   4   35.90    3.40
   5  -4  -4   27.40    3.40
  -5   4   4   22.80    3.00
  -5   4   4   29.40    3.10
   4  -4  -4  332.07    9.10
  -4   4   4  333.17    8.40
  -4   4   4  349.37    8.80
   3  -4  -4  251.67    7.40
  -3   4   4  236.38    7.00
  -3   4   4  242.68    6.70
   2  -4  -4   35.50    1.20
   2  -4  -4   37.00    3.00
  -2   4   4   30.20    2.90
  -2   4   4   32.50    2.70
   1  -4  -4  890.31   14.30
   1  -4  -4  889.11   16.50
  -1   4   4  911.21   17.10
  -1   4   4  893.61   16.20
   0  -4  -4  226.38    6.50
   0   4   4  252.57    6.90
   0   4   4  234.58    6.00
   0   4   4  237.28    7.20
  -1  -4  -4   18.80    2.30
   1   4   4   15.40    2.50
   1   4   4   12.70    2.10
   1   4   4   18.80    2.70
  -2  -4  -4  244.98    7.70
   2   4   4  239.78    7.90
   2   4   4  238.88    6.70
   2   4   4  239.68    7.70
  -3  -4  -4   21.70    3.10
   3   4   4   17.60    3.30
   3   4   4   16.90    3.20
  -4  -4  -4   15.20    3.30
   4   4   4   14.00    3.20
  -5  -4  -4   99.79    6.90
   5   4   4  102.39    7.10
   8  -5  -4   14.30    3.60
  -8   5   4   20.80    3.70
   7  -5  -4   39.50    4.80
  -7   5   4   41.70    4.80
   6  -5  -4  497.75   13.40
  -6   5   4  488.05   11.90
  -6   5   4  502.15   12.70
   5  -5  -4   17.70    3.10
  -5   5   4   11.10    2.30
  -5   5   4   18.70    2.80
   4  -5  -4   29.80    3.50
  -4   5   4   31.60    3.40
  -4   5   4   34.00    3.40
   3  -5  -4  850.71   17.30
  -3   5   4  868.11   17.40
  -3   5   4  871.31   16.70
   2  -5  -4  396.16   10.00
  -2   5   4  396.86    9.80
  -2   5   4  400.06   10.40
   1  -5  -4    6.20    1.80
  -1   5   4    6.20    2.00
  -1   5   4    6.80    2.00
   0  -5  -4  112.49    4.80
   0   5   4  122.59    4.50
   0   5   4  127.79    5.80
   0   5   4  125.79    5.50
  -1  -5  -4  321.07    9.80
  -1  -5  -4  324.27    8.30
   1   5   4  307.57    9.40
   1   5   4  328.57    8.80
  -2  -5  -4    4.70    2.30
   2   5   4    2.50    2.20
   2   5   4    5.20    2.30
  -3  -5  -4   40.40    4.50
   3   5   4   34.50    4.70
   3   5   4   37.20    4.30
  -4  -5  -4   -0.70    2.40
   4   5   4    3.20    2.60
   8  -6  -4   -0.10    2.70
  -8   6   4    1.50    2.50
   7  -6  -4  251.17   10.00
  -7   6   4  250.97    9.40
   6  -6  -4    1.30    2.30
  -6   6   4   -0.80    1.90
  -6   6   4   -1.00    1.90
   5  -6  -4   84.19    5.20
  -5   6   4   90.89    5.30
  -5   6   4   88.99    5.30
   4  -6  -4  437.56   11.80
  -4   6   4  438.56   11.30
  -4   6   4  420.06   11.40
   3  -6  -4    2.00    2.00
  -3   6   4    0.90    1.90
  -3   6   4    0.90    1.80
   2  -6  -4  268.97    8.20
  -2   6   4  250.37    8.60
  -2   6   4  257.27    8.30
   1  -6  -4  219.58    7.30
  -1   6   4  243.38    8.10
  -1   6   4  224.18    8.40
   0  -6  -4   95.19    4.80
   0  -6  -4   94.19    5.90
   0   6   4  112.19    5.90
  -1  -6  -4  178.68    8.00
   1   6   4  180.88    7.70
  -2  -6  -4  101.39    6.30
   2   6   4  105.99    6.60
   3   6   4    7.00    3.10
   8  -7  -4   13.80    4.00
  -8   7   4   12.80    3.50
   7  -7  -4    9.30    3.40
  -7   7   4   12.20    3.40
  -7   7   4   11.40    3.00
   6  -7  -4  313.27   11.00
  -6   7   4  282.97    9.90
  -6   7   4  308.97   10.30
   5  -7  -4   87.19    5.80
  -5   7   4   78.39    5.40
  -5   7   4   77.09    5.40
   4  -7  -4   33.60    4.00
  -4   7   4   39.60    4.60
  -4   7   4   41.90    4.60
   3  -7  -4  451.55   12.30
  -3   7   4  463.65   13.20
  -3   7   4  486.65   12.70
   2  -7  -4   22.10    3.20
  -2   7   4   21.70    3.90
  -2   7   4   22.80    3.60
   1  -7  -4   31.10    4.40
  -1   7   4   49.30    4.90
   0  -7  -4   99.99    6.70
   0   7   4  103.39    6.30
  -1  -7  -4   64.19    6.40
   1   7   4   56.49    5.70
   7  -8  -4   12.30    3.80
  -7   8   4   12.60    3.60
  -7   8   4    8.40    3.20
   6  -8  -4    7.70    3.30
  -6   8   4    3.70    2.80
  -6   8   4   13.80    3.50
   5  -8  -4  147.89    7.50
  -5   8   4  143.99    7.60
  -5   8   4  143.99    7.40
   4  -8  -4   75.49    5.60
  -4   8   4   75.19    6.00
  -4   8   4   72.49    5.60
   3  -8  -4   30.40    4.10
   3  -8  -4   24.80    4.40
  -3   8   4   27.50    4.40
  -3   8   4   31.80    4.20
   2  -8  -4  159.28    8.60
  -2   8   4  163.58    7.90
   1  -8  -4    0.70    2.80
  -1   8   4   -1.20    2.40
   0  -8  -4    5.40    3.40
   0   8   4    6.40    3.30
   5  -9  -4   49.50    5.60
   5  -9  -4   37.10    5.20
  -5   9   4   38.80    5.30
  -5   9   4   40.10    5.10
   4  -9  -4   99.59    7.40
   4  -9  -4  104.59    6.70
  -4   9   4  104.69    6.90
  -4   9  -5  145.99    8.30
   4  -9   5  152.68    8.50
   0   8  -5   34.40    5.10
   0  -8   5   33.90    5.30
  -1   8  -5    2.70    2.60
   1  -8   5    4.80    3.10
  -2   8  -5  100.09    6.50
   2  -8   5  107.89    7.20
  -3   8  -5   80.09    5.90
   3  -8   5   94.29    6.60
  -4   8  -5    1.80    2.60
   4  -8   5   -1.10    2.30
  -5   8  -5  116.69    7.10
   5  -8   5  131.19    6.80
   5  -8   5  119.69    6.70
  -6   8  -5    0.40    2.70
   6  -8   5    4.40    2.80
  -7   8  -5   28.40    4.90
   7  -8   5   22.30    4.40
   1   7  -5   31.70    4.60
  -1  -7   5   37.00    5.20
   0   7  -5  287.97   10.50
   0  -7   5  306.37   11.30
  -1   7  -5   45.30    4.80
   1  -7   5   60.29    6.10
  -2   7  -5    2.60    2.30
   2  -7   5    7.80    3.00
  -3   7  -5  158.28    7.40
   3  -7   5  162.08    8.70
   3  -7   5  162.18    7.50
  -4   7  -5    2.90    2.30
   4  -7   5    3.60    2.30
   4  -7   5   -0.70    1.90
  -5   7  -5   53.59    5.20
   5  -7   5   58.29    4.90
   5  -7   5   45.30    4.40
  -6   7  -5  135.39    7.40
   6  -7   5  142.99    7.50
  -7   7  -5   19.20    4.00
   7  -7   5   22.60    4.40
   3   6  -5   15.40    4.00
   3   6  -5   10.20    3.20
  -3  -6   5   14.00    3.80
   2   6  -5   10.30    3.10
   2   6  -5    8.10    2.90
  -2  -6   5    9.30    3.50
   1   6  -5  204.18    8.40
   1   6  -5  207.58    7.80
  -1  -6   5  194.88    8.80
   0   6  -5   14.00    3.10
   0   6  -5   11.30    2.50
   0  -6   5   10.10    2.90
  -1   6  -5  428.66   10.20
  -1   6  -5  442.86   11.90
   1  -6   5  425.56   12.30
  -2   6  -5  199.08    7.50
   2  -6   5  187.08    6.00
   2  -6   5  182.58    7.40
  -3   6  -5  236.78    8.20
   3  -6   5  250.37    7.60
   3  -6   5  227.78    8.10
  -4   6  -5  477.15   12.40
   4  -6   5  490.45   11.80
   4  -6   5  452.75   11.80
  -5   6  -5   24.30    3.50
   5  -6   5   26.80    3.80
  -6   6  -5   75.29    5.40
   6  -6   5   64.29    5.40
  -7   6  -5   44.00    5.00
   7  -6   5   64.19    6.20
  -8   6  -5   13.10    3.50
   8  -6   5   13.00    3.90
   4   5  -5   -3.00    2.40
  -4  -5   5    2.10    2.90
  -4  -5   5    1.40    2.50
   3   5  -5  171.88    8.00
   3   5  -5  182.38    8.20
  -3  -5   5  182.58    8.50
   2   5  -5    2.30    2.30
   2   5  -5    0.50    2.00
  -2  -5   5    3.00    2.50
   1   5  -5  122.29    5.70
   1   5  -5  114.69    5.80
  -1  -5   5  120.49    6.40
   0   5  -5  438.46   11.30
   0   5  -5  475.65   10.90
   0  -5   5  451.75   12.00
  -1   5  -5  142.29    5.80
  -1   5  -5  136.39    5.00
   1  -5   5  138.29    6.20
   1  -5   5  148.59    4.40
  -2   5  -5   14.20    2.50
  -2   5  -5   20.90    2.30
   2  -5   5   22.20    2.50
   2  -5   5   19.20    2.80
  -3   5  -5 1121.19   21.00
  -3   5  -5 1134.19   19.30
   3  -5   5 1127.39   20.50
   3  -5   5 1137.89   20.80
  -4   5  -5  167.98    5.40
  -4   5  -5  171.88    6.60
   4  -5   5  173.38    5.90
   4  -5   5  172.58    6.60
  -5   5  -5   99.29    5.00
  -5   5  -5  106.79    5.50
   5  -5   5   92.69    5.50
  -6   5  -5   21.50    3.60
   6  -5   5   15.30    3.30
  -7   5  -5    1.00    2.40
   7  -5   5    3.00    2.60
  -8   5  -5  243.28   10.00
   8  -5   5  236.68   10.30
   5   4  -5  100.69    7.10
  -5  -4   5   90.19    6.40
  -5  -4   5  107.89    7.00
   4   4  -5   62.69    6.00
  -4  -4   5   53.69    5.40
  -4  -4   5   60.09    5.70
   3   4  -5    8.60    2.80
   3   4  -5    8.90    2.90
  -3  -4   5    0.80    2.20
   2   4  -5  567.84   13.40
   2   4  -5  563.94   13.60
  -2  -4   5  578.54   14.10
   1   4  -5   54.39    3.80
   1   4  -5   52.99    3.70
  -1  -4   5   49.30    4.10
   0   4  -5   46.40    3.30
   0   4  -5   48.50    3.30
   0  -4   5   54.59    3.90
   0  -4   5   47.10    2.20
  -1   4  -5 1075.79   19.50
  -1   4  -5 1102.39   18.90
   1  -4   5 1130.89   18.20
   1  -4   5 1089.69   20.20
  -2   4  -5  515.75   11.10
  -2   4  -5  508.95   10.30
   2  -4   5  502.15   11.10
   2  -4   5  517.05   10.60
  -3   4  -5    7.00    1.90
  -3   4  -5    5.40    1.50
   3  -4   5    6.90    1.70
   3  -4   5    4.00    1.70
  -4   4  -5   72.79    3.70
  -4   4  -5   72.59    4.20
   4  -4   5   79.59    4.50
   4  -4   5   72.79    3.30
  -5   4  -5  558.04   12.00
  -5   4  -5  560.74   13.10
   5  -4   5  547.95   13.40
  -6   4  -5   39.40    4.30
  -6   4  -5   32.80    3.40
   6  -4   5   47.60    5.00
  -7   4  -5  145.69    7.30
  -7   4  -5  139.29    6.40
   7  -4   5  144.79    7.30
  -8   4  -5   22.40    4.30
   8  -4   5   20.80    4.00
   8  -4   5   19.10    3.50
   5   3  -5   22.60    4.00
  -5  -3   5   36.10    4.50
  -5  -3   5   30.20    4.50
   4   3  -5    5.70    2.70
  -4  -3   5    5.10    2.50
  -4  -3   5    8.80    2.80
   3   3  -5  209.78    7.40
   3   3  -5  217.18    7.80
  -3  -3   5  206.58    7.70
   2   3  -5   44.40    3.40
   2   3  -5   48.00    3.70
  -2  -3   5   45.50    3.80
   1   3  -5  344.37    8.60
   1   3  -5  362.86    8.50
  -1  -3   5  339.97    9.10
   0   3  -5  574.54   11.50
   0   3  -5  575.04   11.30
   0  -3   5  586.14   12.20
   0  -3   5  572.34    9.70
  -1   3  -5   18.40    2.10
  -1   3  -5   23.60    2.30
   1  -3   5   19.30    1.80
   1  -3   5   13.40    2.00
  -2   3  -5  869.71   15.40
  -2   3  -5  879.31   15.40
   2  -3   5  868.31   15.40
   2  -3   5  875.61   15.60
  -3   3  -5    3.00    1.30
  -3   3  -5    1.80    1.30
   3  -3   5    1.70    1.10
   3  -3   5    0.70    1.50
  -4   3  -5    3.40    1.50
  -4   3  -5   -1.20    1.20
   4  -3   5   -0.20    1.40
   4  -3   5    1.30    0.90
  -5   3  -5   65.59    4.20
  -5   3  -5   64.29    3.80
   5  -3   5   65.29    4.00
   5  -3   5   64.39    4.50
  -6   3  -5  124.49    6.10
   6  -3   5  115.89    6.20
   6  -3   5  123.99    5.80
  -7   3  -5   11.00    3.10
   7  -3   5    9.40    3.10
   7  -3   5    8.40    2.80
  -8   3  -5   20.20    3.90
   8  -3   5   20.60    3.80
   8  -3   5   16.90    3.70
   6   2  -5   37.20    5.00
  -6  -2   5   45.70    5.10
   5   2  -5    1.70    2.00
  -5  -2   5    1.10    2.20
  -5  -2   5    0.00    2.00
   4   2  -5  123.59    6.10
  -4  -2   5  109.99    5.50
  -4  -2   5  120.79    5.80
   3   2  -5    4.90    1.90
  -3  -2   5    6.20    2.00
  -3  -2   5    8.00    2.10
   2   2  -5   22.20    2.60
   2   2  -5   27.90    2.60
  -2  -2   5   29.60    3.20
   1   2  -5  749.42   13.30
   1   2  -5  761.02   14.20
  -1  -2   5  758.12   11.60
  -1  -2   5  745.43   14.50
   0   2  -5  414.36    8.70
   0   2  -5  421.96    8.00
   0  -2   5  401.46    7.50
   0  -2   5  422.56    9.10
  -1   2  -5 1625.24   24.80
  -1   2  -5 1650.13   25.80
   1  -2   5 1642.24   25.30
   1  -2   5 1618.74   25.60
  -2   2  -5  298.47    6.50
   2  -2   5  300.07    7.20
   2  -2   5  309.17    6.40
  -3   2  -5  787.42   14.20
  -3   2  -5  794.82   14.50
   3  -2   5  769.72   12.40
   3  -2   5  795.22   15.10
  -4   2  -5 1725.83   28.50
   4  -2   5 1768.42   29.00
   4  -2   5 1724.03   29.40
  -5   2  -5  332.17    9.00
   5  -2   5  320.07    9.10
   5  -2   5  309.07    9.20
  -6   2  -5   12.20    2.70
   6  -2   5    9.30    2.50
   6  -2   5   13.20    2.90
  -7   2  -5   51.09    5.10
   7  -2   5   46.10    4.90
   7  -2   5   51.69    5.00
  -8   2  -5    5.40    3.00
   8  -2   5    3.40    2.70
   8  -2   5   -0.10    2.40
   7   1  -5  157.38    8.50
  -7  -1   5  158.08    8.20
   6   1  -5  329.47   11.30
  -6  -1   5  336.47   10.80
   5   1  -5  242.88    8.90
  -5  -1   5  256.17    8.50
  -5  -1   5  260.77    8.40
   4   1  -5   62.99    4.30
  -4  -1   5   65.49    4.10
  -4  -1   5   54.99    3.80
   3   1  -5  479.95   11.10
   3   1  -5  467.75    8.30
  -3  -1   5  459.75   10.20
  -3  -1   5  475.25   10.70
   2   1  -5   24.00    1.50
   2   1  -5   24.60    2.10
   2   1  -5   17.10    2.10
  -2  -1   5   22.40    2.50
  -2  -1   5   25.70    2.20
   1   1  -5  468.35    9.70
   1   1  -5  500.65    8.70
  -1  -1   5  490.25    8.50
  -1  -1   5  501.95   10.00
   0   1  -5  239.28    4.60
   0   1  -5  242.58    5.90
   0  -1   5  249.78    5.90
   0  -1   5  235.88    5.30
  -1   1  -5 2483.45   37.30
  -1   1  -5 2476.35   35.60
   1  -1   5 2498.35   37.00
   1  -1   5 2442.76   36.50
  -2   1  -5 2340.47   35.00
  -2   1  -5 2221.88   33.80
   2  -1   5 2281.67   33.20
  -3   1  -5  293.27    7.00
   3  -1   5  289.87    7.50
   3  -1   5  300.57    7.70
   3  -1   5  293.17    4.80
  -4   1  -5    1.40    1.40
   4  -1   5    1.10    1.40
   4  -1   5    1.60    1.60
  -5   1  -5 1492.85   25.80
   5  -1   5 1455.25   26.20
   5  -1   5 1407.96   26.30
  -6   1  -5    2.40    2.00
   6  -1   5    4.50    2.20
   6  -1   5    1.60    2.30
  -7   1  -5    3.00    2.50
   7  -1   5   -1.20    2.20
   7  -1   5    1.30    2.30
  -8   1  -5   99.09    6.90
   8  -1   5   92.49    6.90
   7   0  -5    0.30    2.40
  -7   0   5    0.90    2.30
   6   0  -5  587.84   15.00
  -6   0   5  563.74   17.70
  -6   0   5  564.84   14.10
   5   0  -5 1079.69   21.50
  -5   0   5 1097.49   20.90
  -5   0   5 1146.19   20.80
   4   0  -5  360.16    9.40
   4   0  -5  373.56    8.00
  -4   0   5  360.16    8.90
  -4   0   5  380.36    9.40
   3   0  -5  195.58    6.10
   3   0  -5  207.58    5.10
  -3   0   5  208.28    5.60
  -3   0   5  215.68    6.30
   2   0  -5 2201.88   33.50
   2   0  -5 2164.28   32.30
  -2   0   5 2117.69   33.70
  -2   0   5 2203.48   32.20
   1   0  -5 1214.78   20.00
  -1   0   5 1270.67   20.40
  -1   0   5 1238.68   19.50
  -1   0   5 1245.68   18.10
   0   0  -5  940.81   15.70
   0   0   5  952.00   15.70
   0   0   5  930.91   15.50
  -1   0  -5  645.84   11.60
  -1   0  -5  632.04   10.10
   1   0   5  649.34   10.90
   1   0   5  622.04   11.80
  -2   0  -5  139.89    3.90
   2   0   5  137.99    4.70
   2   0   5  146.69    3.40
   2   0   5  138.59    4.60
  -3   0  -5  189.48    5.40
   3   0   5  197.48    3.80
   3   0   5  190.78    6.10
   3   0   5  193.88    6.00
  -4   0  -5  591.34   12.60
   4   0   5  597.04   13.50
   4   0   5  593.14   12.90
  -5   0  -5  144.99    6.00
   5   0   5  160.38    6.30
   5   0   5  149.59    6.50
  -6   0  -5  234.68    8.60
   6   0   5  233.28    8.30
   6   0   5  225.08    8.90
  -7   0  -5   59.89    5.90
   7   0   5   49.40    5.50
   8  -1  -5   57.19    6.10
  -8   1   5   41.10    5.10
   7  -1  -5  415.66   12.40
  -7   1   5  399.26   12.10
   6  -1  -5   32.40    4.00
  -6   1   5   33.60    3.90
  -6   1   5   30.30    3.40
   5  -1  -5  158.58    5.50
   5  -1  -5  150.38    6.10
  -5   1   5  159.18    6.10
  -5   1   5  153.28    5.80
   4  -1  -5 1402.96   23.90
   4  -1  -5 1406.96   23.20
  -4   1   5 1394.76   23.90
  -4   1   5 1391.86   23.40
   3  -1  -5    4.40    1.30
   3  -1  -5    2.30    1.20
  -3   1   5    3.60    1.50
  -3   1   5    2.80    1.20
   2  -1  -5   69.49    3.00
   2  -1  -5   61.29    2.70
  -2   1   5   65.89    3.30
  -2   1   5   71.19    2.40
   1  -1  -5 2708.33   39.80
  -1   1   5 2709.83   38.10
  -1   1   5 2693.43   40.20
  -1   1   5 2699.13   40.50
   0  -1  -5  290.97    6.30
   0   1   5  294.37    6.70
   0   1   5  289.27    4.90
   0   1   5  286.77    6.40
  -1  -1  -5  388.46    7.20
   1   1   5  392.86    7.70
   1   1   5  393.96    8.50
   1   1   5  379.86    8.20
  -2  -1  -5  429.06    8.60
   2   1   5  423.96    9.40
   2   1   5  428.16    8.00
   2   1   5  412.26    9.40
  -3  -1  -5   27.40    2.70
  -3  -1  -5   24.20    1.80
   3   1   5   22.50    2.50
   3   1   5   27.60    2.90
  -4  -1  -5  720.53   15.00
   4   1   5  718.63   15.90
   4   1   5  751.72   15.30
  -5  -1  -5   83.69    5.20
   5   1   5   85.09    5.00
   5   1   5   81.89    5.50
  -6  -1  -5   12.30    3.10
   6   1   5    4.40    2.60
  -7  -1  -5   26.80    4.30
   7   1   5   28.60    4.80
   8  -2  -5    2.10    2.50
  -8   2   5    0.60    2.50
   7  -2  -5    0.80    3.50
   7  -2  -5    3.50    2.20
  -7   2   5    0.80    2.30
   6  -2  -5  315.07    9.30
   6  -2  -5  316.57    9.00
  -6   2   5  326.97    9.50
  -6   2   5  331.87    8.90
   5  -2  -5    3.70    1.70
   5  -2  -5    3.40    1.70
  -5   2   5    5.50    2.00
  -5   2   5    4.70    1.80
   4  -2  -5    2.90    1.50
   4  -2  -5    2.60    1.30
  -4   2   5    3.60    1.50
  -4   2   5    2.20    1.50
   3  -2  -5  715.93   13.60
   3  -2  -5  708.63   12.50
  -3   2   5  692.53   12.40
  -3   2   5  695.83   13.50
   2  -2  -5   21.50    1.80
   2  -2  -5   17.30    2.20
  -2   2   5   19.90    1.60
  -2   2   5   14.20    1.90
   1  -2  -5    3.90    1.00
   1  -2  -5    2.90    1.30
  -1   2   5    3.40    0.90
  -1   2   5    2.70    1.30
   0  -2  -5   68.69    2.80
   0   2   5   67.69    3.10
   0   2   5   61.19    2.40
   0   2   5   64.89    3.10
   1   2   5  223.88    5.90
   1   2   5  217.28    5.40
   1   2   5  216.88    6.00
   1   2   5  221.58    5.70
  -2  -2  -5  260.47    6.90
   2   2   5  262.67    7.40
   2   2   5  267.37    6.40
   2   2   5  259.87    6.80
   2   2   5  259.37    7.00
  -3  -2  -5  646.74   13.50
  -3  -2  -5  624.14   12.00
   3   2   5  633.34   13.20
   3   2   5  613.24   13.90
  -4  -2  -5  119.29    5.70
   4   2   5  118.29    5.20
   4   2   5  113.99    5.90
  -5  -2  -5   94.49    5.80
   5   2   5   99.49    6.10
  -6  -2  -5  263.27   10.10
   6   2   5  252.07   10.50
   8  -3  -5   41.30    5.10
   8  -3  -5   38.60    5.20
  -8   3   5   31.70    4.60
   7  -3  -5  105.69    5.50
   7  -3  -5   98.79    5.70
  -7   3   5  104.19    5.90
   6  -3  -5  128.59    5.20
   6  -3  -5  123.69    5.90
  -6   3   5  119.79    5.30
  -6   3   5  129.39    5.90
   5  -3  -5  163.58    5.30
   5  -3  -5  142.59    5.80
  -5   3   5  157.08    5.80
  -5   3   5  155.38    5.70
   4  -3  -5   34.20    3.20
   4  -3  -5   36.70    2.30
  -4   3   5   36.50    3.00
   3  -3  -5    1.30    0.90
   3  -3  -5    0.20    1.40
  -3   3   5    1.70    1.30
  -3   3   5    0.50    1.00
   2  -3  -5  163.38    5.30
   2  -3  -5  152.38    3.70
  -2   3   5  156.28    4.50
  -2   3   5  158.48    5.30
   1  -3  -5   51.29    2.20
  -1   3   5   54.89    2.60
  -1   3   5   47.30    3.20
   0   3   5  174.58    5.50
   0   3   5  169.58    5.30
   0   3   5  168.68    4.80
   0   3   5  172.38    4.90
   1   3   5  340.57    8.10
   1   3   5  330.67    8.10
   1   3   5  333.37    8.20
   1   3   5  324.87    8.20
   2   3   5    5.20    1.70
   2   3   5    8.30    2.10
   2   3   5   10.30    2.00
   2   3   5   10.30    2.10
  -3  -3  -5    0.40    1.70
  -3  -3  -5    0.40    1.40
   3   3   5   -0.90    1.50
   3   3   5   -0.30    1.80
  -4  -3  -5  380.46   11.10
   4   3   5  362.56   11.30
  -5  -3  -5  128.09    7.00
   5   3   5  123.29    7.20
   8  -4  -5   29.20    4.40
  -8   4   5   26.60    4.20
   7  -4  -5  118.09    6.40
  -7   4   5  114.29    6.30
   6  -4  -5  459.85   12.40
  -6   4   5  470.45   11.30
  -6   4   5  478.15   12.00
   5  -4  -5   19.70    3.10
  -5   4   5   15.40    2.50
  -5   4   5   18.70    2.80
   4  -4  -5  104.99    5.00
  -4   4   5  117.69    5.00
  -4   4   5  105.59    4.50
  -3   4   5  942.01   16.90
  -3   4   5  942.91   18.00
   2  -4  -5   45.30    1.80
   2  -4  -5   41.40    3.30
  -2   4   5   46.00    2.80
  -2   4   5   48.40    3.30
   1  -4  -5   21.50    1.80
   1  -4  -5   21.60    2.60
  -1   4   5   18.80    2.60
  -1   4   5   20.00    2.20
   0  -4  -5  144.29    5.30
   0   4   5  137.69    5.60
   0   4   5  150.38    4.70
   0   4   5  150.88    5.20
   1   4   5    5.30    2.00
   1   4   5    5.20    2.00
   1   4   5    4.00    1.60
   1   4   5    3.60    1.60
  -2  -4  -5  202.58    7.00
   2   4   5  198.68    6.40
   2   4   5  194.78    7.10
   2   4   5  201.38    7.20
  -3  -4  -5   81.19    5.40
  -3  -4  -5   81.39    4.80
   3   4   5   86.99    5.40
  -4  -4  -5   78.29    5.80
   4   4   5   76.79    5.80
  -5  -4  -5   86.59    6.60
   5   4   5  107.09    7.20
   8  -5  -5   23.90    4.20
  -8   5   5   32.20    4.50
   7  -5  -5   46.40    5.20
  -7   5   5   45.10    4.70
   6  -5  -5   57.09    5.20
  -6   5   5   56.79    4.40
  -6   5   5   52.89    4.10
   5  -5  -5  772.32   17.50
  -5   5   5  820.92   17.00
  -5   5   5  815.42   16.60
   4  -5  -5   22.60    3.10
  -4   5   5   27.70    3.30
  -4   5   5   28.90    3.10
   3  -5  -5   25.90    3.20
  -3   5   5   26.30    3.00
  -3   5   5   23.00    3.10
   2  -5  -5  824.52   16.70
  -2   5   5  820.92   16.00
  -2   5   5  818.02   17.10
   1  -5  -5   15.50    2.50
  -1   5   5   10.00    2.40
  -1   5   5   11.60    2.30
   0  -5  -5   39.70    3.50
   0   5   5   38.20    3.80
   0   5   5   39.30    4.40
   0   5   5   36.50    3.90
  -1  -5  -5  333.17   10.20
  -1  -5  -5  345.87    9.10
   1   5   5  342.37    9.80
   1   5   5  337.67    9.20
  -2  -5  -5   72.59    5.00
   2   5   5   74.89    4.90
   2   5   5   60.69    4.80
  -3  -5  -5   43.80    5.00
   3   5   5   43.80    4.80
   3   5   5   46.00    5.10
  -4  -5  -5   27.90    4.50
   4   5   5   24.20    4.00
   8  -6  -5    1.50    2.80
  -8   6   5   -0.20    2.30
   7  -6  -5   58.69    5.80
  -7   6   5   56.29    5.30
  -7   6   5   63.29    4.80
   6  -6  -5  242.28    9.40
  -6   6   5  235.58    8.40
  -6   6   5  228.18    8.40
   5  -6  -5    8.70    2.80
  -5   6   5    8.80    2.50
  -5   6   5    9.40    2.60
   4  -6  -5  138.29    6.70
  -4   6   5  151.98    6.20
  -4   6   5  143.69    6.70
   3  -6  -5  190.58    7.30
  -3   6   5  199.28    7.10
  -3   6   5  206.38    7.80
   2  -6  -5    3.10    1.90
  -2   6   5   -1.30    1.90
  -2   6   5    2.10    1.90
   1  -6  -5   92.89    5.00
  -1   6   5   95.49    5.70
  -1   6   5   85.29    5.00
   0  -6  -5   52.09    3.80
   0  -6  -5   51.89    5.10
   0   6   5   46.40    4.50
   0   6   5   53.99    5.10
  -1  -6  -5    1.80    2.50
   1   6   5   -2.80    2.10
  -2  -6  -5   15.10    3.50
   2   6   5   16.10    3.60
   7  -7  -5   -0.40    2.70
  -7   7   5   -4.00    2.10
  -7   7   5    3.20    2.40
   6  -7  -5   46.00    5.40
  -6   7   5   42.70    4.70
  -6   7   5   54.39    5.20
   5  -7  -5  122.89    6.80
  -5   7   5  120.69    6.70
  -5   7   5  119.09    6.30
   4  -7  -5    5.20    2.60
  -4   7   5    3.10    2.20
  -4   7   5    7.70    2.40
   3  -7  -5  107.69    6.00
  -3   7   5   95.49    5.60
  -3   7   5  105.29    6.40
   2  -7  -5  355.96   10.50
  -2   7   5  341.27   10.60
  -2   7   5  346.37   11.30
   1  -7  -5    0.50    2.00
   1  -7  -5    2.40    2.70
  -1   7   5    3.50    2.40
  -1   7   5   -0.70    2.20
   0  -7  -5    7.90    3.00
   0   7   5    7.30    2.90
  -1  -7  -5   45.10    5.40
   1   7   5   55.89    5.60
   7  -8  -5  102.69    7.40
  -7   8   5   92.59    6.60
  -7   8   5  104.89    6.90
   6  -8  -5    7.80    3.20
  -6   8   5   13.60    3.60
  -6   8   5   11.70    3.40
   5  -8  -5    9.30    3.30
  -5   8   5    8.00    3.30
  -5   8   5    7.10    2.80
   4  -8  -5  223.98    9.20
  -4   8   5  234.48    9.10
  -4   8   5  226.58    9.70
   3  -8  -5   10.20    3.00
  -3   8   5    4.60    2.50
  -3   8   5    8.00    3.30
   2  -8  -5   49.40    5.90
  -2   8   5   56.79    5.70
   1  -8  -5  249.08   10.80
  -1   8   5  259.67   10.10
  -1   8  -6   12.40    3.60
   1  -8   6   13.70    4.00
  -2   8  -6    8.80    3.20
   2  -8   6   11.00    3.50
  -3   8  -6  108.89    6.80
   3  -8   6  108.39    7.10
  -4   8  -6    0.50    2.20
   4  -8   6    0.30    2.60
  -5   8  -6   89.49    6.30
   5  -8   6   90.59    6.00
   5  -8   6   89.59    6.60
  -6   8  -6   35.70    4.80
   6  -8   6   24.50    4.30
   1   7  -6   -0.50    2.50
  -1  -7   6   -0.20    2.90
   0   7  -6   27.80    4.30
   0  -7   6   31.20    4.90
  -1   7  -6  302.87   10.40
   1  -7   6  271.97   10.40
  -2   7  -6    2.30    2.30
   2  -7   6    2.30    2.20
  -3   7  -6    8.10    2.80
   3  -7   6    8.50    3.00
  -4   7  -6  187.28    8.00
   4  -7   6  176.28    7.60
   4  -7   6  180.48    7.30
  -5   7  -6    0.40    2.40
   5  -7   6    2.50    2.50
  -6   7  -6   14.10    3.30
   6  -7   6   10.50    3.40
  -7   7  -6  267.47   10.60
   7  -7   6  263.47   10.70
   2   6  -6   39.10    4.80
   2   6  -6   47.30    5.30
  -2  -6   6   35.40    4.80
   1   6  -6  350.16   10.70
   1   6  -6  377.96   11.40
  -1  -6   6  352.16   12.00
   0   6  -6   99.39    5.40
   0   6  -6   88.39    5.40
   0  -6   6   91.99    6.20
  -1   6  -6   14.40    2.90
  -1   6  -6   16.40    2.60
   1  -6   6   20.80    3.70
  -2   6  -6  393.66   11.00
   2  -6   6  391.96   11.40
  -3   6  -6   10.50    2.70
   3  -6   6    5.90    2.40
   3  -6   6    4.80    2.10
  -4   6  -6    1.40    1.90
   4  -6   6   -0.10    1.90
   4  -6   6    3.20    2.10
  -5   6  -6  436.76   12.20
   5  -6   6  422.96   12.10
  -6   6  -6   70.89    5.50
   6  -6   6   67.19    5.50
  -7   6  -6    2.00    2.50
   7  -6   6   -0.40    2.30
  -8   6  -6  135.39    7.80
   8  -6   6  129.19    8.10
   4   5  -6    2.20    2.70
  -4  -5   6    1.50    2.60
  -4  -5   6    3.90    3.10
   3   5  -6  140.59    7.30
   3   5  -6  136.49    7.30
  -3  -5   6  136.19    7.70
   2   5  -6  246.38    8.90
   2   5  -6  242.98    8.90
  -2  -5   6  250.07    9.60
   1   5  -6    2.60    2.10
   1   5  -6    1.00    1.90
  -1  -5   6    3.90    2.50
   0   5  -6  407.06   10.30
   0   5  -6  407.86   10.60
   0  -5   6  388.06   11.20
  -1   5  -6  161.68    6.20
  -1   5  -6  173.18    5.90
   1  -5   6  164.58    6.80
  -2   5  -6   61.69    4.00
  -2   5  -6   61.19    3.50
   2  -5   6   60.79    4.20
   2  -5   6   67.39    3.60
  -3   5  -6  195.78    6.90
  -3   5  -6  191.98    6.00
   3  -5   6  188.28    6.60
   3  -5   6  206.18    6.70
  -4   5  -6  188.88    6.10
  -4   5  -6  179.88    6.80
   4  -5   6  185.98    7.00
   4  -5   6  194.78    6.30
  -5   5  -6   34.50    3.40
  -5   5  -6   35.70    3.90
   5  -5   6   33.10    3.90
  -6   5  -6   97.29    5.70
   6  -5   6   97.39    6.10
  -7   5  -6   24.10    4.00
   7  -5   6   24.80    4.10
  -8   5  -6   38.80    5.00
   8  -5   6   35.40    5.00
   5   4  -6   -2.20    2.40
  -5  -4   6   -2.00    2.60
  -5  -4   6    3.80    2.70
   4   4  -6   71.39    5.80
  -4  -4   6   78.19    5.70
  -4  -4   6   68.19    5.70
   3   4  -6  155.98    6.90
   3   4  -6  148.19    7.00
  -3  -4   6  154.28    7.40
   2   4  -6    5.70    2.20
   2   4  -6    4.00    2.10
  -2  -4   6   -1.80    2.00
   1   4  -6  192.38    6.80
   1   4  -6  202.38    6.80
  -1  -4   6  186.08    7.40
   0   4  -6  127.69    5.10
   0   4  -6  136.09    5.30
   0  -4   6  137.29    5.90
  -1   4  -6  371.06    9.00
  -1   4  -6  386.76    9.20
   1  -4   6  378.26    9.70
   1  -4   6  386.56    8.10
  -2   4  -6  225.48    6.60
  -2   4  -6  218.68    6.30
   2  -4   6  231.18    6.40
   2  -4   6  220.58    6.80
  -3   4  -6   50.79    3.20
  -3   4  -6   48.20    3.40
   3  -4   6   48.90    3.50
   3  -4   6   48.10    3.20
  -4   4  -6   37.40    3.60
  -4   4  -6   37.60    3.40
   4  -4   6   34.70    2.80
   4  -4   6   36.50    3.80
  -5   4  -6   13.30    2.60
  -5   4  -6    8.70    2.20
   5  -4   6    7.00    2.50
  -6   4  -6   47.90    3.80
  -6   4  -6   46.10    4.50
   6  -4   6   38.90    4.40
  -7   4  -6   93.79    6.00
  -7   4  -6   90.99    5.50
  -8   4  -6   33.50    4.40
  -8   4  -6   25.60    4.40
   8  -4   6   37.00    5.10
   5   3  -6   30.80    4.60
  -5  -3   6   17.60    3.50
  -5  -3   6   18.20    3.80
   4   3  -6   61.29    4.90
  -4  -3   6   65.29    5.10
  -4  -3   6   63.79    5.00
   3   3  -6   62.59    4.30
   3   3  -6   51.79    4.70
  -3  -3   6   54.29    4.60
   2   3  -6  251.27    8.00
   2   3  -6  271.57    7.70
  -2  -3   6  267.97    8.60
   1   3  -6   84.29    4.00
   1   3  -6   89.99    4.40
  -1  -3   6   92.39    4.80
   0   3  -6  253.37    7.00
   0   3  -6  262.37    6.60
   0  -3   6  266.97    7.60
   0  -3   6  248.48    5.50
  -1   3  -6 1316.07   22.40
  -1   3  -6 1315.47   21.70
   1  -3   6 1348.07   22.80
   1  -3   6 1351.86   21.50
  -2   3  -6   55.69    2.90
  -2   3  -6   51.49    3.10
   2  -3   6   53.19    3.10
   2  -3   6   54.19    3.10
  -3   3  -6  164.38    5.50
  -3   3  -6  169.28    5.30
   3  -3   6  166.78    5.80
   3  -3   6  164.38    4.70
  -4   3  -6  171.48    5.80
  -4   3  -6  174.18    5.90
   4  -3   6  175.38    6.40
  -5   3  -6   84.99    4.60
  -5   3  -6   84.29    4.70
   5  -3   6   80.39    5.10
  -6   3  -6   25.90    3.30
  -6   3  -6   30.30    3.80
   6  -3   6   23.90    3.40
   6  -3   6   31.50    4.20
  -7   3  -6    1.10    2.20
   7  -3   6    0.80    2.10
   7  -3   6    0.40    2.40
  -8   3  -6    6.40    3.00
   8  -3   6   10.20    3.50
   8  -3   6    7.50    2.90
   6   2  -6   -1.80    2.50
  -6  -2   6    5.20    2.90
   5   2  -6    0.40    2.20
  -5  -2   6    5.00    2.50
  -5  -2   6   -2.00    2.00
   4   2  -6  257.97    9.00
  -4  -2   6  261.47    8.30
  -4  -2   6  268.67    8.80
   3   2  -6    1.80    1.60
  -3  -2   6    4.50    2.00
  -3  -2   6    0.20    1.60
   2   2  -6  577.24   11.50
   2   2  -6  567.04   12.50
  -2  -2   6  564.34   12.60
   1   2  -6   52.49    2.70
   1   2  -6   44.20    3.00
  -1  -2   6   56.59    2.00
  -1  -2   6   60.79    3.60
   0   2  -6   52.89    2.40
   0   2  -6   49.00    3.00
   0  -2   6   59.79    2.50
   0  -2   6   50.89    3.10
  -1   2  -6 1018.30   16.30
  -1   2  -6 1020.00   17.70
   1  -2   6 1016.80   17.10
   1  -2   6 1013.60   17.40
  -2   2  -6 1470.25   24.20
  -2   2  -6 1457.75   23.00
   2  -2   6 1470.75   23.10
   2  -2   6 1475.95   24.30
  -3   2  -6    6.80    1.60
  -3   2  -6   10.30    1.90
   3  -2   6   10.80    2.10
   3  -2   6    8.50    1.20
  -4   2  -6  386.56    9.60
  -4   2  -6  394.36    9.20
   4  -2   6  371.66    9.80
  -5   2  -6  993.80   19.10
   5  -2   6  993.10   20.00
   5  -2   6  987.10   19.60
  -6   2  -6    6.20    2.50
   6  -2   6    5.70    2.50
   6  -2   6    4.50    2.10
  -7   2  -6   22.10    3.70
   7  -2   6   17.90    3.50
   7  -2   6   14.20    3.50
  -8   2  -6  183.28    8.80
   8  -2   6  193.08    9.00
   8  -2   6  213.68    9.40
   7   1  -6   12.90    3.80
  -7  -1   6    3.50    2.80
   6   1  -6  150.08    7.70
  -6  -1   6  143.29    7.10
   5   1  -6  174.88    7.60
  -5  -1   6  161.68    6.70
  -5  -1   6  178.68    7.10
   4   1  -6   -0.40    1.60
  -4  -1   6    2.00    1.60
  -4  -1   6    4.10    2.00
   3   1  -6  988.10   18.80
   3   1  -6  985.30   15.70
  -3  -1   6  986.00   17.50
  -3  -1   6  990.30   18.80
   2   1  -6   35.50    1.90
   2   1  -6   31.50    2.60
  -2  -1   6   34.00    2.30
  -2  -1   6   36.50    3.30
   1   1  -6  179.98    4.20
   1   1  -6  184.98    5.50
  -1  -1   6  184.38    4.40
  -1  -1   6  186.38    5.70
   0   1  -6 1732.73   27.40
   0   1  -6 1733.73   25.20
   0  -1   6 1697.63   26.50
   0  -1   6 1759.82   27.40
  -1   1  -6   72.39    3.40
  -1   1  -6   77.69    2.30
   1  -1   6   74.29    3.10
   1  -1   6   69.39    3.20
  -2   1  -6  805.22   13.40
  -2   1  -6  797.92   14.70
   2  -1   6  807.52   13.30
   2  -1   6  787.12   14.80
  -3   1  -6  879.01   15.50
  -3   1  -6  875.71   16.50
   3  -1   6  881.31   16.70
   3  -1   6  910.01   13.70
  -4   1  -6  156.98    5.50
   4  -1   6  159.38    6.00
   4  -1   6  147.59    6.00
  -5   1  -6   -1.20    1.50
   5  -1   6    0.70    1.80
   5  -1   6    1.10    1.70
  -6   1  -6  545.45   13.70
   6  -1   6  570.64   14.30
   6  -1   6  557.94   14.40
  -7   1  -6    2.30    2.50
   7  -1   6    4.10    2.60
   7  -1   6   -0.90    2.40
   7   0  -6    4.20    2.80
  -7   0   6    9.80    3.10
   6   0  -6    1.60    2.10
  -6   0   6    0.90    2.10
  -6   0   6    2.40    2.20
   5   0  -6  101.99    5.50
  -5   0   6  117.79    5.40
  -5   0   6  120.09    5.70
   4   0  -6   37.00    2.50
   4   0  -6   35.10    3.50
  -4   0   6   36.20    3.20
  -4   0   6   31.80    3.20
   3   0  -6   14.30    2.30
   3   0  -6   14.90    1.80
  -3   0   6   13.00    2.30
  -3   0   6   12.50    1.70
   2   0  -6  205.48    5.10
  -2   0   6  206.18    4.70
  -2   0   6  192.88    6.00
   1   0  -6 1518.35   24.00
  -1   0   6 1507.55   21.50
  -1   0   6 1433.16   23.30
  -1   0   6 1510.95   24.30
   0   0  -6   85.59    3.50
   0   0   6   81.29    3.40
   0   0   6   85.59    3.40
  -1   0  -6 3223.58   48.10
  -1   0  -6 3234.98   45.80
   1   0   6 3227.68   48.30
   1   0   6 3235.88   47.30
  -2   0  -6  145.89    4.00
  -2   0  -6  150.18    5.00
   2   0   6  145.89    3.80
   2   0   6  142.89    5.00
  -3   0  -6    0.80    1.10
   3   0   6    0.90    0.70
   3   0   6    3.30    1.60
   3   0   6   -1.40    1.20
  -4   0  -6  960.80   17.60
   4   0   6  938.11   18.80
   4   0   6  917.81   18.20
  -5   0  -6   56.09    4.20
   5   0   6   73.09    5.00
   5   0   6   73.09    4.70
  -6   0  -6   18.30    3.40
   6   0   6   18.00    3.50
   6   0   6   19.10    3.30
  -7   0  -6  101.19    6.50
   7   0   6   84.89    6.50
   8  -1  -6   22.80    4.10
  -8   1   6   21.60    4.10
   7  -1  -6  171.78    7.90
  -7   1   6  170.38    7.80
   6  -1  -6  417.96   11.60
  -6   1   6  412.26   11.00
  -6   1   6  403.56   11.10
   5  -1  -6  935.91   18.40
   5  -1  -6  898.11   17.00
  -5   1   6  904.51   18.00
  -5   1   6  914.91   17.70
   4  -1  -6   12.00    2.30
   4  -1  -6   13.40    2.10
  -4   1   6   13.30    2.40
  -4   1   6   14.00    2.10
   3  -1  -6  531.05   10.80
   3  -1  -6  509.65   10.90
  -3   1   6  547.45   10.10
  -3   1   6  550.64   11.60
   2  -1  -6   55.29    2.90
   2  -1  -6   54.39    2.90
  -2   1   6   56.69    3.30
  -2   1   6   53.59    2.10
   1  -1  -6  302.77    6.90
  -1   1   6  302.27    4.80
  -1   1   6  294.77    7.00
  -1   1   6  314.87    7.40
   0  -1  -6  256.27    6.20
   0   1   6  258.67    6.30
   0   1   6  248.38    6.40
  -1  -1  -6 1277.57   20.70
  -1  -1  -6 1239.08   18.90
   1   1   6 1228.78   19.90
   1   1   6 1202.68   20.90
  -2  -1  -6 1001.10   17.00
   2   1   6  986.40   16.50
   2   1   6 1014.60   18.40
   2   1   6 1051.59   18.50
  -3  -1  -6   70.89    3.60
   3   1   6   70.99    4.20
   3   1   6   64.39    3.90
   3   1   6   71.49    2.80
  -4  -1  -6   23.10    3.00
   4   1   6   31.80    3.90
   4   1   6   28.30    3.20
  -5  -1  -6  778.02   16.90
   5   1   6  776.12   18.10
   5   1   6  783.92   17.20
  -6  -1  -6   27.10    4.00
   6   1   6   27.90    4.30
  -7  -1  -6   40.80    5.20
   7   1   6   33.10    5.00
   8  -2  -6  196.08    8.60
  -8   2   6  210.48    9.00
   7  -2  -6    4.10    2.40
  -7   2   6    3.00    2.50
   6  -2  -6  102.39    5.30
   6  -2  -6   95.69    5.00
  -6   2   6   92.49    5.20
  -6   2   6  105.99    5.30
   5  -2  -6 1506.55   25.90
   5  -2  -6 1479.25   25.60
  -5   2   6 1480.95   25.40
  -5   2   6 1478.85   26.00
   4  -2  -6  177.98    6.00
   4  -2  -6  175.78    5.50
  -4   2   6  184.18    6.20
  -4   2   6  180.68    5.50
   3  -2  -6    7.30    1.70
   3  -2  -6    7.20    1.40
  -3   2   6    4.70    1.60
  -3   2   6    7.30    1.40
   2  -2  -6 1147.99   18.40
   2  -2  -6 1120.49   19.50
  -2   2   6 1133.19   19.80
  -2   2   6 1127.49   17.50
   1  -2  -6  273.37    6.20
  -1   2   6  272.17    5.30
  -1   2   6  280.27    7.10
  -1   2   6  256.87    6.80
   0  -2  -6  162.48    4.60
   0   2   6  152.38    5.10
   0   2   6  159.88    3.90
   0   2   6  150.28    4.90
   1   2   6  123.59    3.90
   1   2   6  117.99    4.40
   1   2   6  117.29    4.60
   1   2   6  118.69    4.20
  -2  -2  -6  650.73   12.60
   2   2   6  654.93   13.50
   2   2   6  647.04   13.50
   2   2   6  640.24   12.30
  -3  -2  -6  438.86   10.30
  -3  -2  -6  421.76    9.20
   3   2   6  436.66   11.20
   3   2   6  425.06   10.50
  -4  -2  -6  101.79    5.30
   4   2   6  103.09    5.20
   4   2   6   95.69    5.70
  -5  -2  -6   27.70    4.00
   5   2   6   24.20    4.00
  -6  -2  -6  203.48    8.90
   6   2   6  199.48    9.50
  -8   3   6   30.60    4.40
   7  -3  -6  201.78    7.90
   7  -3  -6  207.98    7.60
  -7   3   6  188.88    7.80
   6  -3  -6  111.39    5.80
   6  -3  -6  130.69    5.40
  -6   3   6  132.09    5.70
  -6   3   6  120.69    5.70
   5  -3  -6  393.96    9.30
   5  -3  -6  423.56   10.90
  -5   3   6  408.36   10.40
  -5   3   6  408.86   10.00
   4  -3  -6  397.06   10.10
   4  -3  -6  406.46    8.60
  -4   3   6  402.86   10.10
  -4   3   6  405.86    9.10
   3  -3  -6   63.19    3.70
   3  -3  -6   66.39    2.70
  -3   3   6   65.09    3.00
  -3   3   6   59.19    3.60
   2  -3  -6    1.80    1.00
   2  -3  -6    1.90    1.40
  -2   3   6    2.10    1.00
  -2   3   6   -0.80    1.30
   1  -3  -6 1572.74   26.00
   1  -3  -6 1517.95   24.00
  -1   3   6 1548.45   24.00
  -1   3   6 1529.85   25.90
   0  -3  -6    0.20    1.00
   0   3   6    2.30    1.40
   0   3   6    2.30    1.30
   0   3   6    3.00    1.50
   1   3   6  139.09    5.10
   1   3   6  139.39    4.80
   1   3   6  144.39    5.30
   1   3   6  145.89    5.20
   2   3   6  283.97    7.70
   2   3   6  282.17    8.30
   2   3   6  289.87    8.20
   2   3   6  276.17    7.90
  -3  -3  -6    0.00    1.40
  -3  -3  -6    1.50    1.80
   3   3   6    1.70    1.80
   3   3   6    1.20    2.00
  -4  -3  -6  145.69    6.80
   4   3   6  141.29    7.10
  -5  -3  -6  140.49    7.40
   5   3   6  138.69    7.70
   8  -4  -6   42.40    5.10
  -8   4   6   32.70    4.40
   7  -4  -6   48.20    4.90
  -7   4   6   42.70    4.60
   6  -4  -6  255.17    9.00
  -6   4   6  270.47    8.60
  -6   4   6  275.97    8.60
   5  -4  -6   18.40    3.20
  -5   4   6   18.70    2.70
  -5   4   6   23.50    3.10
   4  -4  -6   13.50    2.60
  -4   4   6   12.60    2.00
  -4   4   6   14.50    2.50
   3  -4  -6  440.56   10.90
  -3   4   6  430.96    9.50
   2  -4  -6  494.35   11.60
   2  -4  -6  501.35    9.00
  -2   4   6  512.55   11.90
  -2   4   6  515.15   10.40
   1  -4  -6   13.40    2.30
   1  -4  -6   12.90    1.60
  -1   4   6   13.00    2.50
  -1   4   6   13.10    2.00
   0  -4  -6   29.50    2.40
   0  -4  -6   29.20    3.10
   0   4   6   31.30    3.00
   0   4   6   29.60    2.60
   0   4   6   25.30    2.90
   1   4   6  440.26   10.60
   1   4   6  441.56   10.60
   1   4   6  449.66   10.40
   1   4   6  432.76   10.90
  -2  -4  -6    0.40    1.70
   2   4   6    2.70    1.90
   2   4   6   -1.50    1.40
   2   4   6    0.00    1.60
  -3  -4  -6  218.88    8.20
   3   4   6  217.38    8.40
  -4  -4  -6   23.80    4.00
   4   4   6   27.00    4.20
   8  -5  -6    1.60    2.70
  -8   5   6    4.30    2.70
   7  -5  -6  106.09    6.70
  -7   5   6  103.79    6.10
  -7   5   6   98.29    5.70
   6  -5  -6    6.70    2.70
  -6   5   6    4.60    2.20
  -6   5   6    3.80    2.10
   5  -5  -6   37.90    4.30
  -5   5   6   34.30    3.50
  -5   5   6   35.70    3.80
   4  -5  -6  275.67    8.90
  -4   5   6  248.98    8.40
  -4   5   6  283.47    7.90
   3  -5  -6   55.19    4.30
  -3   5   6   60.69    3.60
  -3   5   6   59.89    4.10
   2  -5  -6    9.10    2.50
  -2   5   6   14.00    2.70
  -2   5   6   18.30    2.50
   1  -5  -6   72.39    4.40
  -1   5   6   76.19    4.10
  -1   5   6   66.89    4.60
   0  -5  -6   11.20    2.40
   0   5   6    7.60    2.30
   0   5   6    9.70    2.50
  -1  -5  -6    7.00    2.00
   1   5   6    4.00    2.30
   1   5   6    3.10    2.10
   1   5   6    5.50    2.00
  -2  -5  -6  254.57    9.10
   2   5   6  262.67    9.10
   2   5   6  268.17    9.00
  -3  -5  -6    4.30    2.70
   3   5   6    3.70    2.40
   8  -6  -6   20.20    3.90
  -8   6   6   12.50    3.40
   7  -6  -6    2.10    2.40
  -7   6   6    1.30    2.20
  -7   6   6    2.30    2.20
   6  -6  -6  494.75   14.00
  -6   6   6  514.75   13.50
  -6   6   6  502.35   13.00
   5  -6  -6  163.68    7.70
  -5   6   6  161.98    6.70
  -5   6   6  175.28    7.40
   4  -6  -6  123.19    6.30
  -4   6   6  119.79    6.30
  -4   6   6  123.29    5.60
   3  -6  -6  498.25   13.00
  -3   6   6  515.35   13.50
  -3   6   6  528.35   12.40
   2  -6  -6   10.20    2.50
  -2   6   6   10.20    2.30
  -2   6   6    9.90    2.70
   1  -6  -6    2.60    2.10
  -1   6   6    4.00    2.00
  -1   6   6    4.70    2.60
   0  -6  -6  199.58    7.30
   0   6   6  200.08    8.10
   0   6   6  201.78    7.70
  -1  -6  -6   -2.30    2.10
   1   6   6   -0.40    1.90
  -2  -6  -6   31.00    4.50
   2   6   6   36.40    4.70
   7  -7  -6  122.29    7.70
  -7   7   6  121.29    6.90
  -7   7   6  112.69    6.60
   6  -7  -6   25.30    4.20
  -6   7   6   32.80    4.30
  -6   7   6   27.30    4.10
   5  -7  -6  263.67   10.00
  -5   7   6  255.07    9.60
  -5   7   6  245.78    8.80
   4  -7  -6   48.40    5.00
  -4   7   6   40.70    4.70
  -4   7   6   51.19    4.80
   3  -7  -6    1.00    2.40
  -3   7   6    1.80    2.30
  -3   7   6    3.40    2.10
   2  -7  -6  507.45   13.40
  -2   7   6  497.85   14.30
  -2   7   6  511.95   13.30
   1  -7  -6   51.69    4.90
  -1   7   6   27.80    4.30
  -1   7   6   45.90    4.90
   0  -7  -6   73.69    6.10
   0   7   6   76.29    5.60
  -1  -7  -6  241.68   10.20
   1   7   6  250.37    9.80
   6  -8  -6   84.29    6.70
  -6   8   6   73.99    6.50
  -6   8   6   84.49    6.30
   5  -8  -6   26.90    4.40
  -5   8   6   25.80    4.50
  -5   8   6   24.10    3.90
   4  -8  -6  279.27   10.50
  -4   8   6  287.17   10.80
  -4   8   6  274.77    9.90
   3  -8  -6   30.80    4.30
  -3   8   6   23.20    4.20
  -3   8   6   26.80    4.20
   2  -8  -6    4.70    2.60
  -2   8   6    1.30    2.40
  -2   8   6    3.70    3.00
   1  -8  -6   58.39    6.30
  -1   8   6   60.79    6.00
  -1   8  -7   37.10    5.10
   1  -8   7   32.30    5.10
  -2   8  -7   -1.90    2.30
   2  -8   7    5.60    3.50
  -3   8  -7   94.79    6.50
   3  -8   7   96.69    6.80
  -4   8  -7   31.50    4.60
   4  -8   7   33.00    4.60
  -5   8  -7    3.60    2.70
   5  -8   7    1.70    2.50
  -6   8  -7  106.29    7.10
   6  -8   7  118.49    7.20
   1   7  -7  139.59    7.70
  -1  -7   7  135.69    8.40
   0   7  -7   11.80    3.40
   0  -7   7   12.10    3.80
  -1   7  -7  191.58    8.40
   1  -7   7  207.58    9.30
  -2   7  -7  139.59    7.00
   2  -7   7  142.09    7.60
  -3   7  -7   92.99    5.90
   3  -7   7   86.09    5.90
  -4   7  -7  274.47    9.70
   4  -7   7  265.07    9.40
   4  -7   7  279.67    9.30
  -5   7  -7   70.29    5.60
   5  -7   7   69.89    5.50
  -6   7  -7    4.20    2.70
   6  -7   7    0.80    2.70
  -7   7  -7   61.09    6.20
   7  -7   7   50.39    5.90
   2   6  -7    8.60    3.00
   2   6  -7    5.30    2.80
  -2  -6   7    4.80    3.00
   1   6  -7    8.50    2.70
   1   6  -7    2.60    2.50
  -1  -6   7    7.30    3.10
   0   6  -7  126.59    6.00
   0   6  -7  136.29    6.50
   0  -6   7  128.09    7.20
  -1   6  -7   12.60    2.70
  -1   6  -7   14.00    2.60
   1  -6   7   11.80    3.10
  -2   6  -7   17.50    3.20
  -2   6  -7   20.10    2.80
   2  -6   7   11.50    3.00
  -3   6  -7  243.38    8.40
   3  -6   7  242.38    8.50
   3  -6   7  253.87    8.00
  -4   6  -7   -0.80    2.00
   4  -6   7    1.50    2.00
   4  -6   7    1.00    2.10
  -5   6  -7   43.90    4.60
   5  -6   7   43.10    4.80
  -6   6  -7  183.88    8.10
   6  -6   7  174.68    8.00
  -7   6  -7    3.80    2.40
   7  -6   7   -3.70    2.30
  -8   6  -7   41.10    5.10
   8  -6   7   41.90    5.60
   3   5  -7   -1.30    2.20
   3   5  -7    3.60    2.80
  -3  -5   7   -1.60    2.50
   2   5  -7  399.36   11.60
   2   5  -7  388.36   11.80
  -2  -5   7  409.56   12.90
   1   5  -7   41.30    4.20
   1   5  -7   35.10    3.90
  -1  -5   7   29.40    4.00
   0   5  -7   22.40    3.00
   0   5  -7   26.80    3.30
   0  -5   7   22.60    3.70
  -1   5  -7  135.09    5.50
  -1   5  -7  136.79    5.80
   1  -5   7  127.89    6.10
  -2   5  -7  142.99    5.90
  -2   5  -7  136.09    5.30
   2  -5   7  144.19    5.20
   2  -5   7  145.09    6.30
  -3   5  -7   31.20    3.20
  -3   5  -7   29.70    3.40
   3  -5   7   27.70    3.20
   3  -5   7   26.70    3.30
  -4   5  -7  118.89    5.10
  -4   5  -7  105.99    5.30
   4  -5   7  108.19    5.60
   4  -5   7  103.39    4.80
  -5   5  -7  231.78    8.20
  -5   5  -7  257.37    7.90
   5  -5   7  236.68    8.80
  -6   5  -7   50.29    4.20
  -6   5  -7   40.70    4.30
   6  -5   7   45.10    5.10
  -7   5  -7  187.08    8.40
   7  -5   7  197.08    9.10
  -8   5  -7   41.50    5.30
   8  -5   7   44.30    5.80
   4   4  -7   96.69    6.70
  -4  -4   7   96.59    6.20
  -4  -4   7   93.29    6.50
   3   4  -7  633.64   16.00
   3   4  -7  647.04   15.30
  -3  -4   7  621.44   16.20
   2   4  -7    0.10    1.90
   2   4  -7    0.60    1.90
  -2  -4   7    0.80    2.30
   1   4  -7   72.09    4.50
   1   4  -7   77.79    4.40
  -1  -4   7   79.29    5.20
   0   4  -7  788.62   15.50
   0   4  -7  787.82   16.10
   0  -4   7  802.72   17.00
  -1   4  -7   19.60    2.60
  -1   4  -7   17.70    2.40
   1  -4   7   12.40    1.90
   1  -4   7   13.20    2.50
  -2   4  -7  444.06   10.40
  -2   4  -7  453.35   10.20
   2  -4   7  460.55   10.20
   2  -4   7  453.75   10.80
  -3   4  -7   47.30    3.40
  -3   4  -7   39.60    3.20
   3  -4   7   38.20    3.10
   3  -4   7   42.40    3.40
  -4   4  -7    5.00    1.80
  -4   4  -7    5.90    1.90
   4  -4   7    1.60    1.40
   4  -4   7    4.20    2.20
  -5   4  -7  244.68    7.80
  -5   4  -7  258.27    8.30
   5  -4   7  240.68    8.80
  -6   4  -7  272.17    8.70
  -6   4  -7  268.97    9.00
   6  -4   7  251.37    9.40
  -7   4  -7    4.90    2.70
  -7   4  -7    1.50    2.20
   7  -4   7    3.60    2.90
  -8   4  -7  183.88    8.70
  -8   4  -7  149.09    7.60
   8  -4   7  152.08    8.20
   5   3  -7  207.48    9.50
  -5  -3   7  237.28    9.60
  -5  -3   7  230.98    9.10
   4   3  -7    8.20    3.10
  -4  -3   7   10.00    2.80
  -4  -3   7    7.00    2.70
   3   3  -7   13.60    2.70
   3   3  -7    8.80    2.70
  -3  -3   7   12.60    2.80
   2   3  -7  650.73   13.50
   2   3  -7  655.13   14.70
  -2  -3   7  631.64   15.00
   1   3  -7  214.68    7.00
   1   3  -7  219.08    6.40
  -1  -3   7  232.08    7.70
   0   3  -7  277.87    6.90
   0   3  -7  297.37    8.00
   0  -3   7  282.27    6.30
   0  -3   7  278.97    8.20
  -1   3  -7  886.31   15.40
  -1   3  -7  878.61   16.40
   1  -3   7  848.82   16.60
   1  -3   7  880.81   15.40
  -2   3  -7  294.97    7.80
  -2   3  -7  315.27    7.30
   2  -3   7  302.57    7.80
   2  -3   7  294.97    7.60
  -3   3  -7  216.28    6.70
  -3   3  -7  224.38    6.30
   3  -3   7  214.18    6.90
   3  -3   7  228.68    5.90
  -4   3  -7  587.34   12.70
  -4   3  -7  598.04   13.00
   4  -3   7  600.64   13.70
  -5   3  -7   90.19    4.90
  -5   3  -7  102.39    5.20
   5  -3   7   93.29    5.50
  -6   3  -7  315.27    9.80
  -6   3  -7  302.87    9.70
   6  -3   7  322.77   10.60
  -7   3  -7  149.39    7.20
  -7   3  -7  157.98    7.40
   7  -3   7  146.89    7.80
  -8   3  -7    1.00    2.40
  -8   3  -7   -0.10    2.30
   8  -3   7    1.20    2.70
   8  -3   7    6.70    3.00
   6   2  -7   80.09    6.40
  -6  -2   7   79.99    5.90
   5   2  -7   27.40    4.20
  -5  -2   7   28.90    4.10
  -5  -2   7   25.70    3.60
   4   2  -7   43.70    4.70
  -4  -2   7   53.19    5.00
  -4  -2   7   46.60    4.30
   3   2  -7  333.77    9.80
  -3  -2   7  332.87    8.80
  -3  -2   7  341.87    9.90
   2   2  -7  401.66   10.30
   2   2  -7  397.86    8.90
  -2  -2   7  396.36   10.30
   1   2  -7  347.97    8.90
   1   2  -7  359.36    7.60
  -1  -2   7  347.37    9.10
  -1  -2   7  351.06    6.90
   0   2  -7    6.40    1.80
   0   2  -7    5.00    1.20
   0  -2   7    6.00    1.30
   0  -2   7    3.70    1.50
  -1   2  -7  440.36    8.20
  -1   2  -7  431.96    9.80
   1  -2   7  442.86    9.50
   1  -2   7  436.76    9.20
  -2   2  -7  514.65    9.70
  -2   2  -7  522.25   11.10
   2  -2   7  513.05   10.00
   2  -2   7  501.55   10.90
  -3   2  -7  112.49    4.70
  -3   2  -7  100.49    3.90
   3  -2   7  115.49    4.90
   3  -2   7  111.89    3.50
  -4   2  -7   10.10    2.00
  -4   2  -7    5.70    1.80
   4  -2   7    7.80    2.30
  -5   2  -7  371.46   10.40
  -5   2  -7  363.46    9.70
   5  -2   7  359.56   10.60
  -6   2  -7  130.29    6.20
   6  -2   7  132.79    6.80
   6  -2   7  129.69    6.50
  -7   2  -7   33.10    4.30
   7  -2   7   29.10    4.20
   7  -2   7   25.70    4.00
  -8   2  -7  143.39    7.90
   8  -2   7  117.29    7.40
   8  -2   7  138.59    8.00
   6   1  -7   21.30    4.10
  -6  -1   7   27.20    4.00
  -6  -1   7   21.80    3.70
   5   1  -7   19.40    3.60
  -5  -1   7   22.10    3.50
  -5  -1   7   16.00    2.90
   4   1  -7    5.80    2.40
  -4  -1   7    7.90    2.40
  -4  -1   7    8.50    2.30
   3   1  -7  245.98    7.70
  -3  -1   7  245.78    7.80
  -3  -1   7  236.68    6.60
   2   1  -7  230.48    5.40
   2   1  -7  228.98    7.00
  -2  -1   7  231.18    5.70
  -2  -1   7  232.68    7.20
   1   1  -7   -0.10    1.30
   1   1  -7    0.80    0.80
  -1  -1   7    0.40    1.50
  -1  -1   7    1.40    1.00
   0   1  -7  650.33   10.20
   0   1  -7  633.94   12.60
   0  -1   7  646.04   12.00
   0  -1   7  664.53   12.70
  -1   1  -7  811.82   15.20
  -1   1  -7  849.52   13.00
   1  -1   7  816.12   15.10
   1  -1   7  824.72   14.60
  -2   1  -7  383.16    7.60
  -2   1  -7  384.36    9.10
   2  -1   7  399.36    8.00
   2  -1   7  389.36    9.20
  -3   1  -7    1.90    1.50
  -3   1  -7    0.60    1.20
   3  -1   7    1.10    1.50
   3  -1   7    1.70    0.80
  -4   1  -7   38.90    3.10
   4  -1   7   41.00    3.90
   4  -1   7   36.40    3.70
  -5   1  -7   13.40    2.70
   5  -1   7   17.30    3.00
   5  -1   7   18.00    3.30
  -6   1  -7    0.00    2.20
   6  -1   7    4.00    2.40
   6  -1   7    0.20    1.90
  -7   1  -7    2.30    2.60
   7  -1   7    5.60    2.80
   7  -1   7    3.00    2.40
   7   0  -7   86.09    6.40
  -7   0   7   93.59    6.20
   6   0  -7   15.60    3.50
  -6   0   7   19.10    3.40
  -6   0   7   14.20    3.00
   5   0  -7   26.50    3.70
  -5   0   7   28.00    3.80
  -5   0   7   26.30    3.30
   4   0  -7  145.29    5.90
   4   0  -7  141.49    4.70
  -4   0   7  148.39    5.20
  -4   0   7  143.69    6.00
   3   0  -7   47.60    3.40
   3   0  -7   48.40    2.70
  -3   0   7   44.70    2.60
  -3   0   7   33.00    3.30
   2   0  -7   99.39    3.70
   2   0  -7   95.99    4.20
  -2   0   7   85.89    4.30
  -2   0   7   95.79    3.00
   1   0  -7  882.71   15.80
  -1   0   7  884.01   12.80
  -1   0   7  872.01   15.20
  -1   0   7  847.02   16.00
   0   0  -7  382.86    8.60
   0   0   7  373.46    8.50
   0   0   7  385.36    8.50
  -1   0  -7  240.18    4.60
  -1   0  -7  257.37    6.70
   1   0   7  235.68    6.60
   1   0   7  242.08    6.10
  -2   0  -7  795.42   13.10
  -2   0  -7  723.73   14.70
   2   0   7  779.22   15.20
   2   0   7  795.82   13.40
  -3   0  -7   80.99    3.60
   3   0   7   84.39    2.70
   3   0   7   86.69    4.40
   3   0   7   80.29    4.30
  -4   0  -7   97.09    4.50
   4   0   7   90.19    5.00
   4   0   7  100.19    5.10
  -5   0  -7  303.67    9.00
   5   0   7  297.97    9.80
   5   0   7  315.37    9.70
  -6   0  -7   97.99    5.80
   6   0   7   91.49    5.90
   6   0   7   97.39    6.10
  -7   0  -7    5.70    3.00
   7   0   7    6.60    3.00
   7   0   7    6.70    3.10
   7  -1  -7   28.80    4.30
  -7   1   7   34.30    4.40
   6  -1  -7  260.37    9.20
  -6   1   7  261.57    8.80
  -6   1   7  271.77    8.70
   5  -1  -7  313.07    8.30
   5  -1  -7  315.57    9.30
  -5   1   7  310.77    9.40
  -5   1   7  328.07    8.80
   4  -1  -7  151.38    5.30
   4  -1  -7  159.28    5.80
  -4   1   7  160.78    6.20
  -4   1   7  148.19    5.10
   3  -1  -7  719.43   13.70
   3  -1  -7  711.93   13.90
  -3   1   7  707.93   12.50
  -3   1   7  710.93   14.60
   2  -1  -7 2006.80   31.60
   2  -1  -7 2005.30   31.70
  -2   1   7 2014.10   29.30
  -2   1   7 2020.40   32.60
   1  -1  -7   23.50    2.30
  -1   1   7   18.20    2.20
  -1   1   7   24.90    2.70
   0  -1  -7   32.40    1.10
   0  -1  -7   27.60    2.30
   0   1   7   34.40    2.60
   0   1   7   32.40    2.70
  -1  -1  -7  430.06    9.50
  -1  -1  -7  434.06    7.70
   1   1   7  441.36    9.10
   1   1   7  428.16    9.90
  -2  -1  -7  168.38    5.70
  -2  -1  -7  158.98    4.60
   2   1   7  157.58    4.60
   2   1   7  160.38    5.80
   2   1   7  168.98    5.90
  -3  -1  -7  711.43   13.80
   3   1   7  699.53   15.10
   3   1   7  690.13   14.20
   3   1   7  741.03   15.20
  -4  -1  -7   -0.70    1.70
   4   1   7    1.90    1.80
   4   1   7   -1.10    1.60
  -5  -1  -7    2.90    2.20
   5   1   7    3.90    2.40
   5   1   7    4.40    2.30
  -6  -1  -7  341.87   11.00
   6   1   7  342.77   11.10
   6   1   7  334.87   11.90
   8  -2  -7   35.10    4.70
  -8   2   7   27.20    4.30
   7  -2  -7  131.99    6.70
  -7   2   7  124.79    6.40
   6  -2  -7   -1.90    1.70
   6  -2  -7    7.80    2.50
  -6   2   7    3.60    2.10
  -6   2   7    5.70    2.40
   5  -2  -7    6.70    2.00
   5  -2  -7    4.30    1.90
  -5   2   7    7.50    2.30
  -5   2   7   12.40    2.40
   4  -2  -7 1017.20   18.50
   4  -2  -7 1016.70   19.10
  -4   2   7 1045.20   19.70
  -4   2   7 1034.00   17.90
   3  -2  -7   31.50    2.70
   3  -2  -7   35.70    2.50
  -3   2   7   30.40    2.10
  -3   2   7   34.70    3.40
   2  -2  -7   10.60    1.70
   2  -2  -7   12.30    2.20
  -2   2   7    9.60    2.00
  -2   2   7   11.30    1.30
   1  -2  -7 1428.26   23.10
  -1   2   7 1446.56   21.30
  -1   2   7 1429.96   24.20
  -1   2   7 1428.26   24.30
   0  -2  -7  124.79    4.30
   0   2   7  121.39    4.70
   0   2   7  117.69    4.60
   0   2   7  125.69    3.40
  -1  -2  -7  868.61   16.10
   1   2   7  859.21   14.70
   1   2   7  863.81   15.90
   1   2   7  891.01   16.70
  -2  -2  -7  179.68    5.50
   2   2   7  176.98    6.40
   2   2   7  190.58    5.60
   2   2   7  180.88    6.40
  -3  -2  -7   73.89    4.20
   3   2   7   77.29    4.70
   3   2   7   74.09    4.40
  -4  -2  -7  292.17    9.00
   4   2   7  312.37    9.40
   4   2   7  282.37    9.80
  -5  -2  -7    9.50    2.90
   5   2   7    9.50    3.20
   5   2   7    1.60    3.40
  -6  -2  -7  109.19    6.80
   6   2   7  108.99    7.40
  -8   3   7    4.60    2.80
   7  -3  -7    7.10    2.80
   7  -3  -7   22.60    3.40
  -7   3   7   16.20    3.30
   6  -3  -7  578.24   13.00
   6  -3  -7  547.25   13.70
  -6   3   7  580.24   13.40
  -6   3   7  565.64   13.70
   5  -3  -7  177.78    6.80
   5  -3  -7  186.18    6.00
  -5   3   7  175.88    6.10
  -5   3   7  175.28    6.80
   4  -3  -7   57.39    4.00
   4  -3  -7   62.29    3.20
  -4   3   7   63.79    3.40
  -4   3   7   61.19    3.90
   3  -3  -7  402.56    8.40
   3  -3  -7  398.26   10.10
  -3   3   7  399.16   10.20
  -3   3   7  400.96    8.30
   2  -3  -7    1.10    1.10
   2  -3  -7   -2.60    1.20
  -2   3   7    0.10    1.40
  -2   3   7    1.20    1.00
   1  -3  -7    4.90    1.80
   1  -3  -7    3.70    1.30
  -1   3   7    3.50    1.60
  -1   3   7    4.30    1.10
   0  -3  -7 1284.87   21.50
   0   3   7 1272.77   22.50
   0   3   7 1292.17   22.80
   0   3   7 1282.17   20.80
   1   3   7   68.09    4.00
   1   3   7   66.79    3.80
   1   3   7   69.29    3.50
   1   3   7   71.09    3.90
  -2  -3  -7  240.98    7.20
   2   3   7  250.67    7.30
   2   3   7  256.47    8.00
   2   3   7  245.38    7.80
  -3  -3  -7  147.59    6.30
   3   3   7  160.58    6.90
   3   3   7  164.68    6.60
  -4  -3  -7   14.40    3.10
   4   3   7   12.90    3.40
  -5  -3  -7  136.19    7.40
   5   3   7  152.18    8.10
   8  -4  -7  115.89    7.00
  -8   4   7  128.69    7.20
   7  -4  -7   37.20    4.60
  -7   4   7   35.50    4.20
  -7   4   7   33.20    4.10
   6  -4  -7    7.00    2.50
  -6   4   7    7.60    2.30
  -6   4   7   10.00    2.60
   5  -4  -7  940.71   19.60
  -5   4   7  924.51   19.10
  -5   4   7  937.91   17.80
   4  -4  -7  627.64   14.50
  -4   4   7  630.64   12.70
  -4   4   7  626.54   14.30
   3  -4  -7  107.19    5.20
  -3   4   7  116.39    4.30
  -3   4   7  103.29    5.10
   2  -4  -7 2125.19   32.10
   2  -4  -7 2135.09   35.40
  -2   4   7 2087.39   35.40
  -2   4   7 2159.38   33.10
   1  -4  -7   89.49    4.60
   1  -4  -7   84.09    3.50
  -1   4   7   84.99    4.70
  -1   4   7   84.99    3.70
   0  -4  -7  163.68    6.30
   0  -4  -7  159.28    5.20
   0   4   7  154.88    5.40
   0   4   7  158.28    6.20
   1   4   7  449.06   10.60
   1   4   7  485.35   11.50
   1   4   7  454.25   10.90
   1   4   7  439.16   11.20
   2   4   7  196.88    7.20
   2   4   7  187.28    7.20
   2   4   7  199.28    7.10
   2   4   7  205.88    7.30
  -3  -4  -7  150.78    6.80
   3   4   7  155.08    7.20
  -4  -4  -7  100.19    6.30
   4   4   7  104.19    6.70
   8  -5  -7   83.99    6.40
  -8   5   7   78.69    5.90
   7  -5  -7  220.18    9.30
  -7   5   7  222.88    8.50
  -7   5   7  229.78    8.60
   6  -5  -7   24.80    3.80
  -6   5   7   21.90    3.50
  -6   5   7   31.20    3.60
   5  -5  -7   81.79    5.50
  -5   5   7   77.19    4.40
  -5   5   7   76.29    5.10
   4  -5  -7  900.41   19.20
  -4   5   7  883.31   18.90
  -4   5   7  900.31   17.20
   3  -5  -7   55.39    4.40
  -3   5   7   63.79    4.40
  -3   5   7   66.59    3.70
   2  -5  -7  150.18    6.40
  -2   5   7  150.48    6.50
  -2   5   7  158.08    5.50
   1  -5  -7  493.15   12.30
  -1   5   7  497.55   12.70
  -1   5   7  505.65   11.40
   0  -5  -7   21.60    3.10
   0   5   7   25.20    3.10
   0   5   7   22.40    3.40
  -1  -5  -7   18.90    3.10
   1   5   7   18.90    3.00
   1   5   7   18.60    3.00
   1   5   7   22.30    3.50
  -2  -5  -7  233.48    8.60
   2   5   7  233.88    8.50
   2   5   7  238.18    8.60
  -3  -5  -7    8.60    3.00
   3   5   7    7.60    2.90
   8  -6  -7   51.09    6.10
  -8   6   7   50.89    5.30
   7  -6  -7   12.40    3.50
  -7   6   7    4.50    2.50
  -7   6   7    5.40    2.60
   6  -6  -7  283.57   10.40
  -6   6   7  290.57   10.00
  -6   6   7  269.57    9.10
   5  -6  -7   29.80    4.20
  -5   6   7   32.40    4.20
  -5   6   7   32.50    3.80
   4  -6  -7   52.09    5.20
  -4   6   7   57.79    4.10
  -4   6   7   56.39    5.30
   3  -6  -7   82.29    5.20
  -3   6   7   77.39    4.60
  -3   6   7   80.29    5.30
   2  -6  -7  151.98    6.90
  -2   6   7  139.29    6.90
  -2   6   7  150.28    6.20
   1  -6  -7   55.69    4.40
  -1   6   7   55.89    4.10
  -1   6   7   44.40    4.90
   0  -6  -7   97.49    5.50
   0   6   7   94.49    5.50
   0   6   7  104.39    6.20
  -1  -6  -7   92.29    6.20
   1   6   7   92.09    5.70
  -2  -6  -7    3.90    2.60
   2   6   7    0.20    2.40
   7  -7  -7   49.70    5.90
  -7   7   7   52.79    5.50
  -7   7   7   48.00    5.30
   6  -7  -7   98.09    6.80
  -6   7   7   93.99    6.40
  -6   7   7  100.99    5.90
   5  -7  -7    8.00    3.00
  -5   7   7    6.90    2.50
  -5   7   7    6.70    2.90
   4  -7  -7   -0.70    2.40
  -4   7   7    1.40    1.90
  -4   7   7    0.60    2.20
   3  -7  -7    5.40    2.50
  -3   7   7    9.70    2.60
  -3   7   7    6.80    3.00
   2  -7  -7  119.29    6.50
  -2   7   7  121.49    6.10
  -2   7   7  106.29    6.80
   1  -7  -7   29.40    4.00
  -1   7   7   43.40    4.70
  -1   7   7   36.50    4.80
   0  -7  -7    0.50    2.60
   0   7   7   -0.50    2.40
  -1  -7  -7    1.40    2.90
   1   7   7    0.70    2.50
   6  -8  -7   11.00    3.50
  -6   8   7   11.60    3.20
  -6   8   7    9.60    3.20
   5  -8  -7  183.68    9.00
  -5   8   7  175.38    8.00
  -5   8   7  186.78    9.10
   4  -8  -7    9.50    3.30
  -4   8   7   15.40    3.30
  -4   8   7   16.60    4.00
   3  -8  -7  121.89    7.20
  -3   8   7  106.59    7.30
  -3   8   7  123.19    6.70
   2  -8  -7    6.20    2.80
  -2   8   7    1.50    2.50
  -2   8   7    3.40    3.10
  -2   8  -8   23.60    4.50
   2  -8   8   28.00    4.80
  -3   8  -8   52.59    5.40
   3  -8   8   52.69    5.90
  -4   8  -8  234.18    9.90
   4  -8   8  242.18    9.90
  -5   8  -8   18.50    3.80
   5  -8   8   10.20    3.40
   1   7  -8   82.19    6.20
  -1  -7   8   67.29    7.00
   0   7  -8   27.70    4.30
   0  -7   8   24.90    4.80
  -1   7  -8   14.70    3.20
   1  -7   8   12.00    3.60
  -2   7  -8   29.80    4.20
   2  -7   8   35.60    5.00
  -3   7  -8   45.30    4.80
   3  -7   8   42.40    5.00
  -4   7  -8   36.00    4.40
   4  -7   8   35.50    4.40
   4  -7   8   42.20    4.60
  -5   7  -8  479.85   13.60
   5  -7   8  471.05   13.40
  -6   7  -8  194.68    8.80
   6  -7   8  199.48    9.00
  -7   7  -8   21.80    4.20
   7  -7   8   22.10    4.50
   2   6  -8  416.66   13.00
   2   6  -8  438.26   13.10
  -2  -6   8  413.06   14.10
   1   6  -8    5.50    2.60
   1   6  -8    4.10    2.50
  -1  -6   8    2.10    2.50
   0   6  -8   65.79    5.00
   0   6  -8   69.09    4.80
   0  -6   8   57.79    5.70
  -1   6  -8  145.69    6.70
  -1   6  -8  144.49    6.30
   1  -6   8  143.29    7.50
  -2   6  -8  101.39    5.60
  -2   6  -8  108.79    5.30
   2  -6   8   96.19    6.10
  -3   6  -8   33.40    5.20
  -3   6  -8   38.00    4.10
   3  -6   8   38.40    4.30
   3  -6   8   41.60    4.00
  -4   6  -8  455.75   12.10
   4  -6   8  447.26   11.70
   4  -6   8  429.96   12.00
  -5   6  -8   10.80    3.10
   5  -6   8   13.20    3.20
  -6   6  -8  132.19    6.90
   6  -6   8  114.89    7.00
  -7   6  -8  275.97   10.30
   7  -6   8  277.77   11.20
   3   5  -8   84.59    6.20
   3   5  -8   75.29    5.70
  -3  -5   8   76.19    7.20
   2   5  -8   11.30    3.20
   2   5  -8   14.40    3.10
  -2  -5   8   15.70    3.70
   1   5  -8  817.62   18.10
   1   5  -8  827.02   17.50
  -1  -5   8  824.62   19.40
   0   5  -8    4.90    2.30
   0   5  -8    8.20    2.30
   0  -5   8    6.60    2.60
  -1   5  -8   30.00    3.40
  -1   5  -8   24.00    3.10
   1  -5   8   32.20    4.00
  -2   5  -8  701.33   14.80
  -2   5  -8  683.63   14.80
   2  -5   8  703.63   14.30
   2  -5   8  718.73   15.90
  -3   5  -8   53.09    3.90
  -3   5  -8   57.69    4.10
   3  -5   8   54.99    4.00
   3  -5   8   54.19    4.20
  -4   5  -8  195.58    7.10
  -4   5  -8  206.58    7.10
   4  -5   8  197.08    7.50
   4  -5   8  191.98    6.70
  -5   5  -8  260.07    8.80
  -5   5  -8  264.57    8.50
   5  -5   8  292.37    9.90
  -6   5  -8    6.80    2.60
  -6   5  -8   10.40    2.80
   6  -5   8   12.10    3.40
  -7   5  -8   72.69    5.60
   7  -5   8   64.99    6.50
  -8   5  -8  197.28    9.20
   8  -5   8  205.98    9.80
   4   4  -8   -1.00    2.40
  -4  -4   8    0.50    2.40
  -4  -4   8   -1.50    2.60
   3   4  -8  318.57   10.90
   3   4  -8  313.17   10.00
  -3  -4   8  328.37   11.30
   2   4  -8  100.89    5.20
   2   4  -8   96.79    5.50
  -2  -4   8   97.79    6.00
   1   4  -8   30.40    3.70
   1   4  -8   29.90    3.20
  -1  -4   8   21.10    3.40
   0   4  -8   77.59    4.60
   0   4  -8   78.39    4.10
   0  -4   8   75.39    5.00
  -1   4  -8  373.66    9.70
  -1   4  -8  395.66    9.20
   1  -4   8  384.76   10.40
   1  -4   8  377.16    8.60
  -2   4  -8   25.70    2.70
  -2   4  -8   29.30    3.20
   2  -4   8   17.70    2.60
   2  -4   8   27.70    2.90
  -3   4  -8  190.68    6.30
  -3   4  -8  189.28    6.60
   3  -4   8  198.48    6.50
   3  -4   8  200.28    6.90
  -4   4  -8   56.79    3.80
  -4   4  -8   56.79    4.10
   4  -4   8   53.69    4.20
  -5   4  -8  167.88    6.60
  -5   4  -8  158.88    6.60
   5  -4   8  164.48    7.30
  -6   4  -8  367.66   10.90
  -6   4  -8  365.16   10.60
   6  -4   8  361.96   11.60
  -7   4  -8   10.40    2.90
  -7   4  -8   10.60    2.90
   7  -4   8   15.40    3.70
  -8   4  -8   34.00    4.90
  -8   4  -8   32.60    4.50
   8  -4   8   27.50    4.70
   5   3  -8   75.49    6.30
  -5  -3   8   68.79    5.50
  -5  -3   8   82.39    6.20
   4   3  -8  206.98    8.90
  -4  -3   8  202.38    7.90
  -4  -3   8  203.78    8.70
   3   3  -8   20.50    3.60
   3   3  -8   18.30    2.90
  -3  -3   8   13.40    2.60
  -3  -3   8   15.70    3.40
   2   3  -8  205.58    6.60
   2   3  -8  203.78    7.60
  -2  -3   8  205.68    7.80
   1   3  -8   60.19    3.40
   1   3  -8   68.39    4.20
  -1  -3   8   68.99    4.70
   0   3  -8  187.98    6.50
   0   3  -8  201.38    5.60
   0  -3   8  191.38    7.00
   0  -3   8  195.08    5.20
  -1   3  -8    6.30    1.50
  -1   3  -8    4.40    1.60
   1  -3   8    6.60    1.60
   1  -3   8    6.20    1.90
  -2   3  -8    2.00    1.30
  -2   3  -8    2.00    1.50
   2  -3   8    2.00    1.40
   2  -3   8    1.30    1.40
  -3   3  -8    0.80    1.60
  -3   3  -8   -0.50    1.20
   3  -3   8   -2.20    1.40
   3  -3   8    0.10    1.20
  -4   3  -8  137.79    5.40
  -4   3  -8  148.29    5.90
   4  -3   8  137.79    6.20
  -5   3  -8  210.38    7.20
  -5   3  -8  215.98    7.60
   5  -3   8  206.28    8.00
  -6   3  -8   17.00    3.20
  -6   3  -8   20.60    3.50
   6  -3   8   20.00    3.80
  -7   3  -8  124.29    6.70
  -7   3  -8  104.19    6.40
   7  -3   8  108.29    6.90
  -8   3  -8   34.40    4.80
  -8   3  -8   31.40    4.60
   8  -3   8   35.70    5.30
   6   2  -8   89.89    6.70
  -6  -2   8   93.59    6.70
  -6  -2   8   91.49    6.40
   5   2  -8   54.89    5.60
  -5  -2   8   44.40    5.10
  -5  -2   8   60.09    5.30
   4   2  -8    4.00    2.30
  -4  -2   8    5.60    2.20
  -4  -2   8    6.20    2.60
   3   2  -8  683.63   15.70
  -3  -2   8  686.43   15.90
  -3  -2   8  708.03   14.30
   2   2  -8  293.27    7.30
   2   2  -8  278.67    8.60
  -2  -2   8  288.87    8.90
   1   2  -8   82.99    4.30
   1   2  -8   98.09    3.50
  -1  -2   8   94.29    3.30
  -1  -2   8   87.49    4.60
   0   2  -8  182.68    4.60
   0   2  -8  185.18    6.20
   0  -2   8  180.18    6.20
   0  -2   8  179.18    5.10
  -1   2  -8    7.80    1.30
  -1   2  -8    6.10    1.70
   1  -2   8   10.70    1.80
   1  -2   8    7.50    1.90
  -2   2  -8  473.85    9.10
  -2   2  -8  481.75   10.90
   2  -2   8  453.75    9.70
   2  -2   8  469.75   10.70
  -3   2  -8  108.69    4.90
  -3   2  -8  103.39    4.00
   3  -2   8  106.99    5.10
   3  -2   8  103.59    3.60
  -4   2  -8   15.10    2.70
  -4   2  -8   19.10    2.50
   4  -2   8   18.50    2.90
  -5   2  -8    7.90    2.30
  -5   2  -8   15.60    3.00
   5  -2   8   18.00    3.40
  -6   2  -8  283.67    9.90
  -6   2  -8  284.37    9.20
   6  -2   8  270.37    9.90
  -7   2  -8    3.90    2.60
  -7   2  -8    0.80    2.40
   7  -2   8   -0.20    2.20
   7  -2   8    0.60    2.70
   6   1  -8   15.20    3.70
  -6  -1   8   21.10    3.90
  -6  -1   8   23.50    3.70
   5   1  -8   87.99    5.90
  -5  -1   8   89.19    5.80
  -5  -1   8   93.59    5.20
   4   1  -8  145.09    6.70
  -4  -1   8  149.99    5.70
  -4  -1   8  150.18    6.80
   3   1  -8  107.39    5.20
  -3  -1   8  116.19    4.40
  -3  -1   8  102.59    5.40
   2   1  -8  630.64   11.60
   2   1  -8  649.93   13.80
  -2  -1   8  607.14   13.70
  -2  -1   8  635.54   11.50
   1   1  -8  590.14   12.50
   1   1  -8  580.04    9.80
  -1  -1   8  570.14   12.60
  -1  -1   8  575.64   11.00
   0   1  -8  134.59    2.90
   0   1  -8  140.89    5.20
   0  -1   8  138.09    4.60
  -1   1  -8 2116.79   30.90
  -1   1  -8 2151.78   34.20
   1  -1   8 2159.68   34.00
   1  -1   8 2104.99   33.30
  -2   1  -8  115.79    4.70
  -2   1  -8  121.99    3.60
   2  -1   8  116.89    4.00
   2  -1   8  109.49    4.70
  -3   1  -8   17.20    2.10
  -3   1  -8   13.60    2.30
   3  -1   8   14.90    1.60
   3  -1   8   14.30    2.50
  -4   1  -8  258.07    7.30
  -4   1  -8  266.47    8.50
   4  -1   8  262.87    8.50
  -5   1  -8   32.10    3.60
   5  -1   8   24.30    3.70
   5  -1   8   24.50    3.50
  -6   1  -8  134.99    6.60
   6  -1   8  135.99    7.30
   6  -1   8  157.08    7.50
  -7   1  -8  141.19    7.40
   7  -1   8  143.89    7.80
   7  -1   8  147.99    7.80
   7   0  -8   13.20    3.50
  -7   0   8   13.30    3.40
   6   0  -8  259.17    9.80
  -6   0   8  254.77    8.80
  -6   0   8  270.17    9.60
   5   0  -8    1.80    2.10
  -5   0   8    3.80    2.00
  -5   0   8    3.90    2.20
   4   0  -8  201.28    7.20
   4   0  -8  193.38    6.30
  -4   0   8  178.88    7.10
  -4   0   8  202.18    6.20
   3   0  -8  480.45   10.00
   3   0  -8  476.35   11.30
  -3   0   8  462.15   11.50
  -3   0   8  479.95    9.50
   2   0  -8  128.59    4.50
   2   0  -8  125.99    4.90
  -2   0   8  122.89    5.20
  -2   0   8  123.89    3.30
   1   0  -8  346.67    8.40
  -1   0   8  333.87    7.90
  -1   0   8  331.27    8.60
   0   0  -8 1573.74   25.80
   0   0   8 1573.14   25.70
   0   0   8 1506.05   25.60
  -1   0  -8   29.70    1.40
  -1   0  -8   31.70    2.70
   1   0   8   22.80    2.50
   1   0   8   29.00    2.50
  -2   0  -8    0.10    0.90
  -2   0  -8    1.20    1.30
   2   0   8    0.50    1.10
   2   0   8    1.80    1.60
  -3   0  -8   92.59    4.80
  -3   0  -8   96.09    3.90
   3   0   8  101.39    5.10
  -4   0  -8   27.00    3.00
   4   0   8   30.60    3.60
   4   0   8   23.30    3.20
  -5   0  -8  306.37    9.20
   5   0   8  297.87   10.30
   5   0   8  317.87   10.30
  -6   0  -8    0.80    2.20
   6   0   8   -0.30    2.40
   6   0   8   -2.90    2.00
  -7   0  -8   10.20    3.10
   7   0   8   10.40    3.60
   7   0   8    2.50    2.70
   7  -1  -8    4.30    2.60
  -7   1   8    9.60    2.90
   6  -1  -8    2.90    2.40
  -6   1   8    2.00    2.00
  -6   1   8    2.20    2.40
   5  -1  -8  449.06   10.60
   5  -1  -8  435.16   11.70
  -5   1   8  447.56   10.60
  -5   1   8  440.66   11.90
   4  -1  -8  135.59    5.20
   4  -1  -8  130.49    5.50
  -4   1   8  133.29    4.70
  -4   1   8  133.49    6.00
   3  -1  -8    9.20    2.00
   3  -1  -8   11.90    2.00
  -3   1   8   11.10    1.60
  -3   1   8   10.90    2.30
   2  -1  -8 2604.04   40.00
   2  -1  -8 2536.15   40.00
  -2   1   8 2582.74   36.90
  -2   1   8 2573.04   40.90
   1  -1  -8   70.29    3.50
  -1   1   8   69.59    3.90
  -1   1   8   64.99    3.50
   0  -1  -8   23.00    2.40
   0   1   8   24.10    2.60
   0   1   8   23.40    2.60
  -1  -1  -8  186.48    5.90
  -1  -1  -8  179.78    4.00
   1   1   8  183.28    6.20
   1   1   8  179.38    5.50
  -2  -1  -8  370.66    7.70
  -2  -1  -8  363.76    9.40
   2   1   8  364.46    8.10
   2   1   8  370.96    9.70
  -3  -1  -8    0.40    1.40
   3   1   8    3.70    2.00
   3   1   8   -1.00    1.70
  -4  -1  -8   52.99    3.90
   4   1   8   56.09    4.50
   4   1   8   65.89    4.70
  -5  -1  -8   20.60    3.30
   5   1   8   17.30    3.30
   5   1   8   19.60    3.50
  -6  -1  -8    2.00    2.50
   6   1   8    2.40    2.50
   6   1   8    0.10    2.40
   7  -2  -8   77.09    5.60
  -7   2   8   75.69    5.30
   6  -2  -8    9.10    2.40
   6  -2  -8   11.10    2.70
  -6   2   8    9.00    2.80
  -6   2   8   11.80    2.70
   5  -2  -8   20.80    3.00
   5  -2  -8   24.80    3.20
  -5   2   8   22.90    2.80
  -5   2   8   19.90    3.30
   4  -2  -8  163.08    6.10
   4  -2  -8  167.48    5.80
  -4   2   8  159.68    6.40
  -4   2   8  172.68    5.20
   3  -2  -8   61.19    3.80
   3  -2  -8   61.99    3.40
  -3   2   8   67.29    2.80
  -3   2   8   68.09    4.30
   2  -2  -8    8.90    1.80
   2  -2  -8    7.00    2.00
  -2   2   8    9.30    1.20
  -2   2   8    6.00    1.80
   1  -2  -8  719.13   13.50
  -1   2   8  733.83   14.50
  -1   2   8  685.03   14.30
  -1   2   8  701.23   11.00
   0  -2  -8    0.20    1.20
   0   2   8    1.30    0.90
   0   2   8   -0.30    1.30
   0   2   8    1.30    1.40
  -1  -2  -8  365.96    9.00
  -1  -2  -8  359.96    7.40
   1   2   8  362.26    8.80
   1   2   8  355.46    9.30
  -2  -2  -8 1069.49   18.40
  -2  -2  -8 1053.69   20.10
   2   2   8 1090.09   20.70
   2   2   8 1043.10   20.20
   2   2   8 1061.49   18.80
  -3  -2  -8    4.70    1.80
   3   2   8   -0.30    1.60
   3   2   8    1.30    2.00
  -4  -2  -8    2.50    2.00
   4   2   8    0.00    2.20
   4   2   8    0.60    1.90
  -5  -2  -8  178.38    7.70
   5   2   8  164.78    8.10
   5   2   8  170.28    7.60
  -6  -2  -8   53.39    5.60
   6   2   8   50.39    5.80
   7  -3  -8    7.70    2.80
  -7   3   8    8.30    2.70
  -7   3   8    9.90    2.90
   6  -3  -8  187.88    7.50
   6  -3  -8  178.08    6.80
  -6   3   8  188.88    7.00
  -6   3   8  171.78    7.40
   5  -3  -8  186.98    6.40
   5  -3  -8  186.68    7.30
  -5   3   8  192.18    7.50
  -5   3   8  196.28    6.30
   4  -3  -8    3.30    1.90
   4  -3  -8    4.10    1.70
  -4   3   8    5.00    1.50
  -4   3   8    2.80    1.80
   3  -3  -8  121.09    5.30
   3  -3  -8  121.49    4.30
  -3   3   8  113.09    5.40
  -3   3   8  119.09    3.90
   2  -3  -8  262.87    7.90
   2  -3  -8  263.47    6.60
  -2   3   8  264.37    5.80
  -2   3   8  277.77    8.20
   1  -3  -8   53.59    3.00
   1  -3  -8   51.29    3.80
  -1   3   8   49.40    3.60
  -1   3   8   57.09    2.50
   0  -3  -8  396.16    9.10
   0   3   8  395.46    8.20
   0   3   8  391.36   10.10
   0   3   8  402.56   10.00
  -1  -3  -8  234.98    7.20
   1   3   8  249.78    7.40
   1   3   8  239.48    7.70
   1   3   8  240.38    6.50
  -2  -3  -8   38.00    3.30
   2   3   8   43.70    3.50
   2   3   8   33.30    3.70
   2   3   8   34.60    3.70
  -3  -3  -8  522.15   12.40
   3   3   8  525.25   13.10
   3   3   8  531.55   13.70
  -4  -3  -8   35.00    4.20
   4   3   8   19.90    3.50
   4   3   8   28.00    4.00
  -5  -3  -8    6.00    2.60
   5   3   8   -0.70    2.30
   8  -4  -8   18.80    3.80
   7  -4  -8   74.99    5.70
  -7   4   8   69.79    5.30
  -7   4   8   78.09    5.40
   6  -4  -8   57.89    4.70
  -6   4   8   63.29    4.80
  -6   4   8   57.49    4.30
   5  -4  -8   83.39    5.40
  -5   4   8   85.09    4.30
  -5   4   8   91.39    5.40
   4  -4  -8  362.06   10.50
  -4   4   8  365.76   10.60
  -4   4   8  354.06    8.60
   3  -4  -8   18.70    3.20
  -3   4   8   16.00    2.90
  -3   4   8   15.70    2.10
   2  -4  -8  423.46    8.80
   2  -4  -8  417.66   11.10
  -2   4   8  411.56   11.10
  -2   4   8  433.76    9.00
   1  -4  -8  779.72   14.50
   1  -4  -8  791.42   16.70
  -1   4   8  795.02   14.40
  -1   4   8  785.62   16.60
   0  -4  -8   34.00    3.10
   0  -4  -8   36.20    3.90
   0   4   8   35.00    3.10
   0   4   8   36.60    3.80
   0   4   8   32.20    3.50
  -1  -4  -8    7.30    2.00
   1   4   8   10.60    2.50
   1   4   8    9.80    2.20
   1   4   8    5.30    2.10
  -2  -4  -8  287.77    8.80
   2   4   8  295.87    9.20
   2   4   8  298.67    8.90
   2   4   8  294.97    9.30
   2   4   8  289.87    8.90
  -3  -4  -8    1.40    2.20
   3   4   8    2.50    2.30
  -4  -4  -8   57.09    5.60
   4   4   8   60.99    6.00
   8  -5  -8   22.10    4.20
   7  -5  -8   19.90    3.90
  -7   5   8   16.60    3.30
   6  -5  -8  165.88    8.00
  -6   5   8  173.08    7.60
  -6   5   8  162.08    6.60
   5  -5  -8   -0.90    2.10
  -5   5   8    1.10    1.80
  -5   5   8    2.60    2.10
   4  -5  -8   74.49    5.00
  -4   5   8   84.29    5.40
  -4   5   8   68.49    4.10
   3  -5  -8  663.13   15.90
  -3   5   8  714.93   13.90
  -3   5   8  675.83   16.00
   2  -5  -8   86.59    5.10
  -2   5   8   90.79    5.50
  -2   5   8   88.39    4.20
   1  -5  -8   30.80    3.80
  -1   5   8   42.00    3.60
  -1   5   8   37.40    4.30
   0  -5  -8  394.66   11.10
   0   5   8  393.86   11.40
   0   5   8  411.16   10.30
  -1  -5  -8  269.07    9.00
  -1  -5  -8  281.67    8.60
   1   5   8  279.87    9.40
   1   5   8  283.67    8.80
  -2  -5  -8  112.39    6.20
  -2  -5  -8  109.39    6.50
   2   5   8  122.79    6.30
   2   5   8  120.59    6.20
  -3  -5  -8    4.10    2.60
   3   5   8    8.90    3.00
   7  -6  -8   60.39    6.00
  -7   6   8   58.79    5.70
   6  -6  -8   12.60    3.40
  -6   6   8   22.30    4.00
   5  -6  -8  230.18    9.20
  -5   6   8  231.88    9.10
  -5   6   8  220.48   10.10
   4  -6  -8   12.40    3.20
  -4   6   8   10.80    2.60
  -4   6   8    6.30    2.60
   3  -6  -8  295.77   10.20
  -3   6   8  304.07    8.80
  -3   6   8  297.37   10.30
   2  -6  -8  242.28    9.10
  -2   6   8  276.47    8.30
  -2   6   8  255.27    9.40
   1  -6  -8  125.99    6.40
  -1   6   8  119.49    6.80
  -1   6   8  133.99    5.90
   0  -6  -8   30.70    4.00
   0   6   8   30.10    4.30
   0   6   8   34.00    4.00
  -1  -6  -8  190.98    8.50
   1   6   8  180.68    8.20
   1   6   8  185.68    7.80
  -2  -6  -8   57.19    8.60
   2   6   8   58.19    5.60
   7  -7  -8    9.60    3.60
  -7   7   8    8.70    3.30
   6  -7  -8  104.09    7.20
  -6   7   8  104.49    7.00
   5  -7  -8   28.30    4.60
  -5   7   8   30.10    4.40
   4  -7  -8  109.09    6.80
  -4   7   8  106.29    6.80
   3  -7  -8   11.30    3.30
  -3   7   8    6.60    3.00
   2  -7  -8   19.40    3.70
  -2   7   8   18.80    4.10
  -2   7   8   16.90    3.90
   1  -7  -8  167.58    7.80
  -1   7   8  170.28    8.10
  -1   7   8  160.58    8.20
   0  -7  -8   49.20    5.70
   0   7   8   43.90    5.30
   0   7   8   45.80    5.60
   5  -8  -8   54.69    6.10
  -5   8   8   56.99    6.30
   4  -8  -8   48.10    5.70
  -4   8   8   36.50    4.90
   3  -8  -8   85.99    6.40
   2  -8  -8  124.69    7.20
  -2   8   8  118.79    7.70
  -2   8  -9   96.39    6.60
   2  -8   9   97.89    7.40
  -3   8  -9   41.30    5.10
   3  -8   9   36.20    5.00
  -4   8  -9  199.78    9.10
   4  -8   9  203.38    9.20
  -5   8  -9  119.59    7.20
   0   7  -9   33.70    4.50
   0  -7   9   31.50    5.00
  -1   7  -9   10.00    3.00
   1  -7   9   10.90    3.80
  -2   7  -9  236.58    9.10
   2  -7   9  226.48    9.80
  -3   7  -9  187.68    8.10
   3  -7   9  178.98    8.40
  -4   7  -9   72.69    5.60
   4  -7   9   72.99    5.30
   4  -7   9   68.39    5.60
  -5   7  -9   40.40    4.70
   5  -7   9   37.60    4.70
  -6   7  -9  249.38    9.90
   6  -7   9  249.48   10.20
   2   6  -9    0.50    2.50
   2   6  -9    2.60    2.80
  -2  -6   9   -6.20    2.50
   1   6  -9   74.49    5.60
   1   6  -9   76.09    5.60
  -1  -6   9   79.09    6.60
   0   6  -9  123.39    6.30
   0   6  -9  131.09    6.70
   0  -6   9  123.59    7.50
  -1   6  -9   90.79    5.40
  -1   6  -9  103.99    5.70
   1  -6   9   88.69    6.40
  -2   6  -9   28.10    3.70
  -2   6  -9   23.80    3.30
   2  -6   9   27.70    4.20
  -3   6  -9   50.89    4.80
  -3   6  -9   56.49    4.30
   3  -6   9   46.90    4.80
   3  -6   9   52.09    4.10
  -4   6  -9  321.67   10.10
   4  -6   9  334.57   10.10
   4  -6   9  319.27   10.10
  -5   6  -9  159.28    7.30
   5  -6   9  142.69    7.20
  -6   6  -9   24.60    4.00
   6  -6   9   19.00    3.70
  -7   6  -9   43.40    5.10
   7  -6   9   41.40    5.30
   3   5  -9  167.88    8.00
   3   5  -9  169.28    8.50
  -3  -5   9  166.98    8.90
   2   5  -9   -0.80    2.00
   2   5  -9    3.00    2.50
  -2  -5   9    3.80    2.70
   1   5  -9  135.49    6.80
   1   5  -9  140.39    6.30
  -1  -5   9  137.09    7.50
   0   5  -9   53.79    4.20
   0   5  -9   59.49    4.50
   0  -5   9   48.10    5.10
  -1   5  -9   16.90    2.80
  -1   5  -9   19.20    3.10
   1  -5   9   12.60    3.10
  -2   5  -9   13.00    2.50
  -2   5  -9   12.00    2.60
   2  -5   9   11.80    2.20
   2  -5   9   11.10    2.80
  -3   5  -9  229.98    7.60
  -3   5  -9  245.38    7.90
   3  -5   9  225.98    7.80
   3  -5   9  225.28    8.00
  -4   5  -9   77.39    4.80
  -4   5  -9   81.39    4.90
   4  -5   9   80.19    5.10
  -5   5  -9  124.79    6.00
  -5   5  -9  116.09    6.00
   5  -5   9  109.69    6.20
  -6   5  -9  178.18    7.70
  -6   5  -9  185.18    7.60
   6  -5   9  176.68    8.40
  -7   5  -9    0.70    2.30
   7  -5   9    0.10    2.60
   4   4  -9   30.80    4.90
  -4  -4   9   24.40    4.00
  -4  -4   9   30.60    5.00
   3   4  -9   12.60    3.10
   3   4  -9   14.20    3.40
  -3  -4   9   10.30    3.40
   2   4  -9  624.14   15.60
   2   4  -9  636.04   14.30
  -2  -4   9  621.24   16.20
   1   4  -9    6.30    2.10
   1   4  -9    4.50    2.30
  -1  -4   9    5.00    2.80
   0   4  -9  255.97    7.20
   0   4  -9  233.28    8.00
   0  -4   9  240.88    8.70
  -1   4  -9  264.47    8.30
  -1   4  -9  267.57    7.40
   1  -4   9  275.27    7.20
   1  -4   9  260.07    8.60
  -2   4  -9   81.19    4.60
  -2   4  -9   83.39    4.10
   2  -4   9   79.89    4.30
   2  -4   9   85.09    4.80
  -3   4  -9    5.50    1.90
  -3   4  -9    3.10    1.80
   3  -4   9    5.40    2.00
   3  -4   9    5.30    2.00
  -4   4  -9  176.08    6.80
  -4   4  -9  174.98    6.40
   4  -4   9  174.08    7.20
  -5   4  -9   17.20    3.20
  -5   4  -9    9.60    2.40
   5  -4   9    8.60    2.70
  -6   4  -9  169.48    7.30
   6  -4   9  170.38    8.20
  -7   4  -9  254.87    9.60
  -7   4  -9  266.47    9.70
   7  -4   9  241.48   10.40
   5   3  -9   -1.60    2.40
  -5  -3   9    2.10    2.70
  -5  -3   9    3.70    2.60
   4   3  -9  138.89    7.60
  -4  -3   9  129.39    7.40
  -4  -3   9  139.99    6.50
   3   3  -9  452.15   13.00
  -3  -3   9  468.45   13.30
  -3  -3   9  463.75   11.60
   2   3  -9    6.90    2.20
   2   3  -9   14.20    2.40
  -2  -3   9    9.30    2.60
   1   3  -9  684.33   13.30
   1   3  -9  688.63   15.40
  -1  -3   9  665.63   15.60
   0   3  -9  266.77    6.70
   0   3  -9  281.17    8.50
   0  -3   9  273.47    6.80
   0  -3   9  285.17    8.80
  -1   3  -9   -0.10    1.10
  -1   3  -9    0.60    1.70
   1  -3   9    0.90    1.40
   1  -3   9    0.10    1.50
  -2   3  -9  313.77    7.30
  -2   3  -9  303.47    8.70
   2  -3   9  300.37    8.30
   2  -3   9  292.17    8.10
  -3   3  -9    6.30    2.00
  -3   3  -9    4.20    1.50
   3  -3   9    3.30    1.50
   3  -3   9    3.90    2.00
  -4   3  -9   21.50    3.30
  -4   3  -9   20.80    2.70
   4  -3   9   13.90    2.70
  -5   3  -9  812.02   17.70
  -5   3  -9  832.22   16.80
   5  -3   9  798.32   18.30
  -6   3  -9    4.80    2.30
  -6   3  -9    6.60    2.70
   6  -3   9    3.00    2.30
  -7   3  -9    1.60    2.50
  -7   3  -9   -1.30    2.40
   7  -3   9    2.60    2.50
   5   2  -9  103.59    6.80
  -5  -2   9  111.19    6.90
  -5  -2   9  117.59    6.30
   4   2  -9   -2.60    2.00
  -4  -2   9   -0.50    1.80
  -4  -2   9    2.60    2.40
   3   2  -9  184.38    7.60
  -3  -2   9  195.28    7.80
  -3  -2   9  193.48    6.40
   2   2  -9  833.52   15.00
   2   2  -9  817.22   17.30
  -2  -2   9  780.52   17.30
   1   2  -9    0.50    1.50
   1   2  -9    1.40    1.10
  -1  -2   9   -1.00    1.70
  -1  -2   9    0.50    1.00
   0   2  -9   40.50    3.50
   0   2  -9   34.70    2.00
   0  -2   9   40.20    3.30
   0  -2   9   35.10    2.60
  -1   2  -9  435.96    8.30
  -1   2  -9  452.35   10.90
   1  -2   9  445.46   10.40
   1  -2   9  460.65   10.30
  -2   2  -9    3.60    1.20
  -2   2  -9    3.10    1.60
   2  -2   9    4.10    1.60
   2  -2   9    3.20    1.70
  -3   2  -9  468.05    9.60
  -3   2  -9  440.66   11.20
   3  -2   9  456.45   11.50
   3  -2   9  439.76    9.30
  -4   2  -9  112.29    5.50
  -4   2  -9  115.49    4.80
   4  -2   9  110.79    5.70
  -5   2  -9   -2.80    1.50
  -5   2  -9    1.30    1.90
   5  -2   9    2.10    2.00
  -6   2  -9  252.87    8.70
  -6   2  -9  262.47    9.60
   6  -2   9  261.27   10.00
  -7   2  -9   55.19    5.60
  -7   2  -9   52.49    5.30
   7  -2   9   75.29    6.90
   6   1  -9   13.20    3.70
  -6  -1   9    9.00    3.10
  -6  -1   9    6.80    3.10
   5   1  -9   78.99    5.60
  -5  -1   9   81.69    5.10
  -5  -1   9   84.79    5.90
   4   1  -9  503.05   13.40
  -4  -1   9  529.15   11.70
  -4  -1   9  497.05   13.50
   3   1  -9   49.99    4.20
  -3  -1   9   60.09    4.60
  -3  -1   9   53.49    3.20
   2   1  -9  231.28    6.10
   2   1  -9  236.28    7.70
  -2  -1   9  236.68    5.60
  -2  -1   9  219.48    7.60
   1   1  -9  429.86   10.50
  -1  -1   9  419.86   10.50
  -1  -1   9  411.26    9.10
  -1  -1   9  413.56    7.40
   0   1  -9   26.90    2.90
   0   1  -9   32.40    1.30
   0  -1   9   34.20    3.10
   0  -1   9   34.50    3.30
  -1   1  -9    0.20    1.50
  -1   1  -9    1.50    0.70
   1  -1   9    2.80    1.60
   1  -1   9   -0.40    1.40
  -2   1  -9  650.43   14.20
  -2   1  -9  684.43   11.70
   2  -1   9  672.63   12.80
   2  -1   9  681.73   14.50
  -3   1  -9    9.10    1.70
  -3   1  -9    4.80    1.80
   3  -1   9    6.20    2.00
   3  -1   9    8.80    2.60
  -4   1  -9   -2.30    1.70
  -4   1  -9   -0.40    1.50
   4  -1   9    4.60    2.10
  -5   1  -9  206.78    8.20
  -5   1  -9  193.18    6.90
   5  -1   9  199.98    8.00
  -6   1  -9    9.50    2.70
  -6   1  -9    7.60    2.90
   6  -1   9   15.70    3.40
   6  -1   9    4.40    2.50
  -7   1  -9   49.20    5.20
  -7   1  -9   45.10    5.30
   7  -1   9   49.30    5.80
   7  -1   9   53.29    5.80
   7   0  -9    1.70    2.60
   6   0  -9  167.88    8.00
  -6   0   9  195.48    8.30
   5   0  -9   84.09    5.70
  -5   0   9   81.99    5.60
  -5   0   9   90.19    4.90
   4   0  -9   35.00    3.90
  -4   0   9   37.20    3.00
  -4   0   9   43.20    4.30
   3   0  -9 1169.38   20.20
   3   0  -9 1133.79   21.70
  -3   0   9 1177.98   22.40
  -3   0   9 1169.18   19.10
   2   0  -9   68.89    3.90
   2   0  -9   69.69    3.60
  -2   0   9   61.19    4.00
   1   0  -9    3.60    1.70
  -1   0   9    3.50    1.70
  -1   0   9    1.80    1.20
   0   0  -9  736.13   14.50
   0   0   9  683.13   14.10
   0   0   9  704.73   14.20
  -1   0  -9    9.60    0.90
  -1   0  -9    8.70    1.90
   1   0   9    8.40    2.00
   1   0   9   12.10    2.10
  -2   0  -9    0.60    1.40
  -2   0  -9    0.30    1.00
   2   0   9    1.80    1.20
   2   0   9    2.20    1.70
  -3   0  -9   30.60    3.40
  -3   0  -9   37.30    2.60
   3   0   9   27.80    3.40
  -4   0  -9   11.60    2.90
  -4   0  -9    8.20    2.10
   4   0   9    7.90    2.40
  -5   0  -9   62.29    4.30
   5   0   9   68.29    5.10
   5   0   9   65.79    5.10
  -6   0  -9  151.88    7.10
   6   0   9  154.98    7.90
   6   0   9  146.09    7.80
   7  -1  -9   -0.40    2.50
   6  -1  -9   28.20    4.10
  -6   1   9   23.80    3.70
   5  -1  -9   73.79    5.10
   5  -1  -9   77.89    5.10
  -5   1   9   70.09    5.00
  -5   1   9   82.29    6.10
   4  -1  -9  149.69    5.60
   4  -1  -9  144.19    6.00
  -4   1   9  141.19    6.50
  -4   1   9  156.98    7.10
   3  -1  -9   67.29    4.00
   3  -1  -9   75.29    4.00
  -3   1   9   65.59    4.50
   2  -1  -9  562.44   12.20
   2  -1  -9  559.24   12.10
  -2   1   9  563.64   13.00
   1  -1  -9  871.01   16.70
  -1   1   9  907.41   17.40
  -1   1   9  887.21   16.90
   0  -1  -9  135.39    5.20
   0   1   9  130.19    5.10
   0   1   9  138.29    5.30
  -1  -1  -9  360.76    6.50
  -1  -1  -9  356.16    9.10
   1   1   9  364.76    8.70
   1   1   9  354.26    9.50
  -2  -1  -9   71.29    3.00
  -2  -1  -9   75.29    4.20
   2   1   9   73.59    4.40
   2   1   9   76.39    3.60
  -3  -1  -9   48.60    4.10
  -3  -1  -9   44.00    3.10
   3   1   9   38.30    3.90
  -4  -1  -9  223.48    7.20
   4   1   9  216.08    8.50
   4   1   9  237.58    8.60
  -5  -1  -9    1.40    2.00
   5   1   9    6.40    2.60
   5   1   9    1.30    2.50
  -6  -1  -9   26.10    3.90
   6   1   9   23.80    4.20
   6   1   9   32.00    4.50
   7  -2  -9    9.00    3.10
  -7   2   9   10.00    3.10
   6  -2  -9  198.58    7.80
   6  -2  -9  204.08    7.50
  -6   2   9  195.68    8.10
   5  -2  -9  133.59    5.90
   5  -2  -9  115.19    5.70
  -5   2   9  134.59    6.50
   4  -2  -9  217.28    7.00
   4  -2  -9  212.18    7.30
  -4   2   9  199.58    7.60
   3  -2  -9  141.79    5.20
   3  -2  -9  126.29    5.50
  -3   2   9  146.69    6.20
   2  -2  -9  599.44   12.40
   2  -2  -9  599.14   13.30
  -2   2   9  622.24   13.70
   1  -2  -9  113.39    4.50
  -1   2   9  110.19    5.00
  -1   2   9  119.29    5.30
   0  -2  -9  266.57    7.40
   0   2   9  254.17    7.60
   0   2   9  263.87    8.00
  -1  -2  -9  105.09    3.50
  -1  -2  -9  103.39    4.80
   1   2   9  114.99    4.80
   1   2   9  105.59    5.00
  -2  -2  -9  140.09    4.70
  -2  -2  -9  127.39    5.60
   2   2   9  132.59    6.00
   2   2   9  127.59    5.00
  -3  -2  -9   90.49    5.30
  -3  -2  -9   78.59    4.20
   3   2   9   81.59    5.20
   3   2   9   87.19    5.40
  -4  -2  -9   34.60    3.70
   4   2   9   33.60    4.10
   4   2   9   30.60    4.00
  -5  -2  -9   85.59    5.60
   5   2   9   77.19    5.90
   5   2   9   71.69    5.50
   7  -3  -9  133.69    7.00
  -7   3   9  153.58    7.40
   6  -3  -9   11.90    2.90
   6  -3  -9   13.20    2.70
  -6   3   9   13.20    3.10
   5  -3  -9  294.97    9.60
   5  -3  -9  309.37    8.60
  -5   3   9  307.07   10.00
   4  -3  -9   23.50    3.50
   4  -3  -9   23.80    2.80
  -4   3   9   25.70    3.60
   3  -3  -9   27.90    2.80
   3  -3  -9   16.10    2.70
  -3   3   9   18.40    2.80
   2  -3  -9  913.91   18.50
   2  -3  -9  912.71   16.60
  -2   3   9  922.31   18.70
   1  -3  -9  240.08    6.70
   1  -3  -9  241.18    8.00
  -1   3   9  228.28    7.70
  -1   3   9  219.48    7.60
   0  -3  -9  108.99    4.60
   0   3   9  110.99    5.20
   0   3   9  119.89    5.60
  -1  -3  -9  187.88    6.60
   1   3   9  189.28    7.10
   1   3   9  193.98    6.70
   1   3   9  187.28    5.60
  -2  -3  -9  131.69    5.20
  -2  -3  -9  130.19    6.00
   2   3   9  150.08    5.90
   2   3   9  131.09    6.20
  -3  -3  -9   75.89    4.60
   3   3   9   72.29    5.20
   3   3   9   71.19    5.00
  -4  -3  -9   48.70    4.70
   4   3   9   47.50    4.90
   4   3   9   34.20    4.50
  -5  -3  -9   42.00    5.00
   5   3   9   36.60    5.20
   7  -4  -9    2.10    2.60
  -7   4   9    0.50    2.20
   6  -4  -9   61.99    5.70
  -6   4   9   56.99    5.40
   5  -4  -9   15.40    3.30
  -5   4   9   22.90    3.70
   4  -4  -9   14.30    3.10
  -4   4   9   12.60    3.00
   3  -4  -9  278.37    9.00
  -3   4   9  277.07    9.20
   2  -4  -9   39.10    2.80
   2  -4  -9   43.40    4.40
  -2   4   9   34.90    3.70
   1  -4  -9  602.54   14.30
   1  -4  -9  591.64   12.10
  -1   4   9  588.54   14.00
   0  -4  -9  127.39    5.20
   0   4   9  136.49    6.10
   0   4   9  143.49    6.40
  -1  -4  -9    5.60    2.00
   1   4   9    7.20    2.60
   1   4   9    7.90    2.40
   1   4   9    5.50    2.20
  -2  -4  -9  222.88    7.50
  -2  -4  -9  224.58    8.10
   2   4   9  225.58    8.40
   2   4   9  222.48    8.00
  -3  -4  -9  175.98    7.20
   3   4   9  157.78    7.70
   3   4   9  162.28    7.40
  -4  -4  -9   10.80    3.10
   4   4   9   11.80    3.50
   7  -5  -9   13.10    3.40
  -7   5   9   20.20    3.70
   6  -5  -9   25.70    4.30
  -6   5   9   18.70    3.50
   5  -5  -9  250.57    9.60
  -5   5   9  230.68    9.00
   4  -5  -9    1.10    2.10
  -4   5   9    0.40    2.30
   3  -5  -9   24.70    3.70
  -3   5   9   19.30    3.60
   2  -5  -9  479.65   13.00
  -2   5   9  469.55   12.90
   1  -5  -9    2.50    2.40
  -1   5   9    0.50    2.10
   0  -5  -9    3.00    2.20
   0   5   9   -0.90    2.10
  -1  -5  -9  423.06   12.10
   1   5   9  419.16   12.10
  -2  -5  -9    1.30    2.00
  -2  -5  -9   -0.30    2.00
  -2  -5  -9    0.30    2.00
  -3  -5  -9   96.19    6.90
   3   5   9  112.79    7.00
   7  -6  -9  226.48   10.00
  -7   6   9  223.08    9.50
   6  -6  -9   77.99    6.00
  -6   6   9   74.59    5.90
   5  -6  -9   13.50    3.30
  -5   6   9    9.50    3.10
   4  -6  -9  381.36   12.20
  -4   6   9  366.56   11.90
   3  -6  -9   11.60    3.20
  -3   6   9   14.80    3.40
   2  -6  -9   22.20    3.60
  -2   6   9   37.10    4.70
   1  -6  -9  421.56   12.50
  -1   6   9  419.36   12.80
   0  -6  -9   59.49    5.50
   0   6   9   68.29    5.60
  -1  -6  -9    2.60    2.60
   1   6   9    0.80    2.50
   6  -7  -9   21.70    4.20
  -6   7   9   35.30    4.90
   5  -7  -9   53.19    5.80
  -5   7   9   55.49    5.70
   4  -7  -9   30.30    4.80
  -4   7   9   30.10    4.50
  -3   7   9  445.16   13.90
   2  -7  -9   56.29    5.60
  -2   7   9   53.49    5.60
   1  -7  -9    3.70    2.60
  -1   7   9    1.40    2.70
   0   7   9  268.97   10.80
   4  -8  -9    0.90    2.70
  -4   8   9    0.40    2.70
   3  -8  -9  101.19    7.00
  -3   8   9  111.19    7.60
   0   7 -10   45.60    5.10
   0  -7  10   40.50    5.70
  -1   7 -10  111.59    6.60
   1  -7  10  128.39    8.00
  -2   7 -10   20.70    3.70
   2  -7  10   19.50    4.20
  -3   7 -10   65.59    5.30
   3  -7  10   50.29    5.50
  -4   7 -10  195.88    8.20
   4  -7  10  178.88   11.90
  -5   7 -10   -0.50    2.30
   5  -7  10    0.40    2.50
  -6   7 -10   12.10    3.50
   6  -7  10    9.30    3.50
   1   6 -10   95.59    6.30
   1   6 -10   97.99    6.00
  -1  -6  10   93.39    7.30
   0   6 -10   38.20    4.50
   0   6 -10   40.70    4.60
   0  -6  10   40.90    5.50
  -1   6 -10   19.30    3.20
  -1   6 -10   16.00    3.30
   1  -6  10   19.00    4.10
  -2   6 -10  251.47    8.70
  -2   6 -10  238.48    8.40
   2  -6  10  237.58    9.50
  -3   6 -10   40.20    4.30
  -3   6 -10   45.20    4.50
   3  -6  10   35.40    4.00
   3  -6  10   37.20    4.40
  -4   6 -10   69.59    5.00
   4  -6  10   73.69    5.20
  -5   6 -10  322.57   10.50
   5  -6  10  324.57   11.10
  -6   6 -10   77.29    5.60
   6  -6  10   70.79    5.70
  -7   6 -10   12.10    3.50
   7  -6  10   13.40    3.80
   3   5 -10   89.79    6.70
   3   5 -10   82.99    6.00
  -3  -5  10   81.79    6.80
   2   5 -10  237.98    8.60
   2   5 -10  235.28    9.70
  -2  -5  10  231.58   10.30
   1   5 -10   12.90    3.20
   1   5 -10   11.10    2.70
  -1  -5  10    4.90    2.90
   0   5 -10    3.50    2.10
   0   5 -10    1.40    2.10
   0  -5  10   -0.40    2.20
  -1   5 -10  132.59    6.40
  -1   5 -10  128.49    5.60
   1  -5  10  139.09    7.00
  -2   5 -10   23.50    3.30
  -2   5 -10   17.70    2.80
   2  -5  10   20.20    3.40
   2  -5  10   25.30    3.00
  -3   5 -10  361.56   10.50
  -3   5 -10  364.16    9.80
   3  -5  10  354.46   10.50
   3  -5  10  381.36   10.50
  -4   5 -10    1.30    1.90
  -4   5 -10    0.40    1.90
   4  -5  10   -0.40    2.00
  -5   5 -10    4.80    2.40
  -5   5 -10    3.80    2.30
   5  -5  10    3.80    2.50
  -6   5 -10  223.08    8.50
  -6   5 -10  206.68    8.50
   6  -5  10  205.48    9.10
  -7   5 -10   23.30    4.00
  -7   5 -10   33.40    5.80
   7  -5  10   26.60    4.70
   4   4 -10  277.27   11.10
  -4  -4  10  278.97   11.40
   3   4 -10    1.20    2.40
  -3  -4  10    2.10    2.90
  -3  -4  10    2.50    2.50
   2   4 -10    4.90    2.40
   2   4 -10    0.20    1.70
  -2  -4  10    1.20    2.60
   1   4 -10  324.67   10.20
   1   4 -10  308.37    8.60
  -1  -4  10  311.17   10.60
   0   4 -10  302.27    9.50
   0   4 -10  281.87    7.80
   0  -4  10  291.77    9.90
  -1   4 -10   19.70    3.20
  -1   4 -10   18.30    2.50
   1  -4  10   18.40    2.50
   1  -4  10   16.60    3.10
  -2   4 -10  399.16   11.00
  -2   4 -10  425.76    9.80
   2  -4  10  420.66   10.50
   2  -4  10  426.06   11.10
  -3   4 -10  111.59    5.60
  -3   4 -10  114.09    4.90
   3  -4  10  100.19    5.40
   3  -4  10  115.49    5.30
  -4   4 -10  107.59    5.00
  -4   4 -10  109.29    5.80
   4  -4  10  116.69    6.20
  -5   4 -10  172.38    6.90
  -5   4 -10  184.48    7.70
   5  -4  10  191.78    8.10
  -6   4 -10   47.30    5.00
  -6   4 -10   52.89    4.90
   6  -4  10   37.40    4.60
  -7   4 -10  175.48    8.10
  -7   4 -10  170.58    8.30
   4   3 -10   72.79    6.00
  -4  -3  10   70.39    6.00
   3   3 -10  280.27   10.30
  -3  -3  10  303.67   10.80
   2   3 -10   22.40    2.80
   2   3 -10   19.10    3.50
  -2  -3  10   22.60    3.80
   1   3 -10  149.59    5.30
   1   3 -10  153.88    6.80
  -1  -3  10  165.18    7.20
   0   3 -10  276.47    6.70
   0   3 -10  277.67    8.80
   0  -3  10  269.67    7.00
   0  -3  10  261.17    8.70
  -1   3 -10   78.59    4.60
  -1   3 -10   79.59    3.40
   1  -3  10   81.59    4.20
   1  -3  10   74.29    4.60
  -2   3 -10   72.19    3.40
  -2   3 -10   69.79    4.60
   2  -3  10   82.29    4.40
   2  -3  10   81.79    4.40
  -3   3 -10  173.18    6.90
  -3   3 -10  185.78    5.70
   3  -3  10  160.78    6.70
   3  -3  10  170.18    5.80
  -4   3 -10  107.99    4.90
  -4   3 -10  119.19    6.00
   4  -3  10  114.99    6.20
  -5   3 -10  153.08    7.00
  -5   3 -10  154.48    6.40
   5  -3  10  163.98    7.70
  -6   3 -10  416.46   11.40
  -6   3 -10  358.66   11.60
   6  -3  10  391.86   12.70
  -7   3 -10   56.39    5.70
  -7   3 -10   60.69    5.60
   7  -3  10   63.19    6.50
   5   2 -10  180.28    8.70
  -5  -2  10  183.88    8.80
   4   2 -10   25.40    4.00
  -4  -2  10   19.50    3.80
   3   2 -10    4.20    2.30
  -3  -2  10    4.10    2.60
   2   2 -10  610.14   14.90
  -2  -2  10  657.13   15.50
   1   2 -10   11.30    2.40
   1   2 -10   11.20    2.00
  -1  -2  10   14.80    2.90
  -1  -2  10   14.00    2.00
   0   2 -10  977.90   19.70
   0  -2  10 1049.20   19.90
   0  -2  10 1016.70   18.30
  -1   2 -10  474.25    9.40
  -1   2 -10  478.35   11.90
   1  -2  10  491.95   11.20
   1  -2  10  496.65   11.50
  -2   2 -10   34.00    3.50
  -2   2 -10   43.00    2.40
   2  -2  10   36.50    3.70
   2  -2  10   38.10    3.10
  -3   2 -10    4.10    1.40
  -3   2 -10    2.10    1.80
   3  -2  10    1.70    1.90
   3  -2  10    3.30    1.50
  -4   2 -10  420.66    9.80
  -4   2 -10  393.76   11.10
   4  -2  10  398.86   11.60
  -5   2 -10   17.30    2.80
  -5   2 -10    7.80    2.40
   5  -2  10   11.80    3.00
  -6   2 -10   61.79    4.80
  -6   2 -10   70.19    5.50
   6  -2  10   52.29    5.60
  -7   2 -10  149.39    7.40
  -7   2 -10  148.79    8.10
   7  -2  10  146.09    8.30
   6   1 -10   83.29    6.50
  -6  -1  10   76.19    6.10
   5   1 -10  102.69    6.60
  -5  -1  10  106.99    6.60
   4   1 -10  382.86   11.60
  -4  -1  10  362.86   11.60
   3   1 -10  204.08    7.70
  -3  -1  10  187.18    7.90
   2   1 -10    8.70    2.20
   2   1 -10   12.50    2.10
  -2  -1  10   14.50    2.90
   1   1 -10  436.26   11.20
  -1  -1  10  435.26   11.30
  -1  -1  10  453.25    9.90
   0   1 -10  283.57    8.40
   0  -1  10  274.37    7.80
   0  -1  10  293.47    8.40
  -1   1 -10   62.19    4.10
   1  -1  10   55.49    3.80
   1  -1  10   62.39    3.80
  -2   1 -10  243.18    8.00
   2  -1  10  237.28    7.90
   2  -1  10  248.68    6.90
  -3   1 -10  122.19    5.70
  -3   1 -10  123.19    4.30
   3  -1  10  121.29    5.90
  -4   1 -10   23.10    3.60
  -4   1 -10   28.00    2.90
   4  -1  10   26.70    3.80
  -5   1 -10  361.76   10.00
  -5   1 -10  388.96   11.80
   5  -1  10  382.86   12.00
  -6   1 -10   21.10    3.50
  -6   1 -10   26.10    4.30
   6  -1  10   23.50    4.10
  -7   1 -10   37.10    4.70
  -7   1 -10   43.90    5.60
   7  -1  10   28.50    4.60
   6   0 -10   30.00    4.40
  -6   0  10   31.00    4.50
   5   0 -10  264.07    9.80
  -5   0  10  265.27    9.80
   4   0 -10    2.60    2.10
  -4   0  10    7.50    2.80
   3   0 -10   30.20    3.00
   3   0 -10   37.40    4.00
  -3   0  10   36.20    4.30
   2   0 -10  955.80   18.00
   2   0 -10  989.30   19.20
  -2   0  10  976.30   19.70
   1   0 -10  119.89    5.20
  -1   0  10  110.39    4.60
  -1   0  10  122.59    5.40
   0   0 -10   33.70    3.40
   0   0  10   31.10    3.30
   0   0  10   30.60    3.20
  -1   0 -10  210.48    7.00
   1   0  10  212.78    7.00
   1   0  10  216.78    6.60
  -2   0 -10  257.97    8.10
   2   0  10  258.37    8.20
   2   0  10  263.47    7.00
  -3   0 -10    8.80    2.40
  -3   0 -10   18.00    2.20
   3   0  10   14.20    3.10
  -4   0 -10  113.09    4.90
  -4   0 -10  121.89    6.30
   4   0  10  110.79    6.30
  -5   0 -10   69.49    5.20
  -5   0 -10   72.89    4.70
   5   0  10   68.09    5.50
  -6   0 -10  148.69    8.00
   6   0  10  144.49    8.00
   7  -1 -10  222.18    9.60
  -7   1  10  221.88    9.50
   6  -1 -10  110.39    6.60
  -6   1  10  125.29    6.90
   5  -1 -10    1.30    2.20
  -5   1  10    0.40    2.10
   4  -1 -10  276.07    8.90
   4  -1 -10  301.67    8.60
  -4   1  10  302.97    9.80
   3  -1 -10  206.08    7.10
   3  -1 -10  202.48    6.80
  -3   1  10  187.78    7.50
   2  -1 -10   19.70    2.70
   2  -1 -10   17.40    2.60
  -2   1  10   17.80    3.00
   1  -1 -10  364.36    9.40
  -1   1  10  381.26   10.00
  -1   1  10  371.46    9.60
   0  -1 -10   52.09    3.60
   0   1  10   50.39    3.60
   0   1  10   52.19    3.60
  -1  -1 -10   25.50    3.20
   1   1  10   24.20    2.80
   1   1  10   31.10    3.50
  -2  -1 -10  208.28    7.30
   2   1  10  201.98    7.40
   2   1  10  197.58    6.20
  -3  -1 -10  135.19    5.30
  -3  -1 -10  138.19    6.30
   3   1  10  134.39    6.50
  -4  -1 -10   13.50    2.50
  -4  -1 -10   10.00    3.00
   4   1  10   15.80    3.40
  -5  -1 -10   69.19    4.90
  -5  -1 -10   60.89    6.00
   5   1  10   70.59    5.90
   5   1  10   70.19    5.60
  -6  -1 -10   40.80    4.70
   6   1  10   43.60    5.20
   6   1  10   45.50    5.60
   7  -2 -10    7.40    3.00
  -7   2  10    9.60    3.30
   6  -2 -10   16.80    3.20
  -6   2  10   18.70    3.70
   5  -2 -10  496.45   12.50
   5  -2 -10  492.25   12.60
  -5   2  10  496.05   13.50
   4  -2 -10   12.50    2.50
   4  -2 -10   10.80    2.60
  -4   2  10   11.40    2.80
   3  -2 -10  283.47    8.00
   3  -2 -10  269.97    8.30
  -3   2  10  253.67    8.60
   2  -2 -10  201.38    6.50
   2  -2 -10  200.18    7.10
  -2   2  10  201.38    7.40
   1  -2 -10   52.29    3.50
  -1   2  10   49.20    3.80
  -1   2  10   52.79    4.00
   0  -2 -10  177.58    6.10
   0   2  10  172.98    6.60
   0   2  10  168.28    6.30
  -1  -2 -10  247.18    7.80
   1   2  10  255.77    8.30
   1   2  10  252.37    7.60
  -2  -2 -10   75.29    4.80
   2   2  10   83.59    4.30
   2   2  10   70.19    4.60
  -3  -2 -10   90.39    5.40
   3   2  10   86.39    5.40
  -4  -2 -10   22.90    3.80
  -4  -2 -10   18.50    4.60
   4   2  10   15.90    3.30
   5   2  10    7.40    3.10
   5   2  10    3.80    2.70
  -7   3  10    1.80    2.40
   6  -3 -10  108.39    6.30
  -6   3  10  114.89    6.60
   5  -3 -10   44.60    4.70
   5  -3 -10   43.40    4.00
  -5   3  10   53.99    5.30
   4  -3 -10  146.99    5.60
   4  -3 -10  128.29    6.30
  -4   3  10  131.29    6.50
   3  -3 -10   14.90    2.40
   3  -3 -10    6.90    2.30
  -3   3  10    9.40    2.40
   2  -3 -10  306.47    8.10
   2  -3 -10  306.77    9.50
  -2   3  10  311.27    9.50
   1  -3 -10  884.91   16.70
   1  -3 -10  839.92   18.20
  -1   3  10  888.81   18.30
  -1   3  10  869.91   18.30
   0  -3 -10  139.39    5.50
   0   3  10  134.19    5.90
   0   3  10  136.29    6.30
  -1  -3 -10   28.60    3.30
   1   3  10   24.90    3.30
   1   3  10   19.30    3.10
  -2  -3 -10  371.46   10.80
   2   3  10  385.26   10.10
   2   3  10  365.66   11.10
  -3  -3 -10   39.00    4.50
   3   3  10   43.40    4.90
  -4  -3 -10   27.20    4.20
   4   3  10   23.40    3.90
   4   3  10   29.90    4.30
   7  -4 -10    1.40    2.60
  -7   4  10    3.50    2.60
   6  -4 -10  118.99    6.80
  -6   4  10  120.29    6.80
   5  -4 -10   49.20    5.20
  -5   4  10   39.60    4.50
   4  -4 -10   65.49    4.80
  -4   4  10   62.09    5.10
   3  -4 -10  358.56   10.80
  -3   4  10  351.76   10.90
   2  -4 -10  151.38    6.90
   2  -4 -10  157.98    7.80
  -2   4  10  162.68    7.10
   1  -4 -10   36.20    4.30
   1  -4 -10   34.90    3.20
  -1   4  10   26.80    3.50
   0  -4 -10  302.07    8.60
   0   4  10  309.27   10.00
   0   4  10  307.67    9.70
  -1  -4 -10   -1.20    1.50
   1   4  10    0.20    1.80
   1   4  10    2.20    2.10
  -2  -4 -10    8.10    2.60
   2   4  10    9.20    2.60
  -3  -4 -10  179.98    8.20
   3   4  10  185.78    8.10
   7  -5 -10  123.79    7.50
  -7   5  10  109.89    6.90
   6  -5 -10   48.10    5.30
  -6   5  10   41.70    4.90
   5  -5 -10  336.07   11.50
  -5   5  10  350.06   11.50
   4  -5 -10  241.68    9.30
  -4   5  10  232.78    9.20
   3  -5 -10   18.90    3.60
  -3   5  10    8.60    2.80
   2  -5 -10  273.07    9.70
  -2   5  10  261.77    9.40
   1  -5 -10  157.78    7.40
  -1   5  10  140.29    7.00
   0  -5 -10   34.90    4.20
   0   5  10   28.30    3.90
  -1  -5 -10  137.39    7.00
   1   5  10  130.49    6.90
  -2  -5 -10   32.60    4.70
   2   5  10   24.00    3.80
  -7   6  10   13.70    3.70
   6  -6 -10  155.18    8.40
  -6   6  10  145.89    8.00
   5  -6 -10   21.10    4.00
  -5   6  10   23.20    4.10
   4  -6 -10    3.10    2.80
  -4   6  10    2.10    2.60
   3  -6 -10   67.79    5.70
  -3   6  10   86.39    6.10
   2  -6 -10   25.90    4.20
  -2   6  10   25.90    4.20
   1  -6 -10  253.47    9.80
  -1   6  10  260.27   10.10
   0  -6 -10   96.79    6.40
   0   6  10   93.59    6.40
  -1  -6 -10   -0.10    2.50
   1   6  10    0.00    2.70
   6  -7 -10    5.40    3.10
  -6   7  10    1.90    2.70
   5  -7 -10    2.80    2.80
  -5   7  10    4.40    2.90
   4  -7 -10   55.49    6.10
  -4   7  10   50.69    5.80
   3  -7 -10    7.40    3.40
  -3   7  10   10.80    3.40
   2  -7 -10  127.89    7.50
  -2   7  10  128.49    7.80
   1  -7 -10   19.70    4.00
  -1   7  10   26.20    4.70
  -1   7 -11  194.28    8.20
   1  -7  11  179.98    9.50
  -2   7 -11   90.09    6.00
   2  -7  11   79.49    6.70
  -3   7 -11    5.10    2.50
   3  -7  11    5.80    3.20
  -4   7 -11  128.69    6.90
  -5   7 -11   35.50    4.60
   5  -7  11   31.50    4.60
   1   6 -11   52.99    5.90
  -1  -6  11   41.50    5.80
   0   6 -11  369.66   14.60
   0   6 -11  368.16   11.90
   0  -6  11  350.56   12.90
  -1   6 -11   -0.40    2.10
  -1   6 -11    2.90    2.10
   1  -6  11    0.20    2.70
  -2   6 -11   58.29    5.40
  -2   6 -11   60.59    4.50
   2  -6  11   62.69    6.10
  -3   6 -11  347.87   10.40
  -3   6 -11  348.87   10.90
   3  -6  11  362.66   11.50
  -4   6 -11    5.00    2.50
  -4   6 -11   10.00    2.70
   4  -6  11    8.30    2.90
  -5   6 -11   80.59    5.50
   5  -6  11   85.19    6.10
  -6   6 -11   46.50    5.10
   6  -6  11   45.00    5.70
   2   5 -11  391.16   13.00
  -2  -5  11  389.96   13.60
   1   5 -11   13.40    3.60
  -1  -5  11   14.90    3.90
   0   5 -11    0.30    2.20
   0  -5  11    2.40    2.70
  -1   5 -11  388.26   11.50
  -1   5 -11  379.66   10.40
   1  -5  11  379.86   12.00
  -2   5 -11  146.79    6.90
  -2   5 -11  155.48    6.10
   2  -5  11  147.09    8.90
   2  -5  11  163.98    7.40
  -3   5 -11   51.09    4.00
  -3   5 -11   50.19    4.70
   3  -5  11   53.09    4.80
   3  -5  11   50.29    4.20
  -4   5 -11  290.57    8.90
  -4   5 -11  274.37    9.50
   4  -5  11  283.47    9.80
  -5   5 -11    0.70    2.10
  -5   5 -11   -2.70    1.80
   5  -5  11   -0.10    2.40
  -6   5 -11    7.50    2.80
  -6   5 -11   10.20    3.00
   6  -5  11    8.60    3.40
  -7   5 -11   20.30    3.80
  -7   5 -11   21.60    4.20
   7  -5  11   27.30    5.00
   3   4 -11   37.00    4.90
  -3  -4  11   43.40    5.60
   2   4 -11   97.29    6.30
  -2  -4  11   90.69    6.30
   1   4 -11   68.09    5.30
  -1  -4  11   75.49    5.60
   0   4 -11    4.90    2.50
   0  -4  11    8.30    2.70
  -1   4 -11   78.09    5.10
   1  -4  11   71.29    4.10
   1  -4  11   75.89    5.20
  -2   4 -11  357.76   10.70
   2  -4  11  362.76   10.60
   2  -4  11  378.56   10.20
  -3   4 -11   11.70    2.50
  -3   4 -11   10.20    2.70
   3  -4  11   16.70    2.90
   3  -4  11    9.70    2.50
  -4   4 -11   68.49    4.30
  -4   4 -11   69.99    5.00
   4  -4  11   77.09    5.40
  -5   4 -11  301.07   10.20
  -5   4 -11  302.17    9.10
   5  -4  11  305.57   10.90
  -6   4 -11   31.60    4.00
  -6   4 -11   35.60    4.80
   6  -4  11   32.50    4.70
  -7   4 -11    1.50    2.60
  -7   4 -11    0.40    2.30
   7  -4  11    3.10    3.00
   4   3 -11    6.50    3.40
  -4  -3  11   15.80    3.90
   3   3 -11   14.90    3.60
  -3  -3  11   10.40    3.30
   2   3 -11  178.28    7.90
  -2  -3  11  157.58    7.70
   1   3 -11  201.58    8.10
  -1  -3  11  184.38    8.00
   0   3 -11    9.90    2.50
   0  -3  11   10.00    2.00
   0  -3  11    5.60    2.50
  -1   3 -11   24.40    3.50
   1  -3  11   17.50    2.60
   1  -3  11   23.70    3.30
  -2   3 -11   33.60    3.70
   2  -3  11   29.40    3.30
   2  -3  11   35.60    3.70
  -3   3 -11  287.47    9.40
   3  -3  11  292.17    9.30
   3  -3  11  298.67    8.20
  -4   3 -11    1.90    2.40
  -4   3 -11    1.60    2.20
   4  -3  11    3.60    2.30
  -5   3 -11   23.60    3.40
  -5   3 -11   19.50    3.60
   5  -3  11   16.70    3.60
  -6   3 -11  194.18    8.60
  -6   3 -11  204.68    8.00
   6  -3  11  191.68    9.10
  -7   3 -11   44.20    6.30
  -7   3 -11   52.79    5.70
   7  -3  11   50.29    6.10
   5   2 -11    8.10    3.40
  -5  -2  11    1.80    2.80
   4   2 -11  147.39    7.80
  -4  -2  11  143.79    7.90
   3   2 -11   67.59    5.10
  -3  -2  11   56.49    5.50
   2   2 -11   89.69    5.60
  -2  -2  11   85.99    5.80
   1   2 -11  179.68    7.40
  -1  -2  11  181.28    5.70
  -1  -2  11  174.48    7.40
   0   2 -11  472.95   12.40
   0  -2  11  486.05   12.30
   0  -2  11  496.65   11.20
  -1   2 -11   27.80    3.40
   1  -2  11   23.80    3.00
   1  -2  11   29.40    3.20
  -2   2 -11  576.84   13.90
   2  -2  11  569.84   13.60
   2  -2  11  586.44   12.60
  -3   2 -11  390.56   11.10
   3  -2  11  387.06   11.20
  -4   2 -11    0.60    2.00
   4  -2  11    2.60    2.20
  -5   2 -11  162.78    7.60
   5  -2  11  147.39    7.50
  -6   2 -11   -1.10    2.20
   6  -2  11   -0.50    2.00
  -7   2 -11   14.30    3.60
   7  -2  11   13.90    3.70
   6   1 -11   23.70    4.70
  -6  -1  11   29.90    4.90
   5   1 -11  145.39    8.00
  -5  -1  11  147.69    7.80
   4   1 -11   52.89    5.40
  -4  -1  11   47.60    5.00
   3   1 -11  386.06   11.60
  -3  -1  11  434.66   12.40
   2   1 -11   56.19    4.20
   2   1 -11   56.69    3.50
  -2  -1  11   54.09    5.00
   1   1 -11  410.36   11.10
  -1  -1  11  403.76   11.20
  -1  -1  11  435.96   10.00
   0   1 -11  559.64   13.20
   0  -1  11  569.64   13.10
   0  -1  11  554.44   12.50
  -1   1 -11 1121.79   21.60
   1  -1  11 1126.49   20.80
   1  -1  11 1109.79   21.10
  -2   1 -11    0.60    1.60
   2  -1  11    0.60    1.50
   2  -1  11    0.20    1.70
  -3   1 -11   90.49    5.50
   3  -1  11   98.49    5.70
  -4   1 -11  513.25   13.50
   4  -1  11  471.05   13.50
  -5   1 -11    4.10    2.70
   5  -1  11    2.00    2.50
  -6   1 -11  194.58    9.10
   6  -1  11  214.18    9.70
   6   0 -11  123.59    7.50
  -6   0  11  125.69    7.40
   5   0 -11  185.18    8.40
  -5   0  11  204.38    8.80
   4   0 -11  170.68    7.50
  -4   0  11  161.18    7.70
   3   0 -11  322.57    8.70
   3   0 -11  313.87    9.90
  -3   0  11  318.67   10.30
   2   0 -11  154.38    6.50
   2   0 -11  149.29    5.70
  -2   0  11  145.69    6.50
   1   0 -11 1174.78   22.00
  -1   0  11 1190.18   21.30
  -1   0  11 1099.29   21.90
   0   0 -11 1396.16   25.00
   0   0  11 1349.86   24.50
   0   0  11 1367.26   24.70
  -1   0 -11  107.99    5.20
   1   0  11  100.99    4.80
   1   0  11  101.69    5.30
  -2   0 -11  420.96   11.40
   2   0  11  416.76   11.50
   2   0  11  438.16   10.10
  -3   0 -11   10.90    2.70
   3   0  11   10.70    2.60
  -4   0 -11  200.28    8.20
   4   0  11  189.68    8.30
  -5   0 -11  156.48    7.80
   5   0  11  146.99    7.80
  -6   0 -11    9.60    3.40
   6   0  11   12.50    3.50
   6  -1 -11  273.97   10.20
  -6   1  11  271.17   10.50
   5  -1 -11   58.19    4.80
  -5   1  11   47.50    5.00
   4  -1 -11  122.39    5.60
   4  -1 -11  131.89    6.30
  -4   1  11  129.59    6.80
   3  -1 -11  277.27    8.40
   3  -1 -11  271.17    8.60
  -3   1  11  268.67    9.20
   2  -1 -11   28.60    3.40
   2  -1 -11   25.60    3.30
  -2   1  11   17.00    2.90
   1  -1 -11   40.30    3.80
  -1   1  11   37.40    3.80
  -1   1  11   40.80    4.20
   0  -1 -11  264.07    8.10
   0   1  11  273.37    8.50
   0   1  11  266.67    8.20
  -1  -1 -11  345.27    9.80
   1   1  11  367.86    9.60
  -2  -1 -11   92.49    5.20
   2   1  11   81.49    5.10
   2   1  11   87.09    4.40
  -3  -1 -11  444.26   12.30
   3   1  11  453.25   12.70
  -4  -1 -11  108.59    6.50
   4   1  11  113.29    6.50
  -5  -1 -11  181.28    8.60
   5   1  11  166.18    8.30
   7  -2 -11   76.29    5.90
  -7   2  11   62.99    6.10
   6  -2 -11   56.99    4.90
  -6   2  11   48.70    5.20
   5  -2 -11  289.37    9.60
   5  -2 -11  301.37    9.60
  -5   2  11  306.27   10.50
   4  -2 -11  121.09    6.00
   4  -2 -11  121.49    5.80
  -4   2  11  115.89    6.20
   3  -2 -11  106.19    5.10
   3  -2 -11  101.49    5.40
  -3   2  11   99.39    5.60
   2  -2 -11  367.56    9.60
   2  -2 -11  350.06   10.10
  -2   2  11  338.27   10.20
   1  -2 -11   17.70    2.70
  -1   2  11   20.40    3.20
  -1   2  11   20.30    3.10
   0  -2 -11  154.98    6.10
   0   2  11  158.48    6.50
   0   2  11  152.18    6.30
  -1  -2 -11  337.87    9.70
   1   2  11  347.47    9.30
   1   2  11  308.47    9.90
  -2  -2 -11   42.70    4.40
   2   2  11   41.80    3.70
   2   2  11   44.40    4.60
  -3  -2 -11   -2.00    1.60
   3   2  11   -1.20    1.90
  -4  -2 -11  187.58    8.40
   4   2  11  187.58    8.60
  -5  -2 -11    6.40    2.90
   5   2  11   10.90    3.20
  -7   3  11   49.60    5.60
   6  -3 -11  192.78    8.20
  -6   3  11  171.38    8.30
   5  -3 -11   99.79    5.30
   5  -3 -11   89.09    5.70
  -5   3  11   99.79    6.40
   4  -3 -11  115.89    5.40
   4  -3 -11  129.99    6.40
  -4   3  11  116.79    6.60
   3  -3 -11   15.30    3.10
   3  -3 -11   25.80    3.10
  -3   3  11   18.00    3.30
   2  -3 -11   -0.90    1.40
   2  -3 -11   -1.50    1.70
  -2   3  11   -1.40    1.60
   1  -3 -11  920.71   17.90
  -1   3  11  914.41   19.60
  -1   3  11  948.41   19.60
   0  -3 -11   28.90    3.50
   0   3  11   26.10    3.50
   0   3  11   28.80    3.70
  -1  -3 -11   10.70    2.60
   1   3  11    9.70    2.60
   1   3  11    9.50    2.80
  -2  -3 -11  112.59    6.10
   2   3  11  128.89    6.70
  -3  -3 -11  122.89    6.80
   3   3  11  126.19    7.00
  -4  -3 -11   25.70    4.30
   4   3  11   24.80    4.30
   7  -4 -11   16.30    3.80
  -7   4  11   14.80    3.70
   6  -4 -11   74.99    5.90
  -6   4  11   63.29    6.00
   5  -4 -11  139.99    7.30
  -5   4  11  132.59    7.30
   4  -4 -11   62.29    5.80
  -4   4  11   60.59    5.70
   3  -4 -11   91.09    5.60
  -3   4  11   78.69    5.60
   2  -4 -11  338.07   10.60
  -2   4  11  313.17   10.40
   1  -4 -11    0.80    1.60
   1  -4 -11    3.90    2.60
  -1   4  11    2.80    2.20
   0  -4 -11    0.40    1.60
   0   4  11   -2.10    1.80
   0   4  11    5.10    2.40
  -1  -4 -11  143.59    6.50
   1   4  11  149.88    6.90
   1   4  11  161.98    7.40
  -2  -4 -11   -2.00    1.90
   2   4  11    0.80    2.40
  -3  -4 -11   49.30    5.30
   3   4  11   49.40    5.30
   7  -5 -11    5.50    3.10
  -7   5  11   10.30    3.40
   6  -5 -11   57.79    6.00
  -6   5  11   66.89    6.30
   5  -5 -11   10.00    3.30
  -5   5  11    4.90    2.80
   4  -5 -11  184.88    8.50
  -4   5  11  158.08    8.00
   3  -5 -11   82.19    5.90
  -3   5  11   73.59    5.50
   2  -5 -11    3.60    2.70
  -2   5  11    5.40    2.70
   1  -5 -11   74.19    5.70
  -1   5  11   85.29    5.80
   0  -5 -11   27.90    4.10
   0   5  11   30.30    4.10
  -1  -5 -11    4.00    2.70
   1   5  11    0.40    2.40
   2   5  11  144.59    7.60
   6  -6 -11   -0.10    2.40
  -6   6  11    0.40    2.50
   5  -6 -11  427.16   14.10
  -5   6  11  447.46   14.20
   4  -6 -11   -2.80    2.40
  -4   6  11   -2.30    2.30
   3  -6 -11    4.00    3.00
  -3   6  11    2.60    2.40
   2  -6 -11  101.39    6.70
  -2   6  11  108.79    6.90
   1  -6 -11   56.39    5.70
  -1   6  11   72.39    5.80
   0  -6 -11  101.19    6.70
   0   6  11  102.29    6.80
   5  -7 -11    8.00    3.50
  -5   7  11    4.00    2.70
   4  -7 -11  235.18   10.40
  -4   7  11  234.28   10.30
   3  -7 -11   37.80    5.20
  -3   7  11   29.80    4.70
   2  -7 -11   96.89    7.00
  -2   7  11  101.09    7.20
   2  -7  12  228.98   10.50
   3  -7  12   12.10    3.70
   0   6 -12  140.29    7.70
   0  -6  12  137.19    8.40
  -1   6 -12   44.90    5.10
   1  -6  12   50.09    5.80
  -2   6 -12    7.80    3.00
   2  -6  12    4.90    3.00
  -3   6 -12  105.99    6.40
   3  -6  12  114.49    6.70
  -4   6 -12    9.10    3.00
   4  -6  12    4.00    2.60
   5  -6  12    2.60    2.60
   2   5 -12   32.10    5.10
  -2  -5  12   26.80    5.00
   1   5 -12  222.98    9.50
  -1  -5  12  210.98    9.90
   0   5 -12   -0.90    2.10
   0  -5  12    0.30    2.50
  -1   5 -12    3.00    2.30
   1  -5  12    0.80    2.20
  -2   5 -12  310.97   10.50
   2  -5  12  316.97   10.60
  -3   5 -12   46.80    4.90
   3  -5  12   48.10    4.70
   3  -5  12   48.50    4.80
  -4   5 -12    2.50    2.40
   4  -5  12   -1.80    2.10
  -5   5 -12   28.40    4.10
   5  -5  12   31.40    4.60
  -6   5 -12   -4.30    2.10
   6  -5  12    1.10    2.70
   3   4 -12  137.49    8.10
  -3  -4  12  123.99    8.10
   2   4 -12   85.89    6.30
  -2  -4  12   71.79    6.00
   1   4 -12   14.50    3.50
  -1  -4  12   12.60    3.40
   0   4 -12  417.36   12.40
   0  -4  12  409.36   12.60
  -1   4 -12  282.87    9.80
   1  -4  12  290.57   10.00
  -2   4 -12   18.70    3.40
   2  -4  12   21.50    3.20
   2  -4  12   21.80    3.50
  -3   4 -12  124.59    6.60
   3  -4  12  130.29    6.40
   3  -4  12  121.29    5.90
  -4   4 -12    9.60    2.80
   4  -4  12   18.70    3.60
  -5   4 -12   -0.70    2.10
   5  -4  12    1.30    2.30
  -6   4 -12  134.19    7.60
   6  -4  12  137.59    8.00
   4   3 -12   40.10    5.50
  -4  -3  12   34.80    5.20
   3   3 -12   44.70    5.30
  -3  -3  12   44.40    5.50
   2   3 -12  250.47    9.70
  -2  -3  12  244.68    9.90
   1   3 -12  271.97    9.70
  -1  -3  12  277.57   10.10
   0   3 -12    5.60    2.50
   0  -3  12    5.20    2.30
   0  -3  12    6.80    1.90
  -1   3 -12  498.55   13.40
   1  -3  12  529.35   13.30
   1  -3  12  538.25   12.40
  -2   3 -12  217.78    8.40
   2  -3  12  212.48    7.60
   2  -3  12  220.28    7.90
  -3   3 -12    3.70    2.30
   3  -3  12    5.60    2.50
  -4   3 -12  384.56   11.80
   4  -3  12  406.96   12.20
  -5   3 -12   55.89    5.50
   5  -3  12   54.69    5.60
  -6   3 -12   16.30    3.60
   6  -3  12   14.00    3.70
   5   2 -12    1.40    2.60
  -5  -2  12    1.70    2.80
   4   2 -12    2.70    2.50
  -4  -2  12    0.80    2.80
   3   2 -12   86.49    6.10
  -3  -2  12   80.49    6.20
   2   2 -12   36.70    4.30
  -2  -2  12   41.50    5.00
   1   2 -12  215.88    8.30
  -1  -2  12  225.88    8.70
  -1  -2  12  235.78    7.00
   0   2 -12   18.20    3.10
   0  -2  12   22.30    3.50
   0  -2  12   21.80    2.80
  -1   2 -12   41.20    4.40
   1  -2  12   41.30    4.00
   1  -2  12   38.30    3.80
  -2   2 -12  673.13   15.90
   2  -2  12  707.83   14.90
   2  -2  12  679.73   15.60
  -3   2 -12  367.66   11.10
   3  -2  12  359.26   11.10
  -4   2 -12   19.50    3.60
   4  -2  12   23.00    3.90
  -5   2 -12  189.18    8.30
   5  -2  12  179.88    8.60
  -6   2 -12   80.29    6.20
   6  -2  12   74.39    6.20
   5   1 -12  108.69    7.00
  -5  -1  12  124.19    7.60
   4   1 -12   18.70    3.60
  -4  -1  12   17.70    3.80
   3   1 -12    1.60    2.10
  -3  -1  12    3.40    2.40
   2   1 -12  160.08    6.00
   2   1 -12  175.48    7.50
  -2  -1  12  173.38    7.70
   1   1 -12    2.00    1.90
  -1  -1  12    5.00    2.30
  -1  -1  12    6.00    1.90
   0   1 -12   10.90    2.50
   0  -1  12   14.50    2.70
   0  -1  12    7.90    2.60
  -1   1 -12  247.68    8.50
   1  -1  12  257.17    8.40
   1  -1  12  251.97    8.00
  -2   1 -12   39.50    4.40
   2  -1  12   37.00    3.50
   2  -1  12   42.90    4.30
  -3   1 -12   26.60    3.70
   3  -1  12   31.30    4.00
  -4   1 -12   35.40    4.30
   4  -1  12   27.80    4.00
  -5   1 -12    6.20    2.90
   5  -1  12    3.90    2.60
  -6   1 -12  148.49    8.20
   6  -1  12  151.58    8.60
   6   0 -12   14.60    4.00
  -6   0  12   17.40    4.00
   5   0 -12   29.50    4.50
  -5   0  12   25.50    4.30
   4   0 -12  233.78    9.10
  -4   0  12  235.78    9.40
   3   0 -12    8.20    2.30
   3   0 -12    7.40    2.40
  -3   0  12    7.60    2.50
   2   0 -12    1.00    1.80
   2   0 -12    0.80    1.70
  -2   0  12    1.10    2.00
   1   0 -12  375.16   10.70
  -1   0  12  383.56   10.20
  -1   0  12  387.56   11.00
   0   0 -12  710.83   15.90
   0   0  12  709.43   15.50
   0   0  12  710.23   15.70
  -1   0 -12   49.40    4.20
   1   0  12   51.39    3.90
  -2   0 -12   58.59    5.30
   2   0  12   64.79    3.90
   2   0  12   50.99    4.80
  -3   0 -12  243.28    8.90
   3   0  12  229.28    8.80
  -4   0 -12   30.80    4.20
   4   0  12   30.00    4.10
  -5   0 -12   50.19    5.50
   5   0  12   56.89    6.00
   6  -1 -12   -0.20    2.40
  -6   1  12    0.80    2.80
   5  -1 -12  225.48    8.90
  -5   1  12  225.88    9.50
   4  -1 -12   33.30    3.80
   4  -1 -12   34.40    4.10
  -4   1  12   22.40    3.80
   3  -1 -12  161.78    6.90
   3  -1 -12  169.48    6.70
  -3   1  12  154.78    7.40
   2  -1 -12  246.18    8.20
   2  -1 -12  249.58    8.20
  -2   1  12  231.98    8.70
   1  -1 -12   -1.40    1.60
  -1   1  12   -0.30    1.60
  -1   1  12    0.90    2.00
   0  -1 -12  110.29    5.50
   0   1  12  107.09    5.40
   0   1  12  109.89    5.50
  -1  -1 -12  551.34   13.40
   1   1  12  550.84   13.70
   1   1  12  527.15   12.70
  -2  -1 -12   67.29    5.00
   2   1  12   72.09    5.10
   2   1  12   83.59    4.60
  -3  -1 -12  188.08    8.00
   3   1  12  203.68    8.50
  -4  -1 -12  255.37    9.90
   4   1  12  243.58    9.80
  -5  -1 -12    0.00    2.40
   5   1  12    1.00    2.50
   6  -2 -12  337.77   11.30
  -6   2  12  343.67   12.10
   5  -2 -12    8.00    2.60
   5  -2 -12    4.50    2.50
  -5   2  12    3.40    2.70
   4  -2 -12  129.49    6.40
   4  -2 -12  133.09    6.30
  -4   2  12  127.29    7.00
   3  -2 -12    0.30    1.80
   3  -2 -12   -1.50    1.90
  -3   2  12    1.30    2.20
   2  -2 -12    2.40    1.90
   2  -2 -12    6.60    2.50
  -2   2  12    2.80    2.10
   1  -2 -12  318.87    9.40
  -1   2  12  336.57   10.20
  -1   2  12  340.67   10.30
   0  -2 -12  300.17    9.10
   0   2  12  305.07    9.50
   0   2  12  306.17    9.80
  -1  -2 -12  143.29    6.50
   1   2  12  136.79    6.00
   1   2  12  146.09    7.00
  -2  -2 -12  662.63   16.00
   2   2  12  687.93   16.60
  -3  -2 -12   -0.80    2.10
   3   2  12    6.50    2.80
  -4  -2 -12   21.20    4.10
   4   2  12   25.90    4.40
   6  -3 -12   84.49    6.00
  -6   3  12   99.99    6.90
   5  -3 -12  365.66   11.40
  -5   3  12  335.37   11.80
   4  -3 -12   93.79    5.90
   4  -3 -12   88.49    5.00
  -4   3  12   90.29    6.00
   3  -3 -12    4.00    2.60
   3  -3 -12    0.90    1.80
  -3   3  12    2.50    2.30
   2  -3 -12   14.90    2.70
   2  -3 -12   11.00    3.00
  -2   3  12   11.70    2.90
   1  -3 -12    2.60    1.80
  -1   3  12    2.40    2.20
  -1   3  12    1.20    1.90
   0  -3 -12  372.06   10.30
   0   3  12  380.86   11.50
   0   3  12  371.66   10.90
  -1  -3 -12  108.19    5.80
   1   3  12  121.49    6.10
   1   3  12  103.29    6.00
  -2  -3 -12   54.69    5.20
   2   3  12   46.20    5.10
  -3  -3 -12  337.27   11.40
   3   3  12  336.97   11.60
  -4  -3 -12   12.80    3.50
   4   3  12    8.10    3.00
   6  -4 -12  116.19    7.10
  -6   4  12  106.89    7.10
   5  -4 -12  143.09    7.60
  -5   4  12  141.59    7.80
   4  -4 -12  205.98    9.00
  -4   4  12  215.98    9.00
   3  -4 -12   10.20    3.20
  -3   4  12   12.50    3.40
   2  -4 -12  180.48    8.00
  -2   4  12  194.08    8.30
   1  -4 -12   88.59    4.80
   1  -4 -12   92.39    6.10
  -1   4  12   89.69    5.90
   0  -4 -12    9.60    2.50
   0   4  12    5.50    2.60
   0   4  12    9.40    2.90
  -1  -4 -12   23.40    3.50
   1   4  12   26.40    3.90
   1   4  12   17.60    3.50
  -2  -4 -12  121.29    6.70
   2   4  12  127.79    7.20
  -3  -4 -12   -0.80    2.40
   3   4  12    0.30    2.50
   6  -5 -12  296.17   11.60
  -6   5  12  313.57   11.80
   5  -5 -12    4.20    2.90
  -5   5  12    3.40    2.80
   4  -5 -12   13.70    3.80
  -4   5  12   15.60    3.60
   3  -5 -12  316.47   11.20
  -3   5  12  322.07   11.50
   2  -5 -12   12.90    3.40
  -2   5  12    5.20    2.80
   1  -5 -12  102.69    6.40
  -1   5  12  110.19    6.70
   0  -5 -12   83.39    6.20
   0   5  12   70.99    5.70
  -1  -5 -12    8.50    3.10
   1   5  12    6.00    2.90
   5  -6 -12  160.58    8.60
  -5   6  12  154.28    8.60
  -4   6  12  155.58    8.50
   3  -6 -12    3.70    2.90
  -3   6  12    5.50    2.80
   2  -6 -12  117.89    7.40
  -2   6  12  114.29    7.30
   1  -6 -12   17.80    3.90
  -1   6  12   21.10    4.20
   0  -6 -12   21.50    4.30
   0   6  12   14.60    3.70
  -1   6 -13  236.08    9.90
   1  -6  13  248.98   10.70
  -2   6 -13  102.79    6.70
   2  -6  13  100.49    7.00
  -3   6 -13   47.10    5.20
   3  -6  13   45.30    5.30
  -4   6 -13  218.48    9.10
   4  -6  13  217.98    9.10
   5  -6  13   52.69    5.80
   1   5 -13  357.36   12.60
  -1  -5  13  358.96   13.20
   0   5 -13   56.89    5.90
   0  -5  13   69.79    6.80
  -1   5 -13   40.40    4.90
   1  -5  13   42.10    5.30
  -2   5 -13  290.77   10.60
   2  -5  13  292.57   10.50
  -3   5 -13  140.69    7.20
   3  -5  13  131.59    7.80
   3  -5  13  123.39    6.60
  -4   5 -13    3.00    2.50
   4  -5  13    6.30    2.70
  -5   5 -13   46.40    5.40
   5  -5  13   36.70    5.00
   2   4 -13  221.88    9.90
  -2  -4  13  239.08   10.60
   1   4 -13    1.70    2.30
  -1  -4  13   -0.10    2.60
   0   4 -13   78.89    5.80
   0  -4  13   71.39    5.90
  -1   4 -13  394.76   12.20
   1  -4  13  403.76   12.30
  -2   4 -13   17.10    3.40
   2  -4  13   11.40    2.90
   2  -4  13   13.20    2.90
  -3   4 -13  142.29    7.30
   3  -4  13  161.88    7.40
  -4   4 -13    4.00    2.60
   4  -4  13    2.30    2.40
  -5   4 -13    6.10    3.10
   5  -4  13    4.80    2.90
  -6   4 -13  139.09    7.80
   6  -4  13  130.59    8.10
   3   3 -13    4.60    2.80
  -3  -3  13    2.60    3.00
   2   3 -13   41.00    4.90
  -2  -3  13   52.09    5.70
   1   3 -13  213.28    9.00
  -1  -3  13  204.58    8.90
   0   3 -13   40.90    4.70
   0  -3  13   31.80    4.20
  -1   3 -13   -0.30    2.00
   1  -3  13    3.70    2.00
   1  -3  13   -1.80    1.90
  -2   3 -13  283.97    9.80
   2  -3  13  257.57    8.80
   2  -3  13  254.07    8.90
  -3   3 -13    3.70    2.50
   3  -3  13    0.10    1.90
  -4   3 -13    6.40    2.80
   4  -3  13    8.20    3.00
  -5   3 -13  173.38    8.40
   5  -3  13  169.08    8.70
  -6   3 -13   14.40    4.00
   6  -3  13   25.70    4.70
   4   2 -13   -2.50    2.30
  -4  -2  13   -2.00    2.40
   3   2 -13  107.89    6.80
  -3  -2  13  110.49    7.20
   2   2 -13   43.80    4.90
  -2  -2  13   34.00    4.50
   1   2 -13   24.50    3.90
  -1  -2  13   18.10    3.70
   0   2 -13  317.57   10.40
   0  -2  13  334.17   10.50
   0  -2  13  320.27    9.10
  -1   2 -13   19.50    3.30
   1  -2  13   25.00    3.50
   1  -2  13   33.00    3.80
  -2   2 -13   13.00    2.90
   2  -2  13   17.40    3.30
   2  -2  13   11.00    2.60
  -3   2 -13  198.48    8.40
   3  -2  13  195.08    8.30
  -4   2 -13   65.09    5.30
   4  -2  13   76.79    5.80
  -5   2 -13   46.00    5.30
   5  -2  13   50.89    5.60
  -6   2 -13   77.89    6.10
   6  -2  13   69.89    7.00
   5   1 -13   70.09    7.10
  -5  -1  13   58.39    6.60
   4   1 -13   92.79    6.50
  -4  -1  13  103.49    7.10
   3   1 -13    6.70    3.00
  -3  -1  13    5.30    3.10
   2   1 -13  138.99    6.90
  -2  -1  13  136.29    7.20
   1   1 -13  451.95   12.70
  -1  -1  13  439.86   12.70
  -1  -1  13  470.95   11.50
   0   1 -13   -1.30    1.80
   0  -1  13    4.30    2.00
   0  -1  13   -0.30    2.00
  -1   1 -13  608.04   14.90
   1  -1  13  589.54   14.50
   1  -1  13  619.74   14.30
  -2   1 -13  384.86   11.50
   2  -1  13  382.26   11.40
   2  -1  13  372.76   10.10
  -3   1 -13   12.30    3.10
   3  -1  13   13.70    3.30
  -4   1 -13   27.60    4.30
   4  -1  13   28.20    4.20
  -5   1 -13   40.40    5.10
   5  -1  13   56.39    6.20
   5   0 -13   35.20    5.00
  -5   0  13   27.00    4.70
   4   0 -13    3.50    2.60
  -4   0  13   -0.40    2.30
   3   0 -13   34.80    4.30
   3   0 -13   30.60    4.00
  -3   0  13   32.80    4.30
   2   0 -13   42.20    4.20
   2   0 -13   31.00    4.00
  -2   0  13   27.00    3.90
   1   0 -13   60.89    4.70
  -1   0  13   63.79    4.90
  -1   0  13   63.09    4.40
   0   0 -13  317.37   10.10
   0   0  13  343.47   10.20
   0   0  13  339.47   10.10
  -1   0 -13   54.49    4.30
   1   0  13   42.30    4.00
   1   0  13   39.70    4.20
  -2   0 -13  125.99    6.50
   2   0  13  123.59    6.40
   2   0  13  118.79    5.50
  -3   0 -13  318.67   10.80
   3   0  13  312.47   10.70
  -4   0 -13   10.00    3.10
   4   0  13    8.10    3.00
  -5   0 -13  126.09    7.40
   5   0  13  133.89    7.90
   6  -1 -13    3.90    2.70
  -6   1  13    3.40    3.00
   5  -1 -13   63.79    6.00
  -5   1  13   50.89    5.80
   4  -1 -13  186.08    7.90
   4  -1 -13  181.28    7.50
  -4   1  13  185.88    8.50
   3  -1 -13   27.80    3.70
   3  -1 -13   33.30    4.00
  -3   1  13   31.40    4.20
   2  -1 -13   28.30    3.80
   2  -1 -13   27.20    3.70
  -2   1  13   25.00    3.60
   1  -1 -13  110.39    5.60
  -1   1  13  117.69    6.20
  -1   1  13  112.29    5.80
   0  -1 -13   11.90    2.70
   0   1  13   14.00    3.00
   0   1  13   15.00    3.10
  -1  -1 -13    3.10    2.10
   1   1  13   -0.40    1.70
   1   1  13    0.70    2.10
  -2  -1 -13  236.48    9.00
  -3  -1 -13   20.50    3.70
   3   1  13   20.60    3.70
  -4  -1 -13  122.29    7.30
   4   1  13  125.29    7.40
  -5  -1 -13   -0.50    2.30
   5   1  13    2.40    2.80
   6  -2 -13  114.99    7.00
  -6   2  13  134.29    7.90
   5  -2 -13   47.50    5.00
   5  -2 -13   43.90    4.90
  -5   2  13   32.10    4.80
   4  -2 -13   49.30    5.00
   4  -2 -13   44.40    4.70
  -4   2  13   31.80    4.40
   3  -2 -13  159.18    7.00
   3  -2 -13  171.58    7.40
  -3   2  13  163.58    7.70
   2  -2 -13   29.60    4.00
   2  -2 -13   28.70    3.70
  -2   2  13   25.30    3.80
   1  -2 -13   95.59    5.30
  -1   2  13  106.49    6.00
  -1   2  13   92.39    5.80
   0  -2 -13  365.36   10.60
   0   2  13  359.76   11.20
   0   2  13  366.66   10.90
  -1  -2 -13   35.20    4.20
   1   2  13   34.40    3.90
   1   2  13   24.00    3.80
  -2  -2 -13   28.30    4.10
   2   2  13   25.30    4.20
  -3  -2 -13  238.98    9.50
   3   2  13  226.78    9.60
  -4  -2 -13   26.50    4.50
   4   2  13   13.00    3.50
   6  -3 -13    7.90    3.20
  -6   3  13   -1.30    2.40
   5  -3 -13  184.68    8.30
  -5   3  13  175.48    8.80
   4  -3 -13   -0.70    2.30
   4  -3 -13    2.40    2.00
  -4   3  13    1.70    2.60
   3  -3 -13   22.00    3.90
   3  -3 -13   25.60    3.40
  -3   3  13   12.70    3.00
   2  -3 -13  378.96   11.90
   2  -3 -13  380.26   10.40
  -2   3  13  385.06   11.90
   1  -3 -13    5.70    2.70
   1  -3 -13    2.20    2.00
  -1   3  13    3.80    2.70
  -1   3  13    2.90    2.30
   0  -3 -13   80.59    5.10
   0   3  13   84.49    5.50
   0   3  13   94.69    6.00
  -1  -3 -13  843.62   18.60
   1   3  13  796.72   19.20
   1   3  13  851.21   18.60
  -2  -3 -13   21.10    3.90
   2   3  13   13.80    3.50
  -3  -3 -13   20.20    4.00
   3   3  13   27.10    4.60
   6  -4 -13  135.29    7.80
  -6   4  13  134.29    8.10
   5  -4 -13    7.80    3.30
  -5   4  13   13.70    3.50
   4  -4 -13  184.08    8.50
  -4   4  13  174.48    8.60
   3  -4 -13   -0.10    2.40
  -3   4  13    0.70    2.40
   2  -4 -13   -2.60    2.20
  -2   4  13    1.40    2.30
   1  -4 -13  397.46   12.70
  -1   4  13  403.06   12.50
   0  -4 -13   35.60    4.10
   0   4  13   32.20    4.50
   0   4  13   28.10    4.10
  -1  -4 -13   -0.90    2.20
   1   4  13    1.10    2.30
   1   4  13    1.40    2.50
  -2  -4 -13  641.24   16.30
   2   4  13  593.94   16.70
   5  -5 -13  380.16   13.30
  -5   5  13  403.56   13.50
   4  -5 -13   30.50    4.60
  -4   5  13   33.90    5.10
   3  -5 -13    3.40    2.60
  -3   5  13    3.50    3.00
   2  -5 -13   -0.20    2.20
  -2   5  13   -1.90    2.50
   1  -5 -13    3.00    2.90
  -1   5  13   -0.50    2.30
   0  -5 -13  105.69    6.80
   0   5  13  115.69    7.20
  -1  -5 -13    8.90    3.40
   4  -6 -13  146.19    8.30
  -4   6  13  144.89    8.50
   3  -6 -13   44.40    5.80
  -3   6  13   33.40    4.90
   2  -6 -13   13.90    3.80
  -2   6  13   10.80    3.60
   1  -6 -13   18.20    4.20
  -1   6  13   18.10    4.20
  -2   6 -14  120.99    7.30
   2  -6  14  112.49    7.50
  -3   6 -14    4.30    2.90
   0   5 -14  195.38    9.30
   0  -5  14  191.48    9.60
  -1   5 -14   12.10    3.50
   1  -5  14   12.00    3.60
  -2   5 -14   22.90    4.20
   2  -5  14   24.70    4.30
  -3   5 -14  138.89    7.50
   3  -5  14  139.99    7.30
  -4   5 -14    3.30    2.70
   4  -5  14    1.40    2.50
  -5   5 -14    1.60    2.50
   5  -5  14    5.10    2.90
   2   4 -14   55.39    6.10
  -2  -4  14   58.39    6.50
   1   4 -14  116.19    7.40
  -1  -4  14  121.09    7.80
   0   4 -14    3.80    2.70
   0  -4  14   -0.20    2.60
  -1   4 -14  130.89    7.10
   1  -4  14  137.29    7.50
  -2   4 -14  178.58    8.30
   2  -4  14  170.68    7.40
   2  -4  14  184.48    8.10
  -3   4 -14   24.40    4.10
   3  -4  14   21.70    3.80
  -4   4 -14   63.49    6.20
   4  -4  14   57.69    5.90
  -5   4 -14   13.30    3.60
   5  -4  14   18.00    4.00
   3   3 -14  146.29    8.40
  -3  -3  14  132.09    8.50
   2   3 -14    1.10    2.30
  -2  -3  14    4.60    2.90
   1   3 -14  341.27   11.80
  -1  -3  14  328.07   11.80
   0   3 -14  116.39    6.80
   0  -3  14  115.49    7.00
  -1   3 -14   17.10    3.50
   1  -3  14   17.60    3.10
   1  -3  14   22.30    3.80
  -2   3 -14  138.99    7.20
   2  -3  14  131.89    6.60
   2  -3  14  135.89    6.70
  -3   3 -14  182.58    8.30
   3  -3  14  190.78    8.40
  -4   3 -14   -1.00    1.90
   4  -3  14    2.40    2.90
  -5   3 -14   23.00    4.40
   5  -3  14   29.00    4.60
   4   2 -14  125.49    7.90
  -4  -2  14  109.49    7.80
   3   2 -14   29.60    4.80
  -3  -2  14   33.80    5.10
   2   2 -14  293.27   11.00
  -2  -2  14  305.87   11.30
   1   2 -14   31.60    4.20
  -1  -2  14   31.30    4.30
   0   2 -14   23.00    3.90
   0  -2  14   25.10    4.00
   0  -2  14   23.50    3.20
  -1   2 -14  475.85   13.40
   1  -2  14  474.85   12.70
   1  -2  14  460.05   12.70
  -2   2 -14   -1.10    1.80
   2  -2  14    4.10    2.10
   2  -2  14    1.10    2.20
  -3   2 -14   43.10    5.00
   3  -2  14   36.30    4.60
  -4   2 -14  114.19    7.00
   4  -2  14  124.59    7.30
  -5   2 -14   -4.10    2.20
   5  -2  14    1.40    2.80
   4   1 -14   97.29    6.80
  -4  -1  14   86.09    6.80
   3   1 -14   26.70    4.40
  -3  -1  14   20.90    3.90
   2   1 -14   -0.50    2.10
  -2  -1  14    0.90    2.50
   1   1 -14  133.59    7.00
  -1  -1  14  133.89    6.00
   0   1 -14  372.36   11.50
   0  -1  14  357.56   10.50
   0  -1  14  354.66   11.00
  -1   1 -14   50.59    5.20
   1  -1  14   50.29    4.60
   1  -1  14   45.10    4.50
  -2   1 -14  268.37    9.70
   2  -1  14  277.87    8.80
   2  -1  14  276.97    9.80
  -3   1 -14   71.99    5.70
   3  -1  14   77.09    5.60
  -4   1 -14   59.19    6.10
   4  -1  14   54.59    5.90
   5  -1  14   97.99    6.90
   5   0 -14  235.18   10.20
  -5   0  14  230.48   10.40
   4   0 -14   76.59    5.80
  -4   0  14   75.69    6.30
   3   0 -14   11.70    3.10
  -3   0  14    7.10    3.20
   2   0 -14  201.48    8.50
   2   0 -14  216.68    7.90
  -2   0  14  214.68    9.00
   1   0 -14   22.50    3.60
  -1   0  14   15.80    3.40
  -1   0  14   21.50    3.30
   0   0 -14  118.09    6.30
   0   0  14  106.69    6.00
   0   0  14  105.69    5.80
  -1   0 -14  104.19    6.10
   1   0  14  101.59    5.70
   1   0  14  103.69    6.00
  -2   0 -14    9.00    2.70
   2   0  14   10.20    3.10
  -3   0 -14   45.60    5.40
   3   0  14   47.60    5.10
  -4   0 -14  119.29    7.30
   4   0  14  130.49    7.50
  -5   0 -14   48.90    6.00
   5   0  14   48.10    5.70
   5  -1 -14   31.80    4.70
  -5   1  14   23.70    4.50
   4  -1 -14  276.47   10.10
  -4   1  14  286.17   11.10
   3  -1 -14   15.30    3.30
   3  -1 -14   17.80    3.30
  -3   1  14   18.40    3.50
   2  -1 -14   36.70    4.40
   2  -1 -14   22.70    3.70
  -2   1  14   25.30    4.00
   1  -1 -14  525.95   13.60
  -1   1  14  510.55   13.50
  -1   1  14  510.85   13.90
   0  -1 -14   16.60    3.20
   0   1  14   17.50    3.30
   0   1  14   16.30    3.20
  -1  -1 -14  295.17   10.10
   1   1  14  301.37   10.30
   1   1  14  325.37   10.00
  -2  -1 -14  237.08    9.20
   2   1  14  223.08    9.30
  -3  -1 -14   -0.80    2.10
   3   1  14    0.30    2.20
  -4  -1 -14   22.70    4.30
   4   1  14   34.20    5.10
   5  -2 -14   56.39    5.60
  -5   2  14   62.29    6.30
   4  -2 -14   40.80    4.70
   4  -2 -14   45.20    5.10
  -4   2  14   31.10    4.60
   3  -2 -14    7.80    2.70
   3  -2 -14    7.80    2.60
  -3   2  14   10.30    3.20
   2  -2 -14   30.30    4.30
   2  -2 -14   29.50    3.80
  -2   2  14   27.00    4.00
   1  -2 -14   61.09    4.60
  -1   2  14   52.59    5.10
  -1   2  14   47.20    4.70
   0  -2 -14  524.15   13.70
   0   2  14  526.05   14.40
   0   2  14  548.15   14.20
  -1  -2 -14   25.50    3.80
   1   2  14   25.20    3.80
   1   2  14   37.80    4.40
  -2  -2 -14  121.59    6.90
   2   2  14  110.29    6.80
  -3  -2 -14  326.67   11.60
   3   2  14  323.57   11.70
   5  -3 -14   57.49    5.90
  -5   3  14   53.49    5.90
   4  -3 -14   23.70    4.00
  -4   3  14   16.90    3.80
   3  -3 -14    4.90    2.70
   3  -3 -14    6.90    2.50
  -3   3  14    1.40    2.30
   2  -3 -14   14.70    2.90
   2  -3 -14    8.50    2.80
  -2   3  14   13.80    3.50
   1  -3 -14  115.89    6.00
   1  -3 -14  117.89    7.00
  -1   3  14  108.59    6.70
  -1   3  14  120.49    6.90
   0  -3 -14   35.00    4.20
   0   3  14   19.20    3.60
   0   3  14   22.70    3.70
  -1  -3 -14    2.70    2.40
   1   3  14    0.90    2.20
   1   3  14    2.30    2.30
  -2  -3 -14  182.08    8.50
   2   3  14  174.88    8.50
   5  -4 -14   15.30    4.00
  -5   4  14   12.30    3.60
   4  -4 -14   -0.80    2.20
  -4   4  14    0.10    2.40
   3  -4 -14  264.37   10.50
  -3   4  14  256.87   10.60
   2  -4 -14    0.30    2.40
  -2   4  14    3.60    2.70
   1  -4 -14   -0.20    2.40
  -1   4  14    1.70    2.60
   0  -4 -14   87.99    6.60
   0   4  14   99.49    6.60
   0   4  14   96.49    6.60
  -1  -4 -14    8.60    3.10
   1   4  14    5.10    2.80
   5  -5 -14   65.09    6.70
  -5   5  14   67.09    6.90
   4  -5 -14  242.38   10.70
  -4   5  14  239.48   10.60
   3  -5 -14   36.50    5.10
  -3   5  14   32.90    4.90
   2  -5 -14   98.19    6.70
  -2   5  14   97.19    7.00
   1  -5 -14   57.49    6.20
  -1   5  14   46.20    5.30
   0  -5 -14    4.80    3.00
   0   5  14    3.00    2.90
  -1   5 -15  218.38    9.80
   1  -5  15  219.98   10.00
  -2   5 -15   14.10    3.60
   2  -5  15   17.20    3.90
  -3   5 -15   13.70    3.70
  -4   5 -15  149.09    8.10
   4  -5  15  152.08    8.20
   1   4 -15   68.59    6.80
  -1  -4  15   51.99    6.00
   0   4 -15   20.60    4.10
   0  -4  15   22.70    4.40
  -1   4 -15   22.10    3.90
   1  -4  15   27.10    4.60
  -2   4 -15  200.78    9.10
   2  -4  15  190.38    8.50
   2  -4  15  190.28    8.20
  -3   4 -15    3.20    2.80
   3  -4  15    3.30    2.70
  -4   4 -15   20.00    4.10
   4  -4  15   13.90    3.60
   2   3 -15  290.37   11.70
  -2  -3  15  317.97   12.50
   1   3 -15   39.60    5.00
  -1  -3  15   24.20    4.20
   0   3 -15  172.68    8.40
   0  -3  15  166.98    8.40
  -1   3 -15   10.30    3.20
   1  -3  15    9.30    2.90
   1  -3  15   10.40    2.80
  -2   3 -15  147.19    7.70
   2  -3  15  152.98    7.30
   2  -3  15  142.79    7.20
  -3   3 -15  132.99    7.30
   3  -3  15  142.59    7.50
  -4   3 -15   71.59    6.10
   4  -3  15   86.39    6.30
  -5   3 -15   97.99    7.10
   5  -3  15   92.79    7.20
   3   2 -15    2.80    2.80
  -3  -2  15    4.30    3.30
   2   2 -15   56.99    5.90
  -2  -2  15   79.59    6.50
   1   2 -15  282.27   10.80
  -1  -2  15  294.37   10.90
   0   2 -15   78.99    5.90
   0  -2  15   81.79    5.10
   0  -2  15   69.29    5.70
  -1   2 -15  137.29    7.30
   1  -2  15  112.59    6.50
   1  -2  15  128.19    6.60
  -2   2 -15  297.27   10.90
   2  -2  15  326.57   10.80
   2  -2  15  295.97    9.80
  -3   2 -15   72.69    5.70
   3  -2  15   64.69    6.20
  -4   2 -15   16.40    4.00
   4  -2  15   16.40    3.90
  -5   2 -15   64.59    6.80
   5  -2  15   60.79    6.40
   4   1 -15    2.00    2.90
  -4  -1  15    1.80    2.80
   3   1 -15  244.38   10.10
  -3  -1  15  244.38   10.50
   2   1 -15   39.60    4.90
  -2  -1  15   32.30    4.50
   1   1 -15   78.69    5.60
  -1  -1  15   76.29    5.00
  -1  -1  15   74.69    5.80
   0   1 -15  425.86   12.80
   0  -1  15  417.96   12.50
   0  -1  15  429.86   12.00
  -1   1 -15    8.70    2.80
   1  -1  15   13.90    3.20
   1  -1  15    9.90    3.10
  -2   1 -15   32.80    4.60
   2  -1  15   26.40    4.00
  -3   1 -15  229.18    9.70
   3  -1  15  241.08    9.90
  -4   1 -15   16.30    3.90
   4  -1  15   10.20    3.40
   4   0 -15  144.99    8.10
  -4   0  15  152.58    8.60
   3   0 -15    2.90    2.50
  -3   0  15   -0.70    2.50
   2   0 -15  230.58    9.30
   2   0 -15  212.08    8.20
  -2   0  15  215.88    9.40
   1   0 -15  152.78    7.50
  -1   0  15  145.89    6.90
   0   0 -15  100.69    6.20
   0   0  15  105.29    6.20
   0   0  15  105.39    6.10
  -1   0 -15  122.19    6.70
   1   0  15  139.99    6.70
   1   0  15  137.59    7.10
  -2   0 -15    1.50    2.50
   2   0  15    4.20    2.60
  -3   0 -15   32.50    4.60
   3   0  15   31.60    4.70
  -4   0 -15  175.08    9.00
   4   0  15  165.88    8.90
   5  -1 -15    5.70    2.80
  -5   1  15   11.70    4.00
   4  -1 -15    2.70    2.60
  -4   1  15    4.50    3.10
   3  -1 -15  171.08    8.00
   3  -1 -15  175.88    7.80
  -3   1  15  192.68    8.80
   2  -1 -15  202.28    8.40
   2  -1 -15  192.48    8.10
  -2   1  15  197.68    8.90
   1  -1 -15   23.40    3.80
  -1   1  15   21.30    3.80
  -1   1  15   19.50    3.50
   0  -1 -15   98.19    6.00
   0   1  15   83.39    5.70
   0   1  15   93.09    6.00
  -1  -1 -15   13.30    3.40
   1   1  15   12.00    3.00
   1   1  15    8.10    2.90
  -2  -1 -15  172.98    8.20
   2   1  15  171.38    8.40
  -3  -1 -15   70.59    6.70
   3   1  15   77.29    6.10
   5  -2 -15  154.28    7.90
  -5   2  15  159.98    8.90
   4  -2 -15   44.00    5.10
   4  -2 -15   48.50    5.10
  -4   2  15   37.00    4.90
   3  -2 -15   -1.00    2.00
   3  -2 -15    1.90    2.50
  -3   2  15   -0.50    2.50
   2  -2 -15   25.40    3.80
   2  -2 -15   20.90    3.90
  -2   2  15   19.90    3.80
   1  -2 -15   73.29    5.40
  -1   2  15   76.89    5.80
  -1   2  15   76.99    5.70
   0  -2 -15   39.70    4.60
   0   2  15   35.60    4.60
   0   2  15   34.70    4.50
  -1  -2 -15  134.99    7.10
   1   2  15  122.29    7.00
   1   2  15  145.29    7.10
  -2  -2 -15    2.00    2.60
   2   2  15   -0.60    2.10
  -3  -2 -15   -2.00    2.40
   3   2  15    1.70    2.80
   5  -3 -15   44.20    5.50
  -5   3  15   50.49    5.90
   4  -3 -15  159.88    8.20
   3  -3 -15   38.70    5.00
   3  -3 -15   53.99    5.30
  -3   3  15   34.80    4.80
   2  -3 -15   20.30    3.50
   2  -3 -15   19.40    3.80
  -2   3  15   18.10    4.00
   1  -3 -15  426.56   12.20
   1  -3 -15  443.16   13.70
  -1   3  15  429.76   13.40
   0  -3 -15   69.69    5.40
   0   3  15   51.49    5.40
   0   3  15   75.99    5.80
  -1  -3 -15    0.90    2.30
   1   3  15   -0.30    2.30
   1   3  15    4.30    4.20
  -2  -3 -15   74.19    6.00
   2   3  15   65.09    6.60
   4  -4 -15    7.80    3.50
  -4   4  15   -1.40    2.60
   3  -4 -15   26.50    4.40
  -3   4  15   36.90    5.50
   2  -4 -15  334.97   12.10
  -2   4  15  329.77   11.90
   1  -4 -15    2.50    2.50
  -1   4  15   -0.80    2.50
   0  -4 -15  117.19    7.60
   0   4  15  112.79    7.20
   0   4  15  120.69    7.20
   1   4  15  124.79    7.80
   3  -5 -15    2.30    2.90
  -3   5  15   -5.30    2.20
   2  -5 -15   27.10    4.70
  -2   5  15   14.90    4.10
   0   4 -16  122.69    7.80
   0  -4  16  127.39    8.10
  -1   4 -16    6.80    3.20
   1  -4  16    0.00    2.70
  -2   4 -16    9.10    3.50
   2  -4  16    2.60    2.70
  -3   4 -16   56.69    6.10
   3  -4  16   70.49    5.80
   1   3 -16    4.60    3.00
  -1  -3  16    3.20    3.00
   0   3 -16   56.89    6.10
   0  -3  16   45.10    5.40
  -1   3 -16  189.38    9.10
   1  -3  16  189.18    8.00
   1  -3  16  192.78    8.80
  -2   3 -16   21.90    4.10
   2  -3  16   27.50    4.20
  -3   3 -16   38.60    5.30
   3  -3  16   44.90    5.40
  -4   3 -16  231.68   10.30
   4  -3  16  231.48   10.30
   2   2 -16  105.69    7.30
  -2  -2  16  123.79    8.00
   1   2 -16    7.10    3.30
  -1  -2  16    5.30    3.00
   0   2 -16    1.00    2.30
   0  -2  16   10.50    2.70
   0  -2  16    4.70    3.00
  -1   2 -16   55.49    5.80
   1  -2  16   59.89    5.60
   1  -2  16   52.69    5.50
  -2   2 -16  309.37   11.40
   2  -2  16  288.57   10.80
  -3   2 -16  115.69    7.40
   3  -2  16  109.39    7.10
  -4   2 -16   11.30    3.70
   4  -2  16   15.50    3.80
   3   1 -16    2.60    2.50
  -3  -1  16   -0.20    2.80
   2   1 -16  195.88    9.20
  -2  -1  16  205.28    9.50
   1   1 -16   76.89    6.00
  -1  -1  16   77.29    5.10
  -1  -1  16   65.29    6.30
   0   1 -16   20.00    4.00
   0  -1  16   19.40    3.60
   0  -1  16   16.90    3.40
  -1   1 -16  122.29    7.10
   1  -1  16  102.19    6.30
   1  -1  16  112.69    6.60
  -2   1 -16   11.40    3.30
   2  -1  16   10.00    3.00
  -3   1 -16   -1.30    2.10
   3  -1  16   -3.30    2.20
  -4   1 -16  135.59    8.10
   4  -1  16  143.09    8.20
   4   0 -16  377.76   13.30
  -4   0  16  365.86   13.50
   3   0 -16   78.59    6.30
   2   0 -16   32.80    4.70
   2   0 -16   42.70    4.80
  -2   0  16   27.00    4.50
   1   0 -16  524.65   14.90
  -1   0  16  488.75   14.50
  -1   0  16  522.25   13.90
   0   0 -16   33.60    4.50
   0   0  16   35.40    4.60
   0   0  16   35.00    4.40
  -1   0 -16    1.10    2.50
   1   0  16    2.10    2.30
   1   0  16    0.00    2.30
  -2   0 -16   37.80    5.10
   2   0  16   41.90    5.30
  -3   0 -16    4.30    2.70
   3   0  16   -2.00    2.40
   4  -1 -16   37.20    5.10
  -4   1  16   53.99    6.40
   3  -1 -16  116.59    6.90
   3  -1 -16  103.39    6.30
  -3   1  16   92.19    6.70
   2  -1 -16  124.59    6.90
   2  -1 -16  121.69    6.90
  -2   1  16  127.29    7.50
   1  -1 -16    3.50    2.50
  -1   1  16    5.40    2.80
  -1   1  16    2.20    2.20
   0  -1 -16  174.08    8.10
   0   1  16  169.58    8.10
   0   1  16  172.78    8.20
  -1  -1 -16    2.10    2.50
   1   1  16    1.70    2.30
   1   1  16   -4.30    1.70
  -2  -1 -16    1.80    2.60
   2   1  16   -0.40    2.50
  -3  -1 -16  263.77   11.00
   3   1  16  291.87   11.40
   4  -2 -16  214.08    9.20
   4  -2 -16  231.18    9.70
  -4   2  16  216.78   10.20
   3  -2 -16   -0.60    2.30
   3  -2 -16   -0.90    2.10
  -3   2  16   -0.20    2.30
   2  -2 -16   48.70    5.50
   2  -2 -16   52.79    5.20
  -2   2  16   38.50    4.90
   1  -2 -16   79.99    5.70
  -1   2  16   86.69    6.30
  -1   2  16   90.99    6.30
   0  -2 -16   26.10    4.10
   0   2  16   21.90    4.10
   0   2  16   23.90    3.90
  -1  -2 -16  126.79    7.20
   1   2  16  136.09    7.70
  -2  -2 -16   45.30    5.50
   2   2  16   43.10    5.40
   4  -3 -16   20.20    4.30
  -4   3  16   17.40    4.30
   3  -3 -16  226.98    9.90
  -3   3  16  240.48   10.60
   2  -3 -16   23.50    4.40
   2  -3 -16   26.30    4.00
  -2   3  16   17.80    4.00
   1  -3 -16   82.89    5.70
   1  -3 -16   76.09    6.30
  -1   3  16   87.09    6.60
   0  -3 -16  194.68    8.50
   0   3  16  201.08    9.30
   0   3  16  201.88    9.00
  -1  -3 -16    7.00    3.00
   1   3  16    1.10    2.70
   3  -4 -16    7.00    3.60
  -3   4  16   11.00    3.80
   2  -4 -16  117.09    7.40
  -2   4  16  135.09    8.00
   1  -4 -16  109.09    7.40
  -1   4  16   81.29    6.70
   0   3 -17   -1.60    2.20
   0  -3  17   -0.10    2.70
  -1   3 -17   10.40    3.40
   1  -3  17    4.50    3.30
  -2   3 -17   90.29    6.90
   2  -3  17   98.79    6.70
   1   2 -17   47.00    5.70
  -1  -2  17   39.40    5.40
   0   2 -17  113.59    7.40
   0  -2  17  116.69    7.30
   0  -2  17  119.29    9.50
  -1   2 -17   -0.70    2.40
   1  -2  17   -1.00    2.50
   1  -2  17    1.70    2.40
  -2   2 -17   24.00    4.30
   2  -2  17   23.40    4.30
  -3   2 -17  194.88    9.40
   3  -2  17  210.48    9.80
   2   1 -17   25.90    4.50
  -2  -1  17   11.10    3.60
   1   1 -17   29.20    4.50
  -1  -1  17   24.60    4.30
  -1  -1  17   19.50    3.40
   0   1 -17    0.60    2.60
   0  -1  17    1.60    2.50
   0  -1  17    5.60    2.60
  -1   1 -17  230.48   10.00
   1  -1  17  223.78    9.20
   1  -1  17  247.38    9.80
  -2   1 -17   26.10    4.60
   2  -1  17   23.10    4.00
  -3   1 -17   15.40    3.70
   3  -1  17   14.50    3.70
   3   0 -17  141.29    8.20
  -3   0  17  132.09    8.10
   2   0 -17   48.60    7.80
   2   0 -17   45.00    5.60
  -2   0  17   43.50    5.50
   1   0 -17   16.60    3.80
  -1   0  17    5.70    3.20
  -1   0  17   19.30    3.60
   0   0 -17  119.99    7.20
   0   0  17  105.19    6.70
   0   0  17  125.89    7.10
  -1   0 -17   50.59    5.70
   1   0  17   33.60    4.50
   1   0  17   34.30    4.90
  -2   0 -17   86.79    6.60
   2   0  17   83.09    6.30
   3  -1 -17   -0.50    2.60
   3  -1 -17    1.60    2.70
  -3   1  17    0.60    2.80
   2  -1 -17  119.09    7.00
   2  -1 -17  126.19    7.30
  -2   1  17  113.89    7.40
   1  -1 -17  103.99    6.70
  -1   1  17  104.49    6.90
  -1   1  17  100.79    6.60
   0  -1 -17    1.80    2.40
   0   1  17    1.00    2.50
   0   1  17   -1.10    2.20
  -1  -1 -17   34.60    4.80
   1   1  17   33.30    4.90
  -2  -1 -17    2.50    2.90
   2   1  17    1.60    2.50
   3  -2 -17  128.99    7.50
   3  -2 -17  154.68    8.10
  -3   2  17  154.88    8.70
   2  -2 -17   18.40    3.90
   2  -2 -17   25.90    4.20
  -2   2  17   20.10    4.30
   1  -2 -17  274.67   11.10
   1  -2 -17  279.57   10.50
  -1   2  17  276.17   11.00
  -1   2  17  292.87   11.20
   0  -2 -17   27.20    4.30
   0   2  17   34.20    4.70
   0   2  17   34.60    4.80
  -1  -2 -17   17.80    4.00
   1   2  17   12.00    3.60
   2  -3 -17  203.18    9.50
  -2   3  17  178.28    9.30
   1  -3 -17   10.60    3.50
   1  -3 -17   13.70    3.50
  -1   3  17   12.70    3.90
   1   1 -18  129.49    8.00
  -1  -1  18  124.49    8.00
   0   1 -18    6.70    3.20
   0  -1  18    9.60    3.00
   0  -1  18    0.50    2.80
  -1   1 -18    0.70    2.40
   1  -1  18    1.10    2.60
   1  -1  18    1.80    2.60
   1   0 -18   36.70    5.10
  -1   0  18   36.00    5.20
  -1   0  18   36.60    4.90
   0   0 -18   66.19    5.70
   0   0  18   70.29    5.90
   0   0  18   58.99    6.00
  -1   0 -18    4.90    3.00
   1   0  18    1.50    2.70
   1  -1 -18   16.00    3.80
  -1   1  18    5.10    3.00
  -1   1  18   10.90    3.20
   0  -1 -18   26.00    4.40
   0   1  18   32.20    4.90
   0   1  18   41.70    5.40
;
_shelx_hkl_checksum              16054
_shelx_res_file
;
TITL RB306_0m_a.res in P-1
    rb306_084_final.res
    created by SHELXL-2018/3 at 14:55:03 on 17-Aug-2022
REM Old TITL RB306_0m in P-1
REM SHELXT solution in P-1
REM R1 0.059, Rweak 0.005, Alpha 0.046, Orientation as input
REM Formula found by SHELXT: C14 Co O18 S2
CELL 0.71073 6.7774    6.9866   13.7211   91.1072   90.4012  117.5832
ZERR 1 0.0011    0.0011    0.0021    0.0020    0.0021    0.0019
LATT 1
SFAC C H Co O S
UNIT 14 26 1 18 2
L.S. 32
PLAN  20
TEMP -123
ACTA 52
BOND $H
CONF
LIST 6
FMAP 2
OMIT 0 0 1
dfix 0.84 0.01 o1w h11 o1w h12 o2w h21 o2w h22 o3w h31 o3w h32 o4w h41 o4w h42
dfix 0.84 0.01 o4 h4a
WGHT    0.030000    0.255200
FVAR       0.80677
CO1   3    0.500000    0.500000    0.000000    10.50000    0.01209    0.01120 =
         0.01100    0.00036    0.00119    0.00549
O1W   4    0.592069    0.451618    0.141091    11.00000    0.01562    0.01686 =
         0.01324    0.00094    0.00074    0.00349
H12   2    0.490389    0.376456    0.179675    11.00000    0.04875
H11   2    0.691229    0.558420    0.171004    11.00000    0.03335
O3W   4    0.305062    0.164860   -0.013329    11.00000    0.03366    0.01260 =
         0.01381    0.00028    0.00042    0.00464
H32   2    0.273326    0.087734   -0.064105    11.00000    0.05145
H31   2    0.290125    0.086392    0.034472    11.00000    0.03479
O2W   4    0.229494    0.521521    0.053382    11.00000    0.01803    0.01783 =
         0.02612   -0.00114    0.00706    0.00857
H22   2    0.112596    0.421052    0.073572    11.00000    0.05082
H21   2    0.239405    0.631866    0.081651    11.00000    0.03973
S1    5    0.154419    0.932330    0.229997    11.00000    0.01491    0.01270 =
         0.01041    0.00044    0.00180    0.00627
O1    4   -0.087283    0.817100    0.231959    11.00000    0.01484    0.01938 =
         0.01953    0.00043   -0.00253    0.00457
O3    4    0.251571    0.894531    0.141736    11.00000    0.03179    0.02140 =
         0.01206    0.00201    0.00643    0.01672
O4    4   -0.048549    0.773930    0.590785    11.00000    0.02422    0.02697 =
         0.01420    0.00148    0.00570    0.01531
H4A   2   -0.101815    0.773066    0.646072    11.00000    0.04920
O5    4    0.197171    0.699048    0.670328    11.00000    0.02894    0.02696 =
         0.01380    0.00327    0.00038    0.01350
O2    4    0.236859    1.165340    0.249262    11.00000    0.01819    0.01318 =
         0.01574    0.00114    0.00399    0.00722
C2    1    0.150219    0.815069    0.417723    11.00000    0.01295    0.01228 =
         0.01439   -0.00018    0.00169    0.00522
AFIX  43
H2    2    0.026154    0.842780    0.423772    11.00000   -1.20000
AFIX   0
C5    1    0.509917    0.728286    0.398746    11.00000    0.01503    0.01760 =
         0.02442    0.00214    0.00289    0.00934
AFIX  43
H5    2    0.631065    0.696301    0.392134    11.00000   -1.20000
AFIX   0
C6    1    0.432253    0.792689    0.317919    11.00000    0.01605    0.01514 =
         0.01774    0.00153    0.00441    0.00667
AFIX  43
H6    2    0.500627    0.806287    0.256469    11.00000   -1.20000
AFIX   0
C3    1    0.230179    0.752354    0.498285    11.00000    0.01621    0.01070 =
         0.01282    0.00040    0.00179    0.00477
C7    1    0.127141    0.737392    0.595582    11.00000    0.01840    0.01018 =
         0.01564    0.00001    0.00104    0.00455
C1    1    0.252972    0.836900    0.328389    11.00000    0.01396    0.01128 =
         0.01291    0.00023    0.00096    0.00468
C4    1    0.411859    0.710406    0.488914    11.00000    0.01776    0.01398 =
         0.01945    0.00221   -0.00137    0.00731
AFIX  43
H4    2    0.468088    0.669793    0.544051    11.00000   -1.20000
AFIX   0
O4W   4   -0.158443    0.209551    0.129412    11.00000    0.02226    0.02306 =
         0.01520   -0.00049   -0.00115    0.01337
H42   2   -0.241719    0.263148    0.117314    11.00000    0.03736
H41   2   -0.145098    0.213968    0.190003    11.00000    0.04466
EQIV $2 x, y-1, z
HTAB O1W O2_$2
EQIV $3 x+1, y, z
HTAB O1W O1_$3
EQIV $4 -x, -y+1, -z
EQIV $5 -x, -y, -z
HTAB O3W O4W_$5
HTAB O3W O3_$2
HTAB O2W O4W
HTAB O2W O3
EQIV $6 -x, -y+2, -z+1
HTAB O4 O2_$6
EQIV $7 x-1, y, z
HTAB O4W O1W_$7
EQIV $8 -x, -y+1, -z+1
HTAB O4W O5_$8
HKLF 4
REM  RB306_0m_a.res in P-1
REM wR2 = 0.0619, GooF = S = 1.049, Restrained GooF = 1.048 for all data
REM R1 = 0.0239 for 2578 Fo > 4sig(Fo) and 0.0286 for all 2881 data
REM 196 parameters refined using 9 restraints
END
WGHT      0.0300      0.2552
REM Highest difference peak  0.406,  deepest hole -0.426,  1-sigma level  0.058
Q1    1   0.2207  0.8902  0.2883  11.00000  0.05    0.41
Q2    1   0.1866  0.7539  0.5446  11.00000  0.05    0.40
Q3    1   0.4886  0.7944  0.3690  11.00000  0.05    0.31
Q4    1   0.2133  0.8275  0.3765  11.00000  0.05    0.31
Q5    1   0.1869  0.7807  0.4600  11.00000  0.05    0.30
Q6    1   0.3283  0.8020  0.3300  11.00000  0.05    0.29
Q7    1   0.3239  0.7409  0.4972  11.00000  0.05    0.29
Q8    1   0.4641  0.7339  0.4424  11.00000  0.05    0.29
Q9    1   0.1915  1.0649  0.2388  11.00000  0.05    0.24
Q10   1   0.1911  0.8975  0.1792  11.00000  0.05    0.23
Q11   1   0.0213  0.8565  0.2311  11.00000  0.05    0.22
Q12   1   0.0325  0.7376  0.5910  11.00000  0.05    0.21
Q13   1  -0.1080  0.7274  0.2418  11.00000  0.05    0.21
Q14   1   0.2638  0.9613  0.1145  11.00000  0.05    0.20
Q15   1   0.1641  1.1827  0.2824  11.00000  0.05    0.18
Q16   1   0.1674  0.7780  0.1206  11.00000  0.05    0.18
Q17   1  -0.1330  0.8227  0.1922  11.00000  0.05    0.17
Q18   1   0.2123  1.2163  0.2208  11.00000  0.05    0.17
Q19   1   0.7050  0.7998  0.3846  11.00000  0.05    0.17
Q20   1   0.3552  0.9199  0.1494  11.00000  0.05    0.16
;
_shelx_res_checksum              63046
loop_
_space_group_symop_operation_xyz
'x, y, z'
'-x, -y, -z'
loop_
_atom_site_type_symbol
_atom_site_label
_atom_site_fract_x
_atom_site_fract_y
_atom_site_fract_z
_atom_site_U_iso_or_equiv
_atom_site_adp_type
_atom_site_calc_flag
_atom_site_occupancy
_atom_site_disorder_assembly
_atom_site_disorder_group
Co Co1 0.500000 0.500000 0.000000 0.01139(8) Uani d 1 . .
O O1W 0.59207(18) 0.45162(17) 0.14109(8) 0.0168(2) Uani d 1 . .
H H12 0.490(3) 0.376(3) 0.1797(14) 0.049(7) Uiso d 1 . .
H H11 0.691(3) 0.558(2) 0.1710(14) 0.033(6) Uiso d 1 . .
O O3W 0.3051(2) 0.16486(17) -0.01333(8) 0.0224(2) Uani d 1 . .
H H32 0.273(4) 0.088(3) -0.0641(12) 0.051(7) Uiso d 1 . .
H H31 0.290(4) 0.086(3) 0.0345(11) 0.035(6) Uiso d 1 . .
O O2W 0.22949(19) 0.52152(18) 0.05338(8) 0.0205(2) Uani d 1 . .
H H22 0.113(3) 0.421(3) 0.0736(17) 0.051(7) Uiso d 1 . .
H H21 0.239(4) 0.632(2) 0.0817(15) 0.040(6) Uiso d 1 . .
S S1 0.15442(6) 0.93233(5) 0.23000(2) 0.01271(8) Uani d 1 . .
O O1 -0.08728(17) 0.81710(17) 0.23196(8) 0.0193(2) Uani d 1 . .
O O3 0.25157(19) 0.89453(17) 0.14174(7) 0.0200(2) Uani d 1 . .
O O4 -0.04855(19) 0.77393(18) 0.59079(8) 0.0204(2) Uani d 1 . .
H H4A -0.102(4) 0.773(4) 0.6461(10) 0.049(7) Uiso d 1 . .
O O5 0.19717(19) 0.69905(18) 0.67033(8) 0.0230(2) Uani d 1 . .
O O2 0.23686(17) 1.16534(16) 0.24926(7) 0.0157(2) Uani d 1 . .
C C2 0.1502(2) 0.8151(2) 0.41772(10) 0.0135(3) Uani d 1 . .
H H2 0.026154 0.842780 0.423772 0.016 Uiso calc 1 . .
C C5 0.5099(2) 0.7283(2) 0.39875(11) 0.0183(3) Uani d 1 . .
H H5 0.631065 0.696301 0.392134 0.022 Uiso calc 1 . .
C C6 0.4323(2) 0.7927(2) 0.31792(11) 0.0165(3) Uani d 1 . .
H H6 0.500627 0.806287 0.256469 0.020 Uiso calc 1 . .
C C3 0.2302(2) 0.7524(2) 0.49829(10) 0.0138(3) Uani d 1 . .
C C7 0.1271(2) 0.7374(2) 0.59558(10) 0.0156(3) Uani d 1 . .
C C1 0.2530(2) 0.8369(2) 0.32839(10) 0.0132(3) Uani d 1 . .
C C4 0.4119(2) 0.7104(2) 0.48891(11) 0.0171(3) Uani d 1 . .
H H4 0.468088 0.669793 0.544051 0.020 Uiso calc 1 . .
O O4W -0.15844(19) 0.20955(18) 0.12941(8) 0.0191(2) Uani d 1 . .
H H42 -0.242(3) 0.263(3) 0.1173(16) 0.037(6) Uiso d 1 . .
H H41 -0.145(4) 0.214(4) 0.1900(7) 0.045(7) Uiso d 1 . .
loop_
_atom_site_aniso_label
_atom_site_aniso_U_11
_atom_site_aniso_U_22
_atom_site_aniso_U_33
_atom_site_aniso_U_12
_atom_site_aniso_U_13
_atom_site_aniso_U_23
Co1 0.01209(13) 0.01120(13) 0.01100(13) 0.00549(10) 0.00119(9) 0.00036(9)
O1W 0.0156(5) 0.0169(5) 0.0132(5) 0.0035(4) 0.0007(4) 0.0009(4)
O3W 0.0337(6) 0.0126(5) 0.0138(5) 0.0046(5) 0.0004(5) 0.0003(4)
O2W 0.0180(5) 0.0178(5) 0.0261(6) 0.0086(5) 0.0071(4) -0.0011(5)
S1 0.01491(17) 0.01270(16) 0.01041(16) 0.00627(13) 0.00180(12) 0.00044(12)
O1 0.0148(5) 0.0194(5) 0.0195(5) 0.0046(4) -0.0025(4) 0.0004(4)
O3 0.0318(6) 0.0214(5) 0.0121(5) 0.0167(5) 0.0064(4) 0.0020(4)
O4 0.0242(6) 0.0270(6) 0.0142(5) 0.0153(5) 0.0057(4) 0.0015(4)
O5 0.0289(6) 0.0270(6) 0.0138(5) 0.0135(5) 0.0004(4) 0.0033(4)
O2 0.0182(5) 0.0132(5) 0.0157(5) 0.0072(4) 0.0040(4) 0.0011(4)
C2 0.0129(6) 0.0123(6) 0.0144(7) 0.0052(5) 0.0017(5) -0.0002(5)
C5 0.0150(7) 0.0176(7) 0.0244(8) 0.0093(6) 0.0029(6) 0.0021(6)
C6 0.0160(7) 0.0151(7) 0.0177(7) 0.0067(6) 0.0044(5) 0.0015(5)
C3 0.0162(7) 0.0107(6) 0.0128(6) 0.0048(5) 0.0018(5) 0.0004(5)
C7 0.0184(7) 0.0102(6) 0.0156(7) 0.0046(5) 0.0010(5) 0.0000(5)
C1 0.0140(6) 0.0113(6) 0.0129(6) 0.0047(5) 0.0010(5) 0.0002(5)
C4 0.0178(7) 0.0140(7) 0.0194(7) 0.0073(6) -0.0014(5) 0.0022(5)
O4W 0.0223(6) 0.0231(5) 0.0152(5) 0.0134(5) -0.0012(4) -0.0005(4)
loop_
_atom_type_symbol
_atom_type_description
_atom_type_scat_dispersion_real
_atom_type_scat_dispersion_imag
_atom_type_scat_source
C C 0.0033 0.0016 'International Tables Vol C Tables 4.2.6.8 and 6.1.1.4'
H H 0.0000 0.0000 'International Tables Vol C Tables 4.2.6.8 and 6.1.1.4'
Co Co 0.3494 0.9721 'International Tables Vol C Tables 4.2.6.8 and 6.1.1.4'
O O 0.0106 0.0060 'International Tables Vol C Tables 4.2.6.8 and 6.1.1.4'
S S 0.1246 0.1234 'International Tables Vol C Tables 4.2.6.8 and 6.1.1.4'
loop_
_geom_angle_atom_site_label_1
_geom_angle_atom_site_label_2
_geom_angle_atom_site_label_3
_geom_angle_site_symmetry_1
_geom_angle_site_symmetry_3
_geom_angle
_geom_angle_publ_flag
O2W Co1 O2W . 2_665 180.0 ?
O2W Co1 O3W . . 88.95(5) ?
O2W Co1 O3W 2_665 . 91.05(5) ?
O2W Co1 O3W . 2_665 91.05(5) ?
O2W Co1 O3W 2_665 2_665 88.95(5) ?
O3W Co1 O3W . 2_665 180.0 ?
O2W Co1 O1W . . 91.15(4) ?
O2W Co1 O1W 2_665 . 88.85(4) ?
O3W Co1 O1W . . 87.56(4) ?
O3W Co1 O1W 2_665 . 92.44(4) ?
O2W Co1 O1W . 2_665 88.85(4) ?
O2W Co1 O1W 2_665 2_665 91.15(4) ?
O3W Co1 O1W . 2_665 92.44(4) ?
O3W Co1 O1W 2_665 2_665 87.56(4) ?
O1W Co1 O1W . 2_665 180.0 ?
Co1 O1W H12 . . 118.4(17) ?
Co1 O1W H11 . . 117.6(15) ?
H12 O1W H11 . . 110(2) ?
Co1 O3W H32 . . 127.8(18) ?
Co1 O3W H31 . . 120.3(15) ?
H32 O3W H31 . . 108(2) ?
Co1 O2W H22 . . 127.0(17) ?
Co1 O2W H21 . . 122.7(16) ?
H22 O2W H21 . . 105(2) ?
O1 S1 O3 . . 114.70(7) ?
O1 S1 O2 . . 111.06(6) ?
O3 S1 O2 . . 110.90(6) ?
O1 S1 C1 . . 106.70(7) ?
O3 S1 C1 . . 106.69(7) ?
O2 S1 C1 . . 106.26(6) ?
C7 O4 H4A . . 112.1(17) ?
C1 C2 C3 . . 119.60(13) ?
C1 C2 H2 . . 120.2 ?
C3 C2 H2 . . 120.2 ?
C4 C5 C6 . . 120.60(13) ?
C4 C5 H5 . . 119.7 ?
C6 C5 H5 . . 119.7 ?
C5 C6 C1 . . 119.12(13) ?
C5 C6 H6 . . 120.4 ?
C1 C6 H6 . . 120.4 ?
C2 C3 C4 . . 120.01(13) ?
C2 C3 C7 . . 120.06(13) ?
C4 C3 C7 . . 119.90(13) ?
O5 C7 O4 . . 123.99(14) ?
O5 C7 C3 . . 123.95(14) ?
O4 C7 C3 . . 112.06(12) ?
C2 C1 C6 . . 120.86(13) ?
C2 C1 S1 . . 117.65(11) ?
C6 C1 S1 . . 121.45(11) ?
C5 C4 C3 . . 119.79(13) ?
C5 C4 H4 . . 120.1 ?
C3 C4 H4 . . 120.1 ?
H42 O4W H41 . . 106(2) ?
loop_
_geom_bond_atom_site_label_1
_geom_bond_atom_site_label_2
_geom_bond_site_symmetry_2
_geom_bond_distance
_geom_bond_publ_flag
Co1 O2W . 2.0470(11) ?
Co1 O2W 2_665 2.0470(11) ?
Co1 O3W . 2.0921(11) ?
Co1 O3W 2_665 2.0921(11) ?
Co1 O1W . 2.1107(11) ?
Co1 O1W 2_665 2.1107(11) ?
O1W H12 . 0.844(10) ?
O1W H11 . 0.835(9) ?
O3W H32 . 0.836(10) ?
O3W H31 . 0.839(9) ?
O2W H22 . 0.832(10) ?
O2W H21 . 0.830(10) ?
S1 O1 . 1.4534(11) ?
S1 O3 . 1.4594(11) ?
S1 O2 . 1.4735(10) ?
S1 C1 . 1.7742(14) ?
O4 C7 . 1.3298(18) ?
O4 H4A . 0.841(10) ?
O5 C7 . 1.2126(18) ?
C2 C1 . 1.3898(19) ?
C2 C3 . 1.3921(19) ?
C2 H2 . 0.9500 ?
C5 C4 . 1.389(2) ?
C5 C6 . 1.393(2) ?
C5 H5 . 0.9500 ?
C6 C1 . 1.393(2) ?
C6 H6 . 0.9500 ?
C3 C4 . 1.398(2) ?
C3 C7 . 1.494(2) ?
C4 H4 . 0.9500 ?
O4W H42 . 0.827(10) ?
O4W H41 . 0.834(10) ?
loop_
_geom_hbond_atom_site_label_D
_geom_hbond_atom_site_label_H
_geom_hbond_atom_site_label_A
_geom_hbond_site_symmetry_A
_geom_hbond_distance_DH
_geom_hbond_distance_HA
_geom_hbond_distance_DA
_geom_hbond_angle_DHA
_geom_hbond_publ_flag
O1W H12 O2 1_545 0.844(10) 1.942(11) 2.7757(15) 170(2) yes
O1W H11 O1 1_655 0.835(9) 1.905(10) 2.7382(15) 175(2) yes
O3W H32 O4W 2 0.836(10) 2.036(15) 2.7887(16) 150(2) yes
O3W H31 O3 1_545 0.839(9) 1.946(10) 2.7852(16) 178(2) yes
O2W H22 O4W . 0.832(10) 1.922(10) 2.7516(16) 174(2) yes
O2W H21 O3 . 0.830(10) 1.963(10) 2.7925(15) 176(2) yes
O4 H4A O2 2_576 0.841(10) 1.856(12) 2.6703(15) 162(2) yes
O4W H42 O1W 1_455 0.827(10) 2.115(12) 2.8960(16) 158(2) yes
O4W H41 O5 2_566 0.834(10) 2.081(14) 2.8503(16) 153(2) yes
loop_
_geom_torsion_atom_site_label_1
_geom_torsion_atom_site_label_2
_geom_torsion_atom_site_label_3
_geom_torsion_atom_site_label_4
_geom_torsion_site_symmetry_1
_geom_torsion_site_symmetry_2
_geom_torsion_site_symmetry_3
_geom_torsion_site_symmetry_4
_geom_torsion
_geom_torsion_publ_flag
C4 C5 C6 C1 . . . . -0.7(2) ?
C1 C2 C3 C4 . . . . -0.4(2) ?
C1 C2 C3 C7 . . . . 177.42(12) ?
C2 C3 C7 O5 . . . . -174.55(14) ?
C4 C3 C7 O5 . . . . 3.3(2) ?
C2 C3 C7 O4 . . . . 4.61(19) ?
C4 C3 C7 O4 . . . . -177.56(13) ?
C3 C2 C1 C6 . . . . 1.3(2) ?
C3 C2 C1 S1 . . . . -176.42(10) ?
C5 C6 C1 C2 . . . . -0.7(2) ?
C5 C6 C1 S1 . . . . 176.87(11) ?
O1 S1 C1 C2 . . . . -44.42(13) ?
O3 S1 C1 C2 . . . . -167.47(11) ?
O2 S1 C1 C2 . . . . 74.15(12) ?
O1 S1 C1 C6 . . . . 137.89(12) ?
O3 S1 C1 C6 . . . . 14.84(14) ?
O2 S1 C1 C6 . . . . -103.54(12) ?
C6 C5 C4 C3 . . . . 1.5(2) ?
C2 C3 C4 C5 . . . . -1.0(2) ?
C7 C3 C4 C5 . . . . -178.82(13) ?

_cod_database_fobs_code 2244156
