#------------------------------------------------------------------------------
#$Date: 2016-02-14 16:26:36 +0200 (Sun, 14 Feb 2016) $
#$Revision: 176435 $
#$URL: svn://www.crystallography.net/cod/cif/2/30/04/2300488.cif $
#------------------------------------------------------------------------------
#
# This file is available in the Crystallography Open Database (COD),
# http://www.crystallography.net/. The original data for this entry
# were provided by IUCr Journals, http://journals.iucr.org/.
#
# The file may be used within the scientific community so long as
# proper attribution is given to the journal article from which the
# data were obtained.
#
data_2300488
loop_
_publ_author_name
'Krause, Lennard'
'Herbst-Irmer, Regine'
'Sheldrick, George M.'
'Stalke, Dietmar'
_publ_section_title
;
 Comparison of silver and molybdenum microfocus X-ray sources for
 single-crystal structure determination
;
_journal_coeditor_code           aj5242
_journal_issue                   1
_journal_name_full               'Journal of Applied Crystallography'
_journal_paper_doi               10.1107/S1600576714022985
_journal_volume                  48
_journal_year                    2015
_chemical_formula_moiety         'Br0.10 Cl0.90 Cu6 O8 Pb'
_chemical_formula_sum            'Br0.1 Cl0.9 Cu6 O8 Pb'
_chemical_formula_weight         756.41
_space_group_crystal_system      cubic
_space_group_IT_number           225
_space_group_name_Hall           '-F 4 2 3'
_space_group_name_H-M_alt        'F m -3 m'
_symmetry_space_group_name_Hall  '-F 4 2 3'
_symmetry_space_group_name_H-M   'F m -3 m'
_audit_creation_method           SHELXL-2014/7
_cell_angle_alpha                90
_cell_angle_beta                 90
_cell_angle_gamma                90
_cell_formula_units_Z            4
_cell_length_a                   9.2164(2)
_cell_length_b                   9.2164(2)
_cell_length_c                   9.2164(2)
_cell_measurement_reflns_used    9919
_cell_measurement_temperature    100(2)
_cell_measurement_theta_max      55.6665
_cell_measurement_theta_min      3.828
_cell_volume                     782.86(3)
_computing_cell_refinement       'SAINT V7.68A'
_computing_data_collection       'APEX2 v2012.2'
_computing_data_reduction        'SAINT V7.68A'
_computing_molecular_graphics    'Mercury CSD 3.3 (Build RC5)'
_computing_publication_material  'Mercury CSD 3.3 (Build RC5)'
_computing_structure_refinement  'SHELXL-2014/7 (Sheldrick, 2014)'
_computing_structure_solution    'SHELXS-2012 (Sheldrick, 2012)'
_diffrn_ambient_temperature      100(2)
_diffrn_measured_fraction_theta_full 1.000
_diffrn_measured_fraction_theta_max 1.000
_diffrn_measurement_device_type  'Bruker Smart APEX II Quazar'
_diffrn_measurement_method       'omega scans'
_diffrn_radiation_type           MoK\a
_diffrn_radiation_wavelength     0.71073
_diffrn_reflns_av_R_equivalents  0.0353
_diffrn_reflns_av_unetI/netI     0.0110
_diffrn_reflns_Laue_measured_fraction_full 1.000
_diffrn_reflns_Laue_measured_fraction_max 1.000
_diffrn_reflns_limit_h_max       20
_diffrn_reflns_limit_h_min       -20
_diffrn_reflns_limit_k_max       19
_diffrn_reflns_limit_k_min       -21
_diffrn_reflns_limit_l_max       20
_diffrn_reflns_limit_l_min       -20
_diffrn_reflns_number            10388
_diffrn_reflns_point_group_measured_fraction_full 1.000
_diffrn_reflns_point_group_measured_fraction_max 1.000
_diffrn_reflns_theta_full        25.242
_diffrn_reflns_theta_max         55.698
_diffrn_reflns_theta_min         3.829
_diffrn_source                   'INCOATEC Microsource'
_exptl_absorpt_coefficient_mu    38.254
_exptl_absorpt_correction_T_max  0.1577
_exptl_absorpt_correction_T_min  0.0618
_exptl_absorpt_correction_type   multi-scan
_exptl_absorpt_process_details   SADABS-2014/4
_exptl_crystal_colour            black
_exptl_crystal_density_diffrn    6.418
_exptl_crystal_description       block
_exptl_crystal_F_000             1355
_exptl_crystal_size_max          0.120
_exptl_crystal_size_mid          0.110
_exptl_crystal_size_min          0.090
_refine_diff_density_max         4.404
_refine_diff_density_min         -2.672
_refine_diff_density_rms         0.502
_refine_ls_extinction_coef       0.00051(9)
_refine_ls_extinction_expression Fc^*^=kFc[1+0.001xFc^2^\l^3^/sin(2\q)]^-1/4^
_refine_ls_extinction_method     'SHELXL-2014/7 (Sheldrick 2014'
_refine_ls_goodness_of_fit_ref   1.218
_refine_ls_hydrogen_treatment    undef
_refine_ls_matrix_type           full
_refine_ls_number_parameters     11
_refine_ls_number_reflns         313
_refine_ls_number_restraints     0
_refine_ls_restrained_S_all      1.218
_refine_ls_R_factor_all          0.0196
_refine_ls_R_factor_gt           0.0196
_refine_ls_shift/su_max          0.000
_refine_ls_shift/su_mean         0.000
_refine_ls_structure_factor_coef Fsqd
_refine_ls_weighting_details
'w=1/[\s^2^(Fo^2^)+(0.0319P)^2^+1.8322P] where P=(Fo^2^+2Fc^2^)/3'
_refine_ls_weighting_scheme      calc
_refine_ls_wR_factor_gt          0.0451
_refine_ls_wR_factor_ref         0.0451
_reflns_Friedel_coverage         0.000
_reflns_number_gt                313
_reflns_number_total             313
_reflns_threshold_expression     'I > 2\s(I)'
_cod_data_source_file            aj5242sup1.cif
_cod_data_source_block           2-(Mo)
_cod_original_cell_volume        782.86(5)
_cod_original_formula_sum        'Br0.10 Cl0.90 Cu6 O8 Pb'
_cod_database_code               2300488
#BEGIN Tags that were not found in dictionaries:
_shelx_shelxl_version_number     2014/7
_shelx_space_group_comment
;
The symmetry employed for this shelxl refinement is uniquely defined
by the following loop, which should always be used as a source of
symmetry information in preference to the above space-group names.
They are only intended as comments.
;
_shelx_estimated_absorpt_t_min   0.091
_shelx_estimated_absorpt_t_max   0.130
_shelx_res_file
;

    Fm-3m_res_043_Mo_1876.res created by SHELXL-2014/7


REM TITL Fm-3m_res_100_Mo in Fm-3m
CELL 0.71073   9.2164   9.2164   9.2164  90.000  90.000  90.000
ZERR    4.00   0.0002   0.0002   0.0002   0.000   0.000   0.000
LATT  4
SYMM -X, -Y, Z
SYMM -X, Y, -Z
SYMM X, -Y, -Z
SYMM Z, X, Y
SYMM Z, -X, -Y
SYMM -Z, -X, Y
SYMM -Z, X, -Y
SYMM Y, Z, X
SYMM -Y, Z, -X
SYMM Y, -Z, -X
SYMM -Y, -Z, X
SYMM Y, X, -Z
SYMM -Y, -X, -Z
SYMM Y, -X, Z
SYMM -Y, X, Z
SYMM X, Z, -Y
SYMM -X, Z, Y
SYMM -X, -Z, -Y
SYMM X, -Z, Y
SYMM Z, Y, -X
SYMM Z, -Y, X
SYMM -Z, Y, X
SYMM -Z, -Y, -X
SFAC O CL CU BR PB
UNIT 32 3.587 24 0.4125 3.999
TEMP -173.000
SIZE 0.12 0.11 0.09
LIST 4
ACTA
L.S. 10
FMAP 2
PLAN 20
EADP  BR1 CL1
WGHT    0.031900    1.832200
EXTI    0.000514
FVAR       0.03940   0.89687
PB1   5    0.500000    0.000000    0.500000    10.02083    0.00397    0.00397 =
         0.00397    0.00000    0.00000    0.00000
CU1   3    0.500000    0.250000    0.250000    10.12500    0.00387    0.00436 =
         0.00436    0.00092    0.00000    0.00000
O1    1    0.357145    0.142855    0.357145    10.16667    0.00493    0.00493 =
         0.00493    0.00010   -0.00010    0.00010
CL1   2    0.500000    0.500000    0.500000    20.02083    0.01510    0.01510 =
         0.01510    0.00000    0.00000    0.00000
BR1   4    0.500000    0.500000    0.500000   -20.02083    0.01510    0.01510 =
         0.01510    0.00000    0.00000    0.00000
HKLF 4

REM
REM R1 =  0.0196 for     313 Fo > 4sig(Fo)  and  0.0196 for all     313 data
REM     11 parameters refined using      0 restraints

END

WGHT      0.0319      1.8322

REM Highest difference peak  4.404,  deepest hole -2.672,  1-sigma level  0.502
Q1    1   0.5000  0.1124  0.5000  10.12500  0.05    2.03
Q2    1   0.5000  0.3001  0.5000  10.12500  0.05    1.01
Q3    1   0.2787  0.0000  0.5000  10.12500  0.05    0.74
Q4    1   0.5000  0.3653  0.5000  10.12500  0.05    0.62
Q5    1   0.3915  0.0000  0.3915  10.25000  0.05    0.58
Q6    1   0.5000  0.1867  0.5000  10.12500  0.05    0.57
Q7    1   0.2873  0.2127  0.3741  10.50000  0.05    0.56
Q8    1   0.5000  0.0000  0.2431  10.12500  0.05    0.55
Q9    1   0.2585  0.1083  0.3475  11.00000  0.05    0.55
Q10   1   0.5000  0.4223  0.2844  10.50000  0.05    0.53
Q11   1   0.3286  0.2500  0.2500  10.25000  0.05    0.53
Q12   1   0.2500  0.1963  0.2500  10.25000  0.05    0.52
Q13   1   0.2687  0.2313  0.2313  10.16667  0.05    0.51
Q14   1   0.4274  0.0289  0.2527  11.00000  0.05    0.49
Q15   1   0.5000  0.0791  0.2805  10.50000  0.05    0.49
Q16   1   0.3691  0.2661  0.3691  10.50000  0.05    0.47
Q17   1   0.5000  0.5948  0.6255  10.50000  0.05    0.46
Q18   1   0.4677  0.1202  0.3798  10.50000  0.05    0.45
Q19   1   0.5000  0.1725  0.1277  10.50000  0.05    0.42
Q20   1   0.5000  0.1477  0.3523  10.25000  0.05    0.41
;
_shelx_res_checksum              3887
_shelx_hkl_file
;
  -1  -1  -1  126.72    4.49
  -1  -1   1  119.07    4.54
  -1  -1   1  123.88    4.94
  -1   1  -1  126.96    4.47
  -1   1  -1  132.31    4.95
  -1   1   1  130.27    4.82
   1  -1  -1  123.86    4.51
   1  -1  -1  128.19    4.80
   1  -1   1  130.22    4.47
   1  -1   1  130.88    4.97
   1   1  -1  136.88    4.97
   1   1   1  143.00    4.86
  -2   0   0   12.67    0.55
  -2   0   0   14.91    0.85
   0  -2   0   14.96    0.70
   0   0  -2   14.31    0.89
   0   0   2   14.57    0.57
   0   0   2   13.41    0.88
   0   2   0   13.77    0.69
  -2  -2   0   38.90    1.46
  -2  -2   0   37.26    1.68
  -2   0  -2   38.25    1.38
  -2   0  -2   42.87    2.03
  -2   0   2   35.19    1.48
  -2   0   2   35.24    2.02
  -2   2   0   41.77    1.90
   0  -2  -2   39.17    1.45
   0  -2  -2   44.88    1.82
   0  -2   2   35.87    1.46
   0  -2   2   35.87    1.94
   0   2  -2   37.70    1.94
   0   2   2   38.34    1.75
   2  -2   0   38.08    1.41
   2  -2   0   41.31    1.89
   2   0  -2   45.66    2.13
   2   0   2   36.62    1.95
   2   2   0   42.75    1.72
  -2  -2  -2  945.37   29.80
  -2  -2   2  760.16   29.79
  -2  -2   2  850.07   32.43
  -2   2  -2  928.50   32.18
  -2   2   2  836.61   31.98
   2  -2  -2  735.50   29.74
   2  -2  -2  905.84   31.66
   2  -2   2  876.92   29.57
   2   2   2  873.64   31.09
  -3  -1  -1   32.81    1.19
  -3  -1  -1   36.63    1.71
  -3  -1   1   30.21    1.27
  -3  -1   1   28.92    1.66
  -3   1  -1   30.54    1.15
  -3   1  -1   34.53    1.82
  -3   1   1   29.88    1.22
  -3   1   1   33.96    1.75
  -1  -3  -1   33.88    1.23
  -1  -3   1   31.53    1.25
  -1  -3   1   27.74    1.54
  -1  -1  -3   33.04    1.21
  -1  -1  -3   31.38    1.68
  -1  -1   3   30.55    1.26
  -1  -1   3   30.78    1.91
  -1   1  -3   33.24    1.86
  -1   1   3   30.25    1.24
  -1   1   3   33.12    1.91
  -1   3  -1   34.39    1.74
  -1   3   1   34.79    1.51
  -1   3   1   35.89    1.51
   1  -3  -1   33.92    1.22
   1  -3   1   34.67    1.20
   1  -3   1   33.87    1.74
   1  -1  -3   30.70    1.24
   1  -1   3   30.19    1.20
   1  -1   3   29.15    1.83
   1   1  -3   32.67    1.87
   1   1   3   30.21    1.72
   1   3  -1   29.84    1.57
   3  -1   1   31.66    1.74
   3   1  -1   33.58    1.76
   3   1   1   31.42    1.61
  -3  -3  -1  131.49    4.88
  -3  -3  -1  136.74    5.16
  -3  -3  -1  158.74    5.28
  -3  -3   1  129.26    4.95
  -3  -3   1  123.70    5.55
  -3  -1  -3  142.62    4.82
  -3  -1   3  130.87    4.97
  -3  -1   3  147.63    6.14
  -3   1   3  123.37    4.93
  -3   1   3  133.47    5.89
  -3   3   1  137.86    5.60
  -3   3   1  146.85    5.60
  -1  -3  -3  141.22    4.89
  -1  -3  -3  155.15    5.36
  -1  -3   3  131.68    4.95
  -1  -3   3  136.40    5.87
  -1   3   3  144.01    5.69
   1  -3  -3  141.00    4.91
   1  -3  -3  155.32    5.50
   1  -3   3  136.32    4.87
   1  -3   3  119.70    5.75
   1   3  -3  127.30    5.69
   1   3   3  141.90    5.29
   3  -3  -1  128.35    4.86
   3  -3   1  132.04    4.81
   3  -3   1  141.78    5.74
   3  -1   3  137.43    5.87
   3   1   3  148.63    5.71
   3   3  -1  137.79    5.55
  -3  -3  -3   11.68    0.54
  -3  -3  -3   12.78    0.96
  -3  -3   3   10.75    0.63
  -3  -3   3   12.51    1.25
  -3   3   3   11.63    0.59
  -3   3   3   11.84    1.10
   3  -3  -3   11.34    0.57
   3  -3   3   11.90    0.46
   3  -3   3   11.47    1.20
   3   3   3   11.19    0.83
   0  -4   0  647.33   22.41
   0  -4   0  678.08   23.31
   0   0  -4  701.94   23.69
   0   0   4  592.24   22.14
   0   0   4  594.47   23.12
   0   4   0  630.84   23.12
  -4   0  -2   40.70    1.43
  -4   0   2   41.66    1.60
  -4   0   2   41.69    2.25
  -2  -4   0   38.50    1.76
  -2   4   0   43.54    2.13
   0  -2  -4   39.18    1.54
   0  -2  -4   42.37    2.25
   0  -2   4   38.13    1.56
   0  -2   4   34.42    2.30
   0   2   4   35.93    2.10
   2  -4   0   41.60    1.51
   2  -4   0   38.52    2.00
   2   4   0   39.99    1.74
   4   0   2   42.10    2.24
  -4  -2   0   37.91    1.55
  -4  -2   0   41.90    2.05
  -4  -2   0   46.63    2.17
  -4   2   0   38.10    1.50
  -2   0   4   36.81    1.58
  -2   0   4   40.76    2.56
   0  -4  -2   41.44    1.55
   0  -4   2   41.43    1.56
   0  -4   2   43.08    2.23
   0   4  -2   39.30    2.11
   0   4   2   41.26    1.75
   0   4   2   40.35    1.64
   2   0   4   38.76    1.48
   2   0   4   39.57    2.33
   4  -2   0   39.60    2.20
  -4  -2  -2   20.25    0.81
  -4  -2  -2   23.32    1.41
  -4  -2   2   19.05    0.93
  -4  -2   2   18.86    1.46
  -4   2   2   18.04    0.87
  -4   2   2   18.73    1.42
  -2  -4  -2   19.59    0.85
  -2  -4   2   19.25    0.91
  -2  -4   2   20.43    1.42
  -2  -2  -4   22.19    0.83
  -2  -2  -4   21.56    1.40
  -2  -2   4   21.22    0.94
  -2  -2   4   20.75    1.72
  -2   2   4   21.28    0.91
  -2   2   4   20.19    1.63
  -2   4   2   19.25    1.26
  -2   4   2   21.40    1.29
   2  -4  -2   20.91    0.86
   2  -4   2   20.61    0.81
   2  -4   2   20.73    1.54
   2  -2  -4   21.12    0.90
   2  -2   4   20.52    0.81
   2  -2   4   18.50    1.57
   2   2   4   19.86    1.37
   2   4  -2   18.74    1.38
   4  -2   2   18.02    1.47
   4   2   2   20.39    1.28
  -4  -4   0  864.23   30.74
  -4  -4   0 1000.00   32.50
  -4  -4   0  992.36   32.29
  -4   0  -4  909.30   30.59
  -4   0   4  813.17   30.68
  -4   0   4  993.28   33.48
   0  -4  -4  947.23   30.92
   0  -4   4  897.71   30.63
   0  -4   4  793.93   31.85
   0   4   4  833.65   31.42
   4  -4   0  797.04   30.55
   4  -4   0  886.51   32.73
   4   0   4  855.26   30.55
   4   0   4  815.13   31.74
  -4  -4  -2   13.01    0.60
  -4  -4  -2   12.17    0.81
  -4  -4   2   12.06    0.68
  -4  -4   2   13.77    1.23
  -4  -2  -4   11.95    0.54
  -4  -2   4   11.02    0.67
  -4  -2   4   12.01    1.34
  -4   2   4   12.08    0.66
  -4   2   4   10.74    1.21
  -4   4   2   13.59    0.63
  -4   4   2   12.89    1.16
  -2  -4  -4   12.33    0.60
  -2  -4  -4   12.69    0.92
  -2  -4   4   11.07    0.66
  -2  -4   4   11.95    1.31
  -2   4   4   12.03    1.21
   2  -4  -4   13.16    0.64
   2  -4   4   11.99    0.55
   2  -4   4   11.46    1.29
   2   4   4   13.16    0.91
   4  -4  -2   13.40    0.61
   4  -4   2   12.41    0.50
   4  -4   2   12.11    1.24
   4  -2   4   10.88    1.25
   4   2   4   12.49    1.11
  -4  -4  -4  516.71   17.04
  -4  -4   4  492.67   17.23
  -4  -4   4  514.21   18.80
  -4   4   4  470.15   17.14
  -4   4   4  511.38   18.54
   4  -4  -4  491.34   17.12
   4  -4   4  434.32   18.58
   4   4   4  492.35   17.61
  -5  -1  -1   52.03    1.90
  -5  -1   1   52.12    2.02
  -5  -1   1   52.15    2.69
  -5   1  -1   48.28    1.87
  -5   1   1   49.99    1.96
  -5   1   1   50.53    2.71
  -1  -5  -1   54.93    1.97
  -1  -5   1   53.52    1.98
  -1  -5   1   52.65    2.44
  -1  -1  -5   51.70    1.94
  -1  -1   5   50.66    2.00
  -1  -1   5   53.22    3.08
  -1   1   5   52.15    1.99
  -1   1   5   50.02    2.95
  -1   5  -1   56.45    2.63
   1  -5  -1   53.47    1.95
   1  -5   1   49.96    1.93
   1  -5   1   54.13    2.61
   1  -1   5   50.24    1.94
   1  -1   5   45.06    2.90
   1   1   5   53.46    1.95
   1   1   5   46.27    2.79
   1   5  -1   45.91    2.34
   5  -1   1   52.99    2.77
  -5  -1  -3   67.55    2.36
  -1  -5   3   63.93    3.41
   5  -1   3   59.19    3.41
  -5   1   3   61.63    2.54
  -5   1   3   62.69    3.46
  -3  -5  -1   66.64    2.50
  -3  -5  -1   66.87    2.58
  -5   3  -1   61.32    2.38
   3   1   5   70.01    2.42
  -3   5   1   68.67    3.24
  -1  -3  -5   69.02    2.48
  -1  -3  -5   71.65    3.29
  -3  -1   5   74.86    4.04
   1  -5  -3   70.08    2.51
  -1   3   5   66.10    2.51
  -1   3   5   61.78    3.38
  -1  -5   3   65.67    2.53
   1  -3   5   64.55    2.48
   1  -3   5   62.23    3.64
   3   1   5   64.53    3.48
  -5  -3   1   63.59    2.55
   3  -5   1   66.31    2.42
   3   5  -1   71.03    3.07
  -3  -1   5   63.32    2.57
  -5  -3   1   75.50    3.37
  -5  -1   3   71.87    3.64
  -5  -3  -1   73.09    3.09
   3  -5  -1   66.55    2.45
   5   1   3   68.07    3.33
  -3  -5   1   67.18    2.55
  -5   3   1   60.24    2.46
  -5   3   1   65.20    3.39
  -3  -1  -5   68.98    2.41
  -5  -3  -1   67.11    2.47
  -1  -3   5   63.91    2.55
  -3   1   5   63.30    2.54
  -3   1   5   60.31    3.68
  -1  -5  -3   66.02    2.48
   1  -3  -5   67.67    2.51
  -5  -1   3   64.62    2.57
  -1   5   3   64.87    3.07
  -1   5   3   67.32    2.86
  -1  -3   5   69.87    3.82
   1  -5   3   66.98    2.46
   3  -1   5   62.74    2.38
   3  -1   5   62.74    3.63
  -3  -5   1   65.08    3.09
   1   3   5   61.59    3.21
   5  -3   1   66.05    3.44
  -5  -3  -3   40.42    1.51
  -5  -3   3   38.57    1.68
  -5  -3   3   37.40    2.53
  -5   3   3   39.20    1.62
  -5   3   3   37.87    2.44
  -3  -5  -3   40.13    1.57
  -3  -5   3   39.89    1.67
  -3  -5   3   41.36    2.53
  -3  -3  -5   39.88    1.52
  -3  -3   5   40.22    1.70
  -3  -3   5   40.61    2.84
  -3   3   5   38.16    1.62
  -3   3   5   38.28    2.66
  -3   5   3   38.04    2.24
   3  -5  -3   41.50    1.59
   3  -5   3   41.93    1.48
   3  -5   3   38.63    2.59
   3  -3   5   39.30    1.45
   3  -3   5   35.86    2.67
   3   3   5   38.66    2.24
   5  -3   3   36.97    2.54
   5   3   3   36.33    2.09
  -5  -5  -1   46.58    1.84
  -5  -5  -1   43.40    2.23
  -5  -5   1   47.24    1.91
  -5  -5   1   49.38    2.61
  -5  -1  -5   50.34    1.70
  -5  -1   5   44.99    1.94
  -5  -1   5   46.84    3.14
  -5   1   5   46.57    1.93
  -5   1   5   46.47    3.13
  -5   5   1   42.24    1.78
  -5   5   1   45.97    2.77
  -1  -5  -5   45.74    1.82
  -1  -5   5   46.56    1.89
  -1  -5   5   44.81    3.06
  -1   5   5   43.24    2.52
   1  -5  -5   46.19    1.84
   1  -5   5   45.03    1.80
   1  -5   5   44.11    2.98
   1   5   5   45.10    2.28
   5  -5  -1   45.96    1.77
   5  -5   1   47.41    1.72
   5  -5   1   45.33    2.78
   5  -1   5   44.10    2.92
   5   1   5   46.80    2.82
  -5  -5  -3   40.11    1.63
  -5  -5   3   40.86    1.77
  -5  -5   3   43.00    2.70
  -5  -3  -5   41.28    1.56
  -5  -3   5   41.90    1.80
  -5  -3   5   36.57    2.82
  -5   3   5   42.39    1.74
  -5   3   5   38.23    2.76
  -5   5   3   37.99    1.66
  -5   5   3   39.01    2.56
  -3  -5  -5   40.46    1.63
  -3  -5   5   41.84    1.77
  -3  -5   5   43.73    3.01
  -3   5  -5   38.36    1.43
  -3   5   5   39.06    1.69
  -3   5   5   40.81    2.71
   3  -5  -5   40.83    1.68
   3  -5   5   36.61    2.81
   3   5  -5   41.85    1.44
   5  -5  -3   40.17    1.65
   5  -5   3   39.04    2.77
   5  -5   3   40.52    1.43
   5  -3   5   40.32    2.88
   5  -3   5   43.31    1.44
   5   3  -5   40.83    1.44
   5   3   5   41.23    2.39
  -5  -5  -5   33.86    1.37
  -5  -5   5   33.69    1.55
  -5  -5   5   35.17    2.66
  -5   5   5   30.95    1.46
  -5   5   5   30.44    2.41
   5  -5   5   30.90    2.61
   5  -5   5   33.07    1.18
   5   5  -5   33.27    1.17
  -6   0   0   56.42    2.21
  -6   0   0   59.22    3.07
   0  -6   0   55.86    2.21
   0  -6   0   61.19    2.53
   0   0   6   62.18    2.24
   0   0   6   57.90    3.38
   0   6   0   54.60    2.52
  -6   0  -2   13.14    0.55
  -6   0   2   13.53    0.72
  -6   0   2   12.92    1.27
  -2  -6   0   13.98    0.70
   0  -2  -6   13.90    0.69
   0  -2   6   13.50    0.70
   0  -2   6   13.24    1.48
   0   2   6   14.01    0.69
   0   2   6   12.64    1.30
   2  -6   0   14.58    0.66
   2  -6   0   15.19    1.13
   2   6   0   14.23    0.77
   6   0   2   12.73    1.25
   0  -6  -2   13.41    0.67
   0  -6   2   13.52    0.67
   0  -6   2   14.77    1.27
   0   6   2   12.95    0.69
   2   0   6   13.33    0.63
   2   0   6   11.23    1.30
  -6   2   0   13.93    0.64
  -2   0   6   15.17    0.75
  -2   0   6   12.16    1.47
  -6  -2   0   14.98    1.23
  -6  -2   0   15.22    0.71
  -2   2   6  634.82   22.20
  -2  -2   6  682.06   24.25
   2  -6   2  644.65   22.08
   6  -2   2  636.15   23.51
  -2   6   2  623.61   22.78
   2  -6  -2  660.29   22.14
   2  -6   2  603.33   23.29
   2  -2   6  628.56   22.08
   2  -2   6  578.80   23.74
   2   2   6  693.06   22.12
   2   2   6  563.14   23.26
   2   6  -2  569.43   22.92
  -6  -2  -2  669.66   22.11
  -6  -2   2  622.70   22.24
  -6  -2   2  625.76   23.38
  -6   2   2  592.44   22.16
  -6   2   2  632.34   23.45
  -2  -6  -2  683.85   22.17
  -2  -6   2  674.13   22.21
  -2  -6   2  665.01   23.13
  -2  -2  -6  682.93   22.11
  -2  -2   6  640.07   22.23
  -2   6   2  621.99   23.10
  -2   2   6  675.60   24.00
   6   0   4    3.54    0.71
   6   0  -4    4.16    0.20
   0   4   6    4.35    0.70
   4  -6   0    4.46    0.30
   4  -6   0    4.81    0.74
  -6   0   4    4.38    0.40
  -6   0   4    4.20    0.81
  -4  -6   0    4.67    0.37
   0  -4  -6    5.11    0.37
   0  -4   6    5.05    0.38
   0  -4   6    5.28    0.98
   0   4  -6    4.56    0.20
  -4   0   6    4.98    0.42
  -4   0   6    4.69    0.96
   0  -6  -4    4.91    0.36
   0  -6   4    4.17    0.34
   4   0   6    3.94    0.80
  -6   4   0    4.38    0.31
  -6  -4   0    4.89    0.69
  -6  -4   0    4.93    0.38
  -2  -4  -6   21.06    0.93
  -4   6   2   19.14    1.54
  -6  -2  -4   20.29    0.82
   2  -6  -4   20.33    0.96
  -2   4   6   20.25    0.98
  -2   4   6   18.43    1.74
  -6  -4   2   20.40    1.03
   2  -4   6   19.53    0.88
   2  -4   6   19.25    1.91
   2   4  -6   20.79    0.75
  -2  -6   4   21.32    1.84
  -4  -2   6   21.46    1.06
   4  -6   2   20.20    0.84
   4  -6   2   18.97    1.70
   6  -2   4   19.98    1.84
   6  -2   4   21.98    0.74
   6   2  -4   20.74    0.75
  -6  -4   2   21.48    1.73
  -2   6  -4   19.76    0.74
  -6   2   4   20.33    1.83
  -4  -6  -2   20.16    0.95
  -4  -2   6   19.04    1.97
  -2  -6   4   21.18    1.02
   4   2   6   18.45    1.61
  -6   2   4   21.24    1.03
  -6  -2   4   20.40    1.91
  -4  -6   2   19.10    1.01
  -4  -6   2   20.33    1.59
  -6  -4  -2   23.24    1.44
   2  -4  -6   19.41    0.96
   6   2   4   21.42    1.61
  -6   4   2   19.23    0.94
  -6   4   2   17.89    1.65
  -4  -2  -6   21.30    0.87
   4  -6  -2   19.66    0.91
  -6  -4  -2   19.74    0.90
  -4   2   6   21.20    1.01
  -4   2   6   19.55    1.94
  -2  -6  -4   20.06    0.94
  -6  -2   4   21.31    1.07
   2   4   6   20.09    1.50
  -2  -4   6   21.01    1.03
  -2   6   4   20.26    1.59
  -2   4  -6   19.97    0.74
   2  -6   4   20.60    0.88
   2  -6   4   19.66    1.85
   4  -2   6   17.88    1.85
   4   2  -6   20.16    0.74
  -2  -4   6   22.42    2.12
   6  -4   2   19.28    1.75
   6  -4   2   20.77    0.74
  -6  -4  -4   29.81    1.23
  -6  -4   4   29.30    1.43
  -6  -4   4   28.57    2.30
  -6   4   4   29.69    1.36
  -6   4   4   26.07    2.21
  -4  -6  -4   30.13    1.29
  -4  -6   4   31.02    1.42
  -4  -6   4   32.55    2.41
  -4  -4  -6   31.08    1.24
  -4  -4   6   33.36    1.46
  -4  -4   6   32.16    2.64
  -4   4  -6   29.29    1.08
  -4   4   6   31.13    1.38
  -4   4   6   30.86    2.47
  -4   6   4   30.28    1.34
  -4   6   4   27.48    2.10
   4  -6  -4   29.45    1.31
   4  -6   4   28.65    2.40
   4  -6   4   31.64    1.08
   4  -4   6   26.28    2.38
   4   4  -6   30.64    1.08
   4   6  -4   29.86    1.08
   6  -4  -4   29.84    1.07
   6  -4   4   29.80    2.44
   6  -4   4   30.21    1.08
   6   4  -4   30.55    1.08
  -6  -6   0   25.40    1.21
  -6   0   6   24.12    1.25
  -6   0   6   24.69    2.30
   0  -6  -6   24.58    1.16
   0  -6  -6   26.34    0.92
   0  -6   6   25.27    1.17
   0  -6   6   26.23    2.33
   0  -6   6   24.58    0.93
   0   6  -6   24.73    0.93
   6  -6   0   26.87    0.92
   6   0  -6   25.22    0.93
   6   0   6   24.82    2.13
   6   0   6   26.87    0.92
  -6  -6  -2  440.58   15.42
  -6  -6   2  448.99   15.56
  -6  -2   6  438.24   15.59
  -6  -2   6  426.11   17.49
  -6   2   6  452.13   15.56
  -6   2   6  439.94   17.58
  -6   6   2  400.53   15.40
  -6   6   2  450.93   17.00
  -2  -6  -6  441.57   15.40
  -2  -6  -6  462.95   15.29
  -2  -6   6  458.65   15.53
  -2  -6   6  481.85   17.87
  -2  -6   6  432.36   15.20
  -2   6  -6  432.57   15.30
   2  -6  -6  446.18   15.45
   2  -6  -6  451.99   15.20
   2  -6   6  448.21   17.60
   2  -6   6  442.87   15.22
   2   6  -6  453.41   15.31
   6  -6  -2  404.19   15.36
   6  -6  -2  439.70   15.21
   6  -6   2  413.36   17.01
   6  -6   2  431.51   15.26
   6  -2  -6  435.39   15.23
   6  -2   6  430.71   17.38
   6  -2   6  461.89   15.26
   6   2  -6  434.69   15.20
   6   2   6  412.56   16.67
   6   6  -2  445.78   15.25
  -6  -6  -4    7.76    0.49
  -6  -6   4    7.17    0.57
  -6  -6   4    7.91    1.15
  -6  -4   6    6.03    0.56
  -6  -4   6    6.97    1.20
  -6   4   6    6.43    0.53
  -6   4   6    6.97    1.19
  -6   6   4    7.32    0.53
  -6   6   4    6.53    1.05
  -4  -6  -6    7.25    0.48
  -4  -6  -6    7.20    0.29
  -4  -6   6    7.83    0.59
  -4  -6   6    7.58    1.30
  -4  -6   6    6.69    0.30
  -4   6  -6    6.84    0.30
  -4   6   6    6.84    0.53
   4  -6  -6    7.43    0.53
   4  -6  -6    7.60    0.29
   4  -6   6    6.18    1.15
   4  -6   6    7.15    0.30
   4   6  -6    7.18    0.30
   6  -6  -4    7.51    0.28
   6  -6   4    6.46    1.14
   6  -6   4    7.25    0.30
   6  -6   4    7.50    0.36
   6  -4  -6    6.76    0.28
   6  -4   6    5.69    1.11
   6  -4   6    6.99    0.30
   6   4  -6    7.29    0.30
   6   6  -4    7.10    0.29
  -6  -6  -6  360.19   12.35
  -6  -6   6  349.07   12.58
  -6  -6   6  360.87   14.52
  -6  -6   6  337.57   12.10
  -6   6   6  338.15   12.50
  -6   6   6  311.79   14.22
   6  -6  -6  378.52   12.12
   6  -6   6  349.57   12.10
   6  -6   6  351.34   12.17
   6   6  -6  369.17   12.18
   6   6  -6  350.65   12.15
  -7  -1  -1   71.81    2.70
  -7  -1  -1   69.83    3.67
  -7  -1   1   69.17    2.81
  -7  -1   1   74.45    3.79
  -7   1   1   73.60    2.79
  -7   1   1   61.37    3.67
  -1  -7   1   72.21    2.80
  -1  -7   1   81.10    3.38
  -1  -1   7   74.98    2.84
  -1  -1   7   80.73    4.50
  -1   1   7   74.18    2.81
  -1   1   7   72.10    4.20
  -1   7   1   72.31    3.11
   1  -7  -1   73.30    2.77
   1  -7   1   69.27    2.75
   1  -7   1   79.80    3.52
   1  -1   7   73.89    2.77
   1  -1   7   76.20    4.34
   1   1   7   75.37    2.78
   1   1   7   70.64    4.10
   7   1  -3   20.80    0.75
   3  -7   1   20.91    0.90
  -7   1   3   19.09    1.01
  -7   1   3   19.76    1.76
   7  -3  -1   21.10    0.74
  -3   7   1   20.54    1.51
  -1  -3  -7   21.65    0.96
  -3  -1   7   21.29    1.05
  -3  -1   7   21.33    2.16
   3   1   7   21.09    0.90
  -1   3   7   19.71    0.98
  -1   3   7   19.31    1.78
   1  -3   7   20.37    0.96
   1  -3   7   19.17    1.99
   1   3  -7   20.86    0.75
  -1  -7   3   21.39    1.71
  -7  -3   1   19.83    1.00
   7  -1   3   20.86    0.74
   3  -7   1   20.71    1.59
   3   1   7   19.21    1.83
   7  -1   3   20.06    1.78
  -1  -7   3   21.01    1.00
   1  -7  -3   18.72    0.94
   7   1   3   18.54    1.62
  -7  -1   3   22.51    1.89
   1   3   7   21.21    0.96
  -7  -1   3   23.85    1.09
   1  -7   3   19.63    0.93
   1  -7   3   19.67    1.73
   3  -1   7   18.75    1.91
   3   1  -7   19.81    0.74
  -1   3  -7   21.00    0.75
   7  -1  -3   20.60    0.74
  -3  -7   1   19.18    0.99
   7  -3   1   18.90    1.74
   7  -3   1   20.61    0.74
  -1  -3   7   19.63    0.99
  -1  -3   7   22.82    2.19
  -3   1   7   19.32    1.00
  -3   1   7   20.47    2.08
  -1  -7  -3   19.26    0.95
  -7   3   1   19.04    1.73
   1   3   7   18.70    1.72
   3  -7  -1   20.81    0.93
  -7   3   1   20.88    0.95
  -7  -3  -1   21.39    0.93
  -7  -3  -1   22.05    1.59
  -7  -3   3   77.34    3.08
  -7  -3   3   73.96    4.17
  -7   3   3   72.60    3.00
  -7   3   3   79.07    4.28
  -3   3  -7   79.01    2.72
   7  -3   3   69.51    4.15
  -3   3   7   80.99    3.05
  -7  -3  -3   81.35    2.86
  -3  -7   3   77.30    3.04
  -3  -7   3   80.46    4.06
  -3  -3  -7   80.87    2.90
  -3  -7  -3   77.22    2.97
  -3   3   7   78.78    4.58
  -3   7  -3   72.96    2.70
   3  -7  -3   76.45    2.95
   3  -7   3   76.09    2.86
   3  -7   3   80.09    2.71
   3  -3   7   70.58    4.48
   3   3  -7   78.50    2.71
   3   3   7   77.36    4.08
   7  -3  -3   77.84    2.70
  -3  -3   7   87.81    4.94
   7  -3   3   79.26    2.71
   7   3  -3   76.57    2.71
  -3  -3   7   77.27    3.07
   7  -5  -1   34.18    1.18
   7   1  -5   32.68    1.19
  -5  -7  -1   33.21    1.47
   5  -7   1   31.75    2.33
   5  -7   1   34.45    1.18
  -5   1  -7   34.60    1.18
   7  -1   5   31.63    2.49
   7  -1   5   35.10    1.18
   1  -5   7   32.44    2.76
   1  -5   7   30.13    1.19
   1   5  -7   34.66    1.20
  -7   1   5   29.88    2.52
  -1  -5  -7   35.03    1.18
   1  -7  -5   34.05    1.18
  -7  -5   1   34.63    2.27
   5  -1  -7   32.77    1.18
  -1  -7   5   32.94    1.20
  -1   5   7   32.91    1.47
   5   1   7   32.33    2.47
  -1  -7   5   33.72    2.59
   1  -5   7   32.26    1.41
  -1   7  -5   32.13    1.19
  -1  -7   5   31.93    1.46
  -7   1   5   32.90    1.53
  -5  -1   7   31.39    1.54
  -5  -1   7   35.53    2.91
   1  -7  -5   34.12    1.46
  -5   7   1   33.30    2.32
  -1  -5  -7   34.66    1.44
  -7  -5   1   33.18    1.51
   5  -1   7   28.63    2.49
  -1  -5   7   36.19    3.01
   7   1   5   29.53    2.26
  -1   5  -7   33.86    1.20
   7  -5   1   33.68    1.18
   7   5  -1   32.57    1.18
  -1  -5   7   34.31    1.50
   1  -7   5   33.43    1.40
   1  -7   5   31.88    2.58
   1  -7   5   33.28    1.19
   1   7  -5   34.12    1.19
  -1  -5   7   30.46    1.19
   1  -5  -7   34.18    1.18
   7  -5   1   33.45    2.50
  -7  -1   5   32.76    1.55
  -5  -7   1   32.86    1.51
  -1  -7  -5   33.96    1.44
  -1  -7  -5   33.59    1.18
  -7  -1   5   30.80    2.62
   7  -1  -5   32.85    1.19
  -5   1   7   32.63    1.53
  -5   1   7   33.22    2.80
   5  -7  -1   33.40    1.17
   5  -7  -1   33.81    1.38
  -7   5   1   29.30    1.39
  -7   5   1   32.66    2.45
   5   1  -7   33.81    1.19
   1  -5  -7   32.75    1.44
  -7  -5  -1   34.23    1.45
  -5   7   3   40.56    1.77
   7  -3   5   43.64    1.50
   7   3  -5   42.73    1.51
   3  -7  -5   42.16    1.79
   7  -3   5   40.21    3.03
   5   7  -3   42.90    1.50
   5  -7   3   44.50    1.51
   3   5  -7   44.19    1.52
  -3  -7   5   41.60    1.85
   5  -7   3   41.60    2.96
   7  -5  -3   42.58    1.49
   3  -5   7   42.37    3.28
   3  -5   7   39.30    1.51
   5  -3  -7   43.11    1.50
  -3   5   7   41.43    1.84
  -3   5   7   42.70    3.04
  -7   3   5   43.53    3.10
  -5   7   3   41.13    2.70
  -3  -5  -7   42.64    1.73
  -3  -5  -7   42.57    1.50
  -5  -3   7   38.80    1.50
  -5   3  -7   43.19    1.51
  -5  -3   7   42.98    1.92
  -3  -7   5   42.12    1.51
   5  -3  -7   45.91    1.51
  -7   3   5   40.47    1.84
   3  -7  -5   45.05    1.50
  -5  -7  -3   39.76    1.75
  -3  -7   5   44.99    3.14
  -7  -5   3   43.12    2.83
  -3   7  -5   41.65    1.51
  -7  -5   3   42.62    1.89
  -5  -3   7   39.52    3.19
   7   3   5   43.33    2.64
  -7   5   3   39.43    2.87
  -3  -5   7   41.10    1.51
  -7   5   3   41.23    1.79
  -3  -5   7   44.11    1.89
  -3  -5   7   41.21    3.30
  -5   3   7   41.16    1.83
  -5   3   7   40.95    3.13
  -5   3   7   41.46    1.50
  -3  -7  -5   42.68    1.76
  -3  -7  -5   42.58    1.50
   5  -7  -3   41.58    1.74
  -5  -7   3   40.59    1.86
  -7  -3   5   43.84    1.92
  -7  -5  -3   42.65    1.71
   7  -3  -5   42.36    1.50
   3  -5  -7   43.50    1.83
   3  -7   5   42.45    3.09
   3  -7   5   43.30    1.51
   3   7  -5   42.53    1.51
  -3   5  -7   40.85    1.51
  -7  -3   5   44.59    3.13
   5  -3   7   37.68    3.04
   5   3  -7   42.75    1.51
   3  -5  -7   44.69    1.50
   7  -5   3   40.51    2.97
   7  -5   3   43.87    1.50
   7   5  -3   42.69    1.50
  -7  -5   5   32.34    1.59
  -7  -5   5   32.40    2.63
  -7   5   5   32.07    1.51
  -7   5   5   33.40    2.73
  -5  -7  -5   32.63    1.44
  -5  -7  -5   33.35    1.18
  -5  -7   5   30.96    1.56
  -5  -7   5   33.45    1.20
  -5  -5  -7   33.43    1.40
  -5  -5   7   33.73    1.61
  -5  -5   7   37.79    3.00
  -5  -5   7   31.62    1.20
  -5   5  -7   32.21    1.20
  -5   5   7   33.06    1.55
  -5   5   7   31.09    2.67
  -5   7  -5   31.09    1.20
  -5   7   5   30.79    1.50
   5  -7  -5   30.96    1.47
   5  -7  -5   35.24    1.19
   5  -7   5   31.22    2.70
   5  -7   5   33.03    1.20
   5  -7   5   35.11    1.27
   5  -7   5   35.60    1.19
   5  -5  -7   34.97    1.19
   5  -5   7   35.01    1.26
   5   5  -7   32.67    1.20
   5   7  -5   33.65    1.19
   5   7  -5   33.82    1.25
   7  -5  -5   32.61    1.18
   7  -5   5   32.97    1.20
   7  -5   5   33.55    1.26
   7   5  -5   33.71    1.20
   7   5  -5   32.62    1.24
  -7  -7  -1   50.78    2.11
  -7  -7   1   48.17    2.15
  -7  -1   7   52.35    2.24
  -7   1   7   50.86    2.20
  -7   7   1   47.32    3.24
  -1  -7  -7   48.00    2.06
  -1  -7  -7   52.11    1.78
  -1  -7   7   49.84    2.11
  -1  -7   7   57.06    3.93
  -1  -7   7   47.89    1.79
  -1   7  -7   48.62    1.79
   1  -7  -7   49.97    2.09
   1  -7  -7   51.68    1.78
   1  -7   7   52.02    3.75
   1  -7   7   52.43    1.85
   1  -7   7   47.41    1.79
   1   7  -7   51.02    1.79
   1   7  -7   53.22    1.86
   7  -7  -1   49.87    1.77
   7  -7   1   49.72    1.77
   7  -7   1   53.92    1.86
   7  -1  -7   48.42    1.78
   7  -1   7   52.97    1.78
   7   1  -7   50.37    1.79
   7   1   7   47.85    3.22
   7   7  -1   49.56    1.84
   7   7   1   44.09    1.82
  -7  -7  -3    9.36    0.62
  -7  -7   3   10.29    0.72
  -7  -3   7   10.50    0.77
  -7   3   7   10.86    0.73
  -7   7   3    9.17    0.63
  -7   7   3   10.19    1.38
  -3  -7  -7    9.23    0.60
  -3  -7  -7    9.77    0.39
  -3  -7   7   10.33    0.70
  -3  -7   7   10.46    1.64
  -3  -7   7   10.32    0.41
  -3   7  -7    9.64    0.40
  -3   7   7    9.55    0.67
   3  -7  -7    8.95    0.64
   3  -7  -7    9.94    0.39
   3  -7   7    9.89    0.46
   3  -7   7    9.21    0.40
   3   7  -7    9.29    0.40
   3   7  -7   10.18    0.47
   7  -7  -3    9.32    0.38
   7  -7   3    9.84    0.39
   7  -7   3    9.63    0.46
   7  -3  -7    9.91    0.39
   7  -3   7   10.25    0.40
   7  -3   7   10.38    0.44
   7   3  -7    9.68    0.40
   7   7  -3    9.60    0.39
   7   7  -3    9.25    0.44
  -7  -7  -5   22.06    1.04
  -7  -7  -5   20.26    0.79
  -7  -7   5   20.55    1.17
  -7  -5   7   21.69    1.22
  -7   5   7   19.15    1.11
  -7   5   7   21.04    0.78
  -7   7   5   20.26    1.11
  -5  -7  -7   20.88    1.02
  -5  -7  -7   20.93    0.78
  -5  -7  -7   19.85    0.79
  -5  -7   7   20.66    1.16
  -5  -7   7   21.29    0.79
  -5   7  -7   20.19    0.79
  -5   7   7   22.19    1.17
   5  -7  -7   21.95    0.78
   5  -7   7   21.62    0.86
   5  -7   7   21.30    0.79
   5   7  -7   20.57    0.79
   5   7  -7   21.79    0.85
   7  -7   5   20.75    0.79
   7  -7   5   21.17    0.86
   7  -5  -7   22.49    0.78
   7  -5  -7   21.53    0.80
   7  -5   7   21.01    0.79
   7  -5   7   21.65    0.85
   7   5  -7   22.02    0.79
   7   5  -7   20.66    0.83
   7   7  -5   21.44    0.79
   7   7  -5   20.98    0.84
  -7  -7  -7   40.52    1.56
  -7  -7   7   45.71    2.05
  -7  -7   7   44.81    1.55
  -7  -7   7   44.41    1.56
  -7  -7   7   41.77    1.51
  -7   7  -7   42.41    1.56
  -7   7   7   44.73    2.00
   7  -7  -7   46.58    1.55
   7  -7  -7   44.20    1.57
   7  -7   7   42.29    1.64
   7   7  -7   42.12    1.56
   7   7  -7   43.01    1.61
  -8   0   0  614.37   21.93
  -8   0   0  599.91   23.28
   0  -8   0  620.69   21.98
   0   0   8  664.34   22.00
   0   0   8  651.74   24.19
   8   0   0  634.76   21.85
  -8   0   2   12.11    0.73
  -8   0   2   13.23    1.43
   0  -2   8   12.57    0.70
   0  -2   8   12.84    1.70
   0   2  -8   11.80    0.47
   0   2   8   12.61    0.70
   0   2   8   11.82    1.46
   2  -8   0   12.00    0.65
   8   0  -2   12.86    0.47
   8   0   2   12.63    0.46
   2   0  -8   11.67    0.46
   2   0   8   13.37    0.66
   2   0   8   10.24    1.42
   8  -2   0   12.06    0.46
   8   2   0   12.15    0.46
  -2   0   8   12.63    0.73
  -2   0   8   12.28    1.64
   0  -8  -2   12.84    0.69
   0  -8   2   12.47    0.69
   0  -8   2   12.64    0.47
  -8  -2   0   12.59    1.30
  -8   2   0   10.63    1.30
  -8  -2   0   11.95    0.67
   2  -2   8   15.26    1.82
   2   2  -8   16.54    0.62
   2  -8   2   17.33    0.62
   2   2   8   14.81    1.63
  -2   2   8   18.79    0.91
  -8   2   2   15.20    0.85
  -8   2   2   15.27    1.60
  -2  -8  -2   15.41    0.85
  -2  -8   2   16.22    0.87
  -2  -8   2   16.62    0.62
  -2  -2   8   17.90    0.92
  -2  -2   8   19.04    2.14
  -2  -2   8   15.65    0.62
  -2   2  -8   17.30    0.62
   8   2   2   16.50    0.61
  -8  -2  -2   15.73    1.45
  -8  -2   2   17.51    0.93
  -8  -2   2   15.59    1.59
   8  -2   2   16.55    0.61
   2   2   8   18.57    0.84
   2  -8   2   16.21    0.80
   2  -8   2   17.37    1.53
  -2   2   8   16.95    1.86
  -2   2   8   16.75    0.62
  -2   8  -2   15.86    0.61
   2  -8  -2   15.99    0.83
   2  -8  -2   16.84    0.61
   8  -2  -2   16.64    0.61
   8  -2   2   15.60    1.63
   8   2  -2   17.04    0.62
   4   0  -8  359.78   12.94
   0  -8   4  383.73   13.18
   0  -8   4  375.02   14.86
   0  -8   4  366.98   12.93
   0   8  -4  375.19   12.95
  -8  -4   0  373.51   13.20
  -8  -4   0  359.93   14.31
  -8   4   0  337.60   14.75
  -4   0  -8  408.19   12.93
  -4   0   8  400.33   13.32
  -4   0   8  383.66   15.74
  -4   0   8  362.02   12.95
   0  -8  -4  386.66   13.20
   0  -8  -4  397.34   12.98
  -8   0   4  364.40   13.29
   0  -4   8  384.32   13.22
   0  -4   8  400.05   15.90
   0  -4   8  329.97   12.89
   0   4  -8  379.99   12.98
   0   4   8  393.19   13.23
   0   4   8  360.65   14.69
   4  -8   0  365.09   13.10
   4  -8   0  387.61   12.96
   8   0  -4  404.96   13.03
   8   0   4  339.18   14.62
   8   0   4  393.59   12.99
   8  -4   0  376.35   12.99
   8   4   0  392.23   12.98
  -8   0   4  319.55   14.76
  -4  -8   0  367.79   13.24
   0  -4  -8  390.67   13.21
   0  -4  -8  390.00   12.95
   4   0   8  330.50   15.04
  -2  -8   4   15.86    0.61
  -8   2   4   15.23    0.89
  -8   2   4   16.39    1.77
  -4  -8  -2   16.19    0.87
  -4  -8  -2   16.67    0.60
   8  -4  -2   16.94    0.60
   2  -8  -4   15.57    0.84
   2  -8  -4   16.46    0.60
  -2  -4  -8   16.15    0.60
  -8  -4   2   16.03    0.91
  -2   8  -4   15.59    0.60
   4  -2  -8   14.74    0.60
  -2   4   8   16.48    0.89
  -2   4   8   15.45    1.72
  -4  -2   8   14.78    0.61
   2  -4   8   13.44    1.78
   2  -4   8   14.66    0.61
   2   4  -8   15.95    0.61
  -4  -2   8   16.66    0.94
  -2  -4  -8   16.82    0.82
   4   2   8   15.45    1.68
   4  -8   2   16.22    1.58
   4  -8   2   17.72    0.60
   4  -8   2   17.85    0.60
  -4   2  -8   16.33    0.61
   8  -2   4   13.87    1.61
   8  -2   4   16.00    0.60
   8   2  -4   15.56    0.61
  -2  -8   4   16.34    0.89
  -4  -2   8   16.02    1.99
   2   4   8   16.27    0.83
   2  -4  -8   16.15    0.61
   8   2   4   14.80    1.49
  -4   2   8   16.10    0.90
  -4   2   8   16.00    1.92
  -4   2   8   15.97    0.60
   4  -8  -2   17.38    0.84
   4  -8  -2   17.57    0.60
   8  -2  -4   15.51    0.60
  -8  -2   4   15.94    1.74
  -2  -4   8   14.70    0.61
  -8   4   2   14.71    1.65
   8   2   4   17.34    0.59
   4   2  -8   15.50    0.60
  -4  -8   2   16.74    0.92
  -4  -8   2   16.32    0.61
  -2  -8  -4   14.97    0.83
  -8  -4  -2   16.77    0.80
  -2  -4   8   17.45    0.94
  -2  -4   8   17.81    2.11
  -8   4   2   15.61    0.85
  -8  -2   4   16.46    0.96
   8  -4   2   16.04    1.72
   8  -4   2   17.10    0.60
   8   4  -2   16.57    0.61
   2   8  -4   15.55    0.61
  -2  -8  -4   16.25    0.60
   4  -2   8   13.32    1.76
  -2   4  -8   16.14    0.61
   2  -8   4   16.87    0.61
   2  -8   4   16.30    0.78
   2  -8   4   16.10    1.71
  -4  -8  -4  425.76   14.29
  -4   8  -4  384.77   14.28
  -4  -8  -4  417.30   14.59
  -8   4   4  362.39   14.62
   4   8  -4  422.30   14.57
   4  -8  -4  406.24   14.59
   4  -4  -8  431.26   14.38
   4  -4   8  381.47   14.28
   4   4  -8  411.60   14.31
  -4   4   8  396.48   14.31
  -8  -4   4  407.51   14.74
  -8  -4   4  381.15   16.30
   8  -4  -4  409.54   14.41
   8  -4   4  425.18   14.37
   8  -4   4  407.19   14.45
   8   4  -4  433.14   14.39
   8   4  -4  390.64   14.50
  -4   4  -8  414.60   14.39
  -4   4   8  432.99   14.72
   4   4   8  438.17   14.30
   4   8  -4  432.41   14.28
  -4   4   8  385.15   16.71
  -4  -8   4  417.81   14.36
  -4  -4  -8  435.90   14.51
  -4  -4  -8  426.68   14.33
   4  -8  -4  434.60   14.36
   4  -8   4  401.13   16.45
   4  -8   4  438.60   14.45
   4  -8   4  461.18   14.39
  -4  -4   8  403.20   14.36
  -4  -8   4  426.19   14.72
  -4  -4   8  416.32   14.76
   0  -8  -6   21.43    1.05
  -6   0   8   18.82    1.11
  -6   0   8   19.88    0.76
   0  -6  -8   20.09    1.03
   0  -6  -8   20.11    0.76
   0  -6   8   21.29    1.04
   0  -6   8   19.29    0.77
   0   6  -8   21.13    0.78
   0   6   8   21.22    1.07
   6  -8   0   20.44    0.75
   6  -8   0   24.35    0.85
   6  -8   0   21.98    0.75
   6   8   0   20.31    0.81
   8   0  -6   20.94    0.77
   8   0   6   18.42    1.86
   8   0   6   21.83    0.76
   0  -8   6   21.84    0.84
   0  -8   6   19.38    0.77
   0   8  -6   21.27    0.77
  -6   8   0   19.13    1.85
   0  -8  -6   21.09    0.76
   0  -8   6   21.05    1.03
  -8   0   6   19.34    1.12
  -6  -8   0   20.14    1.08
  -8  -6   0   19.45    1.06
  -6   0  -8   21.59    0.76
   8  -6   0   20.72    0.76
   8  -6   0   21.04    0.83
   8   6   0   18.18    0.82
   6   0   8   19.41    2.03
   6   0  -8   20.18    0.77
   0   8  -6   20.84    0.84
  -6   2  -8   11.72    0.44
  -6  -2   8   11.19    0.45
  -2  -8   6   10.53    0.45
  -8   2   6   11.23    0.77
  -6  -8  -2   11.54    0.71
  -2   6   8   11.56    0.74
   2  -8  -6   11.03    0.70
   2  -8  -6   11.12    0.44
   2  -6   8   11.19    0.49
   2  -6   8   10.61    0.45
   2   6  -8   11.67    0.46
   2   6  -8   12.09    0.51
  -6   8   2   10.28    0.66
  -2  -6  -8   11.10    0.67
  -2  -6  -8   11.66    0.44
   6  -8   2   11.76    0.52
   8   6   2   10.54    0.49
   8  -6  -2   12.52    0.51
   8  -2   6   11.53    0.44
  -8  -6   2   10.63    0.74
  -6  -2   8   11.44    0.79
   6  -8   2   11.08    0.44
  -2  -8   6   11.21    0.73
   6   8  -2   10.98    0.50
   6  -2  -8   11.43    0.44
  -2   8  -6   10.94    0.45
   6   2   8   10.66    1.38
   8  -6  -2   10.59    0.44
   8  -2   6   11.16    0.49
   8   2  -6   11.78    0.45
   6  -8   2   10.72    1.43
   6   2  -8   11.32    0.45
  -8  -2   6   10.95    0.79
   2   8  -6   10.95    0.45
  -6   2   8   11.26    0.44
  -2  -8  -6   10.23    0.66
  -2  -8  -6   11.25    0.44
  -6  -8   2   10.29    0.74
  -2   6  -8   11.11    0.45
   8  -6   2   10.88    0.44
   2  -6  -8   12.22    0.73
   6  -8  -2   11.00    0.43
   6  -8  -2   12.11    0.43
   2  -8   6   11.63    0.51
   2  -8   6   10.63    0.45
   8   6  -2   10.81    0.50
   2   8  -6   11.84    0.53
   8  -2  -6   10.89    0.44
   2  -6  -8   11.66    0.44
  -6  -8   2   11.44    0.44
  -2  -6   8   10.87    0.45
   8   2   6    9.98    1.28
   6  -8  -2   10.25    0.62
   8  -6   2   11.12    0.50
   8   6  -2   11.20    0.44
  -2  -6   8   13.09    0.77
  -6   2   8   12.66    0.80
   2  -8   6   12.27    1.63
  -8  -6  -2   10.85    0.66
   8   4  -6    6.50    0.33
   4  -8  -6    6.50    0.52
   4  -8  -6    7.35    0.29
   6  -8   4    6.63    0.29
   6  -8   4    6.75    0.36
   6   8  -4    6.35    0.28
   6   8  -4    6.61    0.34
   6  -4  -8    7.21    0.29
   8  -4   6    7.24    0.30
   8  -4   6    6.92    0.34
   8   4  -6    6.89    0.30
  -8  -6   4    6.20    0.57
  -6   8   4    5.82    0.50
  -4  -6  -8    7.13    0.49
  -4  -6  -8    6.82    0.29
  -6   4  -8    6.59    0.29
  -4   8  -6    6.36    0.29
  -6  -4   8    7.23    0.62
  -4   6   8    6.76    0.56
  -4  -8   6    6.87    0.30
   4  -6   8    6.95    0.35
   4  -6   8    5.91    0.29
   4   6  -8    6.76    0.30
   4   6  -8    6.86    0.34
  -4  -8   6    7.13    0.58
  -8   4   6    7.01    0.59
  -6  -8  -4    7.24    0.53
  -6  -4   8    6.40    0.29
   8  -6  -4    6.55    0.28
  -8   6   4    6.25    0.53
  -4   6  -8    6.39    0.30
   4  -6  -8    7.06    0.29
  -4  -6   8    6.49    0.57
  -6   4   8    7.10    0.57
  -6   4   8    6.49    0.29
  -4  -8  -6    6.78    0.51
  -4  -8  -6    6.96    0.28
  -8  -4   6    6.98    0.61
  -6  -8   4    6.61    0.58
  -4  -6   8    6.34    0.30
  -4   8   6    7.61    0.58
   6  -8  -4    6.45    0.50
   6  -8  -4    6.75    0.28
   4  -8   6    7.55    0.37
   4  -8   6    6.68    0.29
   4   8  -6    6.87    0.30
   4   8  -6    6.81    0.36
   8  -4  -6    6.57    0.28
   6  -4   8    6.89    0.34
   6   4  -8    6.68    0.29
   6   4  -8    6.65    0.32
  -6  -8   4    6.40    0.29
   8  -6   4    6.60    0.29
   8  -6   4    6.31    0.35
   8   6  -4    6.71    0.29
   8   6  -4    6.33    0.34
  -8  -6  -6   13.39    0.53
  -8  -6   6   12.10    0.87
  -8   6   6   13.48    0.85
  -6  -8  -6   13.14    0.77
  -6  -8  -6   12.49    0.53
  -6  -8   6   13.82    0.89
  -6  -8   6   12.94    0.53
  -6  -6  -8   12.97    0.52
  -6  -6   8   14.65    0.93
  -6  -6   8   13.96    0.54
  -6   6  -8   13.52    0.54
  -6   6   8   15.16    0.91
  -6   8  -6   12.85    0.53
  -6   8   6   12.52    0.84
   6  -8  -6   14.25    0.52
   6  -8  -6   13.25    0.54
   6  -8   6   13.53    0.61
   6  -6  -8   14.56    0.53
   6  -6  -8   14.02    0.55
   6  -6   8   13.64    0.60
   6   6  -8   14.08    0.53
   6   6  -8   13.84    0.57
   6   8  -6   13.47    0.53
   6   8  -6   13.40    0.59
   8  -6  -6   13.28    0.51
   8  -6  -6   13.45    0.54
   8  -6   6   13.17    0.53
   8  -6   6   13.50    0.60
   8   6  -6   13.42    0.53
   8   6  -6   13.15    0.58
  -8  -8   0  303.64   11.02
  -8  -8   0  301.70   10.58
  -8   0   8  312.39   11.11
   0  -8  -8  303.78   10.94
   0  -8  -8  313.29   10.57
   0  -8  -8  290.62   10.58
   0  -8   8  316.63   10.65
   0  -8   8  294.95   10.58
   0   8  -8  297.59   10.58
   0   8  -8  327.45   10.67
   8  -8   0  296.17   10.56
   8  -8   0  326.21   10.66
   8   0  -8  300.69   10.58
   8   0  -8  308.82   10.59
   8   8   0  298.05   10.64
  -8  -8  -2   10.15    0.67
  -8  -8  -2    9.86    0.39
  -8  -8   2    9.55    0.72
  -8  -2   8    8.81    0.74
  -8   2   8    9.61    0.73
  -2  -8  -8    9.43    0.64
  -2  -8  -8    9.06    0.38
  -2  -8  -8    8.78    0.39
  -2  -8   8    9.57    0.67
  -2  -8   8    8.79    0.39
  -2   8  -8    8.86    0.40
  -2   8   8    9.80    0.70
   2  -8  -8    8.89    0.64
   2  -8  -8    9.35    0.38
   2  -8  -8    8.76    0.39
   2  -8   8    9.72    0.45
   2  -8   8    8.95    0.39
   2   8  -8    9.37    0.40
   2   8  -8    9.68    0.47
   8  -8  -2    9.80    0.38
   8  -8   2    9.78    0.38
   8  -8   2    9.96    0.46
   8  -2  -8    9.09    0.39
   8  -2  -8    9.33    0.40
   8  -2   8    9.73    0.39
   8   2  -8    9.10    0.39
   8   2  -8    9.03    0.39
   8   8  -2    9.60    0.45
   8   8   2    8.29    0.43
  -8  -8  -4  224.57    7.87
  -8  -8  -4  210.40    7.52
  -8  -8   4  214.18    8.02
  -8  -8   4  222.31    7.51
  -8  -4  -8  200.72    7.50
  -8  -4   8  233.21    8.12
  -8  -4   8  213.76    7.50
  -8   4  -8  217.00    7.51
  -8   4   8  217.19    8.02
  -4  -8  -8  215.46    7.84
  -4  -8  -8  214.23    7.50
  -4  -8  -8  200.28    7.51
  -4  -8   8  227.55    8.01
  -4  -8   8  210.09    7.52
  -4   8  -8  208.52    7.52
  -4   8   8  217.89    8.01
   4  -8  -8  207.24    7.93
   4  -8  -8  227.30    7.50
   4  -8  -8  220.35    7.51
   4  -8  -8  219.08    7.52
   4  -8   8  221.26    7.60
   4  -8   8  211.65    7.52
   4   8  -8  214.27    7.52
   4   8  -8  231.56    7.59
   8  -8   4  214.32    7.51
   8  -8   4  208.35    7.59
   8  -4  -8  215.36    7.50
   8  -4  -8  218.24    7.53
   8  -4   8  216.19    7.51
   8  -4   8  220.53    7.58
   8   4  -8  220.62    7.52
   8   4  -8  218.93    7.56
   8   4  -8  229.40    7.52
   8   8  -4  213.17    7.50
   8   8  -4  217.84    7.58
  -8  -8  -6   11.29    0.47
  -8  -8   6   12.05    0.46
  -8  -8   6   11.66    0.42
  -8  -6  -8   10.91    0.46
  -8  -6   8   10.97    0.46
  -8  -6   8   10.79    0.42
  -8   6  -8   11.53    0.47
  -8   8   6   12.43    0.83
  -6  -8  -8   10.95    0.47
  -6  -8   8   11.75    0.46
  -6  -8   8   12.06    0.48
  -6  -8   8   11.08    0.42
  -6   8  -8   11.15    0.48
   6  -8  -8   11.70    0.46
   6  -8  -8   11.86    0.46
   6  -8  -8   10.87    0.48
   6  -8  -8   11.93    0.42
   6  -8   8   11.11    0.54
   6   8  -8   11.41    0.47
   6   8  -8   10.99    0.52
   8  -8  -6   12.69    0.45
   8  -8  -6   11.97    0.48
   8  -8   6   11.20    0.47
   8  -8   6   11.32    0.54
   8  -6  -8   12.07    0.46
   8  -6  -8   11.61    0.48
   8  -6  -8   11.98    0.42
   8  -6   8   11.62    0.54
   8   6  -8   11.26    0.47
   8   6  -8   11.39    0.51
   8   8  -6   11.89    0.47
   8   8  -6   11.57    0.52
  -8  -8  -8  168.85    6.06
  -8  -8   8  177.09    6.05
  -8  -8   8  176.24    6.00
  -8   8  -8  166.94    6.06
   8  -8  -8  180.49    6.04
   8  -8  -8  172.53    6.07
   8  -8  -8  183.19    6.00
   8  -8   8  166.93    6.15
   8   8  -8  169.66    6.05
   8   8  -8  180.23    6.12
  -9  -1  -1   33.83    2.40
  -9  -1   1   31.23    1.46
  -9  -1   1   31.84    2.41
  -9   1  -1   33.99    2.52
  -9   1   1   31.47    2.45
  -1  -9  -1   30.54    1.46
  -1  -9  -1   34.19    1.18
  -1  -9   1   31.52    1.47
  -1  -9   1   33.50    1.19
  -1  -1   9   33.82    1.49
  -1  -1   9   36.74    3.07
  -1  -1   9   31.33    1.19
  -1   1  -9   33.75    1.19
  -1   1   9   32.60    1.47
  -1   1   9   32.25    2.80
  -1   1   9   31.29    1.19
   1  -9  -1   31.68    1.44
   1  -9  -1   34.50    1.18
   1  -9   1   32.36    1.44
   1  -9   1   34.53    1.19
   1  -1  -9   33.00    1.18
   1  -1   9   34.77    1.44
   1  -1   9   34.41    2.94
   1  -1   9   31.57    1.19
   1   1  -9   34.51    1.19
   1   1   9   34.51    1.43
   1   1   9   32.27    2.75
   1   1   9   32.72    1.19
   9  -1  -1   32.11    1.18
   9  -1   1   33.11    1.18
   9   1  -1   33.24    1.18
   9   1   1   32.71    1.18
   3   1   9   32.98    2.82
   3   1   9   38.00    1.35
  -9   1   3   36.46    1.68
  -3  -9  -1   36.66    1.66
  -3  -9  -1   39.60    1.35
  -9  -3   1   37.83    1.67
  -9  -3   1   38.84    2.68
  -3  -1   9   41.63    1.74
  -1  -3  -9   37.88    1.35
   9   3   1   38.03    1.34
   9   3   1   36.40    1.40
   9  -1   3   37.82    1.40
  -1   3   9   39.41    1.68
  -1   3   9   38.22    2.95
  -1   3   9   37.24    1.35
  -1  -9   3   37.32    1.36
   1  -3   9   33.58    1.35
   1   3  -9   38.17    1.36
  -1   9  -3   35.62    1.34
   1  -9  -3   37.77    1.64
   1  -9  -3   37.70    1.34
   9  -3  -1   37.44    1.34
  -3  -1   9   34.53    3.18
   3  -9   1   38.12    1.58
   3  -9   1   40.77    1.35
  -3   1  -9   39.75    1.35
   9  -1   3   36.53    2.76
   9  -1   3   38.79    1.34
   3  -1  -9   37.62    1.34
   9   1  -3   39.88    1.36
  -3  -1   9   36.51    1.35
  -1  -9   3   37.96    1.66
   3  -9  -1   37.42    1.60
   3  -9  -1   39.95    1.34
  -1   3  -9   39.18    1.36
   9   3  -1   38.45    1.35
   9   3  -1   36.29    1.41
  -9  -1   3   33.73    2.69
   1  -3  -9   39.09    1.35
   1   3   9   37.53    1.62
   1   3   9   36.81    2.84
   1   3   9   37.96    1.35
   1  -9   3   35.15    1.58
   1  -9   3   40.66    1.43
   1  -9   3   38.10    1.35
   1   9  -3   37.20    1.34
   9  -3   1   37.62    1.35
   9  -3   1   38.13    1.40
   9  -1  -3   38.23    1.35
   3  -1   9   36.57    1.35
   3   1  -9   37.53    1.34
   9   1   3   38.49    1.34
  -1  -9  -3   35.77    1.63
  -1  -9  -3   38.74    1.34
  -1  -3   9   38.22    1.67
  -1  -3   9   33.52    1.35
  -3  -9   1   35.84    1.67
  -3  -9   1   38.71    1.35
  -3   9  -1   35.00    1.33
   1   9  -3   39.57    1.44
  -9  -1   3   37.62    1.72
   3  -1   9   35.18    3.01
  -3   1   9   40.70    1.72
  -3   1   9   37.39    3.18
  -3   1   9   37.02    1.35
  -9  -3  -1   37.34    2.51
  -3   3   9   28.55    1.34
  -3   3   9   26.72    2.59
  -3   3   9   27.53    1.00
   3   3  -9   27.36    1.00
   3   3   9   29.02    1.25
   3   3   9   27.65    1.00
   3   9  -3   27.60    1.08
   9  -3  -3   27.32    0.99
   9  -3   3   27.62    0.99
   9  -3   3   27.28    1.05
   3  -9  -3   27.33    1.27
   3  -9  -3   28.20    0.99
   3  -9   3   30.46    1.09
   9   3  -3   24.92    1.06
   9   3   3   26.81    1.04
  -9   3   3   26.95    1.32
  -3  -9  -3   26.25    1.28
  -3  -9  -3   27.62    0.99
  -3  -9   3   25.79    1.32
  -3  -9   3   28.31    1.01
  -3  -3   9   29.61    1.38
  -3  -3   9   25.86    1.00
  -3   9  -3   25.88    0.99
  -9  -3   3   26.47    1.35
  -9  -3   3   26.99    2.33
   9   3  -3   27.20    1.00
   3  -3   9   23.92    0.99
   3  -3  -9   28.94    1.00
   3  -9   3   28.58    1.00
  -3   3  -9   28.08    1.00
   9  -1   5   29.37    1.04
  -1   5   9   29.60    1.39
   9   5   1   27.38    1.10
   5   9  -1   28.68    1.10
   9  -5  -1   29.38    1.10
   5  -9   1   30.91    1.03
   5   1   9   26.71    2.44
  -1  -5  -9   29.05    1.33
  -1  -5  -9   28.49    1.04
   9  -5  -1   28.69    1.04
   1  -9  -5   26.73    1.32
   1  -9  -5   28.97    1.04
   9  -1   5   29.17    1.09
   9   1  -5   28.19    1.05
  -5  -1   9   27.40    1.04
  -5   1  -9   30.56    1.04
   1  -5   9   26.99    1.05
   1   5  -9   28.07    1.05
   5  -9   1   29.66    1.03
  -5  -9  -1   28.44    1.03
   9   1  -5   27.25    1.10
   5  -1  -9   28.01    1.04
  -9  -5   1   27.87    1.38
  -5  -1   9   29.83    1.45
  -5  -9  -1   27.07    1.36
  -1  -9   5   27.95    1.05
  -9   1   5   28.30    1.43
  -1  -9   5   27.12    1.34
  -1   9  -5   27.23    1.04
   5  -9   1   32.34    1.14
  -5   1   9   28.13    1.04
   1   9  -5   28.77    1.05
   5   1  -9   28.34    1.04
   9  -1  -5   28.42    1.05
  -5   1   9   28.43    1.42
   1  -9   5   28.33    1.05
  -1   5  -9   28.70    1.05
  -5  -9   1   27.71    1.39
   1  -5  -9   28.74    1.04
   1   9  -5   30.18    1.14
  -5  -9   1   28.72    1.04
   1   5   9   31.65    1.37
   5  -9  -1   27.73    1.26
   5  -9  -1   30.30    1.03
  -1  -9  -5   27.37    1.33
  -1  -9  -5   28.77    1.04
   9   5  -1   27.22    1.04
   9   5  -1   26.02    1.10
   5   9   1   27.57    1.09
   9  -5   1   29.03    1.11
   9  -5   1   29.32    1.04
   1  -9   5   27.70    1.28
   1  -9   5   29.72    1.12
  -9  -1   5   28.37    1.46
   9   1   5   28.83    2.34
   9   1   5   30.66    1.03
   9   1   5   29.22    1.09
  -1  -5   9   27.07    1.05
  -9  -5  -1   28.90    1.31
  -1  -5   9   29.18    1.38
   5  -9   3   28.18    0.95
  -5  -3   9   27.13    1.39
  -9  -5   3   26.52    1.35
  -5   3  -9   26.22    0.96
  -9   3   5   24.59    1.32
  -5  -9  -3   26.47    1.28
  -5  -9  -3   26.78    0.95
  -3  -9   5   26.00    0.97
  -3  -9   5   25.15    1.30
  -3  -5  -9   25.79    1.20
  -3  -5  -9   25.27    0.96
   3  -9  -5   25.90    1.27
   3  -9  -5   27.22    0.95
   9   3  -5   27.16    0.97
  -3   5   9   26.38    1.33
  -3   5   9   25.84    0.96
   9  -5  -3   27.60    1.02
   3  -5   9   24.42    0.96
   3   5  -9   25.18    0.97
  -5  -3   9   23.70    0.96
   9   3  -5   24.34    1.01
   9   5   3   24.77    1.01
   9  -5  -3   26.11    0.95
   5  -9   3   30.11    0.97
   5  -9   3   27.26    1.05
  -3   9  -5   24.88    0.96
   5   9  -3   26.69    1.03
   9  -3   5   26.55    1.02
   9  -3   5   27.15    0.96
   3   5   9   28.66    1.25
  -3   5  -9   25.43    0.97
   3   5   9   27.27    0.96
   9   3   5   25.97    1.00
   3  -5  -9   26.70    0.96
   3  -9   5   27.67    1.05
   3  -9   5   26.94    0.97
   3   9  -5   25.64    0.96
   3   9  -5   26.26    1.05
   5  -9  -3   24.98    1.21
   5  -9  -3   27.19    0.95
   9  -3  -5   25.43    0.96
  -9  -3   5   27.03    1.38
  -5   3   9   27.15    1.34
  -5   3   9   25.53    0.96
  -3  -9  -5   25.65    1.25
  -3  -9  -5   26.35    0.95
  -5  -9   3   25.26    0.96
  -5  -9   3   25.05    1.33
   5   3  -9   25.33    0.96
  -3  -5   9   26.53    1.33
   9   5  -3   25.19    1.02
   9  -5   3   26.25    0.96
   9  -5   3   25.57    1.02
   9   5  -3   26.26    0.96
  -3  -5   9   25.02    0.97
   9  -5  -5   22.68    0.86
   9  -5   5   23.58    0.92
   9   5  -5   23.30    0.85
   9   5  -5   22.85    0.91
   9   5  -5   22.57    0.85
   5  -5  -9   24.70    0.86
  -5   9  -5   20.89    0.85
   5  -5   9   23.98    0.91
   9  -5   5   23.27    0.85
   5   9  -5   21.67    0.84
   5   9  -5   22.98    0.92
   9  -5  -5   22.48    0.84
   5   5  -9   22.72    0.85
   5  -5  -9   23.67    0.86
  -9  -5  -5   22.09    0.85
  -9  -5   5   24.35    1.28
  -9  -5   5   23.62    0.86
  -9   5   5   21.87    1.20
  -5  -9  -5   21.81    1.13
  -5  -9  -5   21.87    0.83
  -5  -9  -5   21.48    0.85
  -5  -9   5   21.12    1.21
  -5  -9   5   22.64    0.85
  -5  -5  -9   22.42    0.84
  -5  -5   9   25.56    1.29
  -5  -5   9   21.83    0.85
  -5   5  -9   22.25    0.85
  -5   5   9   23.15    1.23
  -5   5   9   23.32    0.85
   5  -9   5   24.14    0.94
  -5   9   5   21.43    1.17
   5  -9  -5   21.31    1.13
   5  -9  -5   24.11    0.84
   5  -5   9   21.76    0.85
   5  -9   5   24.45    0.85
  -1  -7  -9   22.33    1.16
   9   7   1   21.23    0.94
   7  -9   1   23.99    0.88
   7  -9   1   26.55    0.98
   7   9  -1   23.47    0.94
  -7  -1   9   24.41    1.32
  -7  -1   9   23.25    0.88
  -7   1  -9   25.38    0.88
   9  -1   7   24.51    0.88
   9  -1   7   25.07    0.93
  -1  -9   7   22.76    1.19
  -1  -9   7   23.08    0.90
  -9  -7   1   23.86    0.89
   1  -7   9   22.96    0.89
   1   7  -9   23.30    0.90
   1   7  -9   25.62    0.97
   1  -7   9   24.41    0.94
  -9  -7   1   23.72    1.27
   9   1  -7   24.12    0.89
  -9   1   7   23.22    1.30
  -7  -9  -1   23.45    1.24
  -7  -9  -1   23.17    0.88
   1  -9  -7   22.72    1.20
   1  -9  -7   22.63    0.88
  -1  -7  -9   23.83    0.88
  -1  -7  -9   23.01    0.89
   9   1  -7   24.41    0.90
  -1   9  -7   22.93    0.89
  -1   9  -7   24.56    0.98
  -1   7   9   25.25    1.26
   7  -1  -9   24.72    0.90
   1  -9  -7   22.19    0.89
   9  -7  -1   23.78    0.88
   9  -7  -1   24.48    0.96
   7  -1  -9   23.00    0.88
   1   7   9   25.39    1.24
   1  -7  -9   23.89    0.89
  -9  -7  -1   23.31    0.89
   7  -9  -1   23.63    0.87
   7  -9  -1   27.09    0.98
   7   9   1   22.63    0.94
   7   1  -9   24.35    0.90
  -9  -7  -1   24.31    1.22
  -7   1   9   24.14    1.30
  -7   1   9   23.11    0.88
  -1  -9  -7   22.46    1.18
  -1  -9  -7   23.70    0.88
  -1  -9  -7   22.34    0.89
  -9  -1   7   23.73    1.32
  -1  -7   9   22.38    0.89
  -1   7  -9   23.92    0.90
  -1   7  -9   26.29    0.97
  -7  -9   1   24.80    1.28
   7   1  -9   23.83    0.88
   1  -7  -9   24.60    0.88
   1  -9   7   23.97    0.96
   1  -9   7   23.60    0.90
   1   9  -7   23.65    0.89
   1   9  -7   25.16    0.98
   9  -1  -7   23.30    0.90
   1  -7  -9   24.52    1.22
   9   7  -1   22.94    0.95
   9  -1  -7   23.15    0.89
   9  -7   1   23.97    0.88
   9  -7   1   24.60    0.96
  -9  -7   3   30.66    1.08
  -7  -3   9   31.18    1.57
  -7  -3   9   27.41    1.07
  -7   3  -9   30.38    1.07
   9  -3   7   31.07    1.07
   9  -3   7   29.79    1.13
   9   3  -7   29.59    1.08
   9   3  -7   28.08    1.12
   9   7   3   27.98    1.13
  -9  -3  -7   28.33    1.06
  -3   9  -7   28.49    1.08
   3   7  -9   31.35    1.14
  -9  -7   3   30.17    1.51
   3  -9  -7   31.16    1.43
   3  -9  -7   28.92    1.06
  -3   7   9   29.85    1.48
  -3  -7  -9   29.73    1.36
   9  -7  -3   29.76    1.06
   3  -7   9   28.65    1.13
   3  -7   9   27.39    1.07
   3   7  -9   29.29    1.08
   9   3  -7   29.38    1.08
  -3  -9   7   28.35    1.44
  -3  -9   7   28.39    1.08
   7   9  -3   29.04    1.13
   3  -9  -7   27.63    1.07
   7  -3  -9   29.58    1.07
   7  -3  -9   29.67    1.08
  -3  -7  -9   28.19    1.07
   7  -9   3   28.84    1.07
   7  -9   3   29.62    1.16
  -7  -9  -3   28.24    1.07
  -3  -7  -9   28.14    1.06
  -7  -9  -3   30.05    1.42
  -9   3   7   29.48    1.50
  -9  -3   7   30.60    1.56
  -3  -9  -7   28.91    1.37
  -7   3   9   30.72    1.52
  -3  -9  -7   27.13    1.07
   3  -9   7   30.12    1.15
  -7   3   9   28.35    1.06
  -9  -7  -3   29.11    1.08
  -3  -7   9   31.34    1.48
   3  -9   7   28.01    1.07
   3   9  -7   28.72    1.08
  -7  -9   3   31.24    1.53
   3  -7  -9   29.57    1.07
  -3   7  -9   28.01    1.08
   7   3  -9   28.97    1.07
   7   3  -9   31.19    1.08
   3  -7  -9   29.38    1.08
   3   9  -7   30.43    1.16
  -3  -7   9   28.57    1.08
   9   7  -3   28.90    1.14
  -3  -9  -7   28.06    1.06
   9  -3  -7   29.59    1.07
   9  -3  -7   29.96    1.09
   9  -7   3   28.65    1.07
   9  -7   3   28.27    1.14
   9   7  -3   30.24    1.07
  -3   9   7   30.14    1.48
   9  -5   7   21.70    0.86
   9   5  -7   22.57    0.86
   9   5  -7   23.55    0.91
   9   5  -7   23.43    0.86
   9  -5   7   23.06    0.93
   7   9  -5   23.18    0.85
   7   9  -5   22.49    0.92
  -5   9  -7   20.79    0.86
  -5  -7  -9   22.59    0.86
   9  -7  -5   22.71    0.84
   5  -7   9   22.31    0.92
   5  -7   9   22.59    0.86
   5   7  -9   25.44    0.87
   5   7  -9   23.39    0.91
  -7  -9  -5   23.30    1.17
  -7  -9  -5   21.60    0.86
   7  -9   5   21.53    0.85
   7  -9   5   22.02    0.94
  -7   5  -9   23.19    0.86
  -9  -7   5   24.56    1.31
   7  -5  -9   24.17    0.85
   7  -5  -9   23.42    0.88
   7  -5  -9   24.37    0.81
   9  -7  -5   23.48    0.87
  -7  -5   9   21.94    0.85
  -7  -5   9   22.11    0.86
  -9  -5  -7   21.83    0.85
  -5  -9   7   23.85    0.85
  -5  -9   7   22.79    0.86
  -5  -9   7   21.74    0.81
  -9   5   7   23.14    1.27
  -5  -9   7   24.89    1.29
  -9  -7   5   22.58    0.81
   5  -9  -7   23.35    0.84
   5  -9  -7   23.89    0.85
   5  -9  -7   23.33    0.87
  -7   9   5   21.64    1.21
  -5  -7  -9   21.46    0.85
  -9  -7   5   23.35    0.86
  -7  -5   9   21.80    0.81
   5  -9  -7   23.59    0.81
  -9  -7   5   22.52    0.85
   5  -9  -7   23.20    1.22
   9  -5  -7   22.92    0.88
  -7  -5  -9   21.35    0.85
   5  -7  -9   23.56    0.86
   5  -7  -9   23.23    0.87
  -9  -7  -5   24.19    0.87
  -5  -7   9   23.70    1.28
   7  -9  -5   24.29    0.87
  -7   5   9   22.04    0.85
  -5  -7   9   22.94    0.85
  -5  -9  -7   23.06    0.85
  -5  -9  -7   21.75    0.86
   7  -9  -5   24.37    0.85
  -9  -5   7   22.46    0.85
  -9  -5   7   23.58    0.86
  -9  -5   7   22.15    0.81
   9  -5  -7   23.08    0.85
  -5   9   7   22.67    1.27
  -7   5   9   23.94    1.29
  -7  -9   5   23.05    0.85
  -7  -9   5   22.65    0.81
  -7   9  -5   21.73    0.86
  -5  -9  -7   23.06    1.16
   5  -9   7   22.77    0.94
   5  -9   7   23.14    0.86
   5   9  -7   23.55    0.86
   5   9  -7   23.28    0.93
  -5  -7   9   22.80    0.86
  -5  -7   9   23.13    0.81
  -5   7  -9   23.05    0.87
   7  -5   9   23.77    0.93
   7   5  -9   23.33    0.90
   5  -7  -9   24.36    0.81
   5  -7  -9   24.44    0.85
   9  -7   5   22.87    0.86
   9  -7   5   21.82    0.93
   9   7  -5   22.57    0.85
   9   7  -5   22.57    0.92
  -9  -7  -7   17.30    0.66
  -9  -7   7   16.29    0.64
  -9  -7   7   16.66    0.60
  -7  -9  -7   15.39    0.65
  -7  -9   7   16.73    0.64
  -7  -9   7   18.51    0.66
  -7  -9   7   16.41    0.60
  -7  -7  -9   16.49    0.65
  -7  -7   9   16.57    0.64
  -7  -7   9   16.47    0.65
  -7  -7   9   16.71    0.60
  -7   7  -9   17.65    0.67
  -7   7   9   16.08    0.65
  -7   9  -7   16.40    0.66
   7  -9  -7   17.29    0.64
   7  -9  -7   18.04    0.65
   7  -9  -7   16.47    0.66
   7  -9  -7   17.24    0.60
   7  -9   7   15.65    0.74
   7  -7  -9   18.01    0.65
   7  -7  -9   17.60    0.65
   7  -7  -9   16.83    0.67
   7  -7  -9   17.47    0.60
   7  -7   9   15.78    0.72
   7   7  -9   17.90    0.66
   7   7  -9   17.37    0.70
   7   9  -7   16.78    0.65
   7   9  -7   16.91    0.72
   9  -7  -7   17.21    0.64
   9  -7  -7   16.70    0.67
   9  -7   7   16.51    0.66
   9  -7   7   16.36    0.73
   9   7  -7   16.86    0.65
   9   7  -7   16.87    0.71
  -9  -9  -1   20.79    1.16
  -9  -9  -1   20.21    0.77
  -9  -9  -1   19.71    0.79
  -9  -9   1   20.54    0.77
  -9  -9   1   21.90    0.79
  -9  -9   1   20.25    0.73
  -9  -1   9   19.47    0.77
  -9  -1   9   19.68    0.73
  -9   1  -9   23.03    0.78
  -9   1   9   20.25    0.73
  -1  -9  -9   20.51    0.76
  -1  -9  -9   20.07    0.78
  -1  -9  -9   19.62    0.79
  -1  -9  -9   20.72    0.73
  -1  -9   9   19.93    0.79
  -1  -9   9   20.18    0.73
  -1   9  -9   20.46    0.79
  -1   9  -9   21.07    0.87
   1  -9  -9   21.06    0.76
   1  -9  -9   20.05    0.78
   1  -9  -9   19.84    0.79
   1  -9  -9   20.83    0.73
   1  -9   9   20.78    0.85
   1  -9   9   20.39    0.79
   1   9  -9   20.32    0.79
   1   9  -9   21.31    0.88
   9  -9  -1   20.36    0.77
   9  -9  -1   22.79    0.88
   9  -9   1   20.30    0.77
   9  -9   1   21.63    0.88
   9  -1  -9   21.52    0.78
   9  -1  -9   19.72    0.78
   9  -1  -9   21.07    0.80
   9  -1  -9   21.15    0.73
   9   1  -9   20.67    0.78
   9   1  -9   21.25    0.79
   9   1  -9   21.38    0.80
   9   1  -9   21.48    0.73
   9   9  -1   19.45    0.84
   9   9   1   19.58    0.85
  -9  -9  -3   18.18    0.73
  -9  -9   3   19.10    0.71
  -9  -9   3   19.28    0.72
  -9  -9   3   18.79    0.67
  -9  -3   9   17.73    0.71
  -9  -3   9   18.32    0.67
  -9   3  -9   19.74    0.72
  -3  -9  -9   18.41    0.70
  -3  -9  -9   17.80    0.71
  -3  -9  -9   17.48    0.73
  -3  -9  -9   18.78    0.66
  -3  -9   9   19.32    0.70
  -3  -9   9   18.31    0.73
  -3  -9   9   18.44    0.67
  -3   9  -9   17.74    0.73
   3  -9  -9   19.08    0.71
   3  -9  -9   18.34    0.71
   3  -9  -9   19.04    0.73
   3  -9  -9   18.94    0.66
   3  -9   9   19.09    0.79
   3  -9   9   18.94    0.73
   3   9  -9   18.87    0.73
   3   9  -9   19.57    0.80
   9  -9   3   18.46    0.72
   9  -9   3   18.70    0.81
   9  -3  -9   19.52    0.71
   9  -3  -9   18.39    0.72
   9  -3  -9   19.45    0.74
   9  -3  -9   19.73    0.67
   9   3  -9   18.75    0.72
   9   3  -9   19.44    0.73
   9   9  -3   19.04    0.79
  -9  -9  -5   15.77    0.66
  -9  -9   5   17.08    0.65
  -9  -9   5   17.83    0.60
  -9  -5  -9   15.89    0.64
  -9  -5   9   16.50    0.64
  -9  -5   9   16.53    0.60
  -9   5  -9   16.97    0.66
  -5  -9  -9   15.94    0.64
  -5  -9  -9   15.64    0.66
  -5  -9   9   17.35    0.64
  -5  -9   9   16.86    0.60
  -5   9  -9   16.94    0.67
   5  -9  -9   17.68    0.64
   5  -9  -9   17.05    0.65
   5  -9  -9   16.00    0.66
   5  -9  -9   17.24    0.60
   5  -9   9   17.34    0.74
   5  -9   9   16.46    0.65
   5   9  -9   17.40    0.66
   5   9  -9   17.89    0.72
   9  -9   5   16.81    0.66
   9  -9   5   15.51    0.74
   9  -5  -9   17.60    0.65
   9  -5  -9   16.61    0.67
   9  -5  -9   17.63    0.60
   9  -5   9   16.53    0.72
   9   5  -9   15.91    0.65
   9   5  -9   17.08    0.70
   9   9  -5   17.12    0.72
  -9  -9  -7   16.41    0.68
  -9  -9   7   17.07    0.67
  -9  -9   7   17.55    0.62
  -9  -7  -9   16.65    0.68
  -9  -7   9   17.97    0.67
  -9  -7   9   17.07    0.62
  -9   7  -9   18.03    0.69
  -9   9  -7   17.07    0.69
  -7  -9  -9   16.65    0.68
  -7  -9   9   17.32    0.67
  -7  -9   9   18.01    0.68
  -7  -9   9   16.97    0.62
  -7   9  -9   17.50    0.69
   7  -9  -9   17.39    0.67
   7  -9  -9   18.12    0.67
   7  -9  -9   17.54    0.69
   7  -9  -9   18.08    0.62
   7  -9   9   16.57    0.75
   7   9  -9   17.12    0.67
   7   9  -9   17.66    0.74
   9  -9  -7   17.61    0.66
   9  -9  -7   17.36    0.69
   9  -9   7   15.96    0.76
   9  -7  -9   17.73    0.67
   9  -7  -9   17.81    0.70
   9  -7  -9   18.16    0.62
   9  -7   9   17.34    0.76
   9   7  -9   18.27    0.68
   9   7  -9   17.17    0.73
   9   9  -7   17.73    0.68
   9   9  -7   17.83    0.75
  -9  -9  -9   13.23    0.55
  -9  -9   9   12.74    0.52
  -9  -9   9   12.80    0.48
  -9   9  -9   12.73    0.54
   9  -9  -9   12.83    0.52
   9  -9  -9   13.13    0.55
   9  -9  -9   13.71    0.47
   9  -9   9   12.37    0.62
   9   9  -9   13.62    0.53
   9   9  -9   13.74    0.60
   0 -10   0    2.75    0.37
   0 -10   0    3.15    0.16
   0   0 -10    3.52    0.17
   0   0  10    3.29    0.39
   0   0  10    3.22    0.17
  10   0   0    2.99    0.16
  10   0   0    2.73    0.21
  -2 -10   0   15.30    0.91
  -2 -10   0   16.71    0.62
   0  -2  10   16.54    0.89
   0  -2  10   15.51    0.62
   0   2 -10   16.55    0.63
   0   2  10   17.39    0.90
   0   2  10   16.46    1.99
   0   2  10   16.23    0.62
   2 -10   0   17.16    0.88
   2 -10   0   18.93    0.70
   2 -10   0   17.06    0.62
   2  10   0   15.67    0.69
  10   0  -2   16.40    0.62
  10   0  -2   15.34    0.68
  10   0   2   15.62    0.61
  10   0   2   15.55    0.67
  -2   0  10   17.36    0.94
  -2   0  10   15.19    0.62
   0 -10  -2   15.65    0.89
   0 -10  -2   16.37    0.62
   0 -10   2   16.72    0.90
   0 -10   2   18.05    0.71
   0 -10   2   16.05    0.63
   0  10  -2   16.82    0.71
   2   0 -10   15.91    0.61
   2   0  10   16.03    0.62
  10  -2   0   16.27    0.62
  10  -2   0   16.41    0.68
  10   2   0   16.07    0.62
  10   2   0   15.71    0.68
 -10  -2   0   16.81    1.69
   2   2  10  368.49   11.80
   2   2  10  313.56   13.89
   2   2  10  343.47   11.48
   2  10  -2  336.60   11.58
  10  -2  -2  325.20   11.55
  10  -2  -2  317.30   11.53
  -2  -2  10  321.21   11.48
   2   2 -10  324.94   11.48
   2 -10   2  320.95   11.75
   2 -10   2  358.69   11.57
   2 -10   2  334.48   11.48
   2  -2  10  318.36   11.48
 -10  -2  -2  318.74   13.20
 -10  -2   2  317.96   11.86
  -2 -10  -2  331.64   11.86
  -2 -10  -2  347.08   11.54
  -2 -10   2  329.45   11.87
  -2 -10   2  332.39   11.49
  -2  -2  10  356.64   11.90
  10   2   2  336.05   11.52
  10   2   2  323.45   11.54
  -2   2  10  352.31   11.88
  -2   2  10  330.86   11.48
   2 -10  -2  331.77   11.82
   2 -10  -2  323.72   11.50
  10  -2   2  332.59   11.58
  10  -2   2  323.01   11.54
  10   2  -2  355.20   11.57
  10   2  -2  310.84   11.55
  -2   2 -10  342.71   11.48
  -4   0  10   30.51    1.44
  -4   0  10   28.63    1.05
   0 -10  -4   27.64    1.35
   0 -10  -4   27.64    1.04
   0 -10   4   28.26    1.34
   0 -10   4   30.37    1.13
   0 -10   4   27.53    1.05
   4 -10   0   29.88    1.04
  10   0  -4   27.80    1.11
  10   0   4   28.27    1.04
  10   0   4   27.54    1.09
   0   4 -10   29.51    1.06
 -10   0   4   28.10    1.44
  -4 -10   0   27.95    1.40
   0   4  10   30.03    1.39
   0   4  10   29.68    1.05
   4 -10   0   27.91    1.28
   4 -10   0   32.42    1.14
  -4 -10   0   29.24    1.04
   0  -4 -10   29.05    1.05
   0  -4  10   27.13    1.05
  10   4   0   28.04    1.12
  10  -4   0   27.84    1.04
   4  10   0   27.44    1.10
  10   0  -4   28.55    1.05
  10  -4   0   27.67    1.10
  10   4   0   27.51    1.04
   4   0 -10   28.96    1.04
   4   0  10   30.03    1.05
   0  10  -4   29.37    1.14
   0  10  -4   26.68    1.04
  10  -4  -2    8.73    0.41
  10  -4  -2    8.11    0.35
   2 -10  -4    8.87    0.61
   4   2  10    8.83    0.36
 -10  -4   2    8.39    0.37
  10   4   2    8.09    0.41
  -2  10  -4    8.60    0.36
   2 -10  -4    8.87    0.35
  10  -2   4    8.76    0.35
  10  -2   4    9.14    0.42
  -4  -2  10    8.84    0.37
  -4   2 -10    8.76    0.36
  -2   4  10    8.38    0.36
  -2 -10   4    8.78    0.63
   4 -10   2    8.90    0.35
   2   4 -10    8.67    0.37
 -10  -4   2    8.69    0.65
  -2 -10   4    8.16    0.36
  -4  -2  10    8.92    0.67
  10   2  -4    7.96    0.42
  10   2  -4    8.46    0.36
   4 -10   2    9.07    0.44
 -10   2   4    8.35    0.65
  -4 -10  -2    8.65    0.63
  -4 -10  -2    8.66    0.35
  10   2  -4    8.52    0.36
   4  10  -2    8.74    0.43
   2  -4  10    7.54    0.36
  -2  -4 -10    8.49    0.36
  -2   4  10    9.16    0.65
  -4  10  -2    7.94    0.35
  -2   4 -10    8.58    0.37
   2   4  10    8.59    0.36
  -4   2  10    8.74    0.66
  -4 -10   2    8.24    0.36
  10  -2  -4    8.93    0.36
  10  -2  -4    8.97    0.41
   4  -2  10    8.29    0.36
   4   2 -10    8.20    0.35
   4 -10  -2    7.87    0.56
  10  -4   2    8.39    0.35
  -2  -4  10    7.63    0.36
  -2  -4  10    9.34    0.67
  -4   2  10    8.50    0.36
  10  -4   2    8.23    0.41
   2  -4 -10    8.62    0.36
   2  10  -4    8.46    0.36
   2  10  -4    8.58    0.45
  -4 -10   2    7.70    0.63
  -2 -10  -4    8.86    0.35
   2   4  10    8.96    0.60
  10   2   4    8.47    0.40
  10   4  -2    7.65    0.41
 -10  -2   4    8.82    0.68
  -2 -10  -4    8.37    0.61
   2 -10   4    9.17    0.43
   2 -10   4    8.65    0.36
   4 -10  -2    8.81    0.35
  10   4  -2    8.42    0.36
  -4   4  10    4.14    0.49
  -4   4  10    3.68    0.19
  -4 -10   4    2.91    0.19
  -4  -4  10    3.42    0.48
  -4 -10  -4    3.29    0.18
  -4 -10   4    3.15    0.45
 -10  -4  -4    3.43    0.18
 -10  -4   4    3.89    0.51
 -10  -4   4    3.45    0.20
  -4 -10  -4    3.37    0.43
   4 -10   4    3.35    0.19
   4  -4 -10    3.66    0.20
  -4 -10  -4    3.40    0.18
  10  -4  -4    3.67    0.23
  10  -4  -4    3.13    0.19
  10  -4   4    3.24    0.18
  10  -4   4    3.31    0.24
  10   4  -4    3.60    0.19
  10   4  -4    3.36    0.24
  10   4  -4    3.51    0.19
  10   4   4    3.27    0.23
   4 -10  -4    3.49    0.18
   4 -10   4    3.64    0.26
  -4   4 -10    3.53    0.19
  -4  10  -4    3.40    0.18
   4  -4  10    3.27    0.19
   4   4 -10    3.65    0.18
   4   4  10    3.83    0.19
   4  10  -4    3.32    0.25
  10  -4  -4    3.23    0.18
  -4  -4  10    3.40    0.19
   4 -10  -4    3.37    0.43
  -6 -10   0    4.74    0.22
  -6 -10   0    4.23    0.53
   0  10  -6    4.37    0.30
   6   0 -10    4.78    0.22
   6   0 -10    4.70    0.23
  10  -6   0    4.75    0.22
   0   6  10    4.77    0.47
 -10  -6   0    4.14    0.50
 -10  -6   0    4.55    0.24
  -6   0  10    4.18    0.53
  -6   0  10    4.56    0.22
   0 -10  -6    4.24    0.43
   0 -10  -6    4.57    0.22
   0 -10  -6    3.92    0.22
   0 -10   6    4.31    0.29
   0 -10   6    4.13    0.23
   0  10  -6    4.14    0.22
  10   6   0    4.13    0.28
  10   0  -6    4.39    0.23
  10   0   6    4.14    0.21
   6 -10   0    5.71    0.32
   6 -10   0    5.09    0.21
   6  10   0    4.75    0.27
  10   0  -6    4.08    0.23
  10   0  -6    4.11    0.27
 -10   0   6    4.02    0.54
   0   6 -10    4.37    0.23
  10   0   6    4.41    0.26
   0  -6  10    4.31    0.23
  10  -6   0    4.92    0.29
   0  -6 -10    4.52    0.23
   0  -6 -10    4.48    0.23
   0  -6 -10    5.45    0.48
   6 -10   2  273.35    8.83
   6 -10   2  255.91    8.83
   6 -10   2  266.52    8.94
  -2 -10   6  251.53    8.85
   2   6 -10  246.07    8.85
   6  -2 -10  265.36    8.85
  -6  -2  10  244.93    8.84
  -6   2 -10  278.82    8.84
   2 -10  -6  260.61    8.83
  -2   6  10  259.54    9.30
  -2   6  10  256.87    8.84
  10  -2   6  262.17    8.90
  10   2  -6  265.58    8.85
  -2  10  -6  247.52    8.84
  -2  -6 -10  262.40    9.19
  -2  -6 -10  254.77    8.84
  -2  -6 -10  239.74    8.84
   2  -6  10  243.20    8.84
  -6  -2  10  275.74    9.40
 -10  -2  -6  251.89    8.82
  10  -6  -2  267.03    8.92
 -10   2   6  243.80    9.33
  -6 -10  -2  246.69    9.26
  -6 -10  -2  240.32    8.83
  10  -6  -2  247.97    8.83
  10   6   2  248.59    8.92
  -2 -10   6  255.88    9.27
  10  -2   6  262.69    8.83
   2 -10  -6  251.89    8.84
  10   2  -6  257.95    8.85
  10   2  -6  241.43    8.90
   6  -2 -10  245.99    8.83
   6  10  -2  261.06    8.91
 -10  -6   2  258.07    9.32
 -10  -6   2  255.55    8.85
   2 -10  -6  247.12    9.23
   6 -10  -2  267.90    8.82
   2   6  10  265.99    8.84
  -6   2  10  272.02    9.39
  -2  -6  10  232.77    8.84
  -2  -6  10  266.98    9.28
  -2 -10  -6  264.19    8.83
  -2   6 -10  252.87    8.85
  -6   2  10  248.99    8.83
  -2 -10  -6  258.77    9.23
   2  -6 -10  257.65    8.84
   6   2 -10  246.70    8.83
  -6 -10   2  255.23    9.34
 -10  -2   6  259.57    9.40
  10  -6   2  256.32    8.84
  10  -6   2  249.58    8.91
  10   6  -2  262.09    8.84
  10   6  -2  254.46    8.92
  -6 -10   2  241.65    8.83
   2  10  -6  264.59    8.95
  10   2   6  257.62    8.88
 -10  -6  -2  254.81    8.85
   2  10  -6  231.56    8.84
   2 -10   6  251.28    8.85
  -2 -10  -6  238.53    8.84
   2 -10   6  268.99    8.93
  10  -2  -6  252.90    8.86
  10  -2  -6  259.19    8.84
   2  -6 -10  259.76    8.85
   2   6  10  275.39    9.25
   6  10   2  243.76    8.89
  10  -4   6   15.12    0.67
  10  -4   6   15.87    0.61
  -6 -10  -4   14.67    0.61
   6  10  -4   16.01    0.68
   6 -10   4   16.25    0.71
 -10  -4  -6   15.33    0.60
  -6 -10  -4   15.78    0.92
 -10  -6   4   17.05    1.02
   4   6 -10   16.10    0.62
   6  -4 -10   16.53    0.56
   6  -4 -10   16.25    0.60
  10  -6  -4   15.73    0.60
  10  -6  -4   15.92    0.62
 -10   4   6   14.44    0.96
 -10  -6   4   16.29    0.62
   4  -6  10   15.18    0.61
  -6  -4  10   15.68    1.01
  -6  -4  10   14.68    0.56
  -6   4 -10   16.32    0.62
  -4  10  -6   15.09    0.61
   4 -10  -6   15.78    0.60
  -6  10   4   14.42    0.92
  -4  -6 -10   14.52    0.61
  -4  -6 -10   15.27    0.61
  10   4  -6   15.32    0.67
  -4 -10   6   15.77    0.97
  -4 -10   6   16.12    0.60
  -4 -10   6   15.54    0.62
  -4 -10   6   15.22    0.56
   6  -4 -10   16.22    0.62
  -4   6  10   15.20    0.61
   4 -10  -6   14.87    0.91
   4 -10  -6   16.00    0.59
  10   4  -6   15.47    0.62
   4 -10  -6   15.75    0.62
   4 -10  -6   15.93    0.56
  -6  -4  10   15.43    0.60
  10   4  -6   15.19    0.61
  10   6   4   15.18    0.67
  -4   6  10   16.67    1.01
  -6  -4  10   14.35    0.61
   4 -10   6   15.98    0.70
   4  -6 -10   15.79    0.61
   4  -6 -10   16.27    0.63
   4  -6 -10   16.85    0.56
  10  -4  -6   15.61    0.63
  -6  10  -4   14.51    0.61
  -4  -6  10   15.98    0.98
   4 -10   6   16.47    0.62
  -4 -10  -6   16.43    0.92
  -4 -10  -6   15.75    0.59
  -4 -10  -6   15.14    0.60
  -4 -10  -6   13.57    0.60
   6 -10  -4   17.35    0.60
  -4  -6  10   15.35    0.62
   4  10  -6   16.08    0.61
  -6 -10   4   17.28    1.02
 -10  -4   6   16.15    1.03
   4  -6 -10   16.71    0.60
   6 -10  -4   16.70    0.91
   4   6  10   17.24    0.62
   6   4 -10   15.97    0.61
 -10  -4   6   14.92    0.60
 -10  -4   6   16.16    0.62
  10  -6   4   16.42    0.61
  10  -6   4   15.74    0.68
  10   6  -4   16.50    0.61
  -6 -10   4   15.92    0.61
  -6   4  10   17.11    1.03
  -6   4  10   15.72    0.61
  -4  -6  10   15.15    0.59
  -6 -10   4   15.87    0.60
  -6 -10   4   15.93    0.56
  -4  -6  10   14.97    0.56
  -4   6 -10   14.89    0.62
   4  10  -6   15.76    0.69
  10  -4  -6   16.12    0.61
  10   6  -4   15.42    0.67
 -10  -6  -4   16.72    0.62
  -6  -4 -10   14.73    0.60
  -4  10   6   16.30    0.99
  10  -6  -6  170.24    6.06
   6   6 -10  171.44    6.07
   6  10  -6  180.16    6.15
   6 -10  -6  180.81    6.02
   6  10  -6  179.98    6.07
 -10  -6   6  185.17    6.08
 -10  -6   6  169.38    6.02
  10   6  -6  171.53    6.14
  10  -6   6  170.57    6.16
  -6 -10   6  176.60    6.02
  -6  -6 -10  164.99    6.07
  -6  -6  10  166.88    6.06
  10   6  -6  171.60    6.08
  -6   6  10  171.94    6.08
  -6  10  -6  170.53    6.08
   6 -10  -6  178.31    6.06
   6 -10  -6  183.66    6.07
  -6 -10  -6  175.64    6.05
  -6 -10  -6  161.51    6.08
  -6 -10  -6  177.99    6.02
  -6 -10   6  179.71    6.07
  -6 -10   6  172.52    6.08
   6  -6 -10  179.41    6.09
   6  -6 -10  186.94    6.02
   6  -6  10  171.55    6.14
  -6  -6  10  171.18    6.08
   6 -10   6  165.65    6.17
 -10  -6   6  170.18    6.06
 -10  -6  -6  166.15    6.07
  10  -6  -6  175.82    6.09
  10  -6   6  177.65    6.08
   6  -6 -10  183.56    6.07
   6 -10  -6  185.54    6.09
  -6  -6  10  164.38    6.02
  -6   6 -10  180.09    6.09
   6  -6 -10  184.05    6.08
   0  -8 -10    4.22    0.23
   0 -10  -8    4.14    0.21
   0  -8 -10    4.52    0.22
   0   8 -10    4.06    0.23
   0   8 -10    4.69    0.29
   8 -10   0    3.93    0.20
   8 -10   0    4.84    0.31
   8  10   0    4.04    0.27
  10   0  -8    4.39    0.22
  10   0  -8    3.91    0.22
  10   0  -8    3.97    0.23
  10   0  -8    4.52    0.17
   0  10  -8    4.00    0.22
   0  10  -8    4.15    0.29
   0  -8 -10    4.23    0.17
   0  -8  10    4.32    0.23
   0 -10  -8    4.30    0.23
   0 -10  -8    4.25    0.17
   0 -10   8    3.96    0.23
  -8 -10   0    3.88    0.22
  -8 -10   0    3.94    0.17
   0  -8 -10    4.32    0.20
 -10  -8   0    4.23    0.23
  -8   0  10    4.30    0.17
   0 -10  -8    4.16    0.20
   8   0 -10    4.40    0.22
   8   0 -10    4.42    0.23
   8   0 -10    4.47    0.17
  10  -8   0    3.91    0.21
  10  -8   0    4.24    0.29
  10   8   0    3.88    0.28
 -10  -8   0    3.33    0.48
 -10   0   8    3.98    0.17
  -8 -10   0    4.20    0.21
 -10   0   8    3.58    0.20
   8   0 -10    4.48    0.22
  -8  -2  10    9.46    0.40
   2  -8  10    9.60    0.42
  -2 -10   8   10.77    0.40
  -2 -10   8   10.27    0.43
   8 -10   2    9.35    0.41
   8 -10   2   10.86    0.52
   8  10  -2    9.98    0.48
  -2 -10   8   10.15    0.36
   2  -8  10    9.52    0.47
   2 -10  -8   10.01    0.43
   2 -10  -8   10.10    0.36
   2 -10  -8   10.17    0.42
  10  -2   8   10.59    0.42
  10  -2   8   10.44    0.47
  10   2  -8    9.88    0.42
   8  -2 -10   10.57    0.42
  -8  -2  10    9.73    0.36
   2   8 -10    9.47    0.43
  -2  10  -8   10.21    0.43
  10   8   2    8.86    0.48
  -8 -10  -2    9.79    0.40
  -8 -10  -2    9.21    0.42
  -8 -10  -2    9.87    0.36
   8  -2 -10   10.31    0.37
  10  -8  -2   10.74    0.50
 -10  -8   2   10.42    0.43
  -2  -8 -10   10.12    0.39
  -2  -8 -10    9.60    0.41
  -2  -8 -10    9.51    0.43
  -2  -8 -10    9.52    0.36
  10   2  -8    9.62    0.42
   2   8 -10   10.86    0.50
 -10  -8   2    9.75    0.41
  -8   2 -10   10.90    0.42
   8  -2 -10   10.37    0.43
   2 -10  -8   10.32    0.40
 -10   2   8    9.89    0.36
  -2  10  -8   10.37    0.51
   8  -2 -10    9.72    0.41
  10  -8  -2    9.81    0.41
  10  -2  -8   10.00    0.44
   2  10  -8    9.33    0.42
   2 -10   8   10.47    0.49
  -2  -8  10    9.65    0.42
   2 -10   8    9.90    0.43
  10  -2  -8   10.04    0.42
  -2   8 -10   10.20    0.49
   8   2 -10   10.28    0.42
  -2  -8  10    9.45    0.36
   8  10   2    9.00    0.47
  10  -2  -8   10.22    0.41
  -2 -10  -8    9.61    0.43
  -2 -10  -8    9.96    0.36
  -8 -10   2    9.61    0.41
  -8 -10   2   10.00    0.41
  -8 -10   2    9.93    0.37
  -2 -10  -8   10.05    0.40
  -2 -10  -8    9.99    0.41
 -10  -2   8    9.70    0.36
  10  -2  -8   10.58    0.37
 -10  -8  -2    9.82    0.43
   8   2 -10   10.16    0.42
   8   2 -10   10.07    0.43
   2  10  -8   10.00    0.51
   2  -8 -10   10.22    0.36
  10  -8   2   10.04    0.42
  10  -8   2    9.82    0.49
  10   8  -2    9.70    0.48
  -2   8 -10    9.78    0.43
   2  -8 -10    9.48    0.41
 -10  -2   8    9.94    0.41
   2  -8 -10   10.20    0.40
   2  -8 -10    9.95    0.43
   8  -4 -10   14.59    0.54
 -10  -8   4   13.98    0.55
   4  -8  10   12.79    0.60
  10  -8  -4   13.11    0.53
  10   4  -8   14.41    0.55
  -4 -10   8   13.74    0.56
  -4 -10   8   13.46    0.49
  -4  10  -8   13.15    0.56
   4 -10  -8   14.03    0.53
   4 -10  -8   14.34    0.55
   4 -10  -8   13.88    0.56
   4 -10  -8   14.24    0.49
  -8 -10  -4   13.54    0.55
   8  -4 -10   14.17    0.57
 -10  -8   4   13.61    0.54
  10   4  -8   13.99    0.55
  10   4  -8   13.42    0.60
  -4 -10   8   13.95    0.54
   8  -4 -10   14.86    0.50
  -4  -8 -10   13.27    0.54
  -8  -4  10   13.87    0.54
  -8  -4  10   13.29    0.49
  -8   4 -10   14.64    0.56
  10  -4   8   13.96    0.55
  10  -4   8   14.00    0.61
 -10  -4  -8   13.48    0.54
   4  -8  10   13.86    0.55
   4   8 -10   13.47    0.55
  -8 -10  -4   13.77    0.53
   8 -10   4   13.15    0.55
   8 -10   4   13.10    0.64
   8  10  -4   13.90    0.61
   4   8 -10   14.91    0.61
  -4  -8 -10   13.61    0.56
 -10  -8   4   13.72    0.49
  -4  -8  10   14.34    0.53
  -4  -8  10   13.70    0.49
  -4   8 -10   13.74    0.56
   4  -8 -10   14.05    0.54
  -4  -8  10   14.21    0.56
   4  -8 -10   13.81    0.56
   4  -8 -10   14.31    0.49
   8   4 -10   13.73    0.55
 -10  -4   8   12.60    0.53
 -10  -4   8   12.96    0.49
   4 -10   8   13.67    0.55
   4 -10   8   13.15    0.62
  -8 -10   4   13.34    0.54
  -8 -10   4   13.38    0.49
  10  -4  -8   13.98    0.54
  10  -4  -8   14.10    0.55
  10  -4  -8   13.08    0.57
  10  -4  -8   13.97    0.49
  -4 -10  -8   13.80    0.53
  -4 -10  -8   13.33    0.54
  -4 -10  -8   12.85    0.55
  -4 -10  -8   13.74    0.49
  10  -8   4   13.36    0.55
  10  -8   4   12.77    0.62
  10   8  -4   13.44    0.62
   4  10  -8   14.40    0.63
   4  -8 -10   14.69    0.55
  -8  -4 -10   13.64    0.54
   4  10  -8   13.54    0.55
 -10  -8  -4   13.43    0.56
  10   6  -8    5.03    0.24
  10   6  -8    4.70    0.29
  10   6  -8    4.91    0.24
  -8   6 -10    4.71    0.25
  10  -6   8    4.71    0.24
  10  -6   8    4.81    0.31
 -10  -6  -8    4.97    0.25
 -10  -8   6    5.05    0.24
 -10  -8   6    4.68    0.19
  -8  -6  10    4.55    0.19
  -8  -6  10    4.43    0.23
  -8 -10  -6    4.70    0.25
   8 -10   6    4.24    0.31
   8  -6 -10    4.67    0.23
  -6 -10   8    4.94    0.23
  -6  -8 -10    4.54    0.25
  -6 -10   8    5.47    0.19
  -6  10  -8    4.58    0.25
   6 -10  -8    5.48    0.24
   6 -10  -8    4.94    0.24
  -6   8  10    4.44    0.24
   6 -10  -8    4.85    0.19
   8  10  -6    4.42    0.23
 -10  -8   6    4.33    0.23
   8  -6 -10    4.83    0.26
   6  -8  10    5.03    0.31
   6   8 -10    4.67    0.24
   6   8 -10    4.79    0.28
  10  -8  -6    4.94    0.26
   6 -10  -8    4.55    0.25
  -6 -10   8    4.79    0.25
   8  10  -6    4.63    0.30
   8  -6 -10    4.99    0.19
   6  -8 -10    4.73    0.24
   6  -8 -10    4.89    0.26
  10  -6  -8    4.37    0.26
 -10  -6   8    4.81    0.24
 -10  -8  -6    4.64    0.25
 -10   6  -8    4.71    0.24
 -10  -6   8    4.63    0.19
  -8 -10   6    4.92    0.24
  -6 -10  -8    4.40    0.25
  -8  10  -6    4.38    0.24
  -8  -6 -10    4.40    0.23
  -6  -8  10    4.23    0.23
  -6  -8  10    4.51    0.25
  -6  -8  10    4.39    0.19
  -6   8 -10    4.73    0.25
 -10  -6   8    4.59    0.23
   6  -8 -10    4.94    0.24
   6 -10   8    4.80    0.32
   6  10  -8    4.92    0.24
   6  10  -8    4.65    0.30
  -8 -10   6    4.35    0.19
   6  -8 -10    4.88    0.19
  10  -6  -8    4.70    0.23
   8  -6  10    4.51    0.29
   8   6 -10    4.58    0.24
   8 -10  -6    5.05    0.25
  10  -8   6    4.68    0.25
  10  -8   6    4.45    0.31
  10   8  -6    4.64    0.24
  10   8  -6    4.70    0.30
 -10  -8  -8    4.10    0.23
 -10  -8   8    4.01    0.22
 -10  -8   8    3.77    0.17
 -10   8  -8    4.48    0.24
  -8 -10  -8    3.97    0.24
  -8 -10   8    4.04    0.22
  -8 -10   8    3.96    0.17
  -8  -8 -10    4.06    0.23
  -8  -8  10    4.01    0.22
  -8  -8  10    4.06    0.17
  -8   8 -10    4.38    0.24
  -8   8  10    4.23    0.23
  -8  10  -8    4.14    0.24
   8 -10  -8    4.47    0.22
   8 -10  -8    4.11    0.24
   8 -10  -8    4.23    0.17
   8 -10   8    3.42    0.29
   8  -8 -10    4.39    0.22
   8  -8 -10    4.48    0.23
   8  -8 -10    4.09    0.24
   8  -8 -10    4.17    0.17
   8  -8  10    4.15    0.29
   8   8 -10    4.25    0.23
   8   8 -10    4.43    0.27
   8  10  -8    4.05    0.22
   8  10  -8    4.20    0.28
  10  -8  -8    4.04    0.21
  10  -8  -8    4.15    0.24
  10  -8   8    3.94    0.30
  10   8  -8    4.30    0.23
  10   8  -8    4.20    0.28
 -10 -10   0   15.96    0.62
 -10 -10   0   16.86    0.64
 -10   0  10   15.50    0.62
 -10   0  10   15.34    0.57
   0 -10 -10   16.28    0.62
   0 -10 -10   16.12    0.63
   0 -10 -10   16.18    0.65
   0 -10 -10   15.86    0.57
   0 -10  10   16.46    0.65
   0  10 -10   15.87    0.65
   0  10 -10   16.17    0.73
  10 -10   0   16.39    0.63
  10 -10   0   16.99    0.74
  10   0 -10   16.30    0.63
  10   0 -10   16.03    0.64
  10   0 -10   16.14    0.65
  10   0 -10   16.21    0.58
  10  10   0   15.88    0.71
 -10 -10  -2  146.76    5.14
 -10 -10   2  145.73    5.12
 -10 -10   2  144.76    5.13
 -10 -10   2  148.90    5.07
 -10  -2  10  144.17    5.12
 -10  -2  10  141.29    5.07
 -10   2 -10  165.72    5.13
 -10   2  10  146.27    5.07
  -2 -10 -10  146.61    5.11
  -2 -10 -10  144.93    5.13
  -2 -10 -10  139.30    5.15
  -2 -10 -10  145.62    5.07
  -2 -10  10  145.91    5.14
  -2 -10  10  146.60    5.07
  -2  10 -10  143.71    5.15
  -2  10 -10  155.35    5.25
   2 -10 -10  145.67    5.11
   2 -10 -10  148.18    5.13
   2 -10 -10  143.06    5.15
   2 -10 -10  147.32    5.07
   2 -10  10  146.94    5.21
   2 -10  10  148.85    5.14
   2  10 -10  136.55    5.14
   2  10 -10  157.97    5.23
  10 -10   2  142.40    5.13
  10 -10   2  150.81    5.25
  10  -2 -10  153.31    5.13
  10  -2 -10  142.13    5.13
  10  -2 -10  147.78    5.15
  10  -2 -10  156.76    5.08
  10   2 -10  145.59    5.13
  10   2 -10  151.07    5.14
  10  10  -2  148.18    5.22
  10  10   2  139.65    5.21
 -10 -10  -4    2.64    0.18
 -10 -10   4    2.37    0.16
 -10 -10   4    2.48    0.12
 -10  -4  10    2.35    0.16
 -10  -4  10    2.18    0.11
 -10   4 -10    3.43    0.19
  -4 -10 -10    2.77    0.15
  -4 -10 -10    2.57    0.17
  -4 -10 -10    2.34    0.18
  -4 -10 -10    2.78    0.11
  -4 -10  10    2.25    0.15
  -4 -10  10    2.36    0.18
  -4 -10  10    2.38    0.11
  -4  10 -10    2.24    0.18
   4 -10 -10    2.50    0.16
   4 -10 -10    2.45    0.17
   4 -10 -10    2.58    0.19
   4 -10 -10    2.41    0.12
   4 -10  10    2.39    0.22
   4 -10  10    2.19    0.17
   4  10 -10    2.47    0.17
   4  10 -10    2.57    0.22
  10 -10   4    2.26    0.17
  10 -10   4    2.33    0.24
  10  -4 -10    2.41    0.17
  10  -4 -10    2.36    0.16
  10  -4 -10    2.74    0.19
  10  -4 -10    2.56    0.12
  10   4 -10    2.63    0.17
  10   4 -10    2.49    0.17
  10  10  -4    2.54    0.22
 -10 -10  -6  134.79    4.90
 -10 -10   6  142.47    4.88
 -10 -10   6  140.67    4.83
 -10  -6 -10  135.83    4.88
 -10  -6  10  136.61    4.88
 -10  -6  10  138.81    4.83
 -10   6 -10  149.99    4.90
 -10  10  -6  137.19    4.90
  -6 -10 -10  130.90    4.90
  -6 -10  10  142.64    4.88
  -6 -10  10  140.85    4.90
  -6 -10  10  141.67    4.83
  -6  10 -10  135.86    4.90
   6 -10 -10  144.85    4.88
   6 -10 -10  143.43    4.89
   6 -10 -10  143.20    4.91
   6 -10 -10  143.33    4.83
   6 -10  10  128.34    4.96
   6  10 -10  133.90    4.88
   6  10 -10  149.19    4.96
  10 -10   6  126.87    4.99
  10  -6 -10  145.02    4.88
  10  -6 -10  142.21    4.91
  10  -6 -10  148.40    4.83
  10  -6  10  139.55    4.98
  10   6 -10  142.97    4.89
  10  10  -6  142.22    4.97
 -10 -10  -8    8.35    0.39
 -10 -10   8    8.92    0.37
 -10 -10   8    8.67    0.32
 -10  -8 -10    8.23    0.38
 -10  -8  10    8.73    0.37
 -10  -8  10    8.50    0.32
 -10   8 -10    8.65    0.39
 -10  10  -8    7.83    0.38
  -8 -10 -10    8.79    0.40
  -8 -10  10    8.53    0.37
  -8 -10  10    8.30    0.32
  -8  10 -10    8.17    0.39
  -8  10  10    8.01    0.38
   8 -10 -10    8.65    0.37
   8 -10 -10    9.04    0.38
   8 -10 -10    8.30    0.39
   8 -10 -10    8.38    0.32
   8 -10  10    8.06    0.45
   8  10 -10    8.56    0.37
   8  10 -10    8.63    0.44
  10 -10  -8    8.44    0.39
  10 -10   8    7.69    0.46
  10  -8 -10    8.49    0.37
  10  -8 -10    8.19    0.39
  10  -8 -10    8.60    0.32
  10  -8  10    8.07    0.45
  10   8 -10    8.69    0.38
  10   8 -10    9.32    0.44
  10  10  -8    8.99    0.37
  10  10  -8    8.74    0.44
 -10 -10 -10   76.38    2.64
 -10 -10  10   74.24    2.61
 -10 -10  10   73.25    2.56
 -10  10 -10   74.07    2.63
  10 -10 -10   75.13    2.61
  10 -10 -10   73.49    2.64
  10 -10 -10   74.22    2.56
  10 -10  10   66.86    2.70
  10  10 -10   73.40    2.62
  10  10 -10   77.64    2.69
 -11  -1   1   19.53    0.76
  -1 -11  -1   19.50    1.07
  -1 -11  -1   20.33    0.75
  -1 -11   1   19.28    1.07
  -1 -11   1   20.10    0.75
  -1  -1  11   22.33    1.10
  -1  -1  11   19.17    0.75
  -1   1 -11   20.98    0.76
  -1   1  11   19.61    1.06
  -1   1  11   19.13    0.75
  -1  11  -1   20.09    0.84
  -1  11   1   19.45    0.82
   1 -11  -1   19.32    1.04
   1 -11  -1   23.54    0.85
   1 -11  -1   20.31    0.75
   1 -11   1   19.71    1.04
   1 -11   1   21.85    0.84
   1 -11   1   20.16    0.75
   1  -1  11   18.91    0.75
   1   1 -11   19.78    0.75
   1   1  11   19.73    0.75
   1  11  -1   19.95    0.84
   1  11   1   19.16    0.82
  11  -1  -1   20.16    0.75
  11  -1  -1   19.39    0.81
  11  -1   1   19.51    0.75
  11  -1   1   19.91    0.81
  11   1  -1   20.02    0.75
  11   1  -1   19.56    0.82
  11   1  -1   18.03    0.75
  11   1   1   20.22    0.75
  11   1   1   19.33    0.81
  -3 -11  -1   36.84    1.73
  -3 -11  -1   37.96    1.34
   1 -11  -3   36.82    1.34
  -1 -11   3   36.74    1.70
   3   1  11   37.26    1.34
  11  -3  -1   36.19    1.34
  11  -3  -1   36.23    1.41
  -1   3  11   36.88    1.69
  -1   3  11   37.56    1.35
  11   1  -3   37.34    1.35
   1  -3  11   34.49    1.35
   1   3 -11   38.07    1.35
  11   3   1   36.21    1.42
  -1  11  -3   37.52    1.44
   3  -1 -11   36.58    1.33
  11   1  -3   35.61    1.35
  -1 -11   3   37.09    1.35
   3 -11   1   40.97    1.44
   3 -11   1   38.33    1.34
   3  11  -1   36.56    1.42
 -11  -3   1   38.03    1.36
  -3  -1  11   42.06    1.79
  -3  -1  11   35.78    1.35
  -3   1 -11   37.06    1.34
  11  -1   3   36.89    1.34
  11  -1   3   37.30    1.41
  11   3   1   36.52    1.33
  11   1  -3   36.60    1.42
   1 -11  -3   35.52    1.68
   3 -11  -1   37.44    1.34
   1  -3 -11   37.44    1.34
   3 -11  -1   43.29    1.43
  -3 -11   1   35.30    1.72
   1 -11   3   36.73    1.64
   1 -11   3   39.98    1.44
   1 -11   3   37.70    1.35
   1  11  -3   37.96    1.45
   3 -11  -1   36.79    1.65
   3  -1  11   37.27    1.35
   3   1 -11   36.86    1.34
  -1  -3  11   40.61    1.73
  -1  -3  11   34.75    1.35
  -1   3 -11   38.03    1.36
  11  -3   1   36.31    1.34
  11  -3   1   37.13    1.41
  11   3  -1   36.75    1.34
  11   3  -1   34.35    1.42
   1   3  11   37.58    1.35
   1   3  11   39.79    1.68
  11  -1  -3   37.33    1.35
  11  -1  -3   36.31    1.41
  11  -1  -3   35.63    1.35
  -3   1  11   38.05    1.75
  -3   1  11   36.01    1.35
  -1 -11  -3   35.99    1.70
  -1 -11  -3   36.93    1.34
  -3 -11   1   37.54    1.35
  11   1   3   37.83    1.34
  11   1   3   37.23    1.41
   3  11   1   36.01    1.40
 -11  -3  -1   36.58    1.36
  -3   3 -11   11.73    0.46
   3 -11  -3    9.79    0.69
   3 -11  -3   10.90    0.44
   3 -11   3   11.35    0.53
   3 -11   3   11.25    0.45
   3  -3 -11   11.44    0.45
  11  -3   3   11.03    0.51
  -3   3  11   11.38    0.77
  -3   3  11   10.84    0.45
  11   3  -3   10.44    0.45
  11   3   3   10.93    0.50
 -11  -3   3   11.41    0.46
  -3 -11  -3    9.73    0.71
  -3 -11  -3   10.85    0.44
  -3 -11  -3   10.07    0.43
  -3 -11   3   11.65    0.78
  -3 -11   3   10.52    0.45
  -3  -3  11   12.89    0.82
  -3  -3  11   10.28    0.45
   3  -3  11   10.37    0.44
   3   3 -11   11.23    0.44
   3   3  11   11.40    0.45
   3  11  -3   11.05    0.53
  11  -3  -3   11.01    0.45
  11  -3  -3   11.51    0.51
  11  -3  -3   10.52    0.45
  11  -3   3   10.68    0.44
 -11  -3   3   11.94    0.79
 -11  -3  -3   10.62    0.45
  11   3  -3   10.73    0.45
  11   3  -3   10.40    0.52
  11   1  -5   25.64    0.99
  11   1  -5   25.13    1.05
  11   1  -5   26.17    0.99
  11  -5  -1   27.26    1.05
  -5 -11  -1   26.12    1.38
  -5 -11  -1   26.21    0.97
  11  -1   5   26.37    0.97
  11  -1   5   26.06    1.04
   1 -11  -5   26.35    0.96
   5 -11   1   28.17    0.97
   5  11  -1   26.32    1.05
  -1  11  -5   24.92    0.97
   5 -11   1   29.67    1.08
  -1  -5 -11   26.93    0.98
 -11  -5   1   26.75    1.00
  -5  -1  11   29.46    1.43
   5  -1 -11   25.78    0.97
   5  -1 -11   26.54    0.98
  -5 -11  -1   26.77    0.93
   1 -11  -5   25.84    1.32
   5  -1 -11   27.84    0.93
  11   5   1   25.27    1.06
  -1   5  11   26.17    0.99
   1  -5  11   24.23    0.98
   1   5 -11   27.72    1.00
  -1 -11   5   26.77    1.33
  -1 -11   5   25.34    0.99
  11  -5  -1   25.75    0.98
   5  -1 -11   27.30    0.97
  -5 -11  -1   26.09    0.97
  -5  -1  11   25.83    0.98
   1 -11  -5   26.36    0.97
   1 -11  -5   25.72    0.98
   1 -11  -5   26.87    0.93
  -1   5  11   28.27    1.38
  -1  -5 -11   26.64    0.98
  -5 -11  -1   24.61    0.97
  -5  -1  11   26.46    0.93
  -1  11  -5   27.20    1.08
   1   5  11   26.81    0.99
   5 -11  -1   28.01    0.97
  11   1   5   25.74    1.03
   5   1 -11   27.55    0.98
   5   1 -11   27.38    0.98
   5   1 -11   28.47    0.93
  11  -1  -5   25.67    1.05
   1  11  -5   26.08    0.98
  -5   1  11   29.39    1.43
  -5   1  11   25.63    0.98
  -1 -11  -5   26.76    1.34
   1 -11   5   26.92    1.07
  -1 -11  -5   26.52    0.98
  11  -1  -5   26.35    1.00
   1  11  -5   27.74    1.09
   1   5  11   27.29    1.33
 -11  -1   5   25.97    1.41
  11  -5   1   25.77    0.98
  11  -5   1   26.60    1.05
  11   5  -1   25.38    0.97
  11   5  -1   24.80    1.07
  -1 -11  -5   26.50    0.96
  -5 -11   1   28.09    1.41
  -5 -11   1   26.50    0.97
  -5 -11   1   26.34    0.98
  -5 -11   1   26.69    0.93
  11   1   5   27.10    0.97
   5  11   1   25.76    1.03
  11  -1  -5   27.02    0.99
   1  -5 -11   26.51    0.98
   1  -5 -11   26.84    0.99
  -1   5 -11   26.55    0.99
   5   1 -11   27.64    0.98
  -1 -11  -5   26.33    0.93
 -11  -5  -1   26.68    1.00
   1 -11   5   25.44    0.99
  -1 -11  -5   24.70    0.97
  -1  -5  11   23.93    0.98
   3  -5  11   17.68    0.72
   5 -11   3   19.38    0.81
  -5 -11  -3   19.78    1.09
   5 -11   3   19.99    0.72
  -5 -11  -3   18.55    0.71
   3   5 -11   19.05    0.73
 -11  -5   3   19.73    1.12
 -11  -5   3   19.56    0.74
  -5  -3  11   20.33    1.16
  -5  -3  11   18.59    0.71
  -5  -3  11   19.21    0.73
  -5  -3  11   18.42    0.67
  -5   3 -11   20.22    0.73
  -3  -5 -11   17.90    0.72
   3 -11  -5   19.32    0.67
  11  -5  -3   18.05    0.72
  11  -5  -3   19.06    0.79
  11  -5  -3   18.21    0.73
  -3 -11   5   18.76    1.08
  -3 -11   5   18.94    0.71
  -3 -11   5   19.07    0.73
  -3 -11   5   18.19    0.67
  -3  11  -5   18.75    0.72
   3 -11  -5   18.34    1.04
   3 -11  -5   19.74    0.71
   3 -11  -5   18.83    0.71
  11   3  -5   18.87    0.73
   5  11  -3   18.82    0.80
  -5 -11  -3   19.05    0.71
 -11  -3  -5   18.13    0.72
  11   5   3   18.83    0.80
  11   3  -5   18.03    0.80
  11  -3   5   19.44    0.72
  11  -3   5   18.89    0.79
  11   3  -5   18.28    0.73
  -5 -11  -3   17.21    0.71
  -5 -11  -3   18.83    0.67
   5  -3 -11   20.20    0.72
   5  -3 -11   19.56    0.73
   5  -3 -11   20.08    0.67
  -3   5  11   18.66    0.73
  -5   3  11   18.88    0.72
 -11  -3   5   19.41    0.74
   5 -11  -3   19.90    1.03
  -3  -5  11   17.50    0.67
  -3   5 -11   19.40    0.74
  -5  11  -3   18.48    0.72
   3  -5 -11   19.87    0.71
   3  -5 -11   19.53    0.73
   3  -5 -11   19.42    0.73
  -5 -11   3   18.48    0.71
  -5 -11   3   18.39    0.72
  -5 -11   3   19.11    0.67
   5   3 -11   20.31    0.72
   5   3 -11   18.01    0.72
  -3 -11  -5   18.48    0.71
  -3 -11  -5   17.56    0.72
  -3 -11  -5   19.24    0.67
  11  -3  -5   19.25    0.73
  11  -3  -5   19.38    0.79
  11  -3  -5   19.32    0.74
   3   5  11   19.30    0.73
 -11  -5  -3   18.95    0.73
   5 -11  -3   18.79    0.71
  -3  -5  11   22.09    1.14
  -3  -5  11   18.06    0.73
  -3 -11  -5   19.15    0.70
   3 -11   5   18.74    0.80
   3 -11   5   18.97    0.73
   3  11  -5   19.34    0.82
   3  -5 -11   19.81    0.67
 -11  -3   5   17.81    1.12
  11   3   5   18.47    0.77
  11   5  -3   18.39    0.80
  11   5  -3   18.61    0.72
  11  -5   3   18.44    0.79
   5 -11  -5   20.79    0.74
   5 -11  -5   20.96    0.75
   5 -11  -5   20.36    0.70
  -5  11  -5   18.67    0.76
  11  -5   5   19.37    0.83
  11  -5   5   19.54    0.76
  11  -5  -5   19.83    0.75
  11  -5  -5   18.57    0.77
   5  -5  11   19.00    0.75
   5   5 -11   19.90    0.76
  -5 -11  -5   20.29    0.74
  -5 -11  -5   18.71    0.74
  -5 -11   5   19.48    0.76
  -5 -11   5   19.88    0.70
  -5  -5 -11   18.95    0.75
  -5  -5  11   20.30    0.74
  -5  -5  11   19.36    0.76
  -5  -5  11   19.15    0.70
  -5   5 -11   20.88    0.77
  -5   5  11   19.99    0.76
  11   5  -5   20.51    0.76
  11   5  -5   19.60    0.83
  11   5  -5   19.28    0.75
   5  -5 -11   20.98    0.77
 -11  -5  -5   19.38    0.76
 -11  -5   5   20.05    0.74
 -11  -5   5   20.43    0.77
  -5 -11   5   19.69    0.75
   5  11  -5   20.46    0.84
   5  -5 -11   20.89    0.75
   5  -5 -11   20.65    0.70
  -5 -11  -5   18.70    0.76
  -5 -11  -5   20.02    0.70
   5 -11   5   19.33    0.85
   5 -11   5   21.00    0.76
  -1   7  11   11.70    0.48
   7  -1 -11   12.48    0.42
 -11  -7   1   11.27    0.48
  -7  -1  11   11.85    0.46
  -7  -1  11   11.11    0.47
  11   1  -7   11.17    0.48
 -11   1   7   11.00    0.46
  11  -7  -1   12.10    0.55
  -7 -11  -1   10.68    0.47
   1  -7  11   11.24    0.48
   7  -1 -11   11.89    0.48
  -1 -11   7   11.33    0.48
  -1 -11   7   11.06    0.42
  -1  11  -7   11.07    0.47
  -1  11  -7   11.64    0.57
   1 -11  -7   11.78    0.45
   1 -11  -7   11.41    0.47
   1   7 -11   11.62    0.49
  -1  -7 -11   11.76    0.48
  -1  -7 -11   12.78    0.49
   7 -11   1   12.66    0.58
  11   1  -7   11.17    0.54
  11  -1   7   12.07    0.53
   7  -1 -11   12.26    0.47
   1 -11  -7   11.41    0.48
   1 -11  -7   11.16    0.41
   7  11  -1   11.82    0.54
   7  -1 -11   12.10    0.47
  -7  -1  11   11.26    0.42
  -1  -7 -11   11.65    0.41
  -7 -11  -1   11.59    0.46
  11  -7  -1   11.28    0.47
  -7 -11  -1   11.72    0.42
  11   7   1   10.70    0.55
  11  -1   7   12.07    0.47
  -1  -7 -11   11.66    0.45
  11   1  -7   11.37    0.48
   1  -7 -11   11.17    0.47
   1  -7 -11   11.21    0.42
  -1 -11  -7   11.10    0.48
  -1 -11  -7   11.43    0.41
   1   7  11   11.72    0.48
   7 -11  -1   13.42    0.58
  -1 -11  -7   12.30    0.47
  -1  -7  11   11.02    0.48
  -7   1  11   10.89    0.47
  -1   7 -11   11.06    0.48
   7  11   1   10.82    0.52
   1  -7 -11   11.29    0.45
   1 -11   7   11.57    0.55
   1 -11   7   11.60    0.48
  -7 -11   1   11.05    0.42
  -1  -7  11   11.10    0.41
  11   7  -1   11.29    0.55
  -7 -11   1   11.44    0.46
  11  -1  -7   11.86    0.46
  11  -1  -7   11.18    0.48
  11  -1  -7   11.54    0.49
   1  11  -7   11.12    0.47
   1  11  -7   11.13    0.57
   1  -7 -11   11.51    0.48
  11  -7   1   11.46    0.47
  11  -7   1   11.28    0.55
   7   1 -11   12.14    0.42
 -11  -1   7   11.05    0.46
  -1 -11  -7   11.59    0.45
   7   1 -11   11.70    0.48
 -11  -7  -1   11.62    0.49
   7   1 -11   11.95    0.47
   7   1 -11   11.40    0.47
   7  11  -3   31.98    1.23
   3 -11  -7   31.13    1.15
   3 -11  -7   31.57    1.16
   3 -11  -7   32.25    1.10
  -7 -11  -3   29.59    1.16
  -7 -11  -3   32.36    1.10
  11  -3   7   31.78    1.23
  -3   7  11   28.16    1.16
  11   3  -7   32.91    1.24
  11   3  -7   32.46    1.17
  -3 -11   7   32.83    1.17
  -3 -11   7   31.17    1.10
  -3  11  -7   31.51    1.17
   3 -11  -7   32.34    1.14
  11  -7  -3   30.62    1.15
  11  -7  -3   34.06    1.25
  -7 -11  -3   32.11    1.14
  -7  -3  11   30.81    1.10
  11  -3   7   32.81    1.16
   7  -3 -11   32.64    1.15
  11   3  -7   31.88    1.17
   3  -7  11   30.52    1.16
   3   7 -11   31.22    1.17
 -11  -7   3   31.72    1.17
  -7  -3  11   32.69    1.15
   7 -11   3   32.18    1.27
  -3 -11   7   32.77    1.15
  -7  -3  11   32.21    1.16
  11   7   3   30.32    1.24
   7  -3 -11   32.08    1.17
   7  -3 -11   33.21    1.11
  -7   3 -11   34.25    1.16
  -3  -7 -11   31.01    1.17
  -3  -7 -11   30.70    1.16
 -11  -7   3   31.78    1.15
 -11  -3  -7   30.47    1.15
  -3 -11  -7   31.72    1.10
   3  -7 -11   32.21    1.10
  -3 -11  -7   29.98    1.17
  -3 -11  -7   30.43    1.15
 -11  -3   7   30.37    1.10
  -3  -7  11   31.19    1.14
  11   7  -3   31.45    1.24
  11  -7   3   30.08    1.24
  -3   7 -11   30.98    1.17
  -7 -11   3   32.22    1.11
   3  -7 -11   33.06    1.15
   3  -7 -11   31.77    1.16
   3  -7 -11   32.20    1.17
  -7  11  -3   28.99    1.15
   3   7  11   32.96    1.17
   7 -11  -3   33.45    1.15
   3  11  -7   31.66    1.25
   3 -11   7   31.49    1.25
  -7   3  11   31.78    1.16
  -3 -11  -7   31.38    1.14
  11  -7   3   31.38    1.16
  11  -3  -7   31.14    1.18
   3 -11   7   31.55    1.16
  -7 -11   3   31.86    1.15
  11  -3  -7   32.26    1.17
 -11  -7  -3   30.32    1.17
   3  11  -7   31.62    1.16
  -3  -7  11   28.38    1.16
  -3  -7  11   29.79    1.10
   7   3 -11   30.97    1.15
 -11  -3   7   29.44    1.14
  -5 -11   7   20.62    0.73
 -11  -5  -7   20.30    0.78
   5 -11  -7   21.41    0.72
  -7  -5  11   20.25    0.77
  -7 -11  -5   20.44    0.76
  -7 -11  -5   19.79    0.79
  -7 -11  -5   20.18    0.72
   7  -5 -11   20.32    0.79
   7  -5 -11   21.39    0.73
  -5  11  -7   19.12    0.79
  11  -7  -5   20.48    0.77
  11  -7  -5   20.77    0.80
 -11  -7   5   21.43    0.79
  -5 -11   7   21.22    0.77
  -5 -11   7   21.43    0.79
   5 -11  -7   20.02    0.79
  -5   7  11   19.95    0.79
 -11  -7   5   19.94    0.77
  -7  -5  11   19.90    0.72
 -11  -7   5   19.85    0.72
   5 -11  -7   21.07    0.78
   5  -7  11   20.20    0.78
   5   7 -11   20.18    0.78
   5 -11  -7   21.03    0.77
   7 -11   5   19.47    0.88
   7  11  -5   20.09    0.85
  -7   5 -11   20.93    0.79
   7  -5 -11   21.56    0.78
  11  -5   7   20.76    0.78
  11  -5   7   20.66    0.86
  11   5  -7   19.77    0.78
  11   5  -7   20.44    0.85
  -5  -7 -11   20.14    0.79
  11   5  -7   21.61    0.79
  -5  -7  11   20.42    0.79
  -5 -11  -7   21.48    0.72
   7 -11  -5   21.35    0.77
  -5  -7  11   19.79    0.76
  -5 -11  -7   20.61    0.76
   5  -7 -11   20.90    0.78
   5  -7 -11   19.84    0.79
  -7  -5 -11   19.23    0.77
 -11  -5   7   21.73    0.79
 -11  -5   7   19.98    0.72
  -7   5  11   21.69    0.78
   7   5 -11   19.59    0.78
  -5 -11  -7   19.83    0.77
  -5 -11  -7   19.94    0.79
  11  -7   5   20.57    0.78
  11  -7   5   20.24    0.87
  11   7  -5   21.24    0.78
  11   7  -5   20.84    0.86
 -11  -5   7   19.49    0.77
   5 -11   7   19.72    0.86
   5 -11   7   20.16    0.78
   5  11  -7   21.05    0.78
   5  11  -7   21.76    0.87
   5  -7 -11   21.86    0.77
  -7 -11   5   19.86    0.77
  -7 -11   5   20.06    0.78
  -7 -11   5   19.80    0.73
  -7  11  -5   19.17    0.78
 -11  -7  -5   20.15    0.79
  11  -5  -7   19.85    0.80
  -5   7 -11   21.36    0.80
  -5  -7  11   19.36    0.72
  11  -5  -7   20.83    0.78
   5  -7 -11   21.01    0.73
  -7 -11  -7    5.66    0.30
  -7  -7  11    6.06    0.30
  -7 -11   7    5.99    0.24
  -7  -7 -11    6.03    0.30
  -7  -7  11    5.98    0.24
  11   7  -7    6.12    0.35
  -7   7 -11    6.48    0.31
   7   7 -11    6.15    0.29
   7  11  -7    6.18    0.29
   7  11  -7    6.35    0.36
  11  -7  -7    6.21    0.31
  11  -7   7    6.09    0.30
  11  -7   7    6.38    0.38
  11   7  -7    5.94    0.29
   7 -11  -7    6.08    0.24
   7 -11   7    6.18    0.38
   7  -7 -11    6.57    0.29
   7  -7 -11    5.99    0.31
  -7  11  -7    5.92    0.30
   7 -11  -7    6.24    0.31
  -7 -11   7    6.38    0.30
  -7  -7  11    6.83    0.29
   7 -11  -7    6.52    0.29
   7 -11  -7    6.09    0.28
 -11  -7  -7    6.08    0.30
 -11  -7   7    6.11    0.29
 -11  -7   7    6.46    0.30
 -11  -7   7    6.18    0.24
  -7 -11  -7    5.93    0.27
   7  -7 -11    6.42    0.24
  -7 -11   7    6.43    0.29
  -7   7  11    6.09    0.30
 -11   1   9   18.46    0.74
 -11   1   9   18.35    0.70
  -1  -9 -11   19.71    0.74
  11  -9  -1   21.59    0.86
 -11  -9   1   19.43    0.75
   1   9 -11   21.64    0.86
   1 -11  -9   19.93    0.74
   9 -11   1   19.89    0.75
  11  -9  -1   19.61    0.75
  -1 -11   9   20.41    0.78
  -1 -11   9   19.23    0.70
  -1  11  -9   19.57    0.77
  -1  11  -9   20.06    0.87
  -9  -1  11   19.46    0.75
  -9 -11  -1   20.06    0.70
   9 -11   1   22.00    0.88
   9  11  -1   19.50    0.83
   9  -1 -11   19.35    0.76
   9  -1 -11   19.96    0.78
  -1  -9 -11   19.22    0.76
  -1  -9 -11   19.72    0.78
  -1  -9 -11   20.07    0.70
  11   9   1   18.71    0.84
  11   1  -9   20.29    0.78
   1 -11  -9   19.24    0.77
   1 -11  -9   19.62    0.70
  11   1  -9   19.85    0.77
   1  -9  11   19.30    0.77
   1   9 -11   20.20    0.78
   9  -1 -11   20.06    0.76
   9  -1 -11   20.19    0.71
   1 -11  -9   20.22    0.76
  -9 -11  -1   19.36    0.75
  -9 -11  -1   19.82    0.77
 -11  -9   1   20.30    0.77
  -9  -1  11   19.29    0.70
   1  -9 -11   19.03    0.78
  -1 -11  -9   19.75    0.74
  -1 -11  -9   19.84    0.76
  11  -9   1   20.50    0.86
 -11  -9  -1   19.85    0.77
   1  -9 -11   19.64    0.70
 -11  -1   9   18.89    0.75
  -1   9 -11   19.03    0.77
   9   1 -11   19.22    0.76
   9   1 -11   20.23    0.77
   1  -9 -11   20.02    0.74
   1  -9 -11   19.98    0.76
  -9 -11   1   19.68    0.70
  -9   1  11   18.96    0.70
  11   9  -1   21.06    0.85
 -11  -1   9   19.04    0.70
  -1  -9  11   19.57    0.77
   9 -11  -1   22.42    0.88
  -1   9 -11   20.83    0.86
  -9 -11   1   19.69    0.75
  -9 -11   1   19.37    0.76
   9  11   1   18.65    0.82
  11  -1  -9   20.12    0.75
  11  -1  -9   19.99    0.77
  11  -1  -9   19.95    0.78
  11  -1  -9   20.79    0.71
  -1 -11  -9   19.63    0.78
  -1 -11  -9   19.52    0.70
   1  11  -9   20.37    0.87
  11  -9   1   19.67    0.76
   1 -11   9   19.60    0.77
   1  11  -9   18.89    0.77
   9   1 -11   20.97    0.76
  11  -3   9   15.55    0.66
   9  -3 -11   15.95    0.62
  11   3  -9   14.96    0.60
  11   3  -9   15.36    0.61
   3 -11  -9   15.15    0.54
 -11   3   9   14.45    0.54
  -9 -11  -3   15.40    0.58
  11  -3   9   15.80    0.60
  -3  -9 -11   15.33    0.62
  -3  -9 -11   15.06    0.54
   3 -11  -9   15.15    0.59
   3 -11  -9   14.88    0.60
   3 -11  -9   15.75    0.62
  -9 -11  -3   14.43    0.61
 -11  -9   3   14.83    0.59
   9  -3 -11   15.87    0.55
  -3  -9 -11   14.71    0.57
  -9  -3  11   14.99    0.59
   9  -3 -11   15.50    0.60
   3  -9  11   14.70    0.67
   3  -9  11   15.34    0.61
   3   9 -11   14.84    0.61
   3   9 -11   16.14    0.67
   9 -11   3   15.09    0.60
  -3  -9 -11   14.83    0.60
  -3 -11   9   15.24    0.61
  -3 -11   9   14.90    0.54
  11   9   3   13.07    0.66
   9  -3 -11   15.27    0.60
 -11  -9   3   14.95    0.54
  -3  11  -9   15.91    0.71
  -9  -3  11   14.66    0.54
  -9   3 -11   16.70    0.61
   9  11  -3   15.18    0.67
 -11  -9   3   14.84    0.61
  11  -9  -3   14.95    0.59
  -3  11  -9   14.49    0.61
  -3 -11   9   16.16    0.59
   9 -11   3   14.26    0.70
 -11  -3   9   14.61    0.54
  -3 -11  -9   15.20    0.54
 -11  -9  -3   14.69    0.61
  -3  -9  11   15.32    0.58
  -3  -9  11   15.16    0.61
  -3  -9  11   14.75    0.54
   9   3 -11   15.57    0.60
  11  -3  -9   15.61    0.54
   3  -9 -11   14.40    0.61
   3  11  -9   14.97    0.60
 -11  -3   9   14.23    0.59
   3  -9 -11   15.51    0.54
  11  -3  -9   14.87    0.62
  -9 -11   3   15.43    0.60
  -9 -11   3   15.05    0.54
   9   3 -11   14.88    0.60
   3  -9 -11   15.17    0.59
  -3 -11  -9   14.77    0.58
  -3 -11  -9   14.91    0.60
  -3   9 -11   14.99    0.62
   3 -11   9   15.12    0.61
  -3   9 -11   15.88    0.69
   3  11  -9   15.41    0.69
   3  -9 -11   15.36    0.60
  11  -3  -9   15.46    0.59
  11  -3  -9   15.61    0.61
  11  -9   3   14.87    0.60
  11  -9   3   14.91    0.69
  11   9  -3   14.95    0.68
 -11   3  -9   16.93    0.61
  -3 -11  -9   13.96    0.61
   5   9 -11   16.36    0.62
  -5  11  -9   15.17    0.63
   5 -11  -9   15.80    0.61
   5 -11  -9   16.15    0.62
  -9 -11  -5   15.35    0.63
  -9  -5  11   14.60    0.56
  -9   5 -11   16.25    0.63
   9  -5 -11   16.11    0.56
 -11  -9   5   15.94    0.62
  -5   9  11   14.94    0.62
 -11  -9   5   14.72    0.61
  -5 -11   9   15.97    0.61
  -5 -11   9   15.07    0.62
  -5 -11   9   15.45    0.56
   5  -9  11   14.38    0.68
   5  -9  11   16.01    0.62
 -11  -5  -9   15.34    0.61
   5   9 -11   17.08    0.68
   9 -11   5   14.27    0.71
   9  11  -5   15.31    0.69
   5 -11  -9   15.67    0.56
  -9  -5  11   15.02    0.60
   9  -5 -11   16.32    0.61
  11  -5   9   16.09    0.70
  11   5  -9   15.95    0.62
  11   5  -9   16.63    0.68
  11   5  -9   16.57    0.62
   5 -11  -9   15.10    0.63
   9  -5 -11   15.45    0.64
 -11  -9   5   15.95    0.56
  -5  -9 -11   15.72    0.63
  -5   9 -11   15.70    0.63
   5 -11   9   14.74    0.69
 -11   5  -9   16.58    0.63
   5 -11   9   15.06    0.62
  11  -5  -9   15.61    0.64
  11  -5  -9   15.93    0.61
  -5  -9  11   14.78    0.56
   9   5 -11   15.74    0.62
  11  -9   5   15.33    0.62
   5  -9 -11   15.55    0.61
  11   9  -5   15.59    0.69
  -9 -11   5   15.30    0.56
  -9  -5 -11   14.48    0.60
  11  -5  -9   16.17    0.62
  -5  -9  11   15.56    0.60
  -5  -9  11   15.79    0.63
  -5 -11  -9   15.31    0.59
  -5 -11  -9   14.76    0.61
  -5 -11  -9   15.85    0.64
  -5 -11  -9   15.69    0.55
   5  -9 -11   15.67    0.62
   5  -9 -11   15.46    0.63
   5  -9 -11   15.84    0.56
   5  11  -9   15.65    0.62
   5  11  -9   16.37    0.69
  -9  11  -5   15.35    0.63
 -11  -5   9   15.42    0.61
 -11  -5   9   16.15    0.62
 -11  -5   9   15.49    0.56
 -11  -9  -5   15.65    0.63
  11  -9   5   14.49    0.71
  -9 -11   5   15.47    0.61
  -7  11  -9   15.77    0.65
 -11  -9   7   16.17    0.63
 -11  -9   7   16.03    0.58
 -11   9  -7   15.59    0.64
  -7   9  11   15.14    0.64
  -9  -7  11   16.24    0.62
  -9  -7  11   15.42    0.58
  -9   7 -11   16.83    0.65
   9  -7 -11   16.25    0.63
   7  -9  11   15.53    0.71
   7   9 -11   16.46    0.64
   7   9 -11   17.28    0.70
   9 -11   7   14.60    0.72
   9  11  -7   16.05    0.71
   7 -11  -9   16.83    0.64
   7 -11  -9   16.02    0.65
  11  -7   9   15.70    0.72
  11   7  -9   15.88    0.64
  11   7  -9   17.25    0.71
   9  -7 -11   16.74    0.58
   7 -11  -9   16.62    0.58
  11  -9  -7   17.25    0.66
  -9 -11  -7   16.20    0.65
   7 -11  -9   16.44    0.62
  -7 -11   9   16.56    0.64
   9  -7 -11   15.73    0.66
  -7  -9 -11   15.32    0.64
  -7 -11   9   16.14    0.58
  -7 -11   9   15.07    0.62
  -7  -9  11   15.21    0.58
  -7   9 -11   15.73    0.65
  -9  -7 -11   14.22    0.63
   7  -9 -11   16.59    0.63
   7  -9 -11   16.37    0.64
   7  -9 -11   15.51    0.65
  -7 -11  -9   16.15    0.65
  -7  -9  11   16.85    0.64
  -9 -11   7   16.12    0.58
 -11  -9  -7   17.55    0.66
  -7  -9  11   15.57    0.62
  -9 -11   7   15.43    0.63
  11  -7  -9   16.43    0.62
  11  -7  -9   16.10    0.66
 -11  -7   9   16.25    0.58
   7 -11   9   15.01    0.71
   7  11  -9   16.23    0.63
   7  11  -9   16.76    0.71
   7  -9 -11   16.69    0.58
  -9  11  -7   15.64    0.65
 -11  -7   9   16.01    0.63
   9   7 -11   15.69    0.63
 -11   7  -9   16.65    0.64
  11  -9   7   15.40    0.73
  11   9  -7   16.13    0.63
  11   9  -7   16.33    0.71
 -11  -9  -9   12.48    0.52
 -11  -9   9   12.01    0.49
 -11  -9   9   12.18    0.45
 -11   9  -9   11.42    0.51
  -9 -11  -9   12.22    0.52
  -9 -11   9   12.00    0.50
  -9 -11   9   12.28    0.45
  -9  -9 -11   11.71    0.51
  -9  -9  11   11.32    0.49
  -9  -9  11   11.89    0.45
  -9   9 -11   11.87    0.52
  -9  11  -9   12.35    0.52
   9 -11  -9   11.88    0.49
   9 -11  -9   12.61    0.52
   9 -11  -9   12.26    0.44
   9 -11   9   11.65    0.59
   9  -9 -11   12.40    0.50
   9  -9 -11   12.12    0.52
   9  -9 -11   12.89    0.45
   9  -9  11   11.40    0.57
   9   9 -11   12.81    0.51
   9   9 -11   13.65    0.57
   9  11  -9   12.72    0.50
   9  11  -9   12.78    0.57
  11  -9  -9   12.23    0.52
  11  -9   9   11.26    0.59
  11   9  -9   12.77    0.51
  11   9  -9   13.27    0.58
 -11 -11  -1   18.74    0.73
 -11 -11  -1   19.70    0.75
 -11 -11   1   18.59    0.73
 -11 -11   1   18.70    0.74
 -11  -1  11   19.33    0.73
 -11  -1  11   19.55    0.68
 -11   1  11   18.00    0.73
 -11   1  11   19.05    0.68
  -1 -11 -11   18.75    0.72
  -1 -11 -11   18.88    0.74
  -1 -11 -11   18.41    0.76
  -1 -11 -11   18.48    0.68
  -1 -11  11   18.85    0.75
  -1  11 -11   19.55    0.76
  -1  11 -11   20.72    0.86
   1 -11 -11   18.54    0.72
   1 -11 -11   19.19    0.75
   1 -11 -11   18.08    0.76
   1 -11 -11   19.33    0.68
   1 -11  11   19.94    0.76
   1  11 -11   18.77    0.75
   1  11 -11   19.47    0.84
  11 -11  -1   21.70    0.87
  11 -11   1   18.71    0.74
  11 -11   1   19.91    0.86
  11  -1 -11   19.10    0.74
  11  -1 -11   18.77    0.74
  11  -1 -11   19.14    0.76
  11  -1 -11   19.69    0.69
  11   1 -11   18.25    0.74
  11   1 -11   19.48    0.75
  11  11  -1   19.78    0.83
  11  11   1   19.45    0.83
 -11 -11  -3    6.11    0.32
 -11 -11   3    6.31    0.30
 -11 -11   3    6.26    0.30
 -11 -11   3    6.48    0.25
 -11  -3  11    6.08    0.30
 -11  -3  11    6.42    0.25
 -11   3  11    6.19    0.29
 -11   3  11    6.27    0.25
  -3 -11 -11    6.28    0.29
  -3 -11 -11    6.47    0.31
  -3 -11 -11    6.02    0.32
  -3 -11 -11    6.34    0.24
  -3 -11  11    6.49    0.32
  -3 -11  11    6.53    0.25
  -3  11 -11    6.16    0.32
  -3  11 -11    6.56    0.41
   3 -11 -11    6.34    0.30
   3 -11 -11    6.36    0.31
   3 -11 -11    6.55    0.33
   3 -11 -11    6.45    0.25
   3 -11  11    6.48    0.31
   3  11 -11    6.11    0.30
   3  11 -11    6.83    0.38
  11 -11   3    6.19    0.30
  11 -11   3    6.38    0.40
  11  -3 -11    6.95    0.31
  11  -3 -11    6.21    0.31
  11  -3 -11    7.41    0.34
  11  -3 -11    6.51    0.25
  11   3 -11    6.75    0.31
  11   3 -11    6.78    0.31
  11  11  -3    6.67    0.38
 -11 -11  -5   10.59    0.47
 -11 -11   5   10.93    0.44
 -11 -11   5   10.32    0.39
 -11  -5  11   10.86    0.44
 -11  -5  11   10.26    0.39
 -11   5 -11   11.49    0.46
 -11  11  -5   10.67    0.46
  -5 -11 -11   10.43    0.47
  -5 -11  11   10.58    0.43
  -5 -11  11   10.77    0.46
  -5 -11  11   10.44    0.39
  -5  11 -11   10.56    0.46
  -5  11 -11   11.10    0.56
  -5  11  11   10.50    0.46
   5 -11 -11   10.59    0.44
   5 -11 -11   10.41    0.45
   5 -11 -11   10.45    0.47
   5 -11 -11   10.44    0.39
   5 -11  11    9.88    0.51
   5 -11  11   10.35    0.45
   5  11 -11   10.42    0.45
   5  11 -11   11.63    0.52
  11 -11   5    9.48    0.54
  11  -5 -11   11.21    0.44
  11  -5 -11   10.72    0.48
  11  -5 -11   10.82    0.39
  11   5 -11   10.50    0.45
  11  11  -5   11.28    0.53
 -11 -11  -7   19.17    0.73
 -11 -11   7   18.00    0.69
 -11 -11   7   17.71    0.64
 -11  -7 -11   17.66    0.70
 -11  -7  11   17.42    0.69
 -11  -7  11   17.82    0.64
 -11   7 -11   18.10    0.71
 -11  11  -7   17.27    0.71
  -7 -11 -11   18.06    0.72
  -7 -11  11   17.91    0.68
  -7 -11  11   17.75    0.70
  -7 -11  11   18.27    0.64
  -7  11 -11   16.77    0.71
  -7  11  11   17.88    0.71
   7 -11 -11   17.81    0.69
   7 -11 -11   18.99    0.70
   7 -11 -11   17.41    0.71
   7 -11 -11   18.07    0.64
   7 -11  11   16.99    0.77
   7  11 -11   18.08    0.69
   7  11 -11   18.34    0.76
  11 -11   7   16.45    0.79
  11  -7 -11   18.79    0.69
  11  -7 -11   17.26    0.72
  11  -7 -11   18.25    0.64
  11   7 -11   18.05    0.70
  11  11  -7   18.16    0.78
 -11 -11  -9    9.21    0.42
 -11 -11   9    9.20    0.39
 -11 -11   9    9.06    0.34
 -11  -9 -11    9.82    0.42
 -11  -9  11    9.23    0.39
 -11  -9  11    9.23    0.34
 -11   9 -11    9.93    0.42
 -11  11  -9    8.39    0.41
  -9 -11 -11    9.73    0.43
  -9 -11  11    9.30    0.39
  -9 -11  11    9.32    0.35
  -9  11 -11    9.35    0.42
   9 -11 -11    9.04    0.39
   9 -11 -11    9.07    0.42
   9 -11 -11    9.46    0.35
   9 -11  11    8.00    0.45
   9  11 -11    9.47    0.40
   9  11 -11    9.70    0.46
  11 -11  -9    9.34    0.42
  11 -11   9    8.39    0.48
  11  -9 -11    9.16    0.39
  11  -9 -11    9.04    0.42
  11  -9 -11    9.73    0.35
  11  -9  11    8.87    0.47
  11   9 -11    9.04    0.40
  11   9 -11   10.13    0.47
  11  11  -9    9.91    0.47
 -11 -11 -11    4.81    0.26
 -11 -11  11    4.13    0.22
 -11 -11  11    4.47    0.18
  11 -11 -11    4.71    0.23
  11 -11 -11    4.21    0.25
  11 -11  11    3.73    0.28
  11  11 -11    5.27    0.30
 -12   0   0  226.21    7.98
   0 -12   0  216.41    8.35
   0 -12   0  232.25    7.97
   0   0  12  231.75    7.97
   0  12   0  233.78    8.07
  12   0   0  240.78    7.97
  12   0   0  227.38    8.05
 -12   0  -2   10.55    0.42
 -12   0   2    9.70    0.43
  -2 -12   0    9.74    0.72
  -2 -12   0   10.17    0.40
  -2 -12   0    9.85    0.42
  -2 -12   0    9.87    0.36
  -2  12   0    9.80    0.50
   0  -2 -12   10.24    0.41
   0  -2  12    9.47    0.42
   0   2 -12   10.44    0.42
   0   2  12   10.83    0.72
   0   2  12    9.92    0.42
   2 -12   0   10.22    0.68
   2 -12   0   11.09    0.50
   2 -12   0    9.99    0.41
   2  12   0    9.39    0.49
  12   0  -2   10.44    0.42
  12   0  -2    9.91    0.49
  12   0  -2    9.73    0.42
  12   0   2   10.35    0.41
  12   0   2    9.93    0.48
  -2   0  12   11.99    0.77
  -2   0  12    9.82    0.42
   0 -12  -2    9.40    0.70
   0 -12  -2   10.25    0.40
   0 -12  -2   10.04    0.41
   0 -12  -2   10.34    0.36
   0 -12   2    9.88    0.70
   0 -12   2   10.12    0.42
   0  12  -2    9.90    0.51
   2   0 -12    9.87    0.40
   2   0  12    9.18    0.41
  12  -2   0    9.87    0.41
  12  -2   0    9.22    0.47
  12  -2   0    9.27    0.41
  12   2   0    9.91    0.41
  12   2   0    9.58    0.49
 -12   2   0    9.84    0.42
 -12  -2   0    9.81    0.43
   2  -2  12    9.66    0.41
   2   2 -12   10.32    0.41
   2   2  12    9.85    0.41
   2  12  -2    9.65    0.50
  12  -2  -2    9.99    0.41
  12  -2  -2    9.81    0.48
  12  -2  -2    9.46    0.42
  12  -2   2    9.77    0.41
  12  -2   2    9.28    0.47
  12   2  -2    9.97    0.42
   2  -2 -12   10.12    0.36
   2 -12  -2   10.27    0.41
   2 -12  -2    9.85    0.36
   2 -12   2   10.47    0.50
   2 -12   2    9.80    0.41
 -12  -2  -2    9.87    0.42
 -12  -2   2    9.59    0.43
  -2 -12  -2    9.59    0.71
  -2 -12  -2    9.68    0.39
  -2 -12  -2    9.59    0.41
  -2 -12  -2    9.99    0.36
  -2 -12   2   10.78    0.75
  -2 -12   2    9.74    0.40
  -2 -12   2    9.20    0.42
  12   2   2    9.61    0.40
  12   2   2   10.02    0.49
  -2 -12   2    9.73    0.36
  -2  -2  12   11.07    0.74
  -2  -2  12    9.93    0.42
  -2   2 -12   10.25    0.42
  -2   2  12   10.69    0.74
  -2   2  12   10.21    0.42
  -2  12  -2    9.47    0.50
   2 -12  -2    8.76    0.66
   2  -2 -12   10.43    0.41
  12   2  -2    9.20    0.49
  12   2  -2    9.52    0.41
 -12  -4   0  227.56    7.90
  -4   0  12  220.76    7.88
   0 -12  -4  232.15    7.86
   0 -12  -4  224.92    7.88
   0 -12  -4  223.05    7.84
   0 -12   4  228.45    8.28
   0 -12   4  222.90    7.89
   0 -12   4  227.06    7.82
   0  12  -4  229.07    8.00
   4   0 -12  233.54    7.87
   4   0 -12  227.05    7.87
   4   0 -12  235.31    7.83
   4   0  12  232.46    7.88
  12   0   4  221.15    7.95
  -4 -12   0  223.26    7.88
  -4 -12   0  223.61    7.83
   0  -4 -12  234.95    7.86
   0  -4 -12  225.81    7.88
   0  -4 -12  233.37    7.83
   0  -4  12  216.93    7.88
   0   4 -12  218.17    7.89
   0   4  12  240.19    8.32
   0   4  12  235.05    7.89
   4 -12   0  252.94    7.98
  12   0  -4  227.45    7.89
  12   0   4  226.79    7.87
  -4 -12   0  226.53    7.87
  12  -4   0  219.76    7.96
  12   4   0  225.53    7.87
  12   4   0  217.88    7.98
   4 -12   0  234.21    7.88
   4  12   0  224.70    7.95
  12   0  -4  232.65    7.89
  12   0  -4  217.73    7.96
  12  -4   0  217.11    7.88
   2 -12  -4    7.95    0.30
   4  -2 -12    8.23    0.30
   4   2  12    8.34    0.35
  12  -4  -2    7.89    0.35
  12  -4  -2    7.98    0.42
  12  -4  -2    8.04    0.36
  -2 -12   4    7.98    0.34
  -2   4  12    7.65    0.35
   4  12  -2    8.02    0.42
  12   2  -4    7.49    0.35
 -12  -2  -4    7.73    0.35
  -4   2 -12    8.69    0.36
   4  -2 -12    8.71    0.35
   4  -2 -12    8.18    0.35
  -4  -2  12    8.10    0.33
  -4  -2  12    7.63    0.35
  12   2  -4    7.42    0.42
  12   2  -4    8.06    0.36
  -2  -4 -12    7.74    0.35
  -4 -12  -2    8.38    0.35
  12  -2   4    7.91    0.35
   2  -4  12    8.00    0.35
   2   4 -12    8.16    0.35
  12   4   2    7.74    0.42
  -2 -12   4    7.87    0.36
  12  -2   4    7.79    0.41
 -12  -4   2    7.93    0.37
   2 -12  -4    7.92    0.33
   2 -12  -4    7.93    0.34
  -4  -2  12    8.16    0.30
   4 -12   2    8.51    0.35
  -2 -12   4    7.85    0.30
  -2  12  -4    7.65    0.44
   4 -12   2    8.84    0.44
  -4 -12  -2    8.40    0.30
  -4 -12  -2    8.07    0.34
  -2 -12  -4    7.77    0.33
   2   4  12    8.83    0.36
  12   4  -2    7.76    0.35
  -4 -12   2    7.19    0.35
  -2 -12  -4    7.59    0.34
   4   2 -12    8.31    0.30
  -2  -4  12    7.52    0.35
  -2  -4  12    8.06    0.30
  -2   4 -12    8.02    0.36
  12  -4   2    7.84    0.41
   2  -4 -12    8.10    0.34
   2  -4 -12    7.79    0.35
   2  -4 -12    8.15    0.30
  12  -2  -4    7.70    0.36
  -2 -12  -4    8.00    0.35
  -4 -12   2    8.24    0.34
   4  -2  12    8.06    0.35
 -12  -4  -2    8.59    0.37
   4   2 -12    7.95    0.34
  12   2   4    7.69    0.41
   4 -12  -2    8.30    0.34
  -4 -12   2    8.07    0.30
   2 -12   4    8.22    0.43
  12  -2  -4    8.13    0.36
  12  -2  -4    7.84    0.42
   2 -12   4    8.01    0.36
   2  12  -4    7.78    0.45
  12  -4   2    8.03    0.35
   4 -12  -2    8.59    0.29
   4   2 -12    8.15    0.35
  12   4  -2    7.55    0.43
   4 -12  -2    7.47    0.58
   4 -12  -2    8.83    0.33
  -2 -12  -4    7.79    0.30
 -12  -2   4    7.97    0.37
  -4   2  12    7.67    0.35
   4   4 -12  182.30    6.22
   4   4  12  191.78    6.23
   4  12  -4  182.88    6.32
  12  -4  -4  174.40    6.22
  -4 -12   4  174.39    6.23
  -4 -12   4  178.08    6.17
  -4  -4 -12  179.23    6.21
  -4  -4  12  179.67    6.20
  -4  -4  12  176.11    6.22
  -4  -4  12  176.25    6.16
  -4   4 -12  187.59    6.23
  -4   4  12  177.76    6.22
  -4  12  -4  171.99    6.21
   4 -12  -4  181.64    6.20
   4 -12   4  186.23    6.22
   4  -4 -12  188.15    6.21
   4  -4 -12  183.98    6.23
 -12  -4  -4  177.43    6.22
 -12  -4   4  175.98    6.23
  -4 -12  -4  179.35    6.20
  -4 -12  -4  173.03    6.21
  -4 -12  -4  159.04    6.21
  -4 -12  -4  178.23    6.16
  -4 -12   4  180.07    6.21
  12  -4  -4  174.86    6.23
  12  -4   4  176.13    6.22
  12  -4   4  174.36    6.30
  12   4  -4  184.76    6.23
  12   4  -4  174.58    6.32
  12   4  -4  176.08    6.22
  12   4   4  177.59    6.30
  12  -4  -4  182.20    6.30
   4  -4 -12  183.54    6.17
   4  -4  12  178.79    6.22
   4 -12   4  178.76    6.31
   4 -12  -4  181.92    6.21
   4 -12  -4  182.12    6.16
   6   0 -12    6.74    0.30
   0  12  -6    6.26    0.40
   6   0 -12    6.56    0.30
  -6 -12   0    6.59    0.30
  -6 -12   0    6.28    0.30
  -6 -12   0    6.28    0.25
   0  -6 -12    6.89    0.29
   0  12  -6    6.40    0.30
  12   0   6    6.58    0.36
   0   6 -12    6.54    0.32
   0   6  12    6.20    0.31
   6 -12   0    8.18    0.41
   6 -12   0    6.86    0.30
   6  12   0    6.62    0.36
  12   0  -6    6.48    0.32
   6   0 -12    7.01    0.31
   6   0 -12    6.98    0.26
  12  -6   0    6.44    0.30
  12  -6   0    6.67    0.38
  12   6   0    6.04    0.38
   0  -6 -12    6.72    0.25
 -12  -6   0    6.61    0.32
  -6   0  12    7.20    0.31
  -6   0  12    6.56    0.25
   0 -12  -6    6.38    0.29
   0 -12  -6    6.15    0.30
   0 -12  -6    6.54    0.31
   0 -12  -6    6.84    0.25
   0 -12   6    6.29    0.31
   0 -12   6    7.35    0.25
   0  -6 -12    6.95    0.31
   0  -6  12    6.20    0.31
  12   0  -6    6.52    0.32
  12   0   6    7.08    0.30
   0  -6 -12    6.75    0.32
  12   0  -6    6.94    0.38
   2 -12  -6    8.55    0.36
   2 -12  -6    7.96    0.30
  -2   6  12    8.18    0.37
  -2  12  -6    7.97    0.36
  -6 -12  -2    8.34    0.35
  -6 -12  -2    8.22    0.31
  -2  -6 -12    7.80    0.36
  -6  -2  12    8.68    0.35
  -6  -2  12    8.62    0.37
   6 -12   2    8.89    0.46
   6 -12   2    8.62    0.36
  12  -2   6    8.27    0.36
  12  -2   6    8.29    0.42
  12   2  -6    8.03    0.37
  12   2  -6    7.95    0.43
  12   2  -6    9.01    0.38
   6  -2 -12    8.49    0.36
   6  -2 -12    8.85    0.37
   6  -2 -12    8.63    0.31
   6  12  -2    8.27    0.43
  -2 -12   6    8.15    0.37
 -12  -6   2    8.36    0.38
   2  -6  12    8.33    0.37
   2   6 -12    8.52    0.37
  12  -6  -2    8.04    0.36
   2 -12  -6    8.35    0.35
   2 -12  -6    8.02    0.36
  12   6   2    7.89    0.45
  -6 -12  -2    7.97    0.35
  -6 -12  -2    7.78    0.36
  -2 -12   6    7.87    0.34
 -12  -2  -6    7.88    0.35
  -2 -12   6    8.31    0.31
  -6  -2  12    8.45    0.31
  -2  12  -6    8.47    0.46
  12  -6  -2    8.49    0.44
 -12  -6  -2    7.82    0.37
   6 -12  -2    8.91    0.35
   6   2 -12    8.33    0.36
   2  -6 -12    8.29    0.36
   2  -6 -12    8.41    0.37
   2   6  12    8.43    0.37
 -12  -2   6    7.76    0.34
   6   2 -12    8.58    0.31
  -2 -12  -6    7.83    0.36
  -2 -12  -6    8.11    0.30
  -2 -12  -6    8.29    0.34
  -6 -12   2    8.26    0.36
   2  -6 -12    8.37    0.31
   2 -12   6    7.91    0.37
   2  12  -6    8.15    0.46
  -2  -6  12    7.96    0.37
  -2  -6  12    8.11    0.30
  -2   6 -12    8.59    0.38
   6   2 -12    8.71    0.37
   2  -6 -12    8.63    0.35
  -6 -12   2    7.83    0.31
  12  -2  -6    8.28    0.37
   2 -12   6    8.77    0.45
  12  -6   2    7.72    0.36
  12  -2  -6    8.24    0.38
  12   2   6    8.29    0.42
  -6   2  12    7.97    0.36
  -6 -12   2    7.71    0.36
  12  -6   2    8.43    0.44
  12   6  -2    8.22    0.45
  -6 -12  -4    8.01    0.34
  -6 -12  -4    7.68    0.36
  -6 -12  -4    8.28    0.30
  12   4  -6    8.27    0.37
  12   6   4    7.63    0.43
 -12  -4  -6    8.28    0.36
   6  12  -4    8.29    0.43
  -4  12  -6    8.14    0.37
   4 -12  -6    8.29    0.36
   4 -12  -6    8.45    0.30
  -4 -12   6    8.74    0.37
  -6  -4  12    8.40    0.30
  -6   4 -12    8.77    0.37
   4 -12  -6    8.62    0.35
   6  -4 -12    8.50    0.37
 -12  -6   4    7.54    0.34
 -12  -6   4    8.36    0.38
  -6  -4  12    8.03    0.35
  -6  -4  12    7.99    0.36
  12   4  -6    8.20    0.44
  -4   6  12    8.35    0.37
  12  -6  -4    7.70    0.35
  12  -6  -4    8.08    0.37
  12  -4   6    8.25    0.43
   6  -4 -12    8.29    0.36
   4  -6  12    7.91    0.37
   4   6 -12    8.20    0.36
  -4 -12   6    8.64    0.35
  -4 -12   6    8.45    0.31
  12   4  -6    8.62    0.37
   6 -12   4    7.97    0.45
   6 -12   4    8.38    0.35
   6  -4 -12    8.25    0.31
  12  -4   6    8.27    0.36
  -4  -6 -12    7.68    0.36
  -4  -6  12    8.47    0.34
   4 -12   6    8.32    0.45
  12  -4  -6    8.52    0.37
  12  -4  -6    8.19    0.38
  -6  12  -4    7.14    0.36
  -4 -12  -6    7.98    0.35
 -12  -4   6    8.42    0.38
 -12  -4   6    7.74    0.34
  -6 -12   4    7.99    0.35
  -6 -12   4    7.74    0.36
   6 -12  -4    8.11    0.35
   4  12  -6    8.46    0.45
   4  -6 -12    8.53    0.31
 -12  -6  -4    8.02    0.37
  -4   6 -12    8.63    0.37
   6   4 -12    8.12    0.35
  -6   4  12    8.40    0.36
  -4 -12  -6    8.36    0.34
  12  -6   4    7.96    0.36
  12  -6   4    7.57    0.43
  12   6  -4    8.51    0.36
  12   6  -4    8.10    0.43
  -4  -6  12    7.76    0.37
  -4  -6  12    7.93    0.30
   4   6  12    8.57    0.37
   4 -12   6    8.83    0.37
   6 -12  -4    8.12    0.30
   4  -6 -12    8.10    0.35
   4  -6 -12    8.21    0.37
  -4 -12  -6    7.71    0.37
  -4 -12  -6    8.26    0.30
  -6 -12   4    7.92    0.31
  12  -6   6    5.54    0.36
  -6   6  12    6.55    0.30
 -12  -6   6    6.25    0.30
  12  -6  -6    6.09    0.31
  12  -6   6    5.98    0.29
   6  12  -6    6.09    0.36
  12  -6  -6    6.02    0.29
  -6   6 -12    6.87    0.31
 -12  -6  -6    5.85    0.30
 -12  -6   6    5.81    0.28
   6   6 -12    6.06    0.29
  12   6  -6    5.99    0.35
   6 -12  -6    6.15    0.23
   6 -12   6    6.03    0.38
  12   6  -6    6.15    0.29
   6  -6 -12    6.02    0.31
  -6 -12  -6    5.86    0.27
  -6 -12  -6    5.37    0.29
  -6 -12  -6    5.77    0.23
  -6 -12   6    6.04    0.28
  -6 -12   6    5.95    0.29
  -6 -12   6    5.96    0.24
  -6  -6 -12    6.16    0.29
  -6  -6  12    6.41    0.28
  -6  -6  12    6.39    0.30
  -6  -6  12    6.27    0.23
   6  -6 -12    6.49    0.24
   6 -12  -6    6.04    0.28
   6 -12  -6    5.99    0.28
   6  -6 -12    6.45    0.29
  -6  12  -6    5.77    0.29
  12   0  -8  143.30    5.02
   8  12   0  141.68    5.08
   0   8 -12  146.45    5.03
   0   8  12  143.14    5.02
   0  -8 -12  141.99    4.94
  12  -8   0  141.70    5.00
   8 -12   0  164.69    5.15
  12   8   0  131.61    5.10
   0  -8  12  134.81    5.01
   0  -8 -12  138.27    5.01
   0  -8 -12  139.49    5.02
  -8 -12   0  141.17    5.00
  -8 -12   0  139.43    5.00
  -8 -12   0  143.01    4.95
   0  -8 -12  143.87    4.98
 -12  -8   0  145.05    5.02
  -8   0  12  144.23    4.99
  -8   0  12  145.69    5.00
  -8   0  12  143.59    4.95
   0 -12  -8  146.01    4.99
   0 -12  -8  143.26    5.01
   0 -12  -8  142.10    5.02
   0 -12  -8  142.84    4.95
   0 -12   8  147.24    5.02
   0  12  -8  144.99    5.01
   0  12  -8  145.64    5.13
   8   0 -12  150.83    5.01
   8   0 -12  143.60    5.00
   8   0 -12  146.10    5.02
 -12   0   8  129.34    4.99
  12  -8   0  144.48    5.11
  12   0  -8  144.24    5.02
   8   0 -12  151.05    4.95
  12   2  -8    7.07    0.33
  12   8   2    5.91    0.38
  12  -8  -2    6.85    0.31
   8  -2 -12    6.90    0.31
   2   8 -12    7.13    0.33
  -2  -8 -12    6.62    0.25
   8 -12   2    7.43    0.42
  -8  -2  12    6.81    0.26
   8  -2 -12    7.16    0.26
   8  12  -2    7.54    0.39
  12  -2   8    7.16    0.32
  12  -2   8    6.81    0.37
 -12   2   8    5.91    0.29
  12  -8  -2    7.42    0.40
   2  -8  12    6.41    0.32
  -2   8  12    6.53    0.32
  -8  -2  12    6.97    0.32
  -2 -12   8    6.90    0.30
  -2 -12   8    6.75    0.33
  -2 -12   8    6.67    0.26
   8  -2 -12    6.86    0.33
 -12  -8   2    7.45    0.33
  -2  12  -8    6.36    0.32
  -2  12  -8    6.83    0.42
  -8  -2  12    6.71    0.30
  -2  -8 -12    6.69    0.29
  -2  -8 -12    6.23    0.32
   2 -12  -8    6.70    0.26
  -8 -12  -2    6.67    0.32
   2 -12  -8    6.58    0.30
   2 -12  -8    6.40    0.31
   2 -12  -8    6.61    0.32
   8  -2 -12    7.41    0.32
  -2  -8 -12    6.97    0.33
  -8 -12  -2    7.43    0.26
  12   2  -8    6.57    0.32
  -8 -12  -2    7.17    0.31
   8   2 -12    6.58    0.31
  -2 -12  -8    6.56    0.33
  12  -2  -8    6.85    0.33
  -2 -12  -8    6.55    0.31
  12  -2  -8    6.49    0.33
   2   8  12    7.10    0.33
 -12  -8  -2    7.05    0.33
   8   2 -12    6.99    0.32
  -2  -8  12    6.59    0.32
  -2 -12  -8    6.73    0.26
  12  -8   2    6.91    0.32
  12  -2  -8    6.99    0.31
  -2 -12  -8    6.80    0.30
 -12  -2   8    6.40    0.30
 -12  -2   8    6.61    0.26
  -8   2  12    6.69    0.31
   2  -8 -12    7.00    0.26
   2  -8 -12    6.52    0.33
  -8 -12   2    7.08    0.26
  -8  12  -2    6.26    0.31
  -2  -8  12    6.54    0.25
  -2   8 -12    6.78    0.33
   2  -8 -12    6.48    0.32
   2 -12   8    6.75    0.39
   2 -12   8    6.99    0.33
  12   8  -2    7.39    0.40
  -8 -12   2    6.86    0.31
   2  12  -8    6.43    0.31
   2  12  -8    6.67    0.41
   8   2 -12    6.79    0.32
   2  -8 -12    6.70    0.30
  12  -8   2    7.06    0.40
  -8 -12  -4  145.86    4.80
  -4  12  -8  132.64    4.87
   4 -12  -8  141.93    4.85
   4 -12  -8  140.50    4.86
  -4 -12   8  141.67    4.80
   4 -12  -8  142.24    4.80
   4   8 -12  136.31    4.86
  12   4  -8  145.67    4.94
  -4 -12   8  144.55    4.85
   4  -8  12  138.13    4.87
   8  -4 -12  143.84    4.86
   8  -4 -12  140.68    4.88
   8  -4 -12  146.08    4.81
  -8  -4  12  140.79    4.86
  12  -8  -4  136.20    4.85
  -4   8  12  139.65    4.87
  -8 -12  -4  139.19    4.85
 -12  -8   4  137.61    4.85
   8 -12   4  133.81    4.97
  -8  -4  12  141.73    4.85
  12  -4   8  140.21    4.87
   4 -12  -8  139.31    4.87
  -4 -12   8  136.88    4.87
  -8 -12  -4  138.28    4.87
 -12  -4  -8  129.39    4.85
  -4  -8 -12  138.18    4.87
  -4  -8 -12  131.93    4.86
  -8  -4  12  136.56    4.80
  12  -4   8  135.65    4.94
  12   4  -8  141.21    4.87
 -12  -8   4  140.07    4.87
  12   4  -8  140.89    4.87
   8  12  -4  140.03    4.95
  -8   4 -12  154.01    4.88
  12  -4  -8  142.50    4.87
 -12  -4   8  134.60    4.80
 -12  -4   8  135.29    4.85
 -12  -4   8  146.84    4.88
   4  12  -8  139.81    4.85
  12  -4  -8  137.59    4.89
  12   8  -4  139.08    4.96
   4 -12   8  136.96    4.87
  -4 -12  -8  130.74    4.88
   8   4 -12  140.32    4.86
  -4 -12  -8  138.85    4.80
  -4  -8  12  144.15    4.84
   4 -12   8  134.36    4.96
   4   8  12  150.32    4.88
  -4 -12  -8  135.37    4.86
   4  -8 -12  139.81    4.80
  -4   8 -12  141.97    4.88
  12  -8   4  136.43    4.87
   4  -8 -12  142.80    4.85
   4  -8 -12  138.44    4.87
   4  -8 -12  143.44    4.88
  -4  -8  12  134.35    4.80
 -12  -8  -4  140.33    4.88
  -8   4  12  139.72    4.86
  -4 -12  -8  137.88    4.84
  -8 -12   4  140.39    4.86
  -8 -12   4  140.26    4.81
  -8  12  -4  126.35    4.86
  12  -8   4  131.32    4.96
   4  12  -8  142.84    4.96
  -4  -8  12  137.45    4.87
  -8  -6  12    4.68    0.24
  -8  -6  12    4.75    0.25
  12   6  -8    4.89    0.26
  12   6  -8    5.21    0.32
   8  -6 -12    4.98    0.20
   8  -6 -12    5.17    0.28
  12  -8  -6    5.10    0.27
  12  -6   8    4.56    0.33
 -12  -6  -8    5.09    0.26
  -6 -12   8    4.71    0.20
  -6   8  12    4.69    0.26
  12  -6   8    5.04    0.26
   8  -6 -12    5.19    0.25
   6 -12  -8    5.06    0.27
   6   8 -12    5.22    0.26
   8 -12   6    4.70    0.34
   8  12  -6    5.01    0.32
  -6 -12   8    5.17    0.25
  -6  12  -8    4.79    0.26
   6 -12  -8    4.95    0.25
   6 -12  -8    5.11    0.25
  -8 -12  -6    5.33    0.24
  -8 -12  -6    5.33    0.28
  -6 -12   8    4.99    0.26
  -8  -6  12    4.86    0.20
  -8   6 -12    5.35    0.27
  -6  -8 -12    4.68    0.26
 -12  -8   6    5.19    0.25
 -12  -8   6    5.18    0.26
   6 -12  -8    4.99    0.20
 -12  -8   6    5.06    0.20
  -8 -12   6    5.39    0.25
  -6   8 -12    5.24    0.27
  -8  -6 -12    4.64    0.25
 -12  -6   8    5.24    0.27
 -12  -6   8    4.84    0.20
   6  -8 -12    4.91    0.20
  -6  -8  12    5.02    0.24
   6 -12   8    4.57    0.32
   6  12  -8    4.85    0.32
  -6 -12  -8    4.83    0.23
  -8 -12   6    5.03    0.20
   6  -8 -12    5.04    0.28
   8   6 -12    4.92    0.25
  -8  12  -6    4.54    0.26
  -6 -12  -8    4.93    0.28
  12  -8   6    4.83    0.33
  12   8  -6    5.11    0.25
  12   8  -6    5.06    0.32
   6  -8 -12    4.99    0.25
 -12  -6   8    4.89    0.25
  -6 -12  -8    5.00    0.19
  12  -6  -8    5.06    0.25
 -12  -8  -6    5.16    0.27
  -6  -8  12    4.83    0.20
  12  -8   6    5.25    0.26
  -8   6  12    4.68    0.25
  12  -6  -8    4.96    0.28
  -6  -8  12    4.46    0.26
  12   8  -8  105.39    3.57
 -12   8  -8  101.26    3.50
   8  -8 -12  100.75    3.48
  12  -8  -8   96.75    3.50
  12   8  -8  100.47    3.48
   8  -8 -12   99.24    3.51
   8  -8 -12  100.66    3.43
   8 -12   8   89.95    3.58
  -8  -8 -12   94.63    3.49
  -8  -8  12   99.85    3.47
  -8  -8  12   98.75    3.43
   8   8 -12   99.95    3.49
   8  12  -8  100.94    3.57
 -12  -8  -8   98.05    3.50
  -8   8  12   98.52    3.49
  -8 -12  -8  101.00    3.51
  -8 -12   8  100.08    3.48
  -8   8 -12   96.34    3.50
   8 -12  -8  100.64    3.42
 -12  -8   8   99.93    3.48
 -12  -8   8   99.33    3.43
  12  -8   8   94.71    3.59
  -8 -12   8  104.09    3.43
   8 -12  -8   98.77    3.47
  -8  12  -8   96.98    3.50
   0  10 -12    7.02    0.34
  10 -12   0    8.01    0.44
  12   0 -10    7.41    0.35
 -12   0  10    6.92    0.32
   0  10 -12    7.84    0.42
   0 -10  12    6.23    0.33
 -12 -10   0    7.54    0.34
   0 -12 -10    7.29    0.27
   0 -12  10    7.14    0.34
   0  10  12    6.68    0.34
  12 -10   0    6.93    0.32
  12 -10   0    7.54    0.42
  12  10   0    7.12    0.41
   0 -10 -12    6.80    0.33
   0 -10 -12    6.81    0.35
   0 -10 -12    7.03    0.27
   0 -12 -10    6.98    0.31
   0 -12 -10    6.62    0.33
   0 -12 -10    7.03    0.35
  10  12   0    7.12    0.39
  12   0 -10    7.12    0.33
 -12   0  10    6.71    0.27
 -10 -12   0    6.91    0.32
 -10 -12   0    6.98    0.33
 -10 -12   0    6.70    0.27
   0 -10 -12    6.74    0.31
   0  12 -10    6.85    0.34
   0  12 -10    6.84    0.42
  10   0 -12    7.10    0.33
  10   0 -12    7.00    0.32
  10   0 -12    7.56    0.35
 -10   0  12    6.96    0.32
 -10   0  12    7.18    0.27
  10  12  -2    5.49    0.34
 -12 -10   2    5.69    0.28
 -10  -2  12    5.51    0.26
   2 -12 -10    5.20    0.27
   2 -12 -10    5.38    0.28
 -10  -2  12    5.45    0.21
   2  10 -12    5.35    0.27
  -2  10  12    5.11    0.28
  12 -10  -2    5.06    0.26
  10  -2 -12    5.90    0.27
  10  -2 -12    5.60    0.27
  10  -2 -12    5.48    0.29
   2 -10  12    5.56    0.28
 -12 -10   2    5.08    0.26
  -2 -10 -12    4.91    0.28
  -2 -10 -12    5.42    0.21
  -2 -12  10    5.43    0.28
  -2  12 -10    5.44    0.36
   2 -12 -10    4.98    0.25
 -10 -12  -2    5.16    0.26
  10 -12   2    5.33    0.36
  10 -12   2    4.77    0.26
   2 -12 -10    5.25    0.21
  12  10   2    4.99    0.34
  -2 -12  10    5.37    0.21
  -2  12 -10    4.79    0.27
  12   2 -10    5.18    0.27
  12   2 -10    5.29    0.28
 -12   2  10    5.10    0.25
 -12   2  10    5.04    0.21
  -2 -10 -12    5.45    0.25
 -10 -12  -2    5.55    0.28
  -2 -10 -12    5.08    0.27
  10  -2 -12    5.54    0.22
   2 -10 -12    5.05    0.27
 -10 -12   2    5.28    0.26
  -2  10 -12    5.27    0.35
   2 -12  10    5.36    0.28
 -10   2  12    5.47    0.26
 -10   2  12    5.22    0.21
  -2 -12 -10    4.87    0.25
  -2 -12 -10    5.18    0.27
  -2 -12 -10    5.29    0.29
  -2 -12 -10    5.32    0.21
 -10 -12   2    5.46    0.21
  12  -2 -10    5.20    0.29
  12  -2 -10    5.18    0.21
   2  12 -10    5.32    0.27
   2  12 -10    5.51    0.35
  -2 -10  12    5.34    0.28
   2  10  12    5.54    0.28
  -2  10 -12    5.43    0.28
 -12 -10  -2    5.57    0.29
  12 -10   2    5.45    0.36
  12  10  -2    5.55    0.35
 -12  -2  10    4.70    0.21
 -12  -2  10    4.99    0.25
   2 -10 -12    5.55    0.26
  12 -10   2    5.14    0.26
  10   2 -12    5.09    0.26
  10   2 -12    5.41    0.28
  12  -2 -10    5.00    0.27
   2 -10 -12    5.40    0.21
  -2 -10  12    5.35    0.21
  12  -2 -10    5.70    0.26
   2 -10 -12    5.05    0.28
 -12 -10   4    4.44    0.24
   4 -12 -10    4.25    0.23
 -12   4  10    4.00    0.21
   4 -12 -10    4.29    0.25
  -4  12 -10    4.31    0.33
  -4  10  12    3.95    0.24
  -4 -12  10    4.24    0.24
  -4 -12  10    4.21    0.17
  -4 -10 -12    4.17    0.25
  -4 -12  10    4.20    0.22
   4 -12 -10    4.20    0.17
  12   4 -10    4.21    0.23
  -4  12 -10    3.65    0.23
   4  10 -12    3.98    0.23
 -12 -10   4    4.04    0.22
  12   4 -10    4.20    0.23
   4 -10  12    3.94    0.23
 -10  -4  12    4.47    0.22
 -10  -4  12    3.98    0.17
  10 -12   4    3.94    0.31
 -10 -12  -4    3.93    0.24
 -10   4 -12    4.51    0.23
  10  -4 -12    3.93    0.25
  10  -4 -12    4.33    0.23
  -4 -10 -12    4.14    0.23
   4 -12 -10    4.46    0.23
  10  12  -4    4.11    0.29
   4 -10  12    3.95    0.28
 -12 -10   4    3.89    0.17
  10  -4 -12    4.28    0.18
  -4 -12 -10    4.09    0.25
 -12  -4  10    4.16    0.22
 -10 -12   4    4.12    0.22
  -4 -12 -10    4.22    0.21
  -4 -10  12    4.22    0.17
  12  -4 -10    3.90    0.22
  12  -4 -10    4.09    0.23
  12  -4 -10    3.98    0.25
 -12  -4  10    3.98    0.17
   4 -10 -12    4.05    0.17
  -4  10 -12    4.16    0.24
  -4  10 -12    4.28    0.31
   4 -12  10    4.03    0.30
   4 -12  10    3.98    0.23
   4  12 -10    3.92    0.22
   4  12 -10    4.47    0.30
  -4 -12 -10    3.96    0.17
 -12 -10  -4    4.09    0.25
   4  10  12    4.48    0.24
  10   4 -12    4.04    0.23
  12 -10   4    3.64    0.22
  12 -10   4    3.82    0.31
  12  10  -4    3.62    0.28
 -10  12  -4    3.79    0.23
  -4 -10  12    4.06    0.21
  -4 -10  12    4.19    0.24
 -12  -4  10    4.42    0.24
   4 -10 -12    3.71    0.23
   4 -10 -12    4.07    0.25
   4 -10 -12    4.00    0.22
 -12   4 -10    4.68    0.24
  -4 -12 -10    4.05    0.23
 -10 -12   4    4.01    0.17
 -10   6 -12    6.04    0.29
  10  12  -6    5.33    0.34
  -6  12 -10    5.24    0.28
   6 -12 -10    5.34    0.26
  12  -6  10    5.29    0.34
  12   6 -10    5.14    0.27
  10 -12   6    4.86    0.35
 -10  -6  12    6.06    0.22
   6 -12 -10    5.37    0.29
  -6 -12  10    5.28    0.26
  -6 -12  10    5.26    0.27
   6 -10  12    5.03    0.33
   6  10 -12    5.68    0.27
 -10 -12  -6    5.28    0.29
 -12 -10   6    4.11    0.25
 -12 -10   6    5.50    0.21
  -6  10  12    5.25    0.28
  10  -6 -12    5.42    0.21
 -10  -6  12    5.94    0.26
 -12  -6 -10    5.54    0.27
 -12  10  -6    5.24    0.28
  -6 -10 -12    5.07    0.29
  10  -6 -12    5.51    0.27
  10  -6 -12    5.19    0.29
  -6 -12  10    5.42    0.21
   6 -12 -10    5.14    0.27
   6 -12 -10    5.27    0.21
  -6 -10  12    5.29    0.21
  -6 -10  12    5.71    0.26
  -6 -10  12    5.19    0.27
 -12 -10  -6    5.61    0.29
  -6  10 -12    5.20    0.28
   6 -10 -12    5.22    0.26
   6  12 -10    5.16    0.26
 -10  -6 -12    5.31    0.27
   6 -10 -12    5.56    0.27
   6 -10 -12    5.40    0.29
   6 -10 -12    5.44    0.21
  -6 -12 -10    5.11    0.29
  12 -10   6    4.80    0.35
   6 -12  10    5.29    0.35
 -12  -6  10    5.73    0.27
 -12  -6  10    5.02    0.21
 -12   6 -10    5.74    0.28
   6  12 -10    5.47    0.33
 -10 -12   6    5.62    0.27
 -10 -12   6    5.43    0.21
 -10  12  -6    4.85    0.27
  12  10  -6    5.14    0.34
  -6  10 -12    6.37    0.37
  12  -6 -10    5.40    0.26
  12  -6 -10    5.03    0.29
  10   6 -12    5.19    0.27
 -10  -8  12    4.41    0.19
   8 -10  12    4.07    0.29
   8  10 -12    4.87    0.25
  10 -12   8    4.12    0.32
  10  12  -8    4.85    0.31
  -8 -12  10    5.29    0.24
  12  -8  10    4.58    0.32
  12   8 -10    4.79    0.25
  12   8 -10    5.52    0.32
   8 -12 -10    4.88    0.24
  -8  10  12    4.83    0.26
 -12 -10   8    4.61    0.19
 -12  10  -8    4.81    0.26
 -12  -8 -10    5.26    0.26
  10  -8 -12    4.75    0.19
   8 -12 -10    4.82    0.19
  12 -10  -8    4.68    0.26
 -10 -12  -8    4.45    0.26
  -8  12 -10    4.33    0.26
  10  -8 -12    4.75    0.24
  10  -8 -12    4.84    0.27
  -8 -10 -12    4.52    0.26
 -12 -10   8    4.77    0.24
  -8 -12  10    5.01    0.19
   8 -12 -10    5.06    0.27
 -10   8 -12    5.05    0.26
 -10  -8  12    4.63    0.24
  -8 -10  12    5.05    0.24
 -10  -8 -12    4.70    0.26
   8 -10 -12    4.78    0.24
   8 -10 -12    4.56    0.19
   8 -10 -12    4.92    0.27
  -8 -12 -10    4.96    0.28
  12  -8 -10    4.85    0.27
  -8 -10  12    4.37    0.19
 -10 -12   8    4.45    0.24
  -8  10 -12    4.38    0.26
 -12 -10  -8    4.79    0.27
 -12  -8  10    4.75    0.19
   8 -12  10    4.20    0.31
   8  12 -10    4.86    0.24
   8  12 -10    5.17    0.31
 -10 -12   8    4.63    0.19
 -10  12  -8    4.27    0.25
 -12  -8  10    4.71    0.24
  10   8 -12    4.57    0.25
 -12   8 -10    4.96    0.26
  12 -10   8    4.25    0.32
  12  10  -8    4.59    0.31
 -12 -10 -10    2.82    0.20
 -12 -10  10    2.74    0.18
 -12 -10  10    2.72    0.13
 -12  10 -10    2.84    0.19
 -10 -12 -10    2.85    0.21
 -10 -12  10    2.88    0.17
 -10 -12  10    2.65    0.13
 -10 -10 -12    2.97    0.21
 -10 -10  12    3.04    0.18
 -10 -10  12    2.88    0.13
 -10  10 -12    2.92    0.20
 -10  12 -10    2.73    0.19
  10 -12 -10    2.59    0.17
  10 -12 -10    2.83    0.19
  10 -12  10    2.32    0.23
  10 -10 -12    2.85    0.18
  10 -10 -12    2.76    0.20
  10 -10 -12    2.86    0.13
  10 -10  12    2.61    0.22
  10  10 -12    2.95    0.18
  10  12 -10    3.12    0.24
  12 -10 -10    3.21    0.21
  12 -10  10    2.57    0.24
  12  10 -10    2.93    0.24
 -12 -12   0   93.22    3.33
 -12 -12   0   94.44    3.35
 -12   0  12   94.70    3.33
 -12   0  12   93.97    3.28
   0 -12 -12   94.36    3.33
   0 -12 -12   93.51    3.35
   0 -12 -12   95.11    3.37
   0 -12 -12   95.07    3.28
   0 -12  12   93.70    3.36
   0  12 -12   90.85    3.35
   0  12 -12   96.42    3.44
  12 -12   0  101.81    3.48
  12   0 -12   92.97    3.35
  12   0 -12   95.06    3.35
  12  12   0   99.85    3.45
 -12 -12  -2    4.53    0.25
 -12 -12   2    4.24    0.22
 -12 -12   2    4.43    0.24
 -12  -2  12    4.19    0.22
 -12  -2  12    4.14    0.17
 -12   2  12    4.35    0.22
 -12   2  12    4.04    0.17
  -2 -12 -12    4.19    0.22
  -2 -12 -12    3.84    0.24
  -2 -12 -12    4.02    0.25
  -2 -12 -12    4.18    0.17
  -2 -12  12    3.90    0.24
  -2 -12  12    4.15    0.17
  -2  12 -12    4.17    0.24
  -2  12 -12    4.56    0.33
  -2  12  12    4.71    0.26
   2 -12 -12    4.44    0.23
   2 -12 -12    4.23    0.24
   2 -12 -12    4.05    0.25
   2 -12 -12    4.15    0.17
   2 -12  12    4.00    0.23
   2  12 -12    3.98    0.23
   2  12 -12    4.09    0.29
   2  12  12    4.31    0.25
  12 -12   2    4.13    0.23
  12 -12   2    4.30    0.32
  12  -2 -12    3.92    0.22
  12  -2 -12    4.06    0.23
  12  -2 -12    4.23    0.25
  12   2 -12    4.07    0.23
  12   2 -12    4.29    0.24
  12  12  -2    4.25    0.30
 -12 -12  -4   88.44    3.00
 -12 -12   4   85.05    2.97
 -12 -12   4   85.59    2.91
 -12  -4  12   84.43    2.96
 -12  -4  12   91.85    2.98
 -12  -4  12   83.43    2.91
 -12   4  12   83.03    2.96
 -12   4  12   83.20    2.91
 -12  12  -4   77.12    2.98
  -4 -12 -12   84.10    2.95
  -4 -12 -12   81.23    2.98
  -4 -12 -12   81.79    3.00
  -4 -12 -12   83.07    2.91
  -4 -12  12   88.33    2.95
  -4 -12  12   85.88    2.98
  -4 -12  12   85.90    2.91
  -4  12 -12   76.47    2.99
  -4  12 -12   87.74    3.09
  -4  12  12   84.64    3.00
   4 -12 -12   82.32    2.96
   4 -12 -12   82.44    2.98
   4 -12 -12   85.90    3.00
   4 -12 -12   84.06    2.91
   4 -12  12   82.42    2.98
   4  12 -12   84.38    2.97
   4  12 -12   88.68    3.04
   4  12  12   87.18    2.99
  12 -12   4   79.55    3.09
  12  -4 -12   84.84    2.97
  12  -4 -12   82.14    2.99
  12  -4 -12   84.97    2.92
  12   4 -12   78.11    2.97
  12   4 -12   87.65    2.97
  12  12  -4   87.35    3.07
 -12 -12  -6    4.11    0.24
 -12 -12   6    4.29    0.22
 -12 -12   6    3.94    0.16
 -12  -6  12    3.69    0.21
 -12  -6  12    3.78    0.16
 -12   6 -12    4.28    0.23
 -12   6  12    3.81    0.16
 -12  12  -6    3.74    0.23
  -6 -12 -12    4.15    0.25
  -6 -12  12    3.98    0.20
  -6 -12  12    3.46    0.21
  -6 -12  12    3.67    0.16
  -6  12 -12    3.65    0.23
  -6  12 -12    3.79    0.30
  -6  12  12    3.57    0.22
   6 -12 -12    3.60    0.21
   6 -12 -12    3.53    0.22
   6 -12 -12    3.79    0.24
   6 -12 -12    3.71    0.16
   6 -12  12    3.30    0.26
   6  12 -12    3.95    0.21
   6  12 -12    4.08    0.27
  12 -12   6    3.62    0.29
  12  -6 -12    3.82    0.21
  12  -6 -12    4.04    0.25
  12  -6 -12    3.83    0.16
  12   6 -12    3.72    0.21
  12  12  -6    3.88    0.28
 -12 -12  -8   74.11    2.52
 -12 -12   8   70.87    2.48
 -12 -12   8   69.32    2.44
 -12  -8 -12   74.52    2.50
 -12  -8  12   69.98    2.48
 -12  -8  12   69.52    2.44
  -8 -12 -12   72.69    2.52
  -8 -12  12   72.59    2.48
  -8 -12  12   71.34    2.44
  -8  12 -12   71.98    2.60
   8 -12 -12   70.57    2.49
   8 -12 -12   69.16    2.51
   8 -12 -12   70.48    2.44
   8 -12  12   62.88    2.55
   8  12 -12   75.53    2.56
  12 -12   8   62.86    2.58
  12  -8 -12   68.60    2.48
  12  -8 -12   68.92    2.51
 -12 -12 -10    3.04    0.21
 -12 -12  10    2.47    0.16
 -12 -12  10    2.47    0.12
 -12 -10 -12    2.61    0.19
 -12 -10  12    2.60    0.16
 -12 -10  12    2.38    0.12
 -10 -12 -12    2.58    0.19
 -10 -12  12    2.48    0.16
 -10 -12  12    2.55    0.12
  10 -12 -12    2.58    0.16
  10 -12 -12    2.57    0.18
  10 -12 -12    2.63    0.12
  10 -12  12    2.19    0.21
  10  12 -12    2.78    0.21
  12 -12  10    2.30    0.22
  12 -10 -12    2.33    0.15
  12 -10 -12    2.57    0.18
  12  12 -10    2.71    0.22
 -12 -12  12   47.95    1.74
 -12 -12  12   50.22    1.70
 -13  -1  -1   23.86    0.92
 -13  -1   1   24.35    0.93
 -13   1  -1   22.53    0.91
 -13   1   1   23.79    0.92
  -1 -13  -1   24.31    0.89
  -1 -13  -1   24.15    0.91
  -1 -13  -1   23.90    0.85
  -1 -13   1   24.16    0.89
  -1 -13   1   25.05    0.92
  -1 -13   1   24.35    0.85
  -1  -1  13   23.98    0.91
  -1  -1  13   24.72    0.85
  -1   1  13   24.57    0.91
  -1  13  -1   24.39    1.01
   1 -13  -1   23.58    0.88
   1 -13  -1   23.73    0.90
   1 -13  -1   23.77    0.85
   1 -13   1   23.94    0.88
   1 -13   1   24.28    0.91
   1 -13   1   24.29    0.85
   1  -1 -13   24.55    0.89
   1  -1 -13   23.92    0.85
   1  -1  13   24.20    0.91
   1   1 -13   24.94    0.90
   1   1 -13   24.76    0.85
   1   1  13   24.01    0.91
   1  13  -1   23.39    1.01
  13  -1  -1   24.24    0.91
  13  -1  -1   23.91    0.99
  13  -1  -1   23.58    0.91
  13  -1   1   24.68    0.91
  13  -1   1   24.21    0.99
  13   1  -1   25.18    0.92
  13   1  -1   22.67    0.99
  13   1   1   24.63    0.91
  13   1   1   23.98    1.00
 -13  -1  -3   14.47    0.59
  -3  -1  13   14.65    0.56
 -13   1   3   16.26    0.62
  -3 -13  -1   14.99    0.57
  -3 -13  -1   14.31    0.59
  -3 -13  -1   14.54    0.53
  -1 -13   3   14.58    0.53
   3   1  13   15.02    0.59
  -1 -13   3   14.76    0.57
  -1 -13   3   16.29    0.60
  -1  -3 -13   14.15    0.58
  -1  13  -3   14.63    0.69
   1 -13  -3   14.90    0.57
   1 -13  -3   15.34    0.59
  -1   3  13   14.14    0.59
  13   3   1   15.07    0.58
  13   3   1   14.33    0.68
  13   1  -3   14.12    0.68
   1  -3  13   14.09    0.58
   1   3 -13   15.19    0.59
   1 -13  -3   15.24    0.53
  13  -3  -1   14.47    0.59
  13  -3  -1   14.52    0.66
  13  -3  -1   14.40    0.58
   3 -13   1   16.79    0.69
   3 -13   1   15.15    0.59
   3 -13   1   14.82    0.53
   3  13  -1   14.71    0.67
  -3  -1  13   14.41    0.53
   3  -1 -13   15.72    0.58
  -3  -1  13   14.13    0.59
  13  -1   3   14.22    0.58
  13  -1   3   14.82    0.66
  13   1  -3   14.89    0.60
   3  -1 -13   15.24    0.53
  13   1  -3   14.36    0.59
 -13  -3   1   14.65    0.61
  13  -1  -3   15.09    0.68
  13  -1  -3   15.63    0.60
  13  -1  -3   14.87    0.60
  -3   1  13   14.03    0.59
  -1 -13  -3   14.85    0.57
   1  -3 -13   14.86    0.53
  -1 -13  -3   14.73    0.53
  13   1   3   14.25    0.58
  -3  13  -1   14.18    0.68
  -3 -13   1   15.12    0.57
  -1  -3  13   14.20    0.59
  -1  -3  13   14.48    0.52
  -1   3 -13   15.06    0.60
   1   3  13   15.15    0.59
   1 -13   3   14.19    0.59
   1 -13   3   14.46    0.53
   1  13  -3   15.74    0.70
  13   1   3   14.55    0.66
  -1 -13  -3   13.70    0.58
   3  -1  13   14.81    0.59
   3   1 -13   15.29    0.58
   3   1 -13   14.63    0.57
   3   1 -13   15.23    0.53
  -3 -13   1   14.60    0.59
   3 -13  -1   15.83    0.57
   3 -13  -1   14.74    0.58
   3 -13  -1   15.18    0.53
  13  -3   1   14.52    0.59
  13  -3   1   14.41    0.66
  13   3  -1   14.32    0.59
  13   3  -1   14.26    0.68
   1  -3 -13   14.62    0.57
   1  -3 -13   14.44    0.58
 -13  -3  -1   14.61    0.60
  -3 -13   1   15.00    0.53
 -13   3   1   14.47    0.59
 -13  -1   3   14.51    0.61
  -3   3  13   26.99    1.03
  -3  13  -3   26.86    1.14
   3 -13  -3   27.96    1.01
   3 -13  -3   27.17    1.02
   3 -13  -3   28.03    0.97
   3 -13   3   28.96    1.13
   3 -13   3   28.43    1.03
   3  -3 -13   28.04    1.01
   3  -3 -13   27.89    1.03
 -13  -3  -3   26.82    1.03
 -13  -3   3   27.72    1.05
  -3 -13  -3   27.56    1.01
  -3 -13  -3   28.27    1.03
   3   3  13   29.08    1.03
   3  13  -3   28.08    1.12
  13  -3  -3   27.23    1.03
  13  -3  -3   27.15    1.11
  13  -3  -3   26.99    1.03
  13  -3   3   27.11    1.02
  13  -3   3   25.65    1.10
  13   3  -3   26.14    1.03
  13   3  -3   25.30    1.12
  13   3   3   27.29    1.12
  -3  -3  13   27.38    0.97
  -3   3 -13   29.21    1.04
  -3 -13   3   27.02    0.97
   3  -3 -13   27.82    0.97
   3  -3  13   27.80    1.03
   3   3 -13   28.60    1.02
   3   3 -13   28.40    1.02
  -3 -13  -3   27.31    0.97
  -3 -13   3   27.51    1.01
  -3 -13   3   27.60    1.04
  -3  -3  13   27.60    1.03
  -3  -3  13   28.30    1.00
   1 -13  -5   17.50    0.63
  -1  13  -5   15.45    0.73
   1 -13  -5   15.99    0.61
   5  -1 -13   16.12    0.57
  -1   5  13   15.38    0.63
   5 -13   1   17.32    0.72
  13   5   1   14.85    0.72
  -1 -13   5   15.71    0.63
  -1 -13   5   15.79    0.56
   5  -1 -13   15.52    0.62
  -1  -5 -13   15.57    0.62
  -1  -5 -13   16.56    0.56
  -5  -1  13   15.40    0.62
   5 -13   1   16.27    0.62
   5  13  -1   15.55    0.69
  13  -5  -1   15.23    0.70
  13   1  -5   14.60    0.70
  -5 -13  -1   15.57    0.61
  13  -1   5   15.82    0.62
  13  -1   5   15.72    0.69
   1  -5  13   16.50    0.63
  -5  -1  13   15.67    0.60
  13   1  -5   15.24    0.63
  -1 -13   5   15.67    0.60
  13  -5  -1   15.19    0.62
   5  -1 -13   16.60    0.62
  13   1  -5   15.28    0.63
 -13  -5   1   15.50    0.64
  -5 -13  -1   16.40    0.62
  -5 -13  -1   15.32    0.56
  -5  -1  13   15.60    0.56
   1 -13  -5   15.71    0.56
   1   5 -13   16.03    0.63
  13  -5   1   15.25    0.62
   1  -5 -13   15.74    0.60
  13   5  -1   15.17    0.72
  13   1   5   16.09    0.70
   1  -5 -13   15.86    0.56
  -5   1  13   15.64    0.62
  -5 -13   1   15.67    0.56
   1   5  13   15.85    0.63
   5 -13  -1   16.36    0.62
  -1  -5  13   15.41    0.63
 -13  -5  -1   15.06    0.64
  -1 -13  -5   15.60    0.62
   1  13  -5   15.29    0.73
  13  -1  -5   15.57    0.70
  -1 -13  -5   15.12    0.62
  13  -5   1   15.01    0.70
  -1 -13  -5   15.83    0.61
   1 -13   5   15.40    0.63
   1 -13   5   16.31    0.56
  -1 -13  -5   15.56    0.56
   5   1 -13   16.48    0.57
  -1   5 -13   16.46    0.64
  13  -1  -5   15.35    0.63
 -13  -1   5   15.53    0.64
  13  -1  -5   15.67    0.64
   5   1 -13   16.11    0.62
   5   1 -13   16.19    0.61
  -5 -13   1   16.15    0.62
  -5 -13   1   15.45    0.63
   1  -5 -13   15.71    0.63
  13   5   3   18.25    0.80
  -3 -13   5   17.83    0.65
  -3  13  -5   18.87    0.83
   3 -13  -5   18.39    0.69
  -3 -13   5   18.94    0.72
   5  -3 -13   18.46    0.70
   5  -3 -13   18.25    0.71
   5  -3 -13   19.07    0.65
  -5  -3  13   18.18    0.71
  13  -5  -3   18.37    0.71
  13  -5  -3   19.11    0.79
  13  -5  -3   17.47    0.71
   3  -5  13   19.28    0.72
   3   5 -13   18.07    0.71
  13   3  -5   17.70    0.80
  13   3  -5   18.31    0.72
 -13  -3  -5   17.72    0.70
  -5   3 -13   19.94    0.71
  -5 -13  -3   18.05    0.69
  -5 -13  -3   18.18    0.70
  -5 -13  -3   16.68    0.70
  -5 -13  -3   18.00    0.65
   5 -13   3   19.02    0.81
   5 -13   3   18.28    0.70
   5  13  -3   18.89    0.79
  -3  -5 -13   17.13    0.70
  -5  -3  13   17.83    0.65
  13  -3   5   18.56    0.79
   3 -13  -5   17.61    0.70
  -3 -13   5   18.16    0.69
  -3   5  13   17.19    0.71
   3 -13  -5   18.37    0.65
  13  -3   5   17.98    0.70
  -5  -3  13   18.44    0.69
  13   3  -5   17.97    0.71
 -13  -5   3   17.89    0.72
 -13  -5  -3   17.71    0.72
  -3  -5  13   18.57    0.72
   5   3 -13   18.14    0.70
  -3  -5  13   18.88    0.68
 -13  -3   5   17.29    0.72
  -5   3  13   18.00    0.71
  13  -5   3   18.04    0.71
  13  -5   3   18.22    0.79
  13   5  -3   18.42    0.71
  13   5  -3   18.22    0.81
  -3   5 -13   18.63    0.72
   3  -5 -13   18.04    0.71
   3  -5 -13   18.34    0.65
  -3 -13  -5   18.01    0.69
  -3 -13  -5   17.34    0.70
  -3  -5  13   18.20    0.65
   3 -13   5   17.73    0.71
   3  13  -5   18.75    0.81
  -3 -13  -5   18.22    0.71
  -3 -13  -5   17.82    0.65
  13   3   5   18.14    0.78
  13  -3  -5   17.03    0.72
   3 -13   5   18.20    0.80
  -5 -13   3   18.32    0.71
  -5 -13   3   18.51    0.65
  13  -3  -5   17.91    0.71
  13  -3  -5   18.81    0.79
   5 -13  -3   18.17    0.64
  -5 -13   3   17.68    0.70
   5 -13  -3   18.59    0.70
   3   5  13   18.94    0.72
   3  -5 -13   18.47    0.69
   5 -13   5   14.16    0.67
   5 -13   5   15.08    0.59
   5  -5 -13   15.32    0.58
   5  -5 -13   14.47    0.60
  -5   5  13   15.34    0.60
  -5   5 -13   15.42    0.60
  -5  -5  13   14.87    0.59
  -5  -5  13   14.40    0.53
  -5 -13   5   14.44    0.59
  -5 -13   5   14.83    0.53
  -5  -5 -13   14.57    0.58
  -5  -5  13   14.84    0.57
  -5 -13  -5   14.53    0.53
  -5 -13   5   14.84    0.58
 -13  -5  -5   14.65    0.59
 -13  -5   5   14.82    0.60
  -5 -13  -5   14.26    0.57
  -5 -13  -5   14.89    0.58
  -5 -13  -5   13.66    0.59
   5 -13  -5   14.63    0.53
  -5  13  -5   13.73    0.58
   5 -13  -5   15.09    0.57
   5 -13  -5   14.75    0.58
  13   5  -5   14.79    0.59
   5  -5 -13   14.82    0.53
   5   5 -13   14.72    0.58
   5  13  -5   14.52    0.67
  13  -5  -5   14.43    0.59
  13  -5  -5   14.26    0.60
  13  -5   5   14.61    0.59
  13  -5   5   13.88    0.66
  13   5   5   15.20    0.67
  13   5  -5   14.68    0.67
  -1  -7 -13   21.01    0.75
  -1 -13   7   21.30    0.83
  -1 -13   7   20.91    0.76
  -1  13  -7   20.70    0.82
  -7 -13  -1   21.43    0.81
  -1  -7 -13   21.34    0.79
  -1  -7 -13   20.59    0.82
  13   1  -7   21.72    0.83
  13   1  -7   21.65    0.90
  13   1  -7   21.80    0.83
   1 -13  -7   21.32    0.80
   1 -13  -7   20.86    0.81
   1 -13  -7   21.60    0.82
   1 -13  -7   21.31    0.76
  -7  -1  13   22.18    0.82
  -7 -13  -1   21.35    0.76
   7  -1 -13   21.40    0.81
 -13  -7   1   21.82    0.84
   1  -7  13   21.39    0.82
   1   7 -13   22.06    0.83
  -7  -1  13   19.74    0.75
   7 -13   1   23.89    0.94
   7  -1 -13   22.11    0.81
   7  -1 -13   21.46    0.82
   7  -1 -13   22.20    0.76
  13  -1   7   17.90    0.87
   7  13  -1   21.16    0.89
  13  -1   7   22.38    0.82
  -1  13  -7   21.60    0.94
  -1   7  13   21.87    0.83
  -7  -1  13   21.04    0.80
  13   7   1   19.93    0.91
  13  -7  -1   21.02    0.81
   1  -7 -13   21.03    0.83
  -1   7 -13   21.99    0.84
  -1  -7  13   21.73    0.83
   7   1 -13   21.76    0.82
   1  13  -7   21.45    0.94
  -7   1  13   21.11    0.76
  13  -1  -7   21.12    0.83
  13  -1  -7   21.48    0.84
  13   1   7   22.54    0.89
   1  -7 -13   20.74    0.75
   7   1 -13   21.87    0.81
   7   1 -13   21.66    0.82
   7   1 -13   21.29    0.76
   7  13   1   22.17    0.88
  13  -7   1   21.45    0.82
  13  -7   1   21.30    0.91
  13   7  -1   21.33    0.92
  -1 -13  -7   21.32    0.80
  -7 -13   1   21.48    0.76
  -1 -13  -7   21.70    0.83
   1  -7 -13   21.26    0.80
   1 -13   7   20.73    0.83
   1   7  13   21.04    0.82
  -7   1  13   21.18    0.81
  -7 -13   1   21.93    0.81
 -13  -7  -1   21.54    0.84
  -1 -13  -7   21.11    0.76
  -1 -13  -7   20.98    0.82
  13  -7  -3   10.26    0.44
   7  -3 -13   10.78    0.38
   3  -7  13    9.74    0.44
   3   7 -13   10.81    0.44
  -3  13  -7   10.06    0.54
   3 -13  -7   10.56    0.43
   3 -13  -7   10.29    0.43
   3 -13  -7   10.76    0.45
   3 -13  -7   10.41    0.38
  13  -3   7   10.19    0.51
  13   3  -7   10.34    0.45
  -7 -13  -3   10.64    0.43
  13   3  -7   10.19    0.44
  13  -7  -3   10.96    0.53
  -7 -13  -3   10.47    0.38
  -3   7  13    9.89    0.44
 -13  -3  -7   10.48    0.43
  -7  -3  13   10.01    0.42
  13   3  -7   10.92    0.52
   7  -3 -13   10.35    0.45
  -7 -13  -3    9.89    0.44
   7 -13   3   10.53    0.54
  -3 -13   7   10.09    0.42
  -7  -3  13   11.60    0.45
  -3  -7 -13   10.21    0.45
   7  -3 -13   10.48    0.44
  -7  -3  13    9.92    0.38
 -13  -7   3   10.37    0.46
  -3  13  -7    9.37    0.43
   7  13  -3   10.38    0.51
  13  -3   7    9.77    0.44
  -3 -13   7   10.63    0.45
  -3 -13   7   10.33    0.38
  13   7   3    9.86    0.53
  -3 -13  -7   10.34    0.38
  -3 -13  -7   10.56    0.44
   3  13  -7   10.30    0.52
  13  -3  -7   10.03    0.46
  -3 -13  -7    9.73    0.45
  -3 -13  -7   10.45    0.42
   3 -13   7    9.76    0.44
   3  -7 -13   10.31    0.38
  -3  -7  13   10.04    0.45
 -13  -7  -3   10.24    0.45
  -7   3  13    9.96    0.44
 -13  -3   7   10.26    0.42
  -7 -13   3   10.40    0.38
   3  -7 -13   10.23    0.45
  13  -7   3   10.66    0.44
  13  -7   3   10.22    0.52
  13   7  -3   10.63    0.54
  13  -3  -7   10.79    0.45
   3  -7 -13   10.28    0.42
  -3  -7  13   10.09    0.38
 -13  -3   7   10.61    0.46
  -7 -13   3    9.81    0.43
   3 -13   7    9.92    0.52
   3   7  13   10.48    0.45
   7 -13  -3   11.06    0.43
  -3   7 -13    9.78    0.45
   7   3 -13   10.84    0.44
  -5 -13   7   12.57    0.54
  -5 -13   7   12.88    0.47
  -5  13  -7   12.09    0.54
   5 -13  -7   12.84    0.52
   5 -13  -7   12.78    0.53
  -7   5 -13   14.90    0.55
   7  -5 -13   13.19    0.53
  -5 -13   7   13.27    0.52
  -7 -13  -5   12.95    0.47
 -13  -5  -7   13.06    0.54
 -13  -7   5   12.88    0.52
 -13  -7   5   13.44    0.55
  -7 -13  -5   12.83    0.52
  -7 -13  -5   13.01    0.54
   7  -5 -13   13.27    0.55
  13  -7  -5   13.10    0.53
  13  -7  -5   13.59    0.55
  -7  -5  13   13.14    0.52
  -7  -5  13   13.47    0.53
  -7  -5  13   12.73    0.47
   5 -13  -7   12.96    0.47
  13  -5   7   13.07    0.53
  13  -5   7   12.84    0.61
  -5  -7 -13   12.36    0.53
  13   5  -7   14.14    0.62
   7  13  -5   12.81    0.60
   7  -5 -13   12.95    0.47
  13   5  -7   13.46    0.54
  -5   7  13   12.50    0.54
   5   7 -13   12.77    0.53
   7 -13   5   12.49    0.63
   5  -7 -13   13.42    0.47
 -13  -7  -5   12.86    0.55
   7 -13  -5   12.91    0.52
   5  -7 -13   13.16    0.55
   5  -7 -13   12.96    0.52
  13  -5  -7   13.33    0.54
  13  -5  -7   13.51    0.55
  -7 -13   5   13.16    0.47
  -7  13  -5   11.94    0.53
  -5   7 -13   13.54    0.54
  -5  -7  13   13.25    0.51
  13   7  -5   12.86    0.53
  13   7  -5   13.10    0.62
   7   5 -13   13.59    0.53
 -13  -5   7   12.31    0.52
 -13  -5   7   13.16    0.55
  13  -7   5   12.52    0.53
  13  -7   5   12.20    0.62
  -5  -7  13   12.67    0.47
   5  13  -7   12.83    0.61
  -5 -13  -7   13.28    0.47
  -7   5  13   13.05    0.53
  -5 -13  -7   12.73    0.51
  -5 -13  -7   12.86    0.53
  -5 -13  -7   12.88    0.55
   5 -13   7   12.81    0.53
  -5  -7  13   13.05    0.54
   5 -13   7   12.80    0.62
  -7 -13   5   13.43    0.53
   7 -13  -7   20.40    0.71
   7 -13  -7   20.30    0.77
  -7  13  -7   18.51    0.78
  -7  -7 -13   20.14    0.77
  -7  -7  13   20.28    0.75
   7 -13  -7   20.37    0.75
  -7 -13   7   19.90    0.71
   7  -7 -13   20.56    0.77
   7  -7 -13   20.09    0.79
   7  -7 -13   20.81    0.71
   7   7 -13   19.95    0.77
  -7 -13   7   20.55    0.77
  13  -7  -7   19.46    0.78
   7 -13   7   18.34    0.85
 -13  -7  -7   20.86    0.78
 -13  -7   7   19.19    0.76
 -13  -7   7   21.20    0.78
 -13  -7   7   19.71    0.71
  -7 -13  -7   19.51    0.75
  -7 -13  -7   20.24    0.79
  -7 -13   7   19.89    0.76
  13  -7   7   19.84    0.87
  13   7  -7   19.82    0.77
  13   7  -7   20.09    0.85
   7  13  -7   20.89    0.85
  -7   7  13   19.11    0.77
  13  -7   7   19.30    0.77
  -7  -7  13   19.83    0.71
  -7   7 -13   19.81    0.78
  -7  -7  13   20.01    0.77
  -1  13  -9   10.94    0.49
  -1  -9 -13   11.46    0.42
  -1 -13   9   12.27    0.43
  -1  -9 -13   11.38    0.49
   9  -1 -13   11.67    0.50
 -13   1   9   11.06    0.47
   1 -13  -9   11.97    0.49
   1 -13  -9   11.78    0.50
   1 -13  -9   11.33    0.43
   1  -9  13   11.52    0.50
   1   9 -13   11.37    0.50
  -9  -1  13   11.95    0.43
   1 -13  -9   11.38    0.47
  -1  -9 -13   12.05    0.51
  13   9   1   11.89    0.59
  13   1  -9   11.53    0.49
  13   1  -9   13.19    0.51
  -9 -13  -1   11.86    0.49
 -13  -9   1   12.20    0.50
  -9 -13  -1   11.24    0.48
  -1 -13   9   11.64    0.50
  13  -9  -1   11.65    0.48
   9  -1 -13   11.99    0.43
  -1  13  -9   11.72    0.60
  -1  -9 -13   11.53    0.47
   9 -13   1   12.55    0.60
   9  13  -1   11.43    0.56
  13  -9  -1   11.98    0.59
  -1   9  13   11.59    0.50
   9  -1 -13   12.21    0.49
   9  -1 -13   11.93    0.48
  -9 -13  -1   11.28    0.43
  -9  -1  13   12.01    0.48
  -9 -13   1   12.11    0.43
   1   9  13   12.10    0.50
  -1  -9  13   11.92    0.50
  13  -1  -9   12.15    0.50
  -1 -13  -9   11.64    0.47
  13   9  -1   12.16    0.59
  -9 -13   1   12.15    0.49
 -13  -9  -1   11.60    0.50
  -1 -13  -9   11.80    0.51
  13  -1  -9   12.92    0.51
  -1 -13  -9   11.60    0.49
   1  -9 -13   11.34    0.43
  -1   9 -13   10.40    0.50
   9   1 -13   12.13    0.49
   9   1 -13   11.49    0.48
   9   1 -13   12.20    0.50
   1  -9 -13   11.30    0.49
   9  13   1   11.49    0.56
  13  -9   1   11.64    0.49
  13  -9   1   12.05    0.59
   1  13  -9   12.47    0.50
   1  -9 -13   11.56    0.47
  -9   1  13   11.55    0.43
   1  -9 -13   11.52    0.51
 -13  -1   9   10.58    0.47
   1 -13   9   11.69    0.50
  -1 -13  -9   11.64    0.43
   1  13  -9   12.01    0.60
  -9   1  13   11.45    0.47
   9  -3 -13   14.19    0.50
  -9 -13  -3   13.71    0.55
  -3  13  -9   12.98    0.57
 -13  -9   3   13.67    0.54
   3   9 -13   13.57    0.56
   3 -13  -9   13.38    0.57
   9  -3 -13   13.95    0.56
   9  -3 -13   14.03    0.57
  -3 -13   9   14.77    0.54
  -3  -9 -13   13.55    0.57
 -13  -9   3   13.83    0.57
  -3 -13   9   13.69    0.57
  -3 -13   9   14.08    0.50
   3 -13  -9   13.62    0.50
  -3  -9 -13   13.25    0.56
  13   3  -9   13.90    0.57
  13  -3   9   14.07    0.56
  -9  -3  13   13.44    0.54
   9 -13   3   13.70    0.66
  -3  13  -9   13.95    0.68
   3 -13  -9   14.38    0.55
  13   3  -9   13.93    0.56
  13   9   3   13.00    0.65
  13  -9  -3   13.97    0.55
  -9  -3  13   13.90    0.50
  -9 -13  -3   14.29    0.57
  -9 -13  -3   13.94    0.50
   3 -13  -9   13.40    0.56
  -3   9  13   13.67    0.57
   9  13  -3   14.13    0.64
  13  -3   9   13.64    0.63
  -3 -13  -9   13.25    0.56
  -9   3  13   13.02    0.49
  13  -9   3   12.92    0.65
  13   9  -3   14.11    0.65
  -3  -9  13   13.97    0.49
 -13  -3   9   13.27    0.49
   3  -9 -13   12.65    0.56
   3  -9 -13   13.61    0.58
   3  -9 -13   13.50    0.50
  -3 -13  -9   14.00    0.50
  -3  -9  13   13.71    0.57
 -13   3  -9   14.97    0.56
 -13  -3   9   13.07    0.54
 -13  -9  -3   14.23    0.58
  -3   9 -13   13.26    0.57
   3 -13   9   14.06    0.57
   3  13  -9   14.11    0.55
  -3 -13  -9   13.62    0.58
  13  -3  -9   13.43    0.57
  13  -3  -9   13.87    0.58
   3   9  13   14.53    0.57
   9   3 -13   13.05    0.55
   3  -9 -13   14.07    0.55
  13  -9   3   13.13    0.56
 -13  -3   9   14.34    0.58
  -3 -13  -9   14.11    0.54
   3  13  -9   13.81    0.64
  -9 -13   3   13.21    0.50
  -9 -13   3   14.43    0.56
   9  -5 -13   11.72    0.42
  -5 -13   9   11.94    0.41
  -5  13  -9    9.86    0.47
   9  -5 -13   11.28    0.49
   9  -5 -13   11.60    0.47
  -5  -9 -13   10.82    0.48
   5 -13  -9   11.38    0.48
 -13  -9   5   10.91    0.46
 -13  -9   5   11.54    0.48
  -9  -5  13   11.73    0.46
  -9  -5  13   11.17    0.41
  -9   5 -13   12.17    0.48
   9  13  -5   11.41    0.55
 -13  -5  -9   11.45    0.47
   5 -13  -9   11.45    0.46
  -9 -13  -5   11.03    0.45
  -9 -13  -5   11.20    0.49
  13   5  -9   12.16    0.55
   5   9 -13   11.46    0.47
   9 -13   5   10.39    0.56
  -5  13  -9   10.98    0.58
  13  -5   9   11.21    0.55
   5 -13  -9   11.01    0.47
  13   5  -9   11.24    0.47
   5 -13  -9   11.13    0.41
  -5   9  13   10.52    0.48
  13   5  -9   11.06    0.47
  -5 -13   9   11.21    0.48
  -5 -13   9   11.67    0.46
  -9 -13   5   10.21    0.41
   5 -13   9   11.31    0.47
   5 -13   9   10.72    0.55
  13  -5  -9   11.59    0.48
  13  -5  -9   10.78    0.49
  -5  -9  13   12.03    0.45
  -5 -13  -9   11.08    0.45
  -5 -13  -9   10.71    0.47
   5  13  -9   11.74    0.55
  -5 -13  -9   11.21    0.41
   5  -9 -13   10.81    0.41
   5  -9 -13   10.82    0.49
   9   5 -13   11.17    0.47
  13  -9   5   10.62    0.47
  -5 -13  -9   11.39    0.50
 -13   5  -9   12.44    0.48
  -5  -9  13   11.01    0.48
  -5  -9  13   11.28    0.41
 -13  -5   9   11.34    0.46
 -13  -5   9   11.78    0.48
 -13  -5   9   11.06    0.41
  13  -9   5   10.21    0.56
  13   9  -5   10.80    0.55
   5  -9 -13   11.78    0.47
  -9  13  -5   10.26    0.47
  -5   9 -13   11.52    0.49
 -13  -9  -5   11.71    0.49
  -9 -13   5   11.45    0.47
   9  -7 -13   10.23    0.43
   9 -13   7    9.21    0.52
   9  -7 -13   10.23    0.45
 -13  -7  -9   10.31    0.44
   7 -13  -9   10.42    0.44
   7 -13  -9   10.07    0.37
  13   7  -9   11.12    0.51
   9  -7 -13   10.01    0.37
  -9 -13  -7   10.95    0.46
   9  13  -7   10.11    0.50
  -7 -13   9    9.78    0.37
  -7   9  13    9.52    0.44
  -7  -9 -13   10.02    0.45
 -13  -9   7   10.02    0.42
 -13  -9   7    9.73    0.37
 -13   9  -7   10.69    0.45
  -7  13  -9    9.40    0.44
  -9  -7  13   10.29    0.42
  -9  -7  13   10.17    0.37
  -9   7 -13   11.47    0.45
   7 -13  -9   10.29    0.43
  -7 -13   9    9.49    0.42
  -7 -13   9   10.03    0.43
  13  -7   9    9.34    0.51
   7   9 -13   10.15    0.43
   7 -13  -9    9.64    0.42
  13   7  -9   10.30    0.43
  -7 -13  -9   10.57    0.46
 -13  -7   9   10.41    0.43
 -13  -9  -7    9.63    0.45
  -9  -7 -13   10.02    0.43
  -7  -9  13   10.06    0.43
  -9 -13   7   10.30    0.43
  -7   9 -13    9.79    0.44
   7 -13   9    9.30    0.51
 -13  -7   9    9.96    0.42
   7  -9 -13    9.87    0.45
 -13   7  -9   10.60    0.44
   9   7 -13    9.78    0.43
  13  -9   7    9.41    0.52
  -9 -13   7   10.08    0.37
  -9  13  -7   10.12    0.44
  -7  -9  13   10.46    0.37
  13  -7  -9    9.91    0.45
   7  13  -9   10.03    0.50
   7  -9 -13   10.21    0.43
 -13  -7   9    9.97    0.37
  -7  -9  13   10.22    0.41
  13   9  -7   10.22    0.51
   7  -9 -13    9.94    0.37
  13  -9  -9    8.97    0.41
   9  13  -9    9.44    0.46
  13   9  -9   10.02    0.48
 -13  -9   9    8.95    0.39
 -13  -9   9    9.12    0.34
 -13   9  -9    9.28    0.41
  -9 -13  -9    9.38    0.42
  -9 -13   9    8.85    0.38
   9 -13  -9    8.94    0.38
  -9  -9  13    8.81    0.33
  13  -9   9    8.64    0.48
  13   9  -9    9.51    0.39
 -13  -9  -9    9.46    0.41
  -9  13  -9    8.76    0.40
  -9 -13   9    8.79    0.34
  -9  -9 -13    8.26    0.40
  -9  -9  13    9.08    0.38
   9  -9 -13    9.17    0.42
   9  -9 -13    9.13    0.34
  -9   9 -13    9.49    0.41
   9   9 -13    9.00    0.39
   9  -9 -13    8.95    0.39
   9 -13  -9    8.91    0.33
   9 -13   9    7.89    0.45
  11  13  -1    9.54    0.49
  13   1 -11    9.23    0.41
  13   1 -11    9.47    0.42
  -1  11  13    9.64    0.43
  -1 -11 -13    9.61    0.40
  -1 -11 -13    9.03    0.42
  -1  13 -11   10.14    0.52
  11 -13   1    9.72    0.52
  13 -11  -1   10.33    0.52
 -13 -11   1   10.10    0.42
 -13   1  11    9.72    0.40
 -13   1  11    9.73    0.35
 -11 -13  -1    9.41    0.40
 -11 -13  -1    9.60    0.42
  11  -1 -13    9.86    0.43
  13 -11  -1    9.21    0.41
  -1 -11 -13    9.57    0.44
  11  -1 -13    9.74    0.41
  13  11   1   10.13    0.51
   1  11 -13    9.14    0.42
   1 -13 -11    9.54    0.40
   1 -13 -11    9.30    0.42
   1 -13 -11    9.40    0.44
   1 -13 -11    9.37    0.35
 -11  -1  13    9.45    0.35
   1 -11  13    9.47    0.42
  11  -1 -13    9.84    0.41
 -11  -1  13    9.19    0.40
  -1 -13  11    9.52    0.42
  -1  13 -11    9.54    0.43
  -1 -11 -13    9.20    0.35
 -13  -1  11    8.79    0.40
  13 -11   1    9.31    0.41
 -11 -13   1   10.21    0.41
 -11 -13   1    9.52    0.35
  -1 -11  13    9.33    0.42
  -1 -13 -11    9.74    0.44
  -1 -13 -11    9.73    0.35
  11   1 -13    9.52    0.41
  11   1 -13    9.88    0.42
  13 -11   1    9.43    0.51
   1 -11 -13    9.28    0.35
  13  -1 -11    9.92    0.42
  13  -1 -11   10.08    0.43
 -13 -11  -1    9.64    0.43
   1 -11 -13    9.29    0.40
   1 -11 -13    9.16    0.42
   1 -11 -13    8.98    0.43
   1 -13  11    9.65    0.42
   1  13 -11    8.82    0.41
   1  13 -11    9.72    0.50
   1  11  13    8.86    0.43
  -1 -13 -11    9.56    0.40
  -1  11 -13    9.05    0.42
 -13  -1  11    9.38    0.35
 -11   1  13    9.63    0.40
 -11   1  13    9.51    0.35
  13  11  -1    9.74    0.51
  -1 -13 -11    9.19    0.42
  11  13   1   10.39    0.50
  13   3 -11   16.31    0.64
  11  -3 -13   16.29    0.63
  13   3 -11   16.28    0.64
   3 -13 -11   15.99    0.58
  -3 -11 -13   16.30    0.57
  11  -3 -13   16.76    0.66
  -3 -13  11   16.14    0.58
  -3  13 -11   15.66    0.65
  -3 -11 -13   15.78    0.62
  -3 -11 -13   15.05    0.64
  11  13  -3   16.40    0.72
 -13 -11   3   15.66    0.62
 -13 -11   3   16.74    0.64
 -11  -3  13   15.94    0.62
 -11  -3  13   16.51    0.58
  -3 -13  11   15.81    0.64
  11 -13   3   15.93    0.75
   3 -13 -11   16.06    0.63
   3 -13 -11   15.88    0.64
   3 -11  13   15.97    0.64
   3  11 -13   15.76    0.64
  -3  11  13   16.32    0.66
  -3 -11 -13   15.82    0.66
  11  -3 -13   16.41    0.58
  -3  13 -11   16.36    0.75
   3 -13 -11   15.71    0.66
 -13   3  11   15.91    0.62
 -11 -13  -3   16.25    0.65
 -11   3  13   15.92    0.62
  -3 -13 -11   15.93    0.62
 -11  13  -3   15.20    0.64
  11   3 -13   15.59    0.63
  13 -11   3   16.14    0.64
  13  -3 -11   16.90    0.66
  -3 -11  13   16.83    0.57
 -13  -3  11   15.75    0.62
  -3 -13 -11   16.08    0.67
  -3 -13 -11   16.07    0.58
 -13  -3  11   15.22    0.57
 -11   3  13   16.08    0.58
  13  -3 -11   15.96    0.64
  -3 -13 -11   15.68    0.64
   3 -13  11   16.34    0.65
   3  13 -11   15.80    0.63
   3  13 -11   16.41    0.71
   3 -11 -13   15.60    0.63
   3 -11 -13   15.91    0.64
   3 -11 -13   16.02    0.66
  13  -3 -11   16.47    0.63
  -3  11 -13   15.04    0.65
  13 -11   3   15.58    0.75
  -3 -11  13   16.26    0.65
 -11 -13   3   16.75    0.58
  13  11  -3   17.12    0.74
 -13  -3  11   17.17    0.65
   3  11  13   16.27    0.65
   3 -11 -13   15.89    0.58
 -13 -11  -3   17.39    0.66
 -11 -13   3   15.36    0.63
  -5 -13  11   12.21    0.50
  -5 -13  11   12.16    0.44
 -11  -5  13   12.00    0.44
  -5 -11 -13   11.50    0.51
 -13   5  11   11.47    0.48
   5  11 -13   11.62    0.49
  -5  13 -11   11.40    0.51
  11  13  -5   11.88    0.57
 -13  11  -5   11.24    0.50
 -13 -11   5   11.96    0.49
  13   5 -11   11.82    0.50
  13   5 -11   12.74    0.50
  -5  11  13   11.13    0.50
  -5  13 -11   12.63    0.61
 -11   5 -13   13.68    0.51
  11 -13   5   10.39    0.58
 -11 -13  -5   13.11    0.52
  -5 -13  11   12.28    0.48
  11  -5 -13   12.05    0.44
   5 -13 -11   11.68    0.44
 -11  -5  13   11.93    0.48
   5 -13 -11   11.84    0.51
  11  -5 -13   11.35    0.49
   5 -13 -11   11.69    0.49
  11  -5 -13   11.49    0.51
   5 -13 -11   12.03    0.50
 -13 -11   5   11.80    0.43
  11   5 -13   12.00    0.49
 -13   5 -11   12.74    0.51
   5 -11 -13   12.03    0.44
  13  -5 -11   12.24    0.48
   5  13 -11   11.20    0.48
 -13  -5  11   11.68    0.48
   5  13 -11   12.63    0.56
  -5 -11  13   11.77    0.43
  -5  11 -13   12.38    0.52
 -11  13  -5   11.92    0.51
   5 -11 -13   11.35    0.50
  -5 -13 -11   12.04    0.52
   5 -11 -13   11.99    0.52
 -13 -11  -5   12.27    0.52
  -5 -13 -11   12.33    0.48
 -11   5  13   11.83    0.43
 -11 -13   5   11.93    0.49
  -5 -11  13   12.21    0.47
  13  -5 -11   11.73    0.51
  -5 -11  13   12.00    0.50
 -13  -5  11   11.21    0.43
 -13  -5  11   12.69    0.50
 -11 -13   5   12.22    0.44
  13  11  -5   12.18    0.58
  11  13  -7    6.89    0.39
  13   7 -11    6.62    0.31
  11 -13   7    6.32    0.40
   7  11 -13    6.94    0.31
  -7 -13  11    6.64    0.32
  -7 -13  11    6.69    0.26
   7 -13 -11    6.86    0.32
 -11 -13  -7    7.75    0.35
 -13 -11   7    6.52    0.31
 -13 -11   7    7.06    0.26
 -13  11  -7    6.97    0.33
  -7 -11 -13    6.89    0.34
  -7  13 -11    6.63    0.33
  11  -7 -13    6.93    0.26
   7 -13 -11    7.17    0.33
  11  -7 -13    6.80    0.31
  11  -7 -13    7.17    0.35
  -7 -13  11    6.86    0.30
  -7  11  13    6.57    0.33
   7 -13 -11    6.63    0.31
   7 -13 -11    6.82    0.26
  -7  13 -11    6.86    0.41
 -11  -7  13    6.75    0.31
 -11  -7  13    6.73    0.26
 -11   7 -13    7.22    0.33
 -13  -7 -11    6.98    0.32
  -7  11 -13    6.79    0.33
  11   7 -13    7.03    0.32
 -11  13  -7    6.37    0.33
   7 -13  11    6.16    0.38
 -11 -13   7    7.04    0.26
   7  13 -11    6.80    0.37
  13  11  -7    6.93    0.39
 -13   7 -11    6.92    0.33
 -11 -13   7    6.90    0.31
 -13  -7  11    6.18    0.30
 -13  -7  11    6.71    0.26
  13  -7 -11    6.48    0.33
 -11  -7 -13    7.19    0.32
  -7  13  11    6.05    0.32
   7  13 -11    6.90    0.31
   7 -11 -13    6.87    0.34
   7 -11 -13    6.53    0.26
  -7 -11  13    6.88    0.30
  -7 -11  13    6.53    0.31
  -7 -11  13    6.68    0.26
  -7 -13 -11    7.53    0.35
 -13 -11  -7    6.78    0.34
   7 -11 -13    6.84    0.32
 -11  -9  13    9.36    0.39
  13  -9  11    8.74    0.47
 -13 -11   9    9.91    0.40
  11 -13   9    8.23    0.47
  11  13  -9    9.73    0.47
   9 -13 -11    9.43    0.35
 -13  -9 -11   10.92    0.43
  -9 -13  11    9.44    0.35
  11  -9 -13    9.57    0.40
 -11 -13  -9    9.86    0.44
  11  -9 -13    9.49    0.35
  -9  13 -11    9.67    0.51
  -9 -11 -13   10.41    0.44
   9 -13 -11    9.50    0.40
   9 -13 -11    9.36    0.41
  11  -9 -13    9.60    0.43
 -13 -11   9    9.54    0.35
  -9 -13  11    9.30    0.39
 -11  -9  13    9.71    0.35
 -13 -11  -9   10.33    0.43
  13  -9 -11    9.22    0.42
 -11  -9 -13   10.11    0.42
  -9 -13 -11    9.77    0.44
 -11 -13   9    9.78    0.35
 -13  -9  11    9.04    0.40
   9 -11 -13    9.48    0.35
  -9 -11  13    9.63    0.39
  -9 -11  13    9.43    0.35
   9 -11 -13    9.28    0.42
   9 -13  11    9.08    0.47
   9  13 -11    9.66    0.46
 -13  -9  11    8.90    0.35
   9 -11 -13    9.58    0.40
 -11 -13   9    9.40    0.40
  13  11  -9    9.94    0.47
 -13 -11 -11   11.54    0.47
 -13 -11  11    9.96    0.42
 -13 -11  11   10.63    0.39
 -11 -13 -11   11.94    0.47
 -11 -13  11   10.10    0.39
 -11 -11 -13   11.65    0.46
 -11 -11  13   10.74    0.42
 -11 -11  13   10.14    0.39
  11 -11 -13   10.47    0.43
  11 -11 -13   10.18    0.45
  11 -11 -13   10.35    0.39
 -13 -13  -1   10.28    0.44
 -13 -13   1    9.18    0.41
 -13 -13   1   10.26    0.43
 -13  -1  13   10.05    0.41
 -13  -1  13   10.20    0.37
 -13   1  13   10.17    0.41
 -13   1  13   10.27    0.37
  -1 -13 -13    9.66    0.41
  -1 -13 -13    9.72    0.43
  -1 -13 -13    9.84    0.45
  -1 -13 -13    9.62    0.37
  -1 -13  13    9.37    0.43
  -1  13 -13   10.19    0.44
  -1  13 -13   10.02    0.50
   1 -13 -13    9.74    0.41
   1 -13 -13    9.27    0.43
   1 -13 -13   10.38    0.46
   1 -13 -13   10.05    0.37
   1 -13  13    9.60    0.43
   1  13 -13    9.97    0.43
   1  13 -13   10.30    0.49
   1  13  13   10.35    0.45
  13 -13   1   10.34    0.53
  13  -1 -13    9.94    0.42
  13  -1 -13    9.27    0.43
  13   1 -13   10.14    0.42
  13   1 -13    9.93    0.43
  13  13  -1   10.22    0.51
  13  13   1   10.51    0.51
 -13 -13  -3    6.69    0.32
 -13 -13   3    6.49    0.30
 -13  -3  13    6.85    0.30
 -13  -3  13    6.95    0.31
 -13  -3  13    6.62    0.25
 -13   3  13    6.80    0.30
 -13   3  13    6.42    0.25
  -3 -13 -13    6.30    0.29
  -3 -13 -13    6.51    0.32
  -3 -13 -13    6.60    0.34
  -3 -13 -13    6.46    0.25
  -3 -13  13    6.41    0.31
  -3 -13  13    6.61    0.25
  -3  13 -13    6.67    0.39
  -3  13  13    6.86    0.33
   3 -13 -13    6.23    0.30
   3 -13 -13    6.23    0.31
   3 -13 -13    6.41    0.33
   3 -13 -13    6.44    0.25
   3 -13  13    6.87    0.31
   3  13 -13    6.31    0.35
   3  13  13    6.61    0.32
  13 -13   3    5.99    0.39
  13  -3 -13    6.39    0.30
  13  -3 -13    6.53    0.32
  13   3 -13    6.64    0.31
  13  13  -3    6.45    0.38
 -13 -13  -5    7.21    0.34
 -13 -13   5    7.30    0.32
 -13 -13   5    7.07    0.27
 -13  -5  13    6.82    0.31
 -13  -5  13    6.81    0.26
 -13   5  13    6.85    0.31
 -13   5  13    7.12    0.26
  -5 -13 -13    7.03    0.35
  -5 -13  13    7.07    0.32
  -5 -13  13    7.51    0.26
  -5  13 -13    6.93    0.40
  -5  13  13    7.09    0.34
   5 -13 -13    7.19    0.32
   5 -13 -13    6.84    0.33
   5 -13 -13    6.67    0.34
   5 -13 -13    7.01    0.27
  13 -13   5    6.55    0.40
  13  -5 -13    6.84    0.31
  13  -5 -13    6.69    0.34
  13  -5 -13    7.12    0.27
  13  13  -5    7.41    0.40
 -13 -13  -7   10.17    0.44
 -13 -13   7    9.97    0.41
 -13 -13   7    9.73    0.36
 -13  -7  13   10.11    0.40
 -13  -7  13   10.11    0.36
 -13   7  13    9.78    0.40
  -7 -13 -13   10.36    0.45
  -7 -13  13   10.11    0.40
  -7 -13  13    9.87    0.36
  -7  13 -13   10.10    0.50
   7 -13 -13    9.64    0.41
   7 -13 -13    9.62    0.43
   7 -13 -13    9.81    0.36
  13 -13   7    9.02    0.49
  13  -7 -13    9.45    0.40
  13  -7 -13    9.96    0.43
  13  13  -7   10.11    0.49
 -13 -13  -9    6.49    0.30
 -13 -13   9    5.74    0.26
 -13 -13   9    5.42    0.22
 -13  -9 -13    6.02    0.28
 -13  -9  13    5.75    0.26
 -13  -9  13    5.92    0.22
  -9 -13 -13    6.34    0.30
  -9 -13  13    5.91    0.25
  -9 -13  13    5.67    0.22
   9 -13 -13    5.50    0.26
   9 -13 -13    5.38    0.28
   9 -13 -13    5.70    0.22
  13  -9 -13    5.32    0.28
 -13 -13  11    4.60    0.22
 -13 -11  13    5.09    0.22
 -13 -11  13    5.22    0.19
 -11 -13  13    4.88    0.22
 -11 -13  13    4.78    0.19
 -14   0   0   19.83    0.78
   0 -14   0   20.26    0.75
   0 -14   0   19.53    0.77
   0 -14   0   19.91    0.71
   0   0  14   20.24    0.77
   0  14   0   19.34    0.86
  14   0   0   20.36    0.78
  14   0   0   20.10    0.87
 -14   0  -2    4.90    0.27
 -14   0   2    5.29    0.28
  -2 -14   0    5.41    0.25
  -2 -14   0    5.40    0.27
  -2 -14   0    5.47    0.21
  -2  14   0    5.02    0.34
   0  -2 -14    5.41    0.21
   0  -2  14    5.20    0.27
   0   2 -14    5.39    0.26
   0   2  14    5.24    0.27
   2 -14   0    5.52    0.25
   2 -14   0    5.34    0.27
   2 -14   0    5.63    0.21
   2  14   0    5.34    0.34
  14   0  -2    5.08    0.27
  14   0  -2    5.18    0.35
  14   0  -2    5.17    0.27
  14   0   2    5.22    0.26
  14   0   2    5.31    0.34
  14  -2   0    5.30    0.27
  14  -2   0    5.52    0.35
  14   2   0    5.59    0.27
 -14  -2   0    5.37    0.29
 -14   2   0    5.48    0.27
  -2   0  14    5.38    0.27
  -2   0  14    5.31    0.20
   0 -14  -2    5.40    0.25
   0 -14  -2    5.21    0.27
   0 -14  -2    5.27    0.21
   0 -14   2    5.15    0.24
   0 -14   2    5.05    0.27
   0 -14   2    5.25    0.21
   0  14  -2    4.93    0.35
   2   0 -14    5.23    0.25
   2   0 -14    5.22    0.21
   2   0  14    5.10    0.27
  14   2   0    5.38    0.36
  14   2  -2  157.04    5.52
  14   2  -2  153.41    5.63
  14  -2   2  142.26    5.59
   2   2 -14  168.86    5.51
   2   2  14  165.83    5.52
   2  14  -2  160.14    5.62
  14  -2  -2  162.95    5.52
  14  -2  -2  156.00    5.61
  14  -2  -2  153.93    5.51
  14  -2   2  154.93    5.51
  -2   2  14  163.98    5.52
  -2  14  -2  157.10    5.63
   2 -14  -2  160.39    5.49
   2 -14  -2  158.74    5.51
   2 -14  -2  158.73    5.45
   2 -14   2  160.13    5.52
   2 -14   2  158.72    5.45
   2  -2 -14  161.08    5.49
   2  -2 -14  159.77    5.45
   2  -2  14  159.75    5.51
 -14  -2  -2  154.11    5.52
 -14  -2   2  155.61    5.53
 -14   2   2  155.01    5.53
  -2 -14  -2  156.84    5.50
  -2 -14  -2  157.15    5.51
  14   2   2  159.51    5.51
  14   2   2  162.26    5.63
  -2 -14  -2  155.88    5.45
  -2 -14   2  159.80    5.50
  -2 -14   2  149.68    5.52
  -2 -14   2  159.30    5.45
  -2  -2  14  156.87    5.52
  -2  -2  14  162.33    5.45
  14   0   4    1.81    0.21
  -4 -14   0    1.93    0.15
  -4 -14   0    1.92    0.15
  -4 -14   0    1.97    0.10
  -4  14   0    2.12    0.22
   4  14   0    2.08    0.21
  14   0  -4    1.76    0.16
 -14  -4   0    2.03    0.18
  -4   0  14    2.01    0.16
  -4   0  14    2.25    0.10
   0 -14  -4    1.98    0.14
   0 -14  -4    1.90    0.16
   0 -14  -4    2.01    0.10
   0 -14   4    1.92    0.13
   0 -14   4    1.98    0.16
   0 -14   4    1.91    0.10
   0  14  -4    2.03    0.24
   4   0 -14    2.13    0.15
   4   0 -14    2.03    0.11
   4   0  14    2.16    0.16
  14  -4   0    1.82    0.15
  14  -4   0    1.83    0.21
   0  -4 -14    2.08    0.16
   0  -4 -14    2.20    0.10
   0  -4  14    2.28    0.16
   0   4 -14    2.23    0.16
   0   4  14    1.92    0.16
   4 -14   0    2.44    0.23
   4 -14   0    1.89    0.15
  14   0   4    2.16    0.15
 -14   0   4    1.82    0.17
  14   0  -4    1.82    0.22
  14   0  -4    1.97    0.17
  14   4   0    1.68    0.21
  -4  -2  14    7.31    0.35
 -14  -2  -4    7.27    0.35
   4 -14   2    7.57    0.35
  14  -2   4    7.93    0.43
   4  -2 -14    7.44    0.34
   2 -14  -4    7.78    0.29
   2   4 -14    7.81    0.35
  14  -4  -2    7.58    0.36
  14  -4  -2    7.69    0.43
  14  -4  -2    7.78    0.35
  -2  -4 -14    7.84    0.35
   2  -4  14    7.82    0.35
  -2 -14   4    7.68    0.34
  -2 -14   4    7.80    0.36
  14   4   2    7.56    0.44
  -2  14  -4    7.22    0.45
   2 -14  -4    8.14    0.34
   2 -14  -4    8.04    0.35
   4 -14   2    8.23    0.45
   4  -2 -14    7.56    0.29
 -14  -4   2    7.86    0.37
  14   2  -4    7.55    0.36
  14   2  -4    7.62    0.44
   4   2  14    8.14    0.36
  -4  -2  14    7.66    0.29
  -4 -14  -2    7.55    0.35
  -4 -14  -2    7.38    0.29
  -4  -2  14    7.87    0.33
  14  -2   4    8.30    0.36
  -2   4  14    7.71    0.36
  -4 -14  -2    7.14    0.34
  -2 -14   4    7.70    0.29
  14   2  -4    7.96    0.36
   4  -2 -14    7.71    0.35
   4  14  -2    7.85    0.43
  -2 -14  -4    7.90    0.36
   2  -4 -14    7.49    0.29
   2  -4 -14    7.56    0.35
   4 -14  -2    7.74    0.33
   4 -14  -2    7.71    0.35
   4 -14  -2    7.77    0.29
  14   4  -2    7.46    0.45
  -4   2  14    7.96    0.36
  -2 -14  -4    7.94    0.34
  -4 -14   2    7.86    0.34
  -4 -14   2    7.57    0.36
  -4 -14   2    7.47    0.29
  -4  14  -2    8.56    0.47
   2  14  -4    8.04    0.45
  -2  -4  14    7.27    0.35
  -2  -4  14    7.61    0.29
  -2   4 -14    8.31    0.37
  14   4  -2    7.54    0.35
 -14  -2   4    8.39    0.38
  14  -4   2    7.52    0.35
   2  -4 -14    7.85    0.34
   2   4  14    8.25    0.36
 -14   4   2    7.36    0.36
  -2 -14  -4    7.56    0.29
   4   2 -14    8.01    0.34
 -14  -4  -2    7.96    0.37
  14   2   4    8.04    0.43
   4   2 -14    8.09    0.35
   4  -2  14    8.51    0.36
   2 -14   4    7.90    0.36
  14  -2  -4    8.14    0.37
  14  -2  -4    7.94    0.44
  14  -2  -4    7.94    0.37
  14  -4   2    7.22    0.42
  -4  -4  14   13.94    0.49
  -4  -4  14   13.57    0.56
 -14  -4   4   13.65    0.57
  -4 -14  -4   13.22    0.54
  -4 -14  -4   13.02    0.55
  -4 -14  -4   13.29    0.49
  -4 -14   4   13.65    0.54
 -14  -4  -4   13.63    0.57
   4   4 -14   14.44    0.56
   4   4  14   14.86    0.57
   4  14  -4   13.39    0.64
  14  -4   4   13.59    0.56
  14  -4   4   12.96    0.64
  14   4  -4   13.61    0.56
  -4 -14   4   13.05    0.50
  -4   4 -14   14.99    0.57
  -4   4  14   13.51    0.56
  -4  14  -4   13.29    0.67
   4 -14  -4   13.43    0.54
   4 -14  -4   13.32    0.55
   4 -14  -4   13.85    0.49
   4 -14   4   13.86    0.65
   4 -14   4   13.69    0.56
   4  -4 -14   13.55    0.54
   4  -4 -14   13.68    0.56
   4  -4 -14   13.85    0.50
   4  -4  14   15.01    0.57
  14  -4  -4   13.76    0.57
  14  -4  -4   14.12    0.65
  14  -4  -4   12.94    0.56
  -4 -14   4   13.58    0.56
  14   4   4   14.21    0.65
  -4  -4  14   14.55    0.54
  14   4  -4   13.45    0.66
   0  -6 -14   10.55    0.39
   0 -14  -6   10.65    0.45
   0 -14  -6   10.67    0.39
   0 -14   6   10.31    0.46
   0 -14   6   10.30    0.39
   0  14  -6   10.16    0.56
   6   0 -14   10.66    0.45
   6   0 -14   11.05    0.44
   6   0 -14   10.57    0.40
  14  -6   0   10.97    0.46
  14  -6   0   10.89    0.54
  14   6   0   10.37    0.56
  -6   0  14   10.52    0.39
   0 -14  -6   10.60    0.44
 -14   0   6   10.59    0.48
  -6 -14   0   10.96    0.45
  -6 -14   0   10.58    0.45
  -6 -14   0   10.77    0.40
   0  -6 -14   10.29    0.43
   0  -6 -14    9.96    0.46
   0   6 -14   10.88    0.47
   0   6  14   11.07    0.46
   6 -14   0   12.90    0.56
   6 -14   0   11.78    0.45
   6  14   0   10.83    0.52
  14   0  -6   10.40    0.47
  14   0  -6   10.11    0.53
  14   0  -6   10.68    0.47
  14   0   6   10.72    0.53
   0  -6  14   10.45    0.46
  -6   0  14   10.52    0.46
  -6   0  14   10.55    0.43
 -14  -6   0   10.87    0.48
  14  -2   6  122.34    4.27
  14   6   2  116.45    4.39
   6 -14   2  124.35    4.26
 -14  -6   2  120.96    4.29
  -2 -14   6  122.09    4.21
  -6 -14  -2  123.16    4.26
  -6 -14  -2  116.99    4.27
  -6 -14  -2  122.83    4.21
   2 -14  -6  122.81    4.21
  14   2  -6  123.45    4.38
   6  -2 -14  124.66    4.21
  -2  -6 -14  114.82    4.27
  -6  -2  14  124.77    4.27
  14  -6  -2  120.96    4.27
  14  -6  -2  123.99    4.38
  -2   6  14  118.86    4.28
   2 -14  -6  123.25    4.26
   2 -14  -6  118.45    4.27
   6  -2 -14  123.89    4.28
   2  -6  14  126.82    4.28
   2   6 -14  120.89    4.28
  -6  -2  14  122.33    4.25
  -2  14  -6  118.41    4.40
  -6  -2  14  122.19    4.21
  14  -2   6  120.34    4.36
  14   2  -6  123.44    4.29
  -2 -14   6  119.56    4.28
  14   2  -6  127.06    4.29
   6 -14   2  126.52    4.38
  -2 -14   6  124.32    4.25
   6  -2 -14  122.94    4.26
   6  14  -2  121.68    4.35
  14   2   6  121.66    4.35
   2  -6 -14  121.76    4.21
   2  -6 -14  122.16    4.28
  -2  -6  14  123.09    4.28
  -2  -6  14  124.12    4.21
  -2   6 -14  122.46    4.29
  14  -6   2  117.02    4.27
  -2 -14  -6  121.62    4.21
   6   2 -14  127.21    4.27
  14  -2  -6  120.00    4.28
   2  -6 -14  119.97    4.25
   2 -14   6  117.13    4.28
   2   6  14  125.68    4.28
  -6 -14   2  120.26    4.28
  14  -6   2  115.48    4.36
  14   6  -2  123.84    4.40
  -2 -14  -6  124.44    4.28
 -14  -6  -2  119.13    4.29
  -2 -14  -6  121.05    4.27
  -6 -14   2  123.47    4.27
   6   2 -14  120.50    4.26
  -6 -14   2  121.79    4.21
  -6   2  14  119.72    4.27
  -2 -14  -6  119.27    4.26
  14  -2  -6  122.78    4.29
 -14  -2   6  124.42    4.30
   6 -14  -2  129.22    4.27
   2  14  -6  122.58    4.39
  14  -4   6    2.28    0.23
   4  -6  14    2.91    0.18
  -4  14  -6    2.23    0.26
  14  -6  -4    2.66    0.18
  -4   6  14    2.44    0.18
   6 -14   4    2.63    0.25
  -6 -14  -4    2.69    0.17
 -14  -6   4    2.62    0.19
  -6  -4  14    2.13    0.16
  -4  -6 -14    2.50    0.18
   4 -14  -6    2.46    0.17
  14  -4   6    2.36    0.17
   6  -4 -14    2.64    0.18
   6  -4 -14    2.65    0.19
 -14  -4  -6    2.49    0.18
   4   6 -14    2.56    0.17
  14   4  -6    2.64    0.18
  -6 -14  -4    2.64    0.18
  -6 -14  -4    2.68    0.12
  -4 -14   6    2.56    0.17
  -4 -14   6    2.25    0.17
  -4 -14   6    2.29    0.12
   6  -4 -14    2.60    0.13
  14   6   4    2.74    0.25
   4 -14  -6    2.44    0.17
   4 -14  -6    2.70    0.12
  -6   4 -14    3.10    0.19
  14   4  -6    2.70    0.25
  -6  -4  14    2.39    0.18
   6 -14   4    2.69    0.17
   6  14  -4    2.65    0.24
  -6  -4  14    2.67    0.12
   4  -6 -14    2.67    0.17
  14   6  -4    2.69    0.26
  -4   6 -14    2.67    0.19
  -6   4  14    2.33    0.18
  -4 -14  -6    2.57    0.17
  -4 -14  -6    2.39    0.17
  -4 -14  -6    2.32    0.18
  -4 -14  -6    2.55    0.12
  -6 -14   4    2.79    0.18
  -6 -14   4    2.52    0.18
  -6 -14   4    2.39    0.12
   6 -14  -4    2.57    0.17
   6 -14  -4    2.76    0.12
  -4  -6  14    2.61    0.18
 -14  -6  -4    2.54    0.19
  14   6  -4    2.84    0.18
   4 -14   6    2.48    0.18
   4  14  -6    2.31    0.24
   4  -6 -14    2.38    0.18
   4  -6 -14    2.61    0.12
  14  -4  -6    2.40    0.18
  14  -4  -6    2.65    0.19
   4   6  14    2.67    0.19
  14  -6   4    2.47    0.18
  14  -6   4    2.44    0.24
  -4  -6  14    2.62    0.16
   4 -14   6    2.43    0.24
   6   4 -14    2.53    0.17
  -4  -6  14    2.52    0.12
 -14  -4   6    2.39    0.19
   6 -14  -6  116.94    4.05
   6 -14  -6  116.09    4.04
  -6   6  14  114.36    4.06
   6  -6 -14  116.43    4.07
   6  -6 -14  119.05    4.00
   6   6 -14  112.73    4.05
   6  14  -6  115.26    4.14
  14  -6  -6  118.74    4.07
  -6  14  -6   98.57    4.05
  14  -6   6  110.46    4.06
  14  -6   6  112.16    4.16
  14   6  -6  119.74    4.06
  14   6  -6  115.93    4.15
  -6 -14  -6  117.64    4.07
  -6 -14  -6  115.73    4.00
  -6 -14   6  118.36    4.05
  -6 -14   6  115.44    4.06
 -14  -6   6  120.11    4.07
  -6 -14  -6  115.84    4.04
  -6  -6 -14  112.27    4.05
  -6  -6  14  119.38    4.04
  -6  -6  14  118.24    3.99
  -6   6 -14  121.94    4.07
   6 -14  -6  114.00    3.99
   6 -14   6  111.07    4.16
   6  -6 -14  117.14    4.05
  -6 -14   6  116.87    4.00
 -14  -6  -6  124.86    4.08
 -14  -6   6  111.44    4.04
  -6  -6  14  117.49    4.06
  14  -6  -6  113.05    4.06
   0   8 -14    9.17    0.43
   0   8  14   10.48    0.44
   0  -8 -14    9.41    0.44
   0  -8 -14    9.65    0.36
   0  -8  14    9.95    0.43
   0  14  -8    9.55    0.53
   8   0 -14   10.26    0.43
  14  -8   0    9.64    0.43
  14  -8   0   10.01    0.52
  14   8   0   10.19    0.53
   0 -14  -8    9.86    0.44
   0 -14   8    9.63    0.44
  -8 -14   0    9.80    0.42
  -8 -14   0    9.90    0.37
   0  -8 -14    9.82    0.41
  -8   0  14   10.47    0.42
  -8   0  14   10.34    0.43
  -8   0  14    9.80    0.37
   0 -14  -8    9.52    0.42
   0 -14  -8    9.81    0.43
   8 -14   0   11.48    0.54
   8  14   0    9.95    0.50
  14   0  -8   10.09    0.44
  14   0  -8   10.31    0.44
   8   0 -14   10.28    0.38
   0 -14  -8    9.81    0.37
   8   0 -14    9.81    0.42
 -14  -8   0    9.60    0.44
   8   0 -14   10.56    0.44
  -2  14  -8    4.07    0.33
  -8 -14  -2    3.75    0.23
  -2  14  -8    3.74    0.23
  14  -2   8    4.35    0.29
  14   2  -8    4.39    0.24
   8  -2 -14    4.73    0.25
  -2   8  14    4.06    0.24
   2 -14  -8    4.13    0.22
   8  14  -2    4.03    0.29
   2 -14  -8    4.29    0.23
   2 -14  -8    4.47    0.24
  14   8   2    3.97    0.32
   2 -14  -8    4.18    0.17
  -8 -14  -2    3.92    0.23
  -2  -8 -14    4.02    0.24
  -8 -14  -2    3.99    0.17
   8  -2 -14    4.50    0.23
 -14  -8   2    4.15    0.25
  -8  -2  14    4.10    0.22
  -8  -2  14    4.39    0.23
  -8  -2  14    4.08    0.17
  14   2  -8    4.12    0.24
  -2 -14   8    4.15    0.24
   8  -2 -14    4.36    0.18
  14  -2   8    4.50    0.24
  14  -8  -2    3.93    0.23
  14  -8  -2    4.31    0.31
   2  -8  14    4.17    0.24
   2   8 -14    3.96    0.23
  -2 -14   8    4.29    0.17
   8 -14   2    4.47    0.33
   2  -8 -14    3.97    0.22
 -14  -2   8    3.95    0.25
   8   2 -14    4.15    0.22
  14  -2  -8    4.35    0.24
 -14  -8  -2    4.35    0.25
   2  -8 -14    4.15    0.25
   2  -8 -14    4.06    0.17
  -2  -8  14    4.23    0.24
  14  -8   2    3.95    0.31
  14   8  -2    4.13    0.31
  14  -2  -8    4.54    0.25
   2   8  14    4.08    0.24
   2 -14   8    4.20    0.24
  -8   2  14    3.94    0.23
  -8   2  14    3.94    0.17
  -2 -14  -8    4.41    0.22
  -2 -14  -8    4.17    0.23
  -2 -14  -8    3.97    0.25
  -2 -14  -8    4.27    0.17
  -2   8 -14    4.24    0.24
  14  -8   2    3.90    0.23
  -8 -14   2    4.18    0.23
  -8 -14   2    4.23    0.18
   2  14  -8    4.24    0.31
   4  -8  14    2.40    0.18
   4   8 -14    2.34    0.17
   8  -4 -14    2.43    0.12
  -4 -14   8    2.34    0.17
   8  14  -4    2.28    0.23
 -14  -8   4    2.58    0.19
 -14  -4  -8    2.55    0.17
   8 -14   4    2.29    0.24
  -4 -14   8    2.41    0.18
  -4 -14   8    2.59    0.12
  -8 -14  -4    2.52    0.19
  -8 -14  -4    2.25    0.12
  14  -4   8    2.21    0.22
  14   4  -8    2.14    0.17
  14   4  -8    2.78    0.24
  14   4  -8    2.47    0.18
  -8  -4  14    2.37    0.16
  14  -4   8    2.41    0.18
   8  -4 -14    2.36    0.17
   8  -4 -14    2.30    0.18
   4 -14  -8    2.59    0.18
   4 -14  -8    2.51    0.12
  14  -8  -4    2.16    0.17
  -4  14  -8    2.26    0.17
  -4  14  -8    2.38    0.26
   4 -14  -8    2.18    0.17
  -8 -14  -4    2.36    0.17
  -4  -8 -14    2.40    0.18
  -4   8  14    2.38    0.18
  -8  -4  14    2.71    0.12
  -8  -4  14    2.79    0.18
  14  -4  -8    2.48    0.19
  14  -4  -8    2.33    0.18
  -4 -14  -8    2.03    0.15
  -4 -14  -8    2.25    0.17
  -4 -14  -8    2.51    0.20
  -4 -14  -8    2.60    0.12
   4  -8 -14    2.67    0.17
   4  -8 -14    2.33    0.19
   4  -8 -14    3.03    0.12
  14  -8   4    2.06    0.17
  14  -8   4    2.65    0.25
 -14  -4   8    2.49    0.19
  -8 -14   4    2.74    0.18
   8   4 -14    2.25    0.16
 -14  -4   8    2.20    0.16
   4 -14   8    2.41    0.17
   4  14  -8    2.40    0.24
  -4   8 -14    2.36    0.18
  -8   4  14    2.61    0.18
 -14  -8  -4    2.39    0.19
  -4  -8  14    2.56    0.15
  -4  -8  14    2.42    0.18
  -4  -8  14    2.55    0.11
  -8 -14   4    3.00    0.12
  14   8  -4    2.45    0.24
   4 -14   8    2.22    0.23
   4   8  14    2.50    0.18
 -14  -8   6    6.55    0.31
  -8  -6  14    6.36    0.28
  -8  -6  14    6.25    0.30
 -14  -6  -8    6.10    0.30
  -6  14  -8    5.51    0.30
  -6 -14   8    6.52    0.24
   8  14  -6    6.06    0.37
  -8 -14  -6    6.20    0.29
  -8 -14  -6    6.43    0.32
  14  -6   8    5.89    0.30
 -14  -8   6    5.78    0.28
  14   6  -8    6.00    0.30
  -6  -8 -14    6.17    0.31
  -8  -6  14    6.18    0.24
  -8   6 -14    6.78    0.31
   6 -14  -8    6.19    0.29
  14   6  -8    6.51    0.37
   8  -6 -14    6.09    0.25
   8 -14   6    5.36    0.37
   8  -6 -14    6.15    0.30
  -6 -14   8    6.40    0.29
  -6 -14   8    6.12    0.30
  -6  14  -8    5.92    0.40
   8  -6 -14    5.86    0.31
   6 -14  -8    6.43    0.30
   6 -14  -8    6.39    0.24
   6   8 -14    6.02    0.30
  14  -6   8    5.79    0.37
  -6   8  14    6.26    0.31
  -6   8 -14    6.58    0.32
   6 -14   8    5.58    0.37
  -6  -8  14    6.27    0.24
  -8  14  -6    5.83    0.31
  -6  -8  14    6.12    0.30
  -6  -8  14    6.11    0.28
  -8   6  14    6.31    0.30
 -14  -6   8    6.39    0.29
 -14  -6   8    6.63    0.32
 -14   6  -8    7.18    0.32
   6  -8 -14    5.98    0.24
  14   8  -6    6.33    0.38
  -6 -14  -8    6.50    0.33
  -6 -14  -8    6.28    0.29
  14  -6  -8    6.64    0.31
   6  -8 -14    6.14    0.30
   6  -8 -14    6.12    0.32
   6  14  -8    6.61    0.37
  -6 -14  -8    6.25    0.24
   8   6 -14    6.32    0.30
  14  -8   6    5.97    0.30
  -8 -14   6    6.10    0.24
 -14  -8  -6    6.36    0.32
  14  -8   6    5.52    0.38
  14  -6  -8    6.52    0.32
  -8 -14   6    6.46    0.30
 -14  -8   8    5.58    0.27
 -14  -8   8    5.58    0.28
   8   8 -14    5.41    0.28
  -8 -14  -8    6.14    0.31
  -8 -14   8    6.28    0.28
  -8 -14   8    5.73    0.23
 -14   8  -8    6.26    0.30
 -14  -8  -8    6.36    0.30
   8  14  -8    5.99    0.35
  -8  -8  14    5.76    0.22
  -8   8 -14    5.78    0.29
  -8   8  14    5.75    0.29
  -8  -8 -14    5.86    0.29
  -8  -8  14    6.30    0.27
  14  -8  -8    5.80    0.29
   8 -14   8    5.07    0.35
   8  -8 -14    5.72    0.28
   8  -8 -14    5.42    0.30
   8  -8 -14    5.64    0.23
   8 -14  -8    5.30    0.27
   8 -14  -8    5.75    0.22
  -8  -8  14    6.02    0.28
  14   8  -8    5.70    0.28
  -8  14  -8    5.27    0.29
  14   8  -8    6.08    0.36
  14  -8   8    5.32    0.36
  10  14   0    1.34    0.19
  14   0 -10    1.51    0.15
  14  10   0    1.63    0.21
  14   0 -10    1.38    0.14
   0 -10  14    1.20    0.14
   0  10 -14    1.27    0.14
 -10 -14   0    1.34    0.09
   0 -10 -14    1.38    0.13
   0 -10 -14    1.42    0.15
  10   0 -14    1.11    0.13
  14 -10   0    1.32    0.13
  14 -10   0    1.35    0.20
  10   0 -14    1.55    0.13
 -14 -10   0    1.59    0.16
 -10   0  14    1.18    0.13
 -10   0  14    1.24    0.08
   0 -14 -10    1.39    0.13
   0 -14 -10    1.34    0.14
   0  10  14    1.33    0.15
 -14   0  10    1.46    0.13
 -10 -14   0    1.26    0.13
   0  14 -10    1.43    0.14
   0 -10 -14    1.43    0.09
   0 -14 -10    1.44    0.09
   0 -14  10    1.10    0.13
  10   0 -14    1.51    0.14
   0 -14 -10    1.55    0.16
   0  14 -10    1.33    0.21
  14  10   2   96.00    3.36
   2 -14 -10   91.51    3.25
  -2 -10 -14   92.31    3.17
  10 -14   2   98.11    3.37
  -2 -14  10   95.39    3.17
  -2  14 -10   84.72    3.24
  -2 -14  10   91.59    3.25
 -10 -14  -2   92.49    3.24
   2  10 -14   86.58    3.23
  10  14  -2   94.64    3.33
  -2 -10 -14   92.18    3.21
 -10  -2  14   93.60    3.22
  14   2 -10   91.03    3.24
  14   2 -10   92.82    3.24
   2 -14 -10   94.51    3.23
   2 -14 -10   90.47    3.17
 -14 -10   2   92.99    3.25
 -10 -14  -2   89.24    3.23
  -2 -10 -14   89.57    3.26
  10  -2 -14   94.23    3.23
  10  -2 -14   91.92    3.25
  10  -2 -14   94.96    3.18
 -10  -2  14   92.86    3.17
  14 -10  -2   90.59    3.23
  -2  14 -10   92.43    3.37
  -2  10  14   93.72    3.25
   2 -14 -10   89.11    3.24
   2 -10  14   94.33    3.24
  -2  10 -14   90.69    3.25
  -2 -14 -10   91.84    3.26
 -10   2  14   92.38    3.22
   2 -10 -14   90.25    3.17
  14 -10   2   86.31    3.23
   2 -10 -14   89.84    3.26
  -2 -14 -10   91.28    3.22
  -2 -14 -10   90.50    3.24
   2  10  14   94.57    3.25
  -2 -14 -10   93.18    3.17
 -14 -10  -2   93.08    3.26
   2 -14  10   91.52    3.25
  14  -2 -10   91.27    3.25
   2  14 -10   93.22    3.33
  14 -10   2   89.44    3.35
  14  10  -2   96.90    3.36
  10   2 -14   92.55    3.23
 -10   2  14   91.91    3.17
 -14  -2  10   92.21    3.25
   2  14 -10   86.09    3.23
 -14  -2  10   83.75    3.22
  -2 -10  14   91.03    3.24
 -10 -14   2   95.73    3.18
 -10 -14   2   90.77    3.23
  14  -2 -10   94.03    3.25
   2 -10 -14   89.45    3.22
  14   4 -10    7.98    0.37
  14   4 -10    8.35    0.37
 -10 -14  -4    8.38    0.38
   4 -10  14    8.50    0.37
  -4  14 -10    8.04    0.48
  10 -14   4    8.43    0.47
  -4 -10 -14    7.60    0.38
 -10  -4  14    8.62    0.36
   4 -14 -10    8.18    0.36
   4 -14 -10    7.81    0.37
   4 -14 -10    8.11    0.38
 -14 -10   4    8.37    0.36
  10  14  -4    8.52    0.45
 -10 -14  -4    8.46    0.36
  -4  14 -10    7.84    0.38
  10  -4 -14    8.53    0.31
  -4  10  14    7.65    0.38
   4 -14 -10    7.90    0.31
 -10  -4  14    8.68    0.31
   4  10 -14    8.00    0.37
 -14 -10   4    8.83    0.38
  10  -4 -14    7.90    0.36
  10  -4 -14    8.10    0.39
  -4 -14  10    8.66    0.31
  -4 -14  10    8.64    0.35
  -4 -14  10    8.01    0.37
  -4 -14 -10    8.40    0.31
 -10   4  14    8.35    0.31
 -10 -14   4    8.52    0.31
  -4 -14 -10    8.22    0.36
  -4 -14 -10    7.59    0.37
   4 -14  10    8.19    0.37
   4 -10 -14    7.81    0.31
  10   4 -14    8.22    0.37
 -14 -10  -4    8.33    0.39
   4  10  14    8.41    0.38
  -4 -10  14    8.36    0.37
  14  -4 -10    8.24    0.39
  -4  10 -14    7.81    0.38
 -14  -4  10    8.36    0.38
   4 -10 -14    8.22    0.36
   4 -10 -14    7.62    0.39
 -14   4 -10   10.07    0.39
  14  -4 -10    7.93    0.37
  14  10  -4    8.78    0.47
  -4 -14 -10    8.14    0.39
 -10 -14   4    8.39    0.37
   4  14 -10    8.11    0.43
  14 -10   4    8.14    0.37
 -14  -4  10    8.10    0.36
  -4 -10  14    8.06    0.31
  14 -10   4    7.88    0.46
 -10  -6  14   64.19    2.31
 -10   6 -14   74.70    2.34
  -6 -14  10   64.84    2.31
  10  14  -6   67.26    2.41
 -14 -10   6   63.24    2.31
  14  -6  10   63.11    2.41
  14   6 -10   67.16    2.33
   6 -14 -10   65.53    2.32
  -6  14 -10   64.04    2.45
  10  -6 -14   63.96    2.32
  10 -14   6   59.71    2.42
 -10 -14  -6   68.71    2.35
 -14  -6 -10   64.48    2.32
   6 -14 -10   64.51    2.33
   6 -14 -10   65.70    2.27
  10  -6 -14   64.54    2.34
  10  -6 -14   65.57    2.27
 -10  -6  14   64.33    2.26
 -14 -10   6   66.28    2.32
  -6 -10 -14   64.18    2.34
  -6 -14  10   67.45    2.33
  -6 -14  10   65.73    2.27
   6  10 -14   67.04    2.32
  -6  10  14   65.45    2.34
  -6  14 -10   58.59    2.33
   6 -14 -10   65.61    2.33
 -14  10  -6   68.52    2.34
  -6 -10  14   64.52    2.33
  10   6 -14   64.93    2.32
 -14   6 -10   71.72    2.34
   6 -10 -14   63.97    2.27
  14  -6 -10   63.81    2.34
 -10 -14   6   65.39    2.32
  -6 -10  14   69.45    2.30
  -6 -10  14   66.17    2.26
  14 -10   6   60.15    2.43
  -6  10 -14   67.61    2.34
 -10  14  -6   63.21    2.33
   6 -10 -14   65.36    2.32
   6 -10 -14   64.97    2.35
  -6 -14 -10   65.83    2.31
  -6 -14 -10   67.25    2.36
 -10 -14   6   65.26    2.27
 -14 -10  -6   66.37    2.35
 -14  -6  10   66.35    2.33
 -14  -6  10   65.17    2.31
   6  14 -10   64.37    2.39
   6 -14  10   58.59    2.40
  14  10  -6   67.65    2.43
 -14  -6  10   64.65    2.26
 -14 -10   8    1.37    0.13
  10  -8 -14    1.56    0.10
 -10  -8  14    1.57    0.09
  10  -8 -14    1.68    0.14
  -8 -14  10    1.52    0.13
  -8 -14  10    1.69    0.09
  -8  14 -10    1.28    0.20
   8 -14 -10    1.50    0.13
   8 -14 -10    1.58    0.09
  10  -8 -14    1.66    0.16
 -14  -8 -10    1.67    0.15
  -8  10  14    1.54    0.14
 -10  -8  14    1.47    0.13
  10  14  -8    1.60    0.19
  14   8 -10    1.94    0.20
 -10 -14  -8    1.67    0.16
 -14 -10   8    1.72    0.09
  14  -8  10    1.42    0.19
  -8 -10 -14    1.64    0.16
   8 -10 -14    1.51    0.10
   8 -10 -14    1.76    0.14
  -8 -10  14    1.50    0.12
  -8 -10  14    1.55    0.09
 -14 -10  -8    1.77    0.17
 -14  -8  10    1.55    0.13
   8 -14  10    1.22    0.18
 -14  -8  10    1.48    0.09
  14 -10   8    1.19    0.18
 -10 -14   8    1.69    0.09
  14  10  -8    1.62    0.20
 -10  -8 -14    1.90    0.16
  14  -8 -10    1.58    0.16
   8  14 -10    1.67    0.19
  -8 -14 -10    1.83    0.17
   8 -10 -14    1.38    0.15
 -10 -14   8    1.54    0.14
 -10 -14  10   70.32    2.49
 -10 -10  14   70.85    2.45
 -14 -10  10   69.68    2.45
 -10 -14 -10   73.06    2.53
  10  14 -10   72.27    2.56
  14 -10 -10   66.86    2.51
  14  10 -10   78.74    2.58
  10 -14  10   65.72    2.57
  10 -10 -14   69.93    2.50
 -14 -10 -10   76.09    2.53
 -10 -10 -14   72.31    2.52
 -10 -10  14   69.60    2.49
  10 -10 -14   69.36    2.52
  10 -10 -14   67.62    2.45
 -14 -10  10   69.81    2.49
   0 -12 -14    2.82    0.17
   0 -14 -12    2.76    0.12
 -12   0  14    2.67    0.12
   0 -14 -12    2.73    0.18
   0 -14 -12    2.51    0.18
   0 -14  12    2.39    0.18
  12   0 -14    2.57    0.17
  12   0 -14    2.91    0.19
   0 -12 -14    2.74    0.20
   0 -12 -14    2.63    0.12
   0 -12  14    2.50    0.17
   0  12 -14    2.80    0.18
   0  12  14    2.71    0.19
  12  14   0    2.62    0.24
   0  14 -12    2.55    0.24
  14   0 -12    2.73    0.19
   0 -14 -12    2.73    0.20
 -14   0  12    2.71    0.16
   0 -12 -14    2.55    0.18
 -12 -14   0    2.57    0.17
 -12 -14   0    2.60    0.18
  14   0 -12    2.84    0.18
  14  12   0    2.60    0.24
   0  14 -12    2.45    0.17
 -14 -12   0    2.34    0.18
  14 -12   0    2.84    0.26
 -14   0  12    2.49    0.12
 -12   0  14    2.61    0.17
 -14 -12   2    3.39    0.21
 -12  -2  14    3.92    0.20
  12  -2 -14    3.68    0.22
  -2  12  14    3.08    0.21
   2  12 -14    3.49    0.20
   2 -14 -12    3.85    0.22
  12 -14   2    3.55    0.28
  12  14  -2    3.48    0.27
   2  14  12    3.56    0.22
 -14   2  12    3.39    0.19
  -2 -14  12    3.86    0.22
   2 -14 -12    3.51    0.15
  -2  14 -12    3.72    0.29
 -12  -2  14    3.46    0.15
   2 -14 -12    3.70    0.21
   2 -12  14    3.49    0.21
   2 -14 -12    3.59    0.23
  -2 -12 -14    3.48    0.19
  -2 -12 -14    3.41    0.23
  14   2 -12    3.72    0.21
 -12 -14  -2    3.60    0.22
  -2  14 -12    3.65    0.21
  -2 -12 -14    3.10    0.15
   2  12  14    3.45    0.21
 -14  -2  12    3.75    0.21
 -14  -2  12    3.54    0.15
 -12   2  14    3.47    0.15
 -14 -12  -2    3.64    0.22
 -12 -14   2    3.31    0.19
 -12 -14   2    3.54    0.15
  -2  14  12    3.63    0.23
  14  -2 -12    3.48    0.22
  -2 -14 -12    3.34    0.15
  -2 -14 -12    3.32    0.20
  -2 -14 -12    3.32    0.21
  -2 -14 -12    3.97    0.24
 -14  -2  12    3.52    0.20
  -2 -12  14    3.36    0.21
  -2  12 -14    3.30    0.21
  12   2 -14    3.55    0.20
   2 -12 -14    3.36    0.20
   2 -12 -14    3.46    0.23
   2 -12 -14    3.36    0.15
  14  12  -2    3.51    0.28
 -12   2  14    3.48    0.20
   2  14 -12    3.62    0.26
   2 -14  12    3.73    0.21
  14 -12   2    3.31    0.29
  -4  14 -12    4.04    0.31
   4 -14 -12    3.81    0.22
   4 -14 -12    3.76    0.22
  14   4 -12    4.12    0.22
   4 -14 -12    3.88    0.24
   4 -12  14    4.06    0.22
  12 -14   4    3.74    0.30
  12  -4 -14    3.80    0.22
  12  -4 -14    4.04    0.24
  12  -4 -14    4.09    0.17
 -12 -14  -4    4.22    0.24
 -14   4  12    3.95    0.21
  12  14  -4    4.02    0.29
   4  14  12    3.97    0.23
 -14 -12   4    3.70    0.21
   4 -14 -12    3.68    0.17
  -4 -12 -14    3.96    0.25
 -12  -4  14    4.13    0.16
  -4  12  14    4.25    0.24
  -4 -14  12    3.95    0.22
  -4 -14  12    3.99    0.16
 -12  -4  14    4.26    0.21
  14  12  -4    3.83    0.29
  14  -4 -12    4.20    0.24
 -12 -14   4    4.21    0.22
 -12 -14   4    3.95    0.17
  -4 -12  14    3.93    0.22
   4 -14  12    3.76    0.22
  -4 -12  14    4.15    0.16
  -4 -14 -12    3.86    0.16
 -14 -12  -4    4.48    0.25
   4 -12 -14    3.73    0.24
   4 -12 -14    3.92    0.17
  -4 -14 -12    3.86    0.21
  -4 -14 -12    4.17    0.23
 -14  -4  12    4.36    0.23
 -14  -4  12    4.02    0.16
   4 -12 -14    3.98    0.22
 -12   4  14    4.09    0.16
  -4  14  12    4.23    0.24
  14 -12   4    3.76    0.30
   4  14 -12    4.14    0.28
 -14  -4  12    3.85    0.21
 -12   4  14    3.96    0.21
 -12 -14  -6    2.52    0.19
   6 -14 -12    2.48    0.12
 -14 -12   6    2.44    0.16
  12  -6 -14    2.40    0.12
  12  -6 -14    2.45    0.19
  -6 -14  12    2.49    0.15
  -6 -14  12    2.43    0.11
  -6  14 -12    2.31    0.23
   6 -14 -12    2.28    0.16
  12  14  -6    2.46    0.22
 -12  -6  14    2.46    0.15
 -12  -6  14    2.43    0.11
  12  -6 -14    2.15    0.16
   6 -14 -12    2.30    0.18
  12 -14   6    2.21    0.23
  -6 -12 -14    2.64    0.19
  14  -6 -12    2.51    0.19
  -6 -12  14    2.34    0.11
 -14 -12  -6    2.71    0.19
 -12   6  14    2.40    0.11
 -14  -6  12    2.27    0.16
   6  14 -12    2.48    0.20
 -12   6  14    2.16    0.15
 -12 -14   6    2.25    0.16
   6 -12 -14    2.38    0.12
  -6 -12  14    2.57    0.15
  14  12  -6    2.42    0.23
  -6 -14 -12    2.65    0.20
   6 -12 -14    2.30    0.17
   6 -12 -14    2.16    0.18
 -14  -6  12    2.43    0.11
 -12 -14   6    2.19    0.11
  12  -8 -14    2.20    0.11
   8 -14 -12    1.98    0.15
   8 -14 -12    1.92    0.16
 -14  -8 -12    2.43    0.17
 -14 -12   8    2.17    0.15
 -14 -12   8    2.06    0.10
 -12  -8  14    2.17    0.14
 -12  -8  14    2.32    0.10
 -12 -14  -8    2.63    0.19
  -8 -12 -14    2.25    0.17
  -8 -14  12    2.18    0.14
  -8 -14  12    2.15    0.10
   8 -14 -12    2.05    0.11
  12  -8 -14    2.28    0.15
  12  -8 -14    2.02    0.17
  -8 -14 -12    2.42    0.19
 -14 -12  -8    2.22    0.18
 -14  -8  12    1.95    0.14
 -14  -8  12    2.00    0.10
 -12   8  14    2.11    0.10
 -12 -14   8    2.24    0.15
 -12 -14   8    2.20    0.10
   8 -12 -14    2.15    0.15
   8 -12 -14    2.28    0.17
   8 -12 -14    2.15    0.11
  14  -8 -12    2.17    0.16
  -8 -12  14    2.22    0.10
  -8 -12  14    2.21    0.14
 -14 -12  10    2.55    0.12
 -12 -10  14    2.73    0.15
  10 -14 -12    2.63    0.16
 -12 -14 -10    3.21    0.20
 -12 -10  14    2.70    0.12
 -10 -12 -14    3.13    0.19
  12 -10 -14    2.64    0.17
 -10 -14  12    2.95    0.15
 -10 -14  12    2.69    0.12
 -14 -12  10    2.42    0.15
  12 -10 -14    2.72    0.16
 -14 -12 -10    2.93    0.19
  10 -12 -14    2.65    0.17
 -10 -12  14    2.57    0.15
 -10 -12  14    2.57    0.12
  10 -12 -14    2.69    0.12
 -10 -14 -12    3.04    0.20
 -14 -10  12    2.96    0.16
 -14 -10  12    2.79    0.12
  10 -12 -14    2.60    0.16
 -12 -14  10    2.62    0.15
 -12 -14  10    2.73    0.12
 -14 -14   0    7.18    0.31
 -14   0  14    6.92    0.30
 -14   0  14    6.93    0.25
   0 -14 -14    6.27    0.30
   0 -14 -14    6.36    0.33
   0 -14 -14    6.52    0.26
  14   0 -14    6.47    0.31
  14  14   0    7.37    0.39
 -14 -14  -2   56.28    1.95
 -14  -2  14   56.41    1.94
 -14  -2  14   55.36    1.89
 -14   2  14   52.05    1.92
 -14   2  14   55.32    1.88
  -2 -14 -14   52.43    1.92
  -2 -14 -14   54.25    1.97
  -2 -14 -14   53.65    1.89
   2 -14 -14   52.58    1.93
   2 -14 -14   55.19    1.96
   2 -14 -14   52.65    1.89
  14 -14   2   53.36    2.04
  14  -2 -14   53.77    1.94
  14   2 -14   54.16    1.93
  14  14  -2   58.17    2.03
 -14 -14  -4    1.14    0.13
 -14 -14   4    0.90    0.10
 -14  -4  14    0.73    0.09
 -14  -4  14    0.91    0.06
 -14   4  14    0.70    0.10
  -4 -14 -14    0.94    0.13
  -4 -14  14    0.74    0.06
   4 -14 -14    1.01    0.11
   4 -14 -14    0.85    0.12
   4 -14 -14    1.03    0.07
  14  -4 -14    1.08    0.12
 -14 -14  -6   63.53    2.10
 -14 -14   6   57.38    2.07
 -14  -6  14   58.17    2.06
 -14  -6  14   58.95    2.03
 -14   6  14   56.97    2.06
  -6 -14 -14   62.97    2.11
  -6 -14  14   57.82    2.03
   6 -14 -14   56.28    2.07
   6 -14 -14   57.89    2.09
  14  -6 -14   56.15    2.08
 -14 -14   8    3.79    0.18
 -14 -14   8    3.82    0.14
 -14  -8  14    3.57    0.18
 -14  -8  14    3.59    0.14
  -8 -14  14    3.45    0.17
  -8 -14  14    3.36    0.14
   8 -14 -14    3.71    0.19
   8 -14 -14    3.71    0.15
 -15  -1  -1   18.77    0.74
 -15  -1   1   18.31    0.74
 -15   1  -1   18.22    0.73
 -15   1   1   18.47    0.74
  -1 -15  -1   18.95    0.71
  -1 -15  -1   17.98    0.73
  -1 -15  -1   18.28    0.66
  -1 -15   1   18.45    0.71
  -1 -15   1   18.08    0.73
  -1 -15   1   18.44    0.66
  -1  -1  15   18.49    0.73
  -1   1  15   18.57    0.73
  -1   1  15   18.81    0.66
  -1  15  -1   18.40    0.83
   1 -15  -1   18.70    0.70
   1 -15  -1   18.45    0.73
   1 -15  -1   19.01    0.66
   1 -15   1   18.78    0.70
   1 -15   1   18.99    0.73
   1 -15   1   18.36    0.66
   1  -1 -15   18.39    0.66
   1  -1  15   18.33    0.73
   1   1  15   18.46    0.73
   1  15  -1   18.09    0.82
  15  -1  -1   19.20    0.74
  15  -1  -1   18.49    0.83
  15  -1   1   19.00    0.73
  15  -1   1   18.67    0.83
  15   1  -1   18.73    0.74
  15   1  -1   17.73    0.83
  15   1   1   19.16    0.73
  15   1   1   17.92    0.83
 -15  -1  -3   10.12    0.46
  -1 -15   3   10.24    0.46
 -15   1   3   10.90    0.48
  -3 -15  -1   10.75    0.45
  -3 -15  -1   11.06    0.47
  -3 -15  -1   10.83    0.40
   1 -15  -3   10.30    0.39
  15   1  -3   10.38    0.56
  -1 -15   3   10.93    0.40
  -1  15  -3   10.20    0.56
   3  -1 -15   10.79    0.44
   3  -1 -15   10.84    0.40
  -1   3  15   11.13    0.47
  -1 -15   3   10.70    0.44
  15  -1   3   10.86    0.46
   1  -3  15   11.37    0.46
   1   3 -15   11.76    0.46
  15  -3  -1   11.04    0.55
  15   3   1   10.36    0.56
   1 -15  -3   10.53    0.44
  -3  -1  15   11.28    0.43
   3 -15   1   10.60    0.46
   3 -15   1   10.65    0.39
   3  15  -1   10.44    0.53
   1 -15  -3   10.42    0.46
 -15  -3   1   10.24    0.48
  -3  -1  15   10.73    0.39
  15  -3  -1   10.90    0.47
  15  -1   3   11.00    0.55
  15   1  -3   10.78    0.47
   3   1  15   11.59    0.47
  -3  -1  15   11.89    0.47
  15   1   3   10.53    0.55
   3 -15  -1   11.32    0.39
  15   1   3   11.03    0.45
   3 -15  -1   10.58    0.46
   1  -3 -15   11.12    0.44
 -15  -1   3   10.69    0.48
  -3 -15   1   10.56    0.47
  -3  15  -1   10.44    0.55
   1  -3 -15   10.72    0.39
  15  -1  -3   11.06    0.48
  -3 -15   1   10.24    0.44
   1 -15   3   11.10    0.47
   1 -15   3   10.53    0.39
   1  15  -3   10.29    0.56
  -1  -3  15   11.19    0.46
  -1   3 -15   12.00    0.46
   3  -1  15   11.52    0.46
   3   1 -15   10.89    0.45
   3   1 -15   10.49    0.40
  -3 -15   1   10.67    0.40
  -1 -15  -3   10.66    0.39
   1   3  15   10.92    0.47
  15  -3   1   10.20    0.46
  15  -1  -3   10.51    0.55
  -1 -15  -3   10.41    0.44
  -1 -15  -3   10.25    0.46
   3 -15  -1   10.93    0.43
  -3   1  15   10.81    0.46
  -3   1  15   11.10    0.39
  15   3  -1    9.96    0.56
  15  -1  -3   10.57    0.46
  15  -3   1   10.45    0.54
  15   3  -1   10.58    0.46
 -15  -3  -1   10.25    0.47
  -3 -15   3   18.43    0.75
  -3 -15   3   18.89    0.73
  -3  -3  15   20.14    0.72
   3 -15   3   19.36    0.75
   3  -3 -15   19.15    0.73
   3  -3 -15   19.26    0.75
   3  -3 -15   19.35    0.69
   3  -3  15   19.65    0.75
   3   3 -15   19.61    0.74
  -3 -15   3   18.63    0.69
  -3 -15  -3   18.59    0.75
  -3 -15  -3   18.71    0.69
 -15   3   3   18.46    0.77
  -3 -15  -3   18.76    0.74
  15  -3   3   20.42    0.76
  15  -3   3   18.63    0.83
  15   3  -3   19.30    0.76
  15   3  -3   19.07    0.86
  15   3   3   19.35    0.86
  -3  15  -3   18.03    0.86
   3 -15  -3   19.29    0.73
   3 -15  -3   19.43    0.75
   3 -15  -3   19.50    0.68
   3 -15   3   20.36    0.86
  -3   3  15   19.19    0.76
  -3  -3  15   20.73    0.76
   3   3  15   20.08    0.76
   3  15  -3   19.00    0.84
  15  -3  -3   18.90    0.76
  15  -3  -3   19.48    0.85
  15  -3  -3   18.89    0.75
 -15  -3  -3   19.41    0.76
 -15  -3   3   18.61    0.77
  -3  -3  15   19.43    0.68
   5  15  -1   12.75    0.61
   5 -15   1   13.51    0.54
   5  -1 -15   13.66    0.48
   1   5 -15   13.01    0.54
  15  -5  -1   12.63    0.54
  15  -5  -1   13.60    0.64
   5 -15   1   14.66    0.65
  -1 -15   5   12.67    0.48
 -15   1   5   12.21    0.56
  -1   5  15   12.41    0.55
  15   1  -5   13.01    0.55
  15   1  -5   13.14    0.64
  15   1  -5   13.56    0.56
  -5 -15  -1   13.10    0.55
  -5 -15  -1   13.20    0.48
   1  -5  15   13.45    0.55
  -1  -5 -15   12.30    0.54
  15  -1   5   13.05    0.54
   5  -1 -15   13.56    0.53
   1 -15  -5   13.19    0.53
   1 -15  -5   13.18    0.54
   1 -15  -5   13.40    0.48
  -1 -15   5   13.15    0.52
 -15  -5   1   13.65    0.57
  -5  -1  15   13.60    0.52
  -1  15  -5   12.85    0.66
  15  -1   5   13.25    0.62
  -5  -1  15   13.11    0.48
  15   5   1   12.62    0.65
  -5 -15  -1   12.99    0.53
  -1 -15   5   13.22    0.55
  -5  -1  15   13.52    0.55
  -1   5 -15   13.69    0.55
  15  -1  -5   12.91    0.56
  -5   1  15   13.05    0.54
   1  -5 -15   12.87    0.52
  15  -1  -5   13.64    0.64
  15  -1  -5   12.14    0.54
  15   5  -1   13.53    0.66
   5 -15  -1   13.62    0.54
   1  15  -5   13.14    0.65
   1  -5 -15   12.77    0.54
  -5   1  15   13.56    0.48
  -1 -15  -5   13.36    0.53
 -15  -1   5   13.56    0.57
 -15  -5  -1   14.30    0.57
  -5  15  -1   12.66    0.64
  -1  -5  15   13.60    0.55
  15   1   5   13.52    0.63
  -5 -15   1   13.18    0.53
   5   1 -15   13.20    0.54
  -5 -15   1   13.06    0.48
   1  -5 -15   12.97    0.48
  15  -5   1   12.65    0.54
  15  -5   1   12.76    0.63
   1   5  15   14.30    0.55
  -5 -15   1   12.36    0.54
  -1 -15  -5   12.82    0.48
  -1 -15  -5   13.22    0.55
   1 -15   5   12.83    0.55
   3 -15  -5   14.54    0.59
  -3  -5 -15   15.88    0.60
  15  -5  -3   14.95    0.60
  15  -5  -3   14.77    0.69
  -5 -15  -3   14.31    0.58
   3 -15  -5   14.70    0.53
   5  -3 -15   14.78    0.54
  -5  -3  15   14.70    0.53
   3   5 -15   15.08    0.59
   3  -5  15   15.66    0.60
  15   5   3   15.31    0.71
   5  15  -3   14.09    0.67
  -5  -3  15   15.10    0.57
  -5  -3  15   15.28    0.60
 -15  -3  -5   15.75    0.60
  -3   5  15   14.27    0.60
  -3 -15   5   15.03    0.58
   5 -15   3   15.19    0.70
  15   3  -5   14.84    0.69
  -5 -15  -3   14.06    0.53
  15   3  -5   14.97    0.60
   5  -3 -15   14.17    0.58
   5  -3 -15   14.29    0.60
   5 -15   3   15.59    0.60
  15  -3   5   13.83    0.59
 -15  -5   3   14.28    0.61
 -15   3   5   13.71    0.62
   3 -15  -5   14.70    0.58
  -5 -15  -3   13.79    0.59
  15  -3   5   14.14    0.68
  -3 -15   5   14.12    0.60
  -3 -15   5   14.38    0.53
  -3  15  -5   14.46    0.72
  -3   5 -15   15.79    0.61
   3   5  15   15.39    0.60
   5 -15  -3   15.27    0.59
  -5   3  15   14.81    0.60
   3  15  -5   14.43    0.68
  -5 -15   3   13.74    0.59
  -5 -15   3   14.61    0.53
  -5  15  -3   14.05    0.71
  15   5  -3   15.33    0.71
  -3  -5  15   15.22    0.60
  -5 -15   3   14.88    0.59
  15  -5   3   14.25    0.60
  15  -5   3   13.94    0.68
  15   5  -3   14.89    0.60
   3  -5 -15   14.96    0.60
   3  -5 -15   14.55    0.53
   5 -15  -3   14.93    0.53
  15  -3  -5   15.08    0.61
  15  -3  -5   15.50    0.69
  15  -3  -5   14.44    0.60
 -15  -3   5   14.55    0.62
  -3 -15  -5   14.23    0.58
  -3 -15  -5   14.18    0.60
  -3 -15  -5   14.22    0.53
  15   3   5   15.40    0.69
   5   3 -15   15.19    0.59
   3  -5 -15   14.08    0.58
  -3  -5  15   15.76    0.53
 -15  -5  -3   14.88    0.61
   3 -15   5   15.03    0.60
  -5   5  15   13.31    0.55
   5 -15  -5   12.66    0.52
   5 -15  -5   13.55    0.54
   5 -15  -5   13.59    0.48
   5 -15   5   12.96    0.63
   5 -15   5   13.73    0.55
   5  -5 -15   11.75    0.53
   5  -5 -15   13.32    0.56
   5  -5 -15   12.73    0.48
   5   5 -15   13.58    0.54
   5  15  -5   13.37    0.63
  15  -5  -5   13.49    0.56
  15  -5  -5   12.86    0.55
  -5  15  -5   12.51    0.66
 -15  -5  -5   13.77    0.56
 -15  -5   5   13.26    0.56
  -5 -15  -5   11.56    0.53
  -5 -15  -5   12.89    0.54
  -5  -5  15   14.20    0.52
  -5  -5  15   14.15    0.55
  -5  -5  15   13.55    0.48
  -5   5 -15   15.58    0.56
  -5 -15   5   12.95    0.48
  15  -5   5   12.67    0.63
  15   5  -5   13.66    0.55
  15   5  -5   14.05    0.65
  15   5   5   13.82    0.64
  15  -5   5   12.87    0.55
  -5 -15   5   12.83    0.55
  -5 -15   5   13.84    0.54
  -5 -15  -5   13.42    0.48
  -5 -15  -5   13.43    0.55
   7  -1 -15   14.30    0.61
   1   7 -15   15.91    0.62
  15  -7  -1   15.66    0.72
  15  -7  -1   15.61    0.62
   7  -1 -15   15.51    0.62
   7  -1 -15   15.47    0.56
 -15   1   7   15.65    0.65
   1 -15  -7   15.27    0.62
   1 -15  -7   15.53    0.55
  -1  -7 -15   14.35    0.62
  -1  -7 -15   15.59    0.55
  -7  -1  15   15.86    0.61
  -7  -1  15   14.92    0.55
  -1   7  15   15.06    0.62
  -1 -15   7   15.43    0.55
  -1  15  -7   15.96    0.74
  15   7   1   15.31    0.73
   1  -7  15   16.54    0.62
  -7 -15  -1   14.43    0.55
 -15  -7   1   15.61    0.63
   7 -15   1   16.46    0.72
   7  15  -1   15.55    0.69
  15   1  -7   15.89    0.70
  15   1  -7   15.38    0.63
  -7 -15  -1   14.56    0.61
  -7  -1  15   15.19    0.60
  -1 -15   7   15.00    0.62
  15   1  -7   15.88    0.63
  15  -1   7   15.00    0.69
   1 -15  -7   15.46    0.60
  15   1   7   15.91    0.69
  15   7  -1   16.16    0.73
   1   7  15   14.99    0.62
  -7 -15   1   14.22    0.55
  -1  -7  15   16.29    0.62
  -1   7 -15   15.31    0.62
  -7   1  15   14.80    0.59
 -15  -7  -1   15.55    0.63
  -7   1  15   14.81    0.55
  -1 -15  -7   15.62    0.60
  -1 -15  -7   14.93    0.61
  -1 -15  -7   15.80    0.63
  -1 -15  -7   15.95    0.55
   1 -15   7   15.57    0.62
   1  15  -7   14.70    0.72
   1  -7 -15   14.81    0.62
   1  -7 -15   14.71    0.55
   7   1 -15   15.03    0.60
  15  -7   1   14.86    0.61
  -7 -15   1   15.93    0.61
  -7   1  15   15.54    0.62
   1  -7 -15   14.91    0.59
  15  -1  -7   15.07    0.63
  15  -1  -7   15.22    0.63
 -15  -1   7   15.28    0.64
   7   1 -15   13.80    0.60
  15   3  -7    6.84    0.33
  -3  -7 -15    6.92    0.33
  15   7   3    6.22    0.41
  15  -3   7    6.73    0.32
   7  -3 -15    7.03    0.32
  15   3  -7    6.59    0.32
  -7 -15  -3    6.64    0.26
  15   3  -7    7.18    0.41
  -3   7  15    6.33    0.32
  -7  -3  15    6.51    0.26
  -7  -3  15    6.76    0.30
 -15  -7   3    7.09    0.34
  15  -7  -3    6.86    0.32
  -3 -15   7    6.27    0.32
  -3 -15   7    6.91    0.26
   3  -7  15    7.41    0.33
   3   7 -15    6.65    0.32
   7  -3 -15    6.81    0.33
  -3 -15   7    7.26    0.31
  -3  15  -7    6.72    0.43
  -7 -15  -3    6.19    0.31
  -7  -3  15    6.70    0.32
   7 -15   3    6.66    0.40
   7  15  -3    6.70    0.39
   3 -15  -7    7.13    0.32
   3 -15  -7    6.30    0.32
  15  -7  -3    7.18    0.41
  15  -3   7    6.53    0.39
   3 -15  -7    6.47    0.26
   7  -3 -15    6.83    0.26
  -7 -15   3    6.79    0.26
 -15  -7  -3    6.96    0.34
  -3  -7  15    6.93    0.33
  15  -7   3    6.44    0.32
   3  -7 -15    6.74    0.31
   3  -7 -15    6.76    0.34
 -15  -3   7    6.66    0.34
  -7   3  15    6.68    0.26
  -3 -15  -7    6.47    0.31
  -3 -15  -7    6.74    0.32
  -3 -15  -7    6.52    0.33
   3   7  15    6.86    0.33
   7 -15  -3    6.93    0.31
   3  15  -7    6.22    0.39
  -3   7 -15    6.93    0.33
  15  -3  -7    7.29    0.34
  -7 -15   3    6.55    0.31
  -3 -15  -7    6.78    0.26
  15  -3  -7    6.47    0.33
  -3  -7  15    6.92    0.25
  -7   3  15    6.67    0.32
  15  -7   3    6.47    0.40
  15   7  -3    6.80    0.41
   3 -15   7    6.36    0.32
   7   3 -15    6.45    0.31
   3  -7 -15    6.48    0.26
  -7  -5  15   10.41    0.41
 -15  -7   5   10.25    0.44
   7 -15   5    9.46    0.51
 -15  -5  -7    9.94    0.42
   7  -5 -15    9.79    0.36
   5   7 -15    9.34    0.41
  15   5  -7    9.40    0.42
  15   5  -7   10.05    0.50
  -7 -15  -5    9.75    0.41
  -7 -15  -5    9.65    0.43
   7  15  -5    9.81    0.49
  -7  -5  15    9.69    0.36
  -7   5 -15   10.96    0.43
   5 -15  -7    9.35    0.40
   5 -15  -7    9.50    0.42
   5 -15  -7    9.46    0.36
  -7 -15  -5    9.93    0.36
  -5 -15   7    9.52    0.36
  -5   7  15    9.84    0.43
   7  -5 -15    9.75    0.42
   7  -5 -15    9.77    0.43
  15  -5   7    9.24    0.42
  15  -5   7    9.17    0.50
  15  -7  -5    9.54    0.42
  -7  -5  15    9.85    0.42
  -5  15  -7    9.34    0.54
  -5 -15   7    9.93    0.41
  -5  -7 -15    9.53    0.42
  -5 -15   7    9.56    0.42
  -5 -15  -7    9.67    0.41
   7 -15  -5   10.17    0.42
  -5 -15  -7    9.75    0.44
  -5 -15  -7    9.51    0.36
  15  -5  -7    9.28    0.43
   5  15  -7    9.27    0.49
 -15  -5   7    9.76    0.43
  15  -7   5    9.07    0.50
   5  -7 -15    9.62    0.44
  -5  -7  15    9.85    0.42
  -5  -7  15   10.19    0.36
  -7   5  15   10.00    0.43
  15  -7   5    9.12    0.42
  15  -5  -7    9.63    0.43
  15   7  -5    9.78    0.51
 -15  -7  -5   10.10    0.44
   7   5 -15    9.57    0.42
   5 -15   7    8.84    0.49
   5 -15   7    9.34    0.42
   5  -7 -15    9.55    0.36
  -5 -15  -7    9.33    0.42
  -5   7 -15   10.46    0.43
  -7 -15   5    9.69    0.41
  -7 -15   5    9.26    0.36
   5  -7 -15    9.69    0.41
  -5  -7  15   10.04    0.40
  -7  -7  15   14.44    0.56
  -7   7 -15   14.06    0.57
 -15  -7  -7   14.40    0.58
 -15  -7   7   13.21    0.55
  -7  -7  15   14.38    0.50
  -7  15  -7   13.90    0.70
  -7  -7  15   14.07    0.54
   7 -15  -7   14.13    0.56
   7 -15  -7   13.77    0.50
   7 -15   7   12.95    0.65
   7  -7 -15   14.06    0.56
   7  -7 -15   13.86    0.58
   7  -7 -15   13.67    0.51
  -7   7  15   13.65    0.57
 -15  -7   7   13.82    0.57
  -7 -15  -7   14.01    0.55
  -7 -15  -7   15.15    0.60
  -7 -15  -7   13.96    0.50
  -7 -15   7   14.06    0.56
  -7 -15   7   13.95    0.51
  -7  -7 -15   13.51    0.56
  15   7  -7   14.15    0.56
   7   7 -15   13.62    0.56
   7  15  -7   14.05    0.64
  15  -7  -7   14.80    0.57
  15  -7  -7   13.42    0.57
  15  -7   7   13.63    0.66
   7 -15  -7   14.12    0.55
  15   7  -7   14.47    0.65
  -9  -1  15   10.99    0.40
  -1   9  15   10.35    0.47
   9 -15   1   11.48    0.56
   9  15  -1   11.22    0.53
  -1  -9 -15   10.69    0.40
  -1  -9 -15   10.62    0.48
  15  -9  -1   11.24    0.57
  15  -9  -1   11.20    0.46
   9  -1 -15   11.71    0.48
  -9 -15  -1   10.55    0.46
  -9 -15  -1   10.75    0.40
 -15  -9   1   10.55    0.47
  -9  -1  15   11.14    0.45
  -1  -9 -15   10.59    0.44
  -1  15  -9   10.28    0.57
  15   9   1   11.45    0.57
  15   1  -9   10.76    0.47
  15   1  -9   11.51    0.47
   1  -9  15   11.23    0.47
   1   9 -15   10.05    0.46
  -1 -15   9   10.70    0.47
   1 -15  -9   10.55    0.40
   1 -15  -9   11.28    0.45
   1 -15  -9   10.89    0.47
   1 -15  -9   10.84    0.47
   9  -1 -15   11.53    0.46
  -1 -15  -9   10.59    0.48
  -1 -15  -9   10.77    0.40
  15  -9   1   10.64    0.56
  -9 -15   1   11.36    0.40
   9   1 -15   10.90    0.45
  15   9  -1   11.57    0.57
  -1  -9  15   11.39    0.47
  -1   9 -15   11.18    0.47
  -9 -15   1   11.01    0.46
 -15  -1   9   10.44    0.48
  -1 -15  -9   10.62    0.47
   1  -9 -15   10.92    0.48
   1  -9 -15   10.27    0.40
   1 -15   9   10.95    0.47
   1  15  -9   10.51    0.55
   1   9  15   11.15    0.47
   1  -9 -15   10.68    0.44
  15  -9   1   11.38    0.47
  15  -1  -9   10.89    0.47
  15  -1  -9   11.46    0.48
  -9   1  15   10.36    0.45
  -9   1  15   11.02    0.40
  -1 -15  -9   10.76    0.45
 -15  -9  -1   11.47    0.48
  -3 -15   9   12.33    0.50
  -9 -15  -3   11.99    0.43
   3 -15  -9   11.52    0.48
   3 -15  -9   11.19    0.49
   9  -3 -15   11.85    0.49
   9  -3 -15   11.59    0.50
   3   9 -15   11.33    0.49
 -15  -9   3   11.79    0.50
  -9  -3  15   12.08    0.48
  -9  -3  15   11.91    0.43
  15   9   3   11.49    0.59
   3 -15  -9   12.14    0.50
   3 -15  -9   11.75    0.43
  -9 -15  -3   12.04    0.50
   3  -9  15   12.62    0.50
  15  -9  -3   12.41    0.49
  -3  -9 -15   11.61    0.50
  -3 -15   9   12.21    0.43
  -3  15  -9   11.64    0.61
  15   3  -9   12.56    0.50
   9  15  -3   11.81    0.57
   9  -3 -15   11.90    0.44
  -9 -15  -3   11.37    0.48
  -3   9  15   11.38    0.50
   9 -15   3   12.24    0.59
  15  -3   9   11.28    0.56
  15   3  -9   12.11    0.50
  15   9  -3   12.21    0.59
  -3 -15  -9   11.46    0.43
   3   9  15   11.87    0.50
   3  -9 -15   11.73    0.48
  -3  -9  15   12.20    0.50
  15  -9   3   10.77    0.58
  15  -3  -9   12.40    0.51
  -3  -9  15   12.63    0.43
  -3   9 -15   11.42    0.50
   3 -15   9   12.17    0.50
   3  15  -9   11.17    0.56
  -9 -15   3   11.68    0.49
  -9 -15   3   11.83    0.43
  -3 -15  -9   11.62    0.51
   9   3 -15   11.94    0.49
  15  -3  -9   11.79    0.50
  15  -9   3   11.46    0.49
  -9   3  15   11.25    0.48
   3  -9 -15   11.50    0.43
 -15  -9  -3   11.78    0.51
 -15  -3   9   12.13    0.51
  -3 -15  -9   11.37    0.50
   3  -9 -15   12.01    0.52
  -9   3  15   11.77    0.43
  -3 -15  -9   11.76    0.48
   5 -15  -9   10.85    0.45
   9  -5 -15   10.60    0.47
   9  -5 -15   10.71    0.40
   5 -15  -9   10.73    0.39
   5   9 -15   11.15    0.45
   9 -15   5    9.74    0.53
   5 -15  -9   10.57    0.44
  -5 -15   9   11.04    0.44
  -5  -9 -15   10.43    0.46
  -5 -15   9   10.82    0.39
   9  -5 -15   10.73    0.45
 -15  -9   5   11.43    0.46
  -9  -5  15   10.72    0.43
  -9  -5  15   10.55    0.39
  -9 -15  -5   11.17    0.45
  -9 -15  -5   10.93    0.47
  15   5  -9   10.69    0.45
  15  -5   9   10.24    0.53
   9  15  -5   10.90    0.52
  -5   9  15   10.34    0.46
  -5  15  -9    9.57    0.45
  -5 -15   9   10.70    0.45
  -5  15  -9   10.45    0.57
  -9 -15   5   10.00    0.44
  15  -5  -9   10.68    0.46
  -5 -15  -9   10.72    0.39
  -9 -15   5   10.12    0.39
   5  15  -9   10.02    0.51
   5  -9 -15   10.94    0.47
   5  -9 -15   10.61    0.39
  -5  -9  15   11.73    0.43
   9   5 -15   10.76    0.45
  15  -9   5    9.48    0.45
  15  -9   5    9.82    0.54
  15   9  -5   10.45    0.53
  -5   9 -15   10.83    0.46
   5 -15   9   10.60    0.45
   5  -9 -15   10.66    0.44
  15  -5  -9   10.28    0.46
  -5 -15  -9   11.16    0.48
 -15  -9  -5   10.57    0.47
 -15  -5   9   10.15    0.43
 -15  -5   9   11.48    0.47
 -15   5  -9   12.18    0.47
  -9   5  15   10.44    0.39
  -5 -15  -9   10.87    0.44
  -5  -9  15   10.81    0.45
  -5  -9  15   11.19    0.39
   9  -7 -15    7.81    0.37
 -15  -9   7    8.39    0.36
  -7  -9 -15    8.45    0.38
  -7  15  -9    7.80    0.47
   7 -15  -9    8.63    0.36
 -15  -7  -9    8.28    0.38
   9  -7 -15    8.12    0.32
  15  -7   9    7.83    0.45
  -9 -15  -7    8.71    0.40
   7 -15  -9    8.26    0.32
  -9  -7  15    8.54    0.31
 -15  -9   7    8.66    0.38
   9  -7 -15    8.51    0.39
  -7 -15   9    8.37    0.32
  -7 -15   9    8.45    0.36
  -7   9  15    9.04    0.39
  -9  -7  15    8.44    0.36
  15   7  -9    9.36    0.45
   7 -15  -9    8.72    0.38
  -7 -15  -9    9.45    0.41
  15   9  -7    8.44    0.45
  -9 -15   7    8.44    0.32
  -7 -15  -9    8.82    0.36
 -15  -7   9    7.81    0.36
 -15  -7   9    8.94    0.38
  -7  -9  15    8.54    0.37
  15  -9   7    8.25    0.47
  -7  -9  15    8.45    0.31
 -15  -9  -7    8.76    0.39
   7  -9 -15    8.13    0.37
   7  -9 -15    8.25    0.39
   7  -9 -15    8.24    0.32
  -9 -15   7    8.16    0.36
   7  15  -9    8.36    0.43
  15  -7  -9    8.50    0.38
  -7  -9  15    9.05    0.35
 -15  -9  -9    9.16    0.40
 -15  -9   9    8.61    0.37
  -9 -15  -9    9.57    0.41
  15   9  -9   10.18    0.46
  15  -9   9    7.92    0.45
  -9 -15   9    8.91    0.32
  -9  -9 -15    9.12    0.39
  -9  -9  15    9.01    0.36
  -9  -9  15    8.60    0.32
  -9  15  -9    8.21    0.48
   9 -15   9    7.52    0.44
   9  -9 -15    8.22    0.37
   9  -9 -15    8.89    0.40
   9  -9 -15    8.54    0.33
   9  15  -9    8.92    0.44
  -9 -15   9    8.78    0.37
  11  15  -1    6.69    0.38
 -11  -1  15    6.32    0.24
  -1  15 -11    6.92    0.40
 -11 -15  -1    6.55    0.30
   1 -15 -11    6.25    0.31
  -1 -11 -15    6.16    0.24
  15   1 -11    6.51    0.31
 -15 -11   1    6.42    0.31
 -11  -1  15    6.43    0.29
  11 -15   1    7.06    0.40
  15  11   1    6.87    0.39
  11  -1 -15    6.30    0.31
  -1  11  15    6.25    0.32
   1 -15 -11    6.38    0.30
  -1 -15  11    6.82    0.31
   1 -15 -11    6.48    0.32
   1 -15 -11    6.01    0.25
  -1 -11 -15    6.88    0.33
  -1 -11 -15    5.89    0.28
   1 -11  15    6.63    0.30
   1 -11 -15    6.06    0.29
  15 -11   1    6.36    0.40
  15  11  -1    6.28    0.38
  11   1 -15    6.47    0.30
   1 -11 -15    6.03    0.32
 -11   1  15    6.73    0.25
 -15 -11  -1    6.52    0.32
  -1 -15 -11    6.07    0.31
  15  -1 -11    6.15    0.31
  -1 -15 -11    6.36    0.32
   1 -11 -15    5.79    0.24
 -11 -15   1    5.68    0.29
 -11 -15   1    6.26    0.25
 -15  -1  11    6.00    0.28
   1 -15  11    6.16    0.31
   1  15 -11    6.23    0.37
 -15  -1  11    6.72    0.32
 -11   1  15    6.30    0.29
   1  11  15    6.61    0.32
  -1 -11  15    6.51    0.31
  -1 -15 -11    6.39    0.25
  -1 -15 -11    6.27    0.29
  -3  11  15   10.47    0.48
   3 -15 -11   11.65    0.48
 -11 -15  -3   12.13    0.48
   3 -15 -11   11.04    0.46
  -3 -15  11   11.19    0.47
  11  -3 -15   11.14    0.48
  11  -3 -15   11.12    0.46
  -3 -15  11   11.71    0.41
   3 -11  15   11.92    0.47
   3 -15 -11   10.92    0.41
  15   3 -11   11.25    0.47
 -11 -15  -3   11.16    0.46
  11 -15   3   11.34    0.56
 -15 -11   3   11.39    0.47
 -11  -3  15   11.57    0.45
 -11  -3  15   11.41    0.41
  -3 -11 -15   11.50    0.49
  11  15  -3   11.31    0.54
  -3  15 -11   10.96    0.57
   3 -15 -11   10.79    0.47
  -3 -15 -11   11.06    0.46
 -11 -15   3   11.34    0.46
 -11   3  15   11.50    0.46
  -3 -11  15   11.21    0.47
 -15  -3  11   10.78    0.45
   3 -11 -15   10.96    0.49
  15  -3 -11   11.43    0.48
 -15 -11  -3   11.63    0.49
  15 -11   3   10.28    0.56
  -3 -15 -11   11.16    0.41
 -11   3  15   11.12    0.41
 -11 -15   3   10.94    0.41
   3  11  15   11.62    0.48
   3  15 -11   11.20    0.53
  -3 -15 -11   10.95    0.48
   3 -11 -15   10.81    0.45
 -15  -3  11   11.32    0.47
   3 -11 -15   10.61    0.41
  15  11  -3   11.33    0.55
 -15 -11   5    8.46    0.37
 -11  -5  15    8.71    0.32
 -11 -15  -5    9.34    0.40
  11 -15   5    7.70    0.45
  11  15  -5    9.04    0.45
   5 -15 -11    8.86    0.39
  11  -5 -15    8.75    0.33
  -5  15 -11    8.36    0.47
  -5 -15  11    9.32    0.36
  -5 -15  11    8.69    0.38
   5 -15 -11    8.21    0.38
  11  -5 -15    7.94    0.37
   5 -15 -11    8.55    0.33
   5 -15 -11    8.34    0.37
 -15 -11   5    9.11    0.38
 -11  -5  15    8.64    0.36
  -5  11  15    8.76    0.40
  -5 -15  11    8.88    0.32
  11  -5 -15    8.56    0.40
  -5 -11 -15    9.10    0.40
 -11   5  15    8.45    0.37
  -5 -11  15    9.18    0.32
   5 -11 -15    8.95    0.33
   5 -11 -15    8.91    0.40
  -5 -15 -11    8.68    0.32
  -5  15  11    8.20    0.39
 -15 -11  -5    9.41    0.41
 -15  -5  11    8.79    0.37
  15  -5 -11    8.76    0.39
   5 -11 -15    8.65    0.38
 -11 -15   5    8.54    0.37
  15 -11   5    8.52    0.47
  15  11  -5    9.37    0.47
  -5 -11  15    8.81    0.38
 -15  -5  11    8.95    0.38
   5  15 -11    8.88    0.44
  -5 -15 -11    9.25    0.37
 -11 -15   5    8.67    0.33
 -11   5  15    8.83    0.32
  11 -15   7    3.85    0.28
 -15 -11   7    4.10    0.21
 -11  -7  15    4.17    0.21
 -11  -7  15    4.30    0.17
  11  -7 -15    3.97    0.17
  -7 -15  11    4.38    0.17
 -11 -15  -7    4.40    0.25
   7 -15 -11    4.02    0.21
  11  -7 -15    4.04    0.22
  -7 -11 -15    4.26    0.24
  -7 -15  11    4.20    0.21
  -7  15 -11    3.95    0.30
  11  15  -7    3.85    0.27
  11  -7 -15    4.10    0.24
   7 -15 -11    4.29    0.17
   7 -11 -15    4.26    0.24
  -7 -11  15    4.06    0.20
 -15 -11  -7    4.42    0.25
 -15  -7  11    4.31    0.21
  15 -11   7    4.19    0.30
 -11 -15   7    4.26    0.21
   7 -11 -15    3.75    0.21
  -7 -15 -11    4.27    0.25
   7 -11 -15    3.84    0.17
   7  15 -11    3.97    0.26
 -11 -15   7    4.43    0.17
  15  11  -7    4.54    0.29
 -11   7  15    4.01    0.17
  -7 -11  15    4.28    0.17
   9 -15 -11    7.61    0.28
  11  -9 -15    6.72    0.31
  -9 -11 -15    7.86    0.35
 -11  -9  15    7.56    0.31
   9 -15 -11    7.27    0.32
  11  -9 -15    7.17    0.28
 -15 -11   9    7.25    0.31
  11  -9 -15    7.33    0.34
 -11 -15  -9    8.69    0.36
  -9 -15  11    7.34    0.28
 -15  -9 -11    8.53    0.35
  -9 -15  11    7.37    0.31
  -9 -11  15    7.26    0.31
  -9 -11  15    7.52    0.28
 -15  -9  11    7.02    0.31
 -11 -15   9    7.49    0.32
  15  -9 -11    7.40    0.33
   9 -11 -15    7.29    0.28
 -15 -11  -9    8.19    0.35
 -11 -15   9    7.17    0.28
   9 -11 -15    6.83    0.32
 -11   9  15    7.34    0.28
  -9 -15 -11    8.36    0.36
 -15  -9  11    7.50    0.28
   1 -15 -13    9.83    0.43
  -1 -13 -15    9.72    0.43
  13  -1 -15    9.74    0.41
  -1 -13 -15    9.38    0.35
  -1  15 -13    9.63    0.47
 -15 -13   1   10.30    0.41
 -13  -1  15    9.79    0.39
 -13  -1  15    9.62    0.35
 -15   1  13    8.88    0.38
   1 -15 -13    9.27    0.40
  -1 -13 -15    8.99    0.39
  15   1 -13    9.32    0.40
   1 -15 -13    9.64    0.35
   1 -13 -15    9.23    0.39
   1 -13 -15    9.58    0.43
 -13   1  15    9.50    0.35
  -1 -15 -13    8.92    0.39
 -15  -1  13    8.84    0.38
  -1 -15 -13    9.80    0.35
  15  13  -1    9.70    0.48
 -15  -1  13    9.89    0.41
 -13   1  15    9.43    0.39
 -13 -15   1    9.62    0.40
 -15 -13  -1   10.12    0.41
  -1 -15 -13   10.21    0.43
  15  -1 -13    9.47    0.41
  13   1 -15    9.72    0.40
  15 -13   1    9.73    0.49
   1 -13 -15    9.27    0.35
 -13 -15  -3    6.69    0.30
 -13  -3  15    6.58    0.28
 -13  -3  15    6.28    0.24
   3 -15 -13    6.06    0.24
  13  -3 -15    6.51    0.30
 -15   3  13    5.67    0.27
   3 -15 -13    6.57    0.31
  15  -3 -13    6.38    0.30
 -15 -13  -3    6.71    0.31
  -3 -15 -13    6.10    0.24
 -15  -3  13    6.34    0.29
 -15  -3  13    6.15    0.28
 -13 -15   3    5.85    0.28
   3 -13 -15    5.96    0.28
 -13   3  15    6.03    0.28
 -13   3  15    6.29    0.24
  -3 -15 -13    6.22    0.28
  -3 -15 -13    7.07    0.33
   3 -13 -15    6.17    0.24
 -15  -3  13    6.25    0.24
   3 -13 -15    6.23    0.31
   5 -15 -13    6.98    0.27
   5 -15 -13    7.16    0.32
 -15 -13   5    7.12    0.31
 -13  -5  15    7.28    0.31
 -13  -5  15    7.33    0.27
   5 -15 -13    7.39    0.33
  13  -5 -15    7.33    0.31
  13  -5 -15    6.95    0.33
  -5 -15  13    7.43    0.27
  -5 -13 -15    7.37    0.34
 -13 -15  -5    7.84    0.34
 -13   5  15    7.03    0.31
 -13 -15   5    6.93    0.27
   5 -13 -15    6.95    0.34
 -15  -5  13    7.32    0.31
 -15  -5  13    7.31    0.27
  -5 -15 -13    7.74    0.35
 -13 -15   5    6.68    0.31
 -15 -13  -5    7.85    0.34
 -13   5  15    7.22    0.27
  -5 -13  15    7.47    0.27
   5 -13 -15    6.79    0.31
  15  -5 -13    6.64    0.32
   5 -13 -15    6.65    0.27
   7 -15 -13    8.83    0.32
  13  -7 -15    8.46    0.36
 -13  -7  15    8.94    0.32
  -7 -15  13    8.61    0.35
 -15 -13   7    8.94    0.36
   7 -15 -13    9.10    0.37
  -7 -15  13    8.64    0.32
 -13  -7  15    8.88    0.35
   7 -13 -15    8.30    0.32
 -15 -13  -7    9.78    0.39
  -7 -13  15    8.66    0.32
 -13   7  15    8.94    0.36
 -13   7  15    8.89    0.32
  -7 -15 -13    9.81    0.40
   7 -13 -15    7.77    0.36
 -15  -7  13    8.18    0.35
 -15  -7  13    8.65    0.32
 -13 -15   7    8.85    0.36
 -13 -15   7    8.97    0.32
 -15  -1  15    6.51    0.27
 -15  -1  15    7.04    0.24
 -15   1  15    6.57    0.28
  -1 -15 -15    6.30    0.28
  -1 -15 -15    6.51    0.25
   1 -15 -15    6.56    0.28
   1 -15 -15    6.50    0.25
 -15  -3  15    4.18    0.19
   3 -15 -15    3.89    0.20
   3 -15 -15    3.85    0.16
   0 -16   0  110.10    3.86
   0 -16   0  108.85    3.89
   0 -16   0  109.67    3.81
   0   0  16  115.58    3.89
  16   0   0  107.47    3.89
  16   0   0  110.54    4.01
 -16   0  -2    4.17    0.26
 -16   0   2    5.32    0.29
  -2 -16   0    5.25    0.26
  -2 -16   0    4.69    0.27
  -2 -16   0    5.25    0.21
   0  -2  16    5.28    0.28
   0   2  16    5.10    0.28
   2 -16   0    4.91    0.25
   2 -16   0    5.20    0.27
   2 -16   0    5.19    0.21
  16   0  -2    5.56    0.29
  16   0  -2    5.61    0.37
  16   0   2    5.33    0.27
  16   0   2    5.33    0.37
  16  -2   0    5.25    0.28
 -16  -2   0    5.09    0.29
  -2   0  16    5.22    0.28
  -2   0  16    5.36    0.21
   0 -16  -2    5.59    0.26
   0 -16  -2    5.53    0.28
   0 -16  -2    5.64    0.21
   0 -16   2    5.37    0.25
   0 -16   2    5.28    0.28
   0 -16   2    5.33    0.21
   0  16  -2    5.49    0.37
   2   0 -16    5.06    0.21
   2   0  16    5.82    0.28
  16   2   0    4.99    0.37
  16  -2   0    5.01    0.36
  16   2   0    5.33    0.28
   2  -2  16    5.87    0.28
   2 -16   2    5.21    0.28
   2 -16   2    5.20    0.21
   2  -2 -16    5.23    0.26
   2  -2 -16    5.43    0.21
  -2 -16  -2    5.32    0.28
  -2 -16  -2    5.36    0.21
  -2 -16   2    5.40    0.27
  -2 -16   2    4.92    0.28
  -2 -16   2    5.14    0.21
  -2  -2  16    5.36    0.28
   2 -16  -2    5.40    0.26
   2 -16  -2    5.10    0.27
   2 -16  -2    5.21    0.21
 -16  -2  -2    5.19    0.29
 -16  -2   2    5.34    0.30
 -16   2   2    5.54    0.30
  -2 -16  -2    5.41    0.27
  -2   2  16    5.66    0.29
  -2   2  16    5.59    0.21
  -2  16  -2    5.01    0.36
  16   2  -2    4.97    0.28
  16   2  -2    5.17    0.38
  16   2   2    5.17    0.37
  -2  -2  16    5.73    0.21
  16  -2   2    5.32    0.28
  16  -2   2    5.13    0.36
  16  -2  -2    5.41    0.29
  16  -2  -2    5.42    0.37
   2  16  -2    5.18    0.35
   2   2  16    6.08    0.29
   4 -16   0  111.25    3.86
   4   0 -16  111.37    3.80
   4   0  16  122.08    3.87
  16   0   4  111.77    3.86
  16   0   4  110.51    3.97
   0 -16   4  108.72    3.79
   0  16  -4  106.36    3.98
  16   0  -4  103.80    3.87
   4   0 -16  108.71    3.84
   0   4 -16  118.94    3.86
   0   4  16  111.06    3.87
  -4 -16   0  114.19    3.80
   0  -4  16  116.64    3.87
   0 -16  -4  110.62    3.79
 -16   0   4  105.69    3.88
  -4 -16   0  111.77    3.85
  -4 -16   0  101.44    3.86
  -4   0  16  112.61    3.79
   0 -16  -4  106.88    3.84
   0 -16  -4  107.40    3.86
  16  -4   0  106.52    3.86
  16  -4   0  105.33    3.97
  16   4   0  103.26    3.98
  16   0  -4  106.18    3.97
 -16  -4   0  107.12    3.88
  -4   0  16  115.37    3.84
  -4   0  16  113.14    3.86
   0 -16   4  104.34    3.86
   4   2  16    4.84    0.25
  16  -4  -2    4.49    0.25
   2   4 -16    4.13    0.23
 -16  -2  -4    4.44    0.24
   4  -2 -16    4.51    0.23
   4  -2 -16    4.01    0.18
  16   4   2    4.23    0.33
 -16   2   4    4.19    0.26
  -4 -16  -2    4.56    0.24
 -16  -4   2    4.51    0.27
  -4  -2  16    4.32    0.22
  -4  -2  16    4.29    0.24
  -4  -2  16    4.28    0.17
  16  -2   4    4.13    0.24
  16  -2   4    4.36    0.32
  16   2  -4    4.46    0.25
  16   2  -4    4.25    0.32
   4  16  -2    4.40    0.31
  -2 -16   4    4.13    0.22
  -2 -16   4    4.11    0.24
  -2 -16   4    3.94    0.18
  -2  16  -4    3.81    0.33
   2 -16  -4    4.01    0.22
   2 -16  -4    4.02    0.24
   2 -16  -4    4.24    0.18
   4 -16   2    4.29    0.24
  -2   4  16    4.32    0.25
  -4 -16  -2    4.68    0.18
   2  -4  16    4.35    0.24
  16  -4  -2    4.33    0.32
  -4 -16  -2    4.19    0.24
 -16  -2   4    4.13    0.26
  -4   2  16    4.39    0.18
  -4 -16   2    3.97    0.24
  -4 -16   2    4.15    0.18
  -4  16  -2    3.86    0.32
  -2  -4  16    4.39    0.24
   2  16  -4    4.29    0.32
   2  -4 -16    3.99    0.22
   2  -4 -16    4.41    0.24
   2  -4 -16    4.31    0.18
  -4   2  16    4.42    0.25
   2 -16   4    4.07    0.24
   2   4  16    4.07    0.24
   4 -16  -2    4.44    0.24
   4 -16  -2    4.41    0.17
 -16  -4  -2    4.07    0.26
  -2 -16  -4    4.56    0.18
  16  -2  -4    4.36    0.25
  16  -2  -4    4.54    0.33
  16  -2  -4    3.98    0.24
  16  -4   2    4.61    0.33
  16   4  -2    4.24    0.24
  -2 -16  -4    3.97    0.23
  -2 -16  -4    4.27    0.24
  16   2   4    4.21    0.32
   4  -2  16    4.63    0.24
  16  -4   2    4.05    0.24
  16   4  -2    4.31    0.34
  -4 -16   2    4.19    0.23
  16  -4  -4   94.89    3.26
  16  -4  -4   97.37    3.36
   4  16  -4   89.81    3.33
   4   4 -16   92.87    3.24
  -4  16  -4   88.73    3.38
   4 -16  -4   93.20    3.22
   4   4  16   98.95    3.25
   4  -4  16   98.78    3.24
 -16  -4  -4   89.08    3.25
 -16  -4   4   89.18    3.26
 -16   4   4   85.11    3.25
  -4 -16  -4   90.62    3.23
  -4 -16  -4   87.76    3.25
  -4 -16  -4   89.62    3.18
  -4 -16   4   91.68    3.23
  -4 -16   4   85.86    3.24
  -4 -16   4   92.43    3.18
  -4  -4  16   95.45    3.21
  -4  -4  16   95.86    3.25
  -4  -4  16   96.29    3.17
  -4   4  16   91.51    3.25
   4  -4 -16   89.83    3.24
   4  -4 -16   91.85    3.18
  16  -4  -4   90.61    3.24
  16  -4   4   89.20    3.24
  16  -4   4   90.24    3.35
  16   4  -4   93.31    3.25
  16   4  -4   96.27    3.37
  16   4   4   92.76    3.36
   4 -16  -4   90.72    3.18
   4 -16   4   90.80    3.24
   4  -4 -16   91.29    3.23
   4 -16  -4   89.48    3.24
 -16   0   6    3.63    0.24
   0  16  -6    3.37    0.30
   6   0 -16    3.40    0.21
  16  -6   0    3.73    0.22
  16  -6   0    3.65    0.29
  16   6   0    3.76    0.31
 -16  -6   0    3.46    0.23
  -6 -16   0    3.36    0.21
  -6 -16   0    3.92    0.22
   0  -6 -16    3.35    0.22
   0  -6 -16    3.62    0.15
   0  -6  16    3.68    0.22
   0   6 -16    3.58    0.21
   0 -16  -6    3.48    0.20
   0 -16  -6    3.62    0.22
   0 -16  -6    3.48    0.15
   0 -16   6    3.43    0.22
  16   0  -6    3.61    0.23
  -6   0  16    3.64    0.20
  -6   0  16    3.74    0.22
   6 -16   0    3.51    0.21
  16   0  -6    3.57    0.22
  -6   0  16    3.43    0.15
   0 -16   6    3.58    0.15
  16   0  -6    3.67    0.29
  -6 -16   0    3.57    0.16
  16   0   6    3.63    0.28
   0   6  16    3.54    0.22
  -2 -16   6    4.54    0.25
  16  -2   6    4.35    0.32
 -16   2   6    4.32    0.27
  16   2  -6    4.44    0.26
   2   6 -16    4.30    0.24
   6  -2 -16    4.39    0.25
  -2 -16   6    4.65    0.23
   6  -2 -16    4.32    0.24
   2 -16  -6    4.41    0.25
  -2  -6 -16    4.64    0.25
  16  -2   6    4.45    0.25
  16  -6  -2    4.55    0.25
  16  -6  -2    4.47    0.33
   6 -16   2    4.84    0.25
  -2   6  16    4.62    0.26
 -16  -6   2    4.50    0.27
  16   6   2    4.46    0.34
  -6  -2  16    4.48    0.25
  -6 -16  -2    4.62    0.19
  -2 -16   6    4.67    0.19
  -6 -16  -2    4.41    0.24
   2 -16  -6    4.73    0.19
   2  -6  16    5.47    0.26
  -2  16  -6    4.25    0.34
   2 -16  -6    4.68    0.24
   6 -16   2    5.17    0.34
   6  16  -2    4.65    0.31
   6  -2 -16    4.61    0.20
  16   2  -6    4.98    0.33
  -6  -2  16    4.96    0.19
  -6  -2  16    4.84    0.23
   2  -6 -16    4.85    0.24
   2  -6 -16    4.56    0.19
   2  16  -6    4.52    0.33
  -6 -16   2    4.64    0.24
  -2 -16  -6    4.39    0.19
  16  -6   2    4.37    0.25
  16   6  -2    4.99    0.35
  16  -2  -6    4.45    0.26
   2 -16   6    4.72    0.26
   6   2 -16    4.73    0.24
  -6 -16   2    4.67    0.25
  -6 -16   2    4.74    0.19
   2  -6 -16    4.47    0.26
  16  -6   2    4.46    0.33
 -16  -2   6    4.42    0.27
  -2  -6  16    4.96    0.26
  -2   6 -16    4.84    0.25
  16   2   6    4.74    0.32
  -6  16  -2    4.63    0.35
   2   6  16    5.17    0.26
   6 -16  -2    4.70    0.25
 -16  -6  -2    4.48    0.27
  -6   2  16    4.89    0.24
  -6   2  16    4.88    0.26
  -6   2  16    4.51    0.19
  -2 -16  -6    4.43    0.24
  -2 -16  -6    4.57    0.25
  16  -2  -6    4.57    0.26
  -6  -4  16    4.43    0.22
   4  -6  16    4.71    0.24
  -4 -16   6    4.43    0.18
  -4   6  16    4.18    0.24
  -4 -16   6    4.55    0.23
  -4 -16   6    4.48    0.24
   6  -4 -16    4.04    0.23
   6  -4 -16    3.93    0.24
   4   6 -16    4.30    0.23
   4 -16  -6    4.29    0.24
 -16  -6   4    4.64    0.26
  -4  16  -6    4.09    0.33
 -16  -4  -6    4.21    0.24
  16  -4   6    4.26    0.31
  16   6   4    3.99    0.32
  -6 -16  -4    4.04    0.23
  -6 -16  -4    4.27    0.18
  -6  -4  16    4.57    0.18
   4 -16  -6    4.40    0.18
 -16   4   6    3.91    0.26
  -6  -4  16    4.45    0.24
   6 -16   4    3.98    0.22
   6  16  -4    3.97    0.29
   6  -4 -16    4.19    0.18
   6 -16   4    4.21    0.31
  16  -4   6    4.47    0.24
  16   4  -6    4.50    0.32
  16   4  -6    4.29    0.24
  16  -6  -4    4.48    0.25
   4 -16  -6    4.32    0.23
  -6 -16   4    4.30    0.23
  -6  16  -4    3.79    0.33
   4  -6 -16    4.21    0.25
   4  16  -6    4.00    0.30
  16  -4  -6    4.45    0.25
   4  -6 -16    4.26    0.23
  -4   6 -16    4.47    0.24
   6   4 -16    4.48    0.23
   4   6  16    4.45    0.25
  16  -6   4    3.79    0.23
  16  -6   4    3.69    0.30
 -16  -4   6    4.47    0.26
  -6 -16   4    4.21    0.18
  16   6  -4    4.48    0.32
  -6 -16   4    4.07    0.23
 -16  -6  -4    4.08    0.25
  -6   4  16    4.49    0.25
  -4 -16  -6    3.87    0.22
  -4 -16  -6    4.00    0.24
  -4  -6  16    4.46    0.17
   4  -6 -16    4.29    0.18
   4 -16   6    3.93    0.23
  16  -4  -6    4.36    0.25
  -4  -6  16    4.50    0.24
  -4 -16  -6    4.56    0.18
   6 -16  -4    4.26    0.23
  -6  16  -6    3.30    0.30
   6 -16  -6    3.04    0.19
   6 -16  -6    3.16    0.20
  -6   6  16    3.29    0.21
  -6   6 -16    3.97    0.22
  -6  -6  16    3.49    0.14
  -6 -16   6    3.30    0.20
  -6  -6  16    3.41    0.20
  16   6  -6    3.58    0.21
  16   6  -6    3.72    0.28
 -16  -6  -6    3.16    0.22
  -6 -16   6    3.39    0.15
  -6  -6  16    3.67    0.19
   6  -6 -16    3.24    0.21
   6  -6 -16    3.38    0.15
  16  -6   6    3.20    0.27
 -16  -6   6    3.45    0.22
  -6 -16  -6    3.34    0.20
  -6 -16  -6    3.18    0.21
  -6 -16  -6    3.37    0.15
  -6 -16   6    3.41    0.20
   6   6 -16    3.44    0.20
   6  16  -6    3.39    0.27
  16  -6  -6    3.22    0.21
  16  -6  -6    3.34    0.21
  16  -6   6    3.07    0.20
   6 -16   6    3.10    0.27
   6  -6 -16    3.23    0.20
   6 -16  -6    3.31    0.14
  -8 -16   0   79.28    2.78
  -8 -16   0   78.47    2.72
   0  -8 -16   76.71    2.76
 -16  -8   0   77.52    2.80
  -8   0  16   79.44    2.76
  16   8   0   81.55    2.91
 -16   0   8   79.14    2.81
   8   0 -16   79.03    2.77
  16  -8   0   80.06    2.90
   0 -16  -8   77.08    2.72
   0 -16   8   76.57    2.79
   0  16  -8   76.52    2.89
   0  -8  16   82.40    2.79
   0   8 -16   74.24    2.78
   0   8  16   76.76    2.79
  16   0  -8   79.40    2.79
   0  -8 -16   78.36    2.79
   0  -8 -16   75.23    2.72
  -8   0  16   82.99    2.78
  -8   0  16   79.18    2.72
   0 -16  -8   77.38    2.77
   0 -16  -8   80.29    2.79
   2   8 -16    3.50    0.21
 -16   2   8    3.63    0.24
   8 -16   2    3.85    0.30
   8  16  -2    3.62    0.27
 -16  -8   2    3.88    0.23
  -8  -2  16    3.58    0.20
  16  -2   8    3.53    0.28
  16   2  -8    3.85    0.22
  16   2  -8    3.88    0.23
  -2  16  -8    3.49    0.31
   2 -16  -8    3.73    0.21
  -2 -16   8    3.84    0.22
  -2 -16   8    3.95    0.16
  -8  -2  16    3.58    0.16
  16  -8  -2    3.72    0.22
  -8 -16  -2    3.89    0.16
  -2  -8 -16    3.62    0.22
  -2   8  16    3.80    0.23
  16  -8  -2    3.99    0.30
   2 -16  -8    3.41    0.22
   2 -16  -8    3.61    0.16
  -8  -2  16    3.96    0.22
  16   8   2    4.05    0.31
   8  -2 -16    3.43    0.22
   8  -2 -16    3.76    0.23
   8  -2 -16    3.69    0.17
   2  -8  16    4.21    0.23
  -8 -16  -2    3.77    0.22
  -8   2  16    3.68    0.22
   2 -16   8    3.84    0.22
  -2 -16  -8    3.72    0.21
 -16  -2   8    3.78    0.23
  16  -8   2    3.66    0.22
 -16  -8  -2    3.85    0.24
  16  -2  -8    3.66    0.23
   2  -8 -16    3.85    0.21
  -8 -16   2    4.05    0.16
   2  -8 -16    3.73    0.23
   2  -8 -16    3.64    0.16
  -2  -8  16    3.72    0.22
  -8   2  16    3.75    0.21
   2   8  16    3.95    0.23
  -8 -16   2    3.89    0.21
   8   2 -16    3.66    0.21
  -2 -16  -8    3.41    0.22
  -2 -16  -8    4.01    0.23
  -8   2  16    3.93    0.16
  16  -2  -8    3.69    0.23
  -2   8 -16    3.62    0.22
   2  16  -8    3.55    0.28
  16  -8   2    3.39    0.29
  16   8  -2    4.11    0.31
  -2 -16  -8    3.56    0.16
   8  -4 -16   74.49    2.73
  16   4  -8   76.34    2.73
  -8  -4  16   78.50    2.71
  16   4  -8   80.15    2.81
  -4   8  16   78.61    2.74
  16  -4   8   75.85    2.73
  16  -4   8   74.91    2.82
  -4 -16   8   78.91    2.67
  -8 -16  -4   75.50    2.72
  -8 -16  -4   75.50    2.67
   4 -16  -8   72.23    2.73
   8  -4 -16   77.91    2.72
  -8  -4  16   82.48    2.72
  -8  -4  16   75.24    2.66
 -16  -8   4   76.59    2.74
   8  16  -4   76.85    2.81
   4 -16  -8   72.84    2.71
  -4  -8 -16   76.97    2.73
   8  -4 -16   76.56    2.67
  -4 -16   8   74.48    2.73
  16  -8  -4   76.96    2.73
  -4  16  -8   73.52    2.85
   4 -16  -8   76.10    2.67
   8 -16   4   75.19    2.83
  -4 -16   8   76.81    2.71
   4  -8  16   84.78    2.73
   4   8 -16   80.44    2.73
   4  -8 -16   77.83    2.74
   4  16  -8   74.00    2.80
   4  -8 -16   76.71    2.67
 -16  -8  -4   77.39    2.75
  -4 -16  -8   76.59    2.72
  -4 -16  -8   74.22    2.73
  -8  16  -4   72.89    2.86
  16   8  -4   80.18    2.84
  -8 -16   4   76.18    2.67
  -4  -8  16   80.83    2.66
 -16  -4   8   76.41    2.74
  -8   4  16   78.41    2.67
  16  -4  -8   76.43    2.74
  -8 -16   4   77.35    2.72
  -4  -8  16   79.96    2.73
   8   4 -16   75.42    2.72
  -4   8 -16   79.61    2.74
  16  -8   4   74.81    2.73
  -4 -16  -8   77.57    2.67
  -4 -16  -8   79.65    2.75
  -8   4  16   79.96    2.73
   4  -8 -16   76.18    2.71
   6 -16  -8    2.80    0.18
  -6  16  -8    2.52    0.27
  -6 -16   8    2.87    0.18
  -8  -6  16    2.75    0.12
 -16  -8   6    3.18    0.20
   6 -16  -8    2.79    0.17
  -8  -6  16    2.97    0.18
   8 -16   6    2.56    0.24
   8  16  -6    2.99    0.24
   8  -6 -16    2.75    0.13
  16  -6   8    2.50    0.25
  16   6  -8    3.05    0.24
  -8 -16  -6    3.21    0.21
  -8 -16  -6    2.76    0.13
  -6 -16   8    2.74    0.13
  -6  -8 -16    3.20    0.19
   8  -6 -16    2.78    0.18
   8  -6 -16    2.64    0.20
  -8  -6  16    3.19    0.17
 -16  -6  -8    2.86    0.19
   6 -16  -8    2.85    0.13
  -8 -16  -6    2.92    0.18
  -6   8  16    2.84    0.19
  -6 -16   8    2.72    0.17
   6  16  -8    2.55    0.23
 -16  -6   8    2.79    0.20
  16  -6  -8    2.80    0.19
 -16  -8  -6    2.87    0.20
   6  -8 -16    2.70    0.18
   6  -8 -16    2.85    0.20
  -6 -16  -8    2.70    0.13
  -8  16  -6    2.76    0.28
   6  -8 -16    2.81    0.13
  -6  -8  16    2.82    0.13
  -8   6  16    2.64    0.18
  -6 -16  -8    2.78    0.18
  -6 -16  -8    3.15    0.21
  -6  -8  16    3.12    0.18
  -6  -8  16    3.07    0.17
  -8 -16   6    2.80    0.18
  16  -8   6    2.66    0.25
  16   8  -6    3.30    0.26
  -8 -16   6    3.03    0.13
  -8 -16  -8   59.14    2.09
  -8 -16  -8   61.93    2.13
  -8  16  -8   57.70    2.23
  16  -8   8   53.92    2.19
  -8  -8  16   62.47    2.04
   8  -8 -16   59.53    2.12
   8  -8 -16   58.28    2.05
  -8  -8  16   61.93    2.08
   8  -8 -16   58.27    2.09
  -8 -16   8   60.37    2.05
 -16  -8   8   60.80    2.10
   8 -16   8   53.15    2.17
  16  -8  -8   58.58    2.10
 -10 -16   0    3.96    0.16
   0 -10 -16    3.51    0.20
 -10   0  16    3.71    0.16
   0 -16 -10    4.20    0.24
   0 -16  10    3.99    0.22
   0  16 -10    3.64    0.28
 -16 -10   0    3.67    0.23
 -10   0  16    3.90    0.21
 -10 -16   0    3.89    0.22
   0 -10  16    3.81    0.21
   0 -16 -10    3.92    0.16
 -16   0  10    3.59    0.23
   0 -16 -10    3.74    0.22
  16 -10   0    4.11    0.31
  16  10   0    4.10    0.30
   0 -10 -16    3.64    0.23
   0 -10 -16    3.63    0.16
   0 -16 -10    3.94    0.22
   0  10  16    3.79    0.23
  16   0 -10    4.11    0.23
 -10 -16  -2    3.02    0.14
  10  16  -2    3.22    0.25
   2 -10  16    3.01    0.19
  16   2 -10    3.11    0.20
  10 -16   2    3.21    0.27
  16  10   2    3.26    0.27
  10  -2 -16    3.09    0.19
 -16 -10   2    3.06    0.20
  10  -2 -16    3.45    0.21
   2 -16 -10    3.26    0.21
   2 -16 -10    3.11    0.14
 -10 -16  -2    3.46    0.19
  -2 -16  10    3.20    0.20
  -2  16 -10    2.75    0.27
 -10  -2  16    3.56    0.19
  -2 -10 -16    3.06    0.21
  -2  10  16    3.15    0.21
 -16   2  10    3.30    0.22
 -10  -2  16    3.19    0.14
   2 -16 -10    2.98    0.19
   2 -16 -10    3.19    0.19
  -2 -16 -10    3.10    0.21
  -2 -16 -10    2.96    0.20
  16  -2 -10    3.28    0.21
 -10 -16   2    3.05    0.14
  -2 -16 -10    3.17    0.14
  -2 -10  16    3.33    0.19
   2  10  16    3.33    0.21
 -16 -10  -2    3.42    0.22
   2 -10 -16    3.18    0.21
   2 -10 -16    3.08    0.14
   2 -16  10    2.93    0.19
 -10   2  16    3.23    0.18
 -10   2  16    3.19    0.14
 -10 -16   2    2.98    0.19
   2  16 -10    2.90    0.24
  16  10  -2    3.29    0.27
  16 -10   2    2.90    0.26
  -2 -16 -10    3.09    0.19
 -16  -2  10    2.74    0.20
   2 -10 -16    3.16    0.19
  10  -4 -16    2.48    0.12
  -4  10  16    2.32    0.18
 -10 -16  -4    2.29    0.16
   4 -16 -10    2.44    0.12
 -10  -4  16    2.39    0.11
  10  -4 -16    2.42    0.16
  -4 -10 -16    2.23    0.18
 -10  -4  16    2.57    0.16
   4 -16 -10    2.45    0.17
 -10 -16  -4    2.38    0.18
  10 -16   4    2.40    0.23
  10  16  -4    2.40    0.22
  -4  16 -10    2.33    0.24
  -4 -16  10    2.56    0.11
  10  -4 -16    2.22    0.18
 -16 -10   4    2.61    0.18
  -4 -16 -10    2.54    0.17
  16  10  -4    2.48    0.24
   4 -10 -16    2.61    0.19
   4 -10 -16    2.22    0.12
 -10 -16   4    2.48    0.16
 -10   4  16    2.38    0.12
  16  -4 -10    2.34    0.17
  -4 -16 -10    2.74    0.20
  -4 -10  16    2.59    0.17
 -16 -10  -4    2.48    0.19
   4 -10 -16    2.35    0.16
  16 -10   4    2.24    0.23
 -10 -16   4    2.35    0.11
 -16  -4  10    2.59    0.18
  -4 -10  16    2.58    0.11
 -10   4  16    2.45    0.16
   4  16 -10    2.48    0.21
  -4 -16 -10    2.39    0.12
  -6 -10 -16    3.14    0.20
 -10  -6  16    3.05    0.17
  -6 -16  10    3.15    0.14
  10  -6 -16    3.34    0.21
   6 -16 -10    2.89    0.18
 -16 -10   6    3.59    0.19
 -10 -16  -6    3.40    0.21
  10  -6 -16    3.17    0.19
  10  16  -6    3.27    0.24
 -10  -6  16    3.38    0.14
  -6 -16  10    3.20    0.17
  10  -6 -16    3.07    0.14
   6 -16 -10    3.25    0.14
  10 -16   6    2.94    0.25
  -6  16 -10    2.94    0.26
 -16  -6  10    2.80    0.17
 -10   6  16    3.23    0.18
 -10   6  16    3.29    0.14
 -16 -10  -6    3.47    0.21
  16  -6 -10    3.10    0.19
  16 -10   6    2.58    0.24
 -10 -16   6    3.20    0.14
  16  10  -6    3.58    0.27
  -6 -16 -10    3.33    0.22
 -16  -6  10    3.44    0.20
   6 -10 -16    3.02    0.14
  -6 -16 -10    3.06    0.18
   6 -10 -16    2.83    0.18
   6 -10 -16    3.00    0.21
  -6 -10  16    3.32    0.13
   6  16 -10    2.95    0.23
  10  -8 -16    2.59    0.18
 -16  -8 -10    3.00    0.18
 -10  -8  16    2.47    0.15
 -10  -8  16    2.69    0.12
  -8 -10 -16    2.65    0.18
 -16 -10   8    2.42    0.15
  10  -8 -16    2.54    0.16
  -8 -16  10    2.70    0.16
  -8 -16  10    2.91    0.12
   8 -16 -10    2.74    0.16
  10  -8 -16    2.60    0.12
 -10 -16  -8    2.71    0.19
   8 -16 -10    2.70    0.12
  -8 -10  16    2.56    0.15
  16  -8 -10    2.62    0.17
 -16 -10  -8    2.93    0.19
   8 -10 -16    2.85    0.16
   8 -10 -16    2.57    0.12
  -8 -10  16    2.77    0.12
 -10   8  16    2.66    0.12
   8 -10 -16    2.77    0.19
 -16  -8  10    2.49    0.15
  -8 -16 -10    2.91    0.20
 -10 -10  16    1.94    0.12
 -10 -10  16    1.88    0.08
 -10 -16  10    1.56    0.08
 -10 -16  10    1.67    0.12
 -10  10  16    1.98    0.09
  10 -10 -16    1.64    0.12
  10 -10 -16    1.76    0.09
 -16 -10  10    1.71    0.12
  16   0 -12   56.80    2.02
   0 -12 -16   55.33    2.01
  12   0 -16   57.72    2.02
   0 -16 -12   57.40    1.97
 -12   0  16   56.59    2.01
   0 -12 -16   53.69    1.97
 -12   0  16   57.93    1.97
 -16 -12   0   55.78    2.03
   0 -16 -12   56.25    2.01
   0 -16 -12   58.70    2.05
 -12 -16   0   56.79    2.01
 -16   0  12   57.26    2.03
   0 -12 -16   58.16    2.05
   2 -16 -12    2.44    0.18
  -2 -12 -16    2.34    0.18
 -16 -12   2    2.64    0.17
   2 -16 -12    2.45    0.12
 -16   2  12    2.58    0.18
  12  -2 -16    2.45    0.17
   2 -16 -12    2.33    0.16
 -12 -16  -2    2.54    0.16
  16   2 -12    2.58    0.17
 -12  -2  16    2.52    0.16
 -12  -2  16    2.46    0.11
 -12   2  16    2.46    0.16
  -2 -16 -12    2.50    0.19
   2 -12 -16    2.27    0.16
   2 -12 -16    2.26    0.18
 -12 -16   2    2.57    0.11
 -12   2  16    2.62    0.12
  16  -2 -12    2.68    0.17
 -16  -2  12    2.39    0.15
 -16  -2  12    2.61    0.17
 -16 -12  -2    2.83    0.18
 -12 -16   2    2.58    0.16
  -2 -16 -12    2.53    0.16
   2 -12 -16    2.26    0.11
  -2 -16 -12    2.46    0.12
 -12  -4  16   50.28    1.86
   4 -16 -12   53.45    1.89
 -12 -16  -4   56.15    1.89
  -4 -16  12   54.58    1.83
  12  -4 -16   50.64    1.88
 -12  -4  16   52.03    1.83
   4 -16 -12   52.97    1.88
   4 -16 -12   51.96    1.83
  -4 -12 -16   53.45    1.90
  -4 -16 -12   54.01    1.83
 -16  -4  12   54.00    1.88
 -12   4  16   54.74    1.87
 -16 -12  -4   56.93    1.90
 -16  -4  12   50.52    1.86
   4 -12 -16   49.88    1.83
  -4 -16 -12   53.29    1.87
 -12 -16   4   52.33    1.83
 -12   4  16   54.47    1.83
   4 -12 -16   49.40    1.87
   4 -12 -16   52.35    1.90
  16  -4 -12   49.79    1.88
   6 -16 -12    2.04    0.14
 -12 -16  -6    2.60    0.17
   6 -16 -12    2.24    0.10
  12  -6 -16    2.06    0.14
  -6 -12 -16    2.37    0.17
  -6 -16  12    2.25    0.10
  12  -6 -16    2.15    0.16
 -12  -6  16    1.98    0.13
 -12  -6  16    2.16    0.10
   6 -12 -16    2.02    0.14
 -16  -6  12    2.11    0.13
 -16 -12  -6    2.40    0.17
 -12 -16   6    2.18    0.14
  16  -6 -12    2.02    0.15
  -6 -12  16    2.26    0.10
 -12 -16   6    2.19    0.10
 -12   6  16    2.32    0.10
   6 -12 -16    2.07    0.16
   6 -12 -16    2.00    0.10
 -12   6  16    2.35    0.15
  -6 -16 -12    2.67    0.18
   0 -16 -14    1.83    0.13
 -14   0  16    1.66    0.12
 -16   0  14    1.57    0.11
   0 -14 -16    1.63    0.12
   0 -14 -16    1.58    0.08
 -14   0  16    1.69    0.08
   0 -16 -14    1.69    0.09
   2 -16 -14    2.05    0.10
 -14  -2  16    2.20    0.10
   2 -16 -14    2.21    0.14
 -14  -2  16    2.30    0.13
   2 -14 -16    2.07    0.10
 -14   2  16    2.22    0.13
 -14   2  16    2.31    0.10
  -2 -16 -14    2.19    0.14
  -2 -16 -14    2.11    0.10
 -16  -2  14    2.18    0.13
   2 -14 -16    1.98    0.14
 -17  -1  -1    8.46    0.40
 -17  -1   1    8.39    0.41
 -17   1   1    8.71    0.41
  -1 -17  -1    8.83    0.38
  -1 -17  -1    8.05    0.40
  -1 -17  -1    8.79    0.33
  -1 -17   1    8.99    0.38
  -1 -17   1    8.53    0.40
  -1 -17   1    9.08    0.33
  -1  -1  17    8.93    0.40
  -1   1  17    8.19    0.39
   1 -17  -1    9.02    0.37
   1 -17  -1    8.99    0.40
   1 -17  -1    9.04    0.33
   1 -17   1    8.67    0.37
   1 -17   1    8.38    0.40
   1 -17   1    8.91    0.33
   1  -1  17    8.92    0.40
   1   1  17    8.73    0.40
  17  -1  -1    8.94    0.41
  17  -1  -1    8.88    0.51
  17  -1   1    8.50    0.40
  17  -1   1    8.54    0.50
  17   1  -1    8.92    0.41
  17   1  -1    8.24    0.50
  17   1   1    8.74    0.40
  17   1   1    8.90    0.51
  17  -3  -1   15.94    0.75
 -17   1   3   15.33    0.66
  -3 -17  -1   16.00    0.63
  -3 -17  -1   14.52    0.64
  -3 -17  -1   16.09    0.57
  -3  -1  17   17.28    0.65
  -3  -1  17   16.82    0.57
  -1  17  -3   15.28    0.74
 -17  -3   1   15.89    0.66
  -1   3  17   16.13    0.64
  -1   3  17   16.48    0.57
   3  -1 -17   15.61    0.57
   1  -3  17   16.80    0.64
  -1 -17   3   15.78    0.62
  -1 -17   3   15.24    0.64
  -1 -17   3   15.56    0.57
   3 -17   1   15.76    0.64
   1 -17  -3   15.11    0.62
  17  -1   3   16.46    0.65
  17  -1   3   16.37    0.75
  17   1  -3   16.06    0.65
  17   1  -3   15.44    0.75
   1 -17  -3   15.85    0.64
   3  -1 -17   15.80    0.62
  17   3   1   16.04    0.76
   1 -17  -3   15.82    0.57
   3   1  17   17.16    0.65
  17  -3  -1   16.06    0.65
 -17  -1   3   15.20    0.66
  -1  -3  17   16.43    0.64
  17   3  -1   15.49    0.64
  17   3  -1   16.24    0.76
   1  -3 -17   15.14    0.57
  -1 -17  -3   15.45    0.57
   1   3  17   15.92    0.64
   3 -17  -1   15.14    0.64
   3 -17  -1   15.88    0.57
  -3 -17   1   15.68    0.57
  17  -1  -3   15.91    0.75
  17   1   3   16.08    0.75
  17  -3   1   15.79    0.74
   1 -17   3   15.12    0.64
   1 -17   3   15.32    0.57
   1  17  -3   15.45    0.72
  -3 -17   1   15.70    0.65
  -3   1  17   16.33    0.61
  -3   1  17   16.85    0.65
  -3   1  17   16.34    0.57
  -1 -17  -3   16.17    0.63
  -1 -17  -3   15.81    0.65
  -3 -17   1   15.67    0.63
   3  -1  17   17.24    0.64
 -17  -3  -1   15.84    0.66
  17   3  -3    6.60    0.32
  17  -3   3    6.21    0.40
  17  -3   3    6.32    0.32
   3 -17   3    6.16    0.31
  -3 -17   3    6.63    0.32
  -3 -17   3    6.20    0.25
  -3  -3  17    7.21    0.32
  -3  -3  17    6.59    0.25
   3  -3 -17    6.40    0.30
   3  -3 -17    6.31    0.25
   3  -3  17    6.98    0.32
   3   3  17    6.61    0.32
   3  17  -3    6.38    0.38
  17  -3  -3    6.88    0.33
  17  -3  -3    6.13    0.40
  -3 -17  -3    6.53    0.25
  -3  17  -3    6.23    0.41
   3 -17  -3    6.66    0.30
   3 -17  -3    6.45    0.32
   3 -17  -3    6.35    0.25
  17   3  -3    6.32    0.41
  17   3   3    6.65    0.42
 -17   3   3    5.81    0.32
  -3 -17  -3    6.80    0.31
  -3 -17  -3    6.09    0.32
 -17  -3   3    7.06    0.35
  -3 -17   3    6.05    0.30
  -3   3  17    6.87    0.33
  -3   3  17    6.64    0.25
 -17  -3  -3    6.33    0.32
   1 -17  -5   10.23    0.44
  -1  17  -5   10.32    0.56
  -5 -17  -1   10.59    0.40
  -1 -17   5   10.96    0.47
   1 -17  -5   10.53    0.39
  17   1  -5   10.12    0.47
 -17  -5   1   10.45    0.48
   5  -1 -17   10.39    0.44
   5  -1 -17   10.63    0.40
  17  -5  -1   11.14    0.47
  -5 -17  -1   10.99    0.45
  -1 -17   5   10.71    0.39
   5 -17   1   11.64    0.46
  17   1  -5   10.46    0.55
  17  -5  -1   11.07    0.56
   1   5 -17    9.96    0.44
 -17   1   5   10.47    0.48
  17   5   1   10.57    0.57
  -5 -17  -1    9.86    0.46
   1 -17  -5   10.40    0.46
  -5  -1  17   11.17    0.44
  -5  -1  17   10.98    0.46
  -5  -1  17   10.81    0.39
  -1   5  17   11.20    0.47
  17  -1   5   10.75    0.55
   1  -5  17   11.15    0.46
  -5 -17   1   10.80    0.45
  17  -5   1   10.33    0.55
  -1 -17  -5   10.29    0.40
   1  -5 -17   10.52    0.39
   1  17  -5   10.27    0.54
  -5   1  17   11.95    0.44
   1  -5 -17   10.28    0.45
  17  -1  -5   10.16    0.54
  -5   1  17   11.08    0.46
   1 -17   5    9.98    0.46
  -1 -17  -5   10.82    0.45
  -1 -17  -5   10.31    0.46
 -17  -1   5   10.67    0.48
  17   5  -1   11.12    0.57
  17   1   5   10.81    0.55
 -17  -5  -1   10.88    0.48
   1   5  17   10.79    0.47
   5 -17  -1   11.40    0.46
  -5 -17   1   10.33    0.46
  -5 -17   1   10.77    0.40
  -1  -5  17   10.88    0.46
  -1   5 -17   11.22    0.45
  -5   1  17   11.42    0.39
  17  -1  -5   10.35    0.47
  -3  17  -5    8.23    0.49
   3 -17  -5    8.53    0.37
   3 -17  -5    8.48    0.38
   3 -17  -5    8.32    0.32
  -5 -17  -3    7.95    0.38
  -5 -17  -3    8.56    0.32
   5  -3 -17    8.00    0.37
   5  -3 -17    8.63    0.32
  17   5   3    7.87    0.48
 -17  -5   3    8.56    0.40
  -5  -3  17    8.96    0.36
  -5  -3  17    9.49    0.39
  -5  -3  17    8.85    0.32
   5  17  -3    8.39    0.45
   3  -5  17   10.08    0.39
 -17   3   5    8.28    0.40
  17  -3   5    8.33    0.38
  17  -3   5    8.34    0.47
  -3 -17   5    8.80    0.37
  -3 -17   5    8.28    0.38
  -3 -17   5    8.38    0.32
 -17  -3  -5    8.15    0.38
  -3   5  17    7.96    0.39
  17   3  -5    8.09    0.38
  -5 -17  -3    8.56    0.38
  17  -5  -3    8.83    0.48
  17   3  -5    8.51    0.47
   5 -17   3    8.63    0.38
  17  -5  -3    8.72    0.39
  -3 -17  -5    8.40    0.37
   3  17  -5    8.16    0.45
  -3  -5  17    9.42    0.39
  -3  -5  17    9.25    0.32
 -17  -3   5    8.60    0.40
   3  -5 -17    8.71    0.37
   3  -5 -17    8.62    0.39
   3  -5 -17    8.52    0.32
  -5   3  17    8.59    0.32
   3   5  17    8.96    0.39
   5 -17  -3    9.14    0.39
  -5 -17   3    8.47    0.37
  -5 -17   3    7.84    0.38
  17  -3  -5    8.47    0.40
  17  -3  -5    8.74    0.39
  -3 -17  -5    8.15    0.39
  -3 -17  -5    8.41    0.32
  -5 -17   3    8.51    0.32
  -5  17  -3    7.81    0.48
  17   3   5    8.61    0.48
  17  -5   3    8.17    0.47
  17   5  -3    8.80    0.48
 -17  -5  -3    8.42    0.39
  17  -5   3    8.10    0.38
   5   3 -17    8.88    0.37
  -5   3  17    8.64    0.39
   3 -17   5    7.82    0.38
  17  -5  -5    8.11    0.37
   5   5 -17    7.99    0.36
   5  17  -5    7.66    0.43
  17  -5  -5    8.33    0.38
  -5  17  -5    8.04    0.48
   5 -17  -5    8.02    0.35
   5 -17  -5    8.02    0.36
  -5 -17  -5    8.20    0.37
  -5 -17  -5    7.51    0.37
  -5 -17  -5    8.23    0.31
  -5 -17   5    8.05    0.36
  -5 -17   5    7.78    0.37
  -5 -17   5    8.39    0.31
  -5  -5  17    8.74    0.34
  -5  -5  17    8.93    0.37
 -17  -5   5    8.50    0.39
   5 -17  -5    8.38    0.31
   5 -17   5    7.93    0.36
   5  -5 -17    8.41    0.36
   5  -5 -17    8.07    0.38
   5  -5 -17    7.73    0.31
 -17  -5  -5    8.70    0.38
  17   5  -5    8.64    0.37
 -17   5   5    7.60    0.37
  17   5   5    8.51    0.46
  -5  -5  17    8.65    0.31
  -5   5  17    8.12    0.38
  17   5  -5    8.72    0.46
  17  -5   5    8.15    0.46
  17  -5   5    8.03    0.38
   1 -17  -7    6.16    0.32
 -17   1   7    6.84    0.34
 -17  -7   1    6.67    0.33
   1  -7  17    7.27    0.32
  -7  -1  17    6.97    0.32
  -7  -1  17    6.60    0.25
   1 -17  -7    6.63    0.31
  17   7   1    6.86    0.42
  -1  -7 -17    6.32    0.32
  -7 -17  -1    7.06    0.32
   1   7 -17    6.69    0.31
   7  -1 -17    6.77    0.31
  17  -7  -1    7.00    0.33
  17   1  -7    6.35    0.32
   1 -17  -7    6.42    0.26
  -1 -17   7    7.00    0.26
  -7 -17  -1    6.21    0.26
  -7  -1  17    6.46    0.30
  17  -1   7    7.04    0.40
  -1   7  17    6.75    0.33
  -1 -17   7    6.49    0.32
  -1  17  -7    6.65    0.41
  -7   1  17    6.51    0.25
   1 -17   7    6.39    0.32
  -7   1  17    6.76    0.30
  -1 -17  -7    6.49    0.26
   1  -7 -17    6.62    0.30
  17  -7   1    6.31    0.40
  17   7  -1    7.22    0.42
  17  -1  -7    7.30    0.34
 -17  -1   7    7.15    0.35
   1  -7 -17    6.57    0.32
   1  17  -7    6.33    0.39
  17   1   7    6.54    0.39
  -7 -17   1    7.00    0.32
  -7 -17   1    6.56    0.26
  -1 -17  -7    6.59    0.31
  -1 -17  -7    6.33    0.32
  -1   7 -17    6.84    0.31
  -7   1  17    6.49    0.32
  17  -1  -7    6.97    0.33
   1   7  17    7.52    0.33
   1  -7 -17    6.14    0.25
  17  -7   1    6.45    0.32
 -17  -7  -1    6.52    0.34
  -1  -7  17    7.03    0.32
   3  -7  17   18.43    0.64
   7  -3 -17   15.00    0.57
   7  -3 -17   15.57    0.63
  -7  -3  17   16.88    0.61
  -7  -3  17   16.26    0.63
 -17  -7   3   16.55    0.65
   7 -17   3   16.47    0.72
   3 -17  -7   15.46    0.57
  -7 -17  -3   15.97    0.63
  -3   7  17   15.15    0.63
   7  -3 -17   16.01    0.62
  -3 -17   7   15.03    0.63
  -3 -17   7   16.93    0.57
  -3  -7 -17   15.27    0.63
 -17   3   7   14.74    0.65
  -7 -17  -3   15.74    0.57
  -3 -17   7   16.09    0.61
  -3  17  -7   15.12    0.75
   3 -17  -7   15.46    0.62
   3 -17  -7   14.80    0.63
  17   7   3   16.34    0.74
   7  17  -3   15.51    0.70
  -7  -3  17   16.31    0.57
  17   3  -7   17.34    0.72
  17  -3   7   15.63    0.72
  17  -3  -7   15.60    0.63
 -17  -7  -3   16.49    0.65
  -7  17  -3   15.00    0.74
   3  -7 -17   14.91    0.57
  -7   3  17   16.34    0.61
  -7   3  17   16.58    0.63
   3  -7 -17   14.66    0.61
   3 -17   7   15.67    0.63
  -7   3  17   15.70    0.57
   3  -7 -17   15.17    0.64
  -7 -17   3   15.80    0.57
 -17  -3   7   16.23    0.65
   3   7  17   16.35    0.64
  -3  -7  17   16.35    0.63
   3  17  -7   15.97    0.71
  -3 -17  -7   15.42    0.62
  -3 -17  -7   15.62    0.64
  -3 -17  -7   15.29    0.57
  17   7  -3   16.75    0.74
  -7 -17   3   16.28    0.62
  -5   7  17    9.72    0.43
 -17  -7   5    9.88    0.44
  -7  -5  17   10.18    0.40
  -7  -5  17   10.03    0.42
  -7  -5  17   10.49    0.37
   7  17  -5    9.67    0.49
  17  -5   7    9.55    0.51
  17   5  -7   10.30    0.50
 -17  -5  -7   10.30    0.43
  -5  17  -7    9.41    0.53
   7  -5 -17   10.01    0.43
   5 -17  -7   10.25    0.43
   5 -17  -7    9.99    0.37
  -5 -17   7   10.30    0.37
   7 -17   5    9.59    0.50
   7  -5 -17    9.64    0.42
   5 -17  -7    9.47    0.41
   7  -5 -17    9.73    0.37
  -5 -17   7    9.68    0.42
 -17   5   7    8.85    0.43
  -7 -17  -5    9.80    0.42
  -7 -17  -5    9.78    0.37
  -5 -17   7   10.52    0.41
  -7 -17   5   10.54    0.37
  17  -7   5    9.30    0.51
  -5  -7  17   10.53    0.43
  -5  -7  17   10.84    0.37
  17   7  -5   10.66    0.52
  -7  17  -5    9.36    0.54
   5  -7 -17    9.46    0.43
   5 -17   7   10.22    0.42
   5  17  -7    9.54    0.48
  -5 -17  -7   10.32    0.42
  -5 -17  -7   10.24    0.37
  -7   5  17    9.98    0.43
  -7 -17   5   10.56    0.42
   5  -7 -17    9.90    0.37
  -7   5  17   10.19    0.37
   5  -7 -17    9.62    0.41
 -17  -7  -5   10.14    0.44
 -17  -5   7   10.21    0.44
  -7  -7  17    4.55    0.18
  -7  -7  17    4.66    0.21
   7  -7 -17    4.34    0.24
   7  -7 -17    4.07    0.18
   7  17  -7    4.22    0.29
  17   7  -7    4.73    0.30
  -7 -17   7    4.30    0.18
  -7 -17   7    4.48    0.22
  -7 -17  -7    4.68    0.18
 -17  -7  -7    4.44    0.24
 -17  -7   7    4.46    0.24
  -7 -17  -7    4.60    0.23
  -7 -17  -7    4.72    0.25
  -7  17  -7    4.22    0.33
   7  -7 -17    4.49    0.23
  -1  17  -9    8.10    0.45
   1 -17  -9    7.93    0.36
  -9  -1  17    8.76    0.36
  -9  -1  17    8.57    0.31
  -1  -9 -17    8.29    0.38
  -9 -17  -1    8.67    0.32
   1 -17  -9    8.64    0.38
  -9 -17  -1    8.27    0.36
  -1 -17   9    8.10    0.37
   1  -9  17    8.84    0.37
  17  -9  -1    8.35    0.46
   1 -17  -9    8.59    0.32
 -17   1   9    8.28    0.39
 -17  -9   1    8.48    0.38
  17   9   1    8.68    0.46
  17  -9   1    8.64    0.47
   1 -17   9    8.67    0.38
  -9   1  17    8.31    0.36
  -1  -9  17    8.88    0.37
   1  -9 -17    7.97    0.31
  -1 -17  -9    8.48    0.32
  -1 -17  -9    8.21    0.36
 -17  -1   9    8.35    0.39
   1  -9 -17    8.28    0.35
   1  17  -9    7.95    0.44
  -9 -17   1    8.27    0.36
  -9 -17   1    8.44    0.32
   1   9  17    8.60    0.38
  -9   1  17    8.61    0.31
  17   9  -1    8.77    0.46
   1  -9 -17    8.11    0.38
  17  -1  -9    8.40    0.38
 -17  -9  -1    9.02    0.39
  -1 -17  -9    7.88    0.38
 -17   3   9    7.10    0.34
   9  17  -3    7.32    0.38
  -3  17  -9    6.14    0.40
   3 -17  -9    6.96    0.31
   9  -3 -17    6.86    0.32
  -9  -3  17    6.89    0.30
  -9 -17  -3    6.99    0.26
  -3 -17   9    7.27    0.26
   3 -17  -9    6.79    0.26
  -3  -9 -17    6.80    0.32
   9  -3 -17    6.45    0.31
  -9 -17  -3    6.71    0.31
  -9  -3  17    7.10    0.26
   9 -17   3    7.36    0.40
 -17  -9   3    6.64    0.32
  17  -9   3    6.40    0.40
  -3 -17  -9    6.82    0.33
  17  -3  -9    7.06    0.32
  -9   3  17    6.81    0.26
   3  17  -9    6.65    0.37
   3  -9 -17    6.81    0.30
   3  -9 -17    6.31    0.32
   3  -9 -17    6.64    0.26
  -3 -17  -9    6.62    0.26
 -17  -3   9    6.83    0.33
  -9   3  17    6.63    0.30
  17   9  -3    7.42    0.40
  -9  17  -3    6.50    0.41
  -3 -17  -9    6.61    0.31
  -9 -17   3    6.49    0.31
  -9 -17   3    6.77    0.26
   5 -17  -9    6.47    0.29
  -5  17  -9    6.15    0.39
 -17   5   9    5.67    0.31
   5 -17  -9    6.25    0.25
  -5 -17   9    6.93    0.25
   9  -5 -17    6.59    0.30
   9  -5 -17    6.06    0.31
   9  -5 -17    5.97    0.25
  -5  -9 -17    6.68    0.31
   9 -17   5    6.45    0.37
  -9  -5  17    6.71    0.28
  -9  -5  17    6.69    0.24
  17  -5   9    6.41    0.37
  -9 -17  -5    6.20    0.29
   9  17  -5    6.25    0.35
 -17  -9   5    6.48    0.31
  17   9  -5    6.98    0.38
  17  -5  -9    6.13    0.30
  -5  -9  17    6.81    0.24
   5  -9 -17    5.90    0.29
   5  -9 -17    6.34    0.31
 -17  -9  -5    6.98    0.32
  -5 -17  -9    6.58    0.25
  -5 -17  -9    6.02    0.29
 -17  -5   9    6.96    0.31
   5  -9 -17    6.28    0.25
  -9  17  -5    6.18    0.40
  -9 -17   5    6.65    0.25
   5  17  -9    6.30    0.35
  -9   5  17    7.04    0.30
  -9   5  17    6.59    0.25
  -5 -17  -9    7.28    0.33
 -17  -7  -9    8.40    0.35
  -9 -17  -7    7.85    0.34
  -9  -7  17    7.83    0.33
  -9  -7  17    8.25    0.29
  -7 -17   9    7.68    0.29
   7 -17  -9    7.71    0.33
   7 -17  -9    7.87    0.29
   9  -7 -17    7.54    0.34
   9  -7 -17    7.74    0.36
   9  -7 -17    7.37    0.29
  -7 -17   9    8.13    0.33
  -9 -17  -7    8.75    0.36
 -17  -9   7    8.17    0.34
 -17   7   9    6.65    0.34
  -7  -9  17    8.19    0.32
   7  -9 -17    7.88    0.30
   7  -9 -17    7.27    0.33
 -17  -9  -7    8.64    0.37
  -7  -9  17    7.60    0.29
  -9 -17   7    8.36    0.34
  -9 -17   7    7.73    0.29
  -9   7  17    7.88    0.29
  -7 -17  -9    8.19    0.34
   7  -9 -17    7.63    0.36
  -7 -17  -9    8.97    0.37
 -17  -7   9    8.25    0.35
  17  -7  -9    7.75    0.34
   9  -9 -17    5.12    0.24
  -9 -17   9    5.30    0.20
  -9  -9  17    5.27    0.20
  -9   9  17    5.23    0.20
  -9  -9  17    5.40    0.23
   9  -9 -17    4.80    0.20
 -11 -17  -1   10.76    0.44
 -11  -1  17   10.69    0.43
 -17 -11   1   10.63    0.45
 -17   1  11   10.69    0.45
   1 -17 -11   10.86    0.39
  -1 -11 -17   10.54    0.46
 -11  -1  17   11.00    0.39
   1 -17 -11   10.36    0.44
 -11 -17   1   11.12    0.44
  -1 -17 -11   10.70    0.39
   1 -11 -17   10.24    0.46
   1 -11 -17   10.37    0.39
   1 -11 -17   10.46    0.43
  17  -1 -11   10.78    0.45
 -11 -17   1   10.74    0.39
 -11   1  17   10.97    0.43
 -11   1  17   11.34    0.39
  -1 -17 -11   10.77    0.44
  -1 -17 -11   11.14    0.46
 -17  -1  11   10.55    0.45
 -17 -11  -1   10.87    0.46
   3 -17 -11    4.51    0.23
   3 -17 -11    4.49    0.19
 -11  -3  17    4.66    0.18
  -3 -11 -17    4.59    0.25
 -17 -11   3    4.61    0.24
 -11  -3  17    4.48    0.22
 -11 -17  -3    4.76    0.23
  11  -3 -17    4.95    0.24
 -17   3  11    4.27    0.24
   3 -11 -17    4.33    0.25
  -3 -17 -11    4.97    0.19
  17  -3 -11    4.66    0.24
 -11   3  17    4.61    0.18
  -3 -17 -11    4.88    0.23
  -3 -17 -11    5.03    0.26
 -17  -3  11    4.78    0.24
   3 -11 -17    4.50    0.22
   3 -11 -17    4.58    0.18
 -17 -11  -3    4.90    0.25
 -11 -17   3    4.43    0.18
 -11 -17   3    4.62    0.23
 -11   3  17    4.91    0.23
  11  -5 -17    5.49    0.27
 -17   5  11    6.14    0.30
 -11  -5  17    6.15    0.27
  11  -5 -17    6.33    0.29
  -5 -17  11    5.96    0.23
 -11  -5  17    6.65    0.24
   5 -17 -11    5.73    0.28
  -5 -11 -17    6.77    0.30
   5 -17 -11    6.28    0.24
  -5 -17 -11    6.82    0.28
   5 -11 -17    5.87    0.24
   5 -11 -17    5.94    0.28
  -5 -17 -11    6.55    0.24
   5 -11 -17    6.00    0.30
 -17 -11  -5    6.64    0.31
 -11 -17   5    6.02    0.27
 -11   5  17    6.53    0.24
 -11   5  17    6.62    0.28
  17  -5 -11    6.10    0.29
  -5 -17 -11    6.87    0.31
  11  -7 -17    9.93    0.38
   7 -17 -11   10.18    0.38
   7 -17 -11   10.27    0.41
 -11  -7  17   11.14    0.38
  11  -7 -17    9.72    0.41
  -7 -17  11   10.27    0.38
 -11   7  17   11.30    0.38
 -11 -17   7   10.75    0.41
 -11   7  17   10.97    0.42
   7 -11 -17    9.73    0.41
   7 -11 -17   10.02    0.38
 -11 -17   7   10.66    0.38
  -7 -11  17   11.13    0.38
   1 -17 -13    4.29    0.17
   1 -17 -13    4.21    0.21
 -13  -1  17    4.49    0.20
 -13  -1  17    4.37    0.17
 -13   1  17    4.19    0.20
 -13   1  17    4.34    0.17
  -1 -17 -13    4.24    0.21
  -1 -17 -13    4.31    0.17
   1 -13 -17    4.00    0.17
   1 -13 -17    4.16    0.20
 -18   0   0    1.38    0.15
   0 -18   0    1.47    0.13
   0 -18   0    1.49    0.15
   0 -18   0    1.67    0.09
   0   0  18    1.77    0.16
  18   0   0    1.36    0.14
  18   0   0    1.40    0.23
 -18   0   2    4.31    0.26
  -2 -18   0    4.33    0.23
  -2 -18   0    4.13    0.25
  -2 -18   0    4.44    0.18
   0  -2  18    4.39    0.24
   0   2  18    4.29    0.24
   2 -18   0    4.24    0.25
   2 -18   0    4.62    0.18
  18   0  -2    4.35    0.25
  18   0  -2    4.26    0.34
  18   0   2    4.11    0.25
  18   0   2    4.38    0.34
   0 -18  -2    4.36    0.18
   0 -18   2    4.25    0.22
   0 -18   2    4.18    0.24
   0 -18   2    4.27    0.18
   0  18  -2    4.26    0.31
   2   0  18    4.89    0.25
  18  -2   0    4.53    0.26
  18  -2   0    4.68    0.34
  18   2   0    4.13    0.24
  18   2   0    4.34    0.34
  -2   0  18    4.14    0.24
   0 -18  -2    4.59    0.23
   0 -18  -2    4.18    0.25
 -18  -2   0    4.36    0.26
  -2 -18  -2   78.29    2.67
  -2 -18   2   78.13    2.72
  -2 -18   2   77.38    2.67
  -2  -2  18   80.99    2.74
  -2   2  18   75.93    2.74
  -2   2  18   81.32    2.67
  -2  18  -2   69.38    2.82
  18   2  -2   77.51    2.75
  18   2  -2   77.04    2.86
 -18  -2  -2   75.76    2.74
 -18   2   2   72.36    2.74
  -2 -18  -2   79.44    2.73
  -2 -18  -2   73.96    2.75
  18   2   2   74.77    2.87
   2 -18  -2   76.15    2.72
   2 -18  -2   75.26    2.74
   2 -18  -2   77.27    2.67
   2 -18   2   75.18    2.74
   2  -2 -18   74.61    2.67
   2  -2  18   86.53    2.74
   2   2  18   81.98    2.74
   2  18  -2   76.26    2.81
  18  -2  -2   76.26    2.86
  18  -2   2   79.50    2.75
  18   0  -4    7.65    0.45
  18   0   4    7.69    0.45
  -4   0  18    8.18    0.29
  -4 -18   0    7.60    0.35
  -4 -18   0    7.44    0.36
   0 -18  -4    7.66    0.30
   0 -18   4    7.60    0.36
   0 -18   4    7.92    0.30
   0  18  -4    7.72    0.44
  18  -4   0    7.66    0.37
  18  -4   0    7.96    0.46
  18   4   0    7.66    0.46
  18   0  -4    7.91    0.37
   0 -18  -4    7.34    0.35
   0 -18  -4    7.54    0.37
 -18   0   4    7.44    0.38
  -4   0  18    8.28    0.36
  -4   0  18    8.74    0.34
  -4 -18   0    8.09    0.30
   0  -4  18    8.85    0.37
   0   4  18    8.35    0.37
   4 -18   0    7.97    0.36
 -18  -4   0    7.59    0.38
 -18   2   4    2.60    0.19
   2 -18  -4    2.66    0.12
  -4  -2  18    2.42    0.12
  -2   4  18    2.61    0.12
   4  -2 -18    2.82    0.17
  -4 -18  -2    2.40    0.18
  -4 -18  -2    2.44    0.18
  -4 -18  -2    2.52    0.12
  18  -4  -2    2.59    0.19
  18  -4  -2    2.71    0.26
   2 -18  -4    2.49    0.18
   4  -2 -18    2.60    0.12
  -2   4  18    2.50    0.19
 -18  -4   2    2.45    0.20
  -4  -2  18    2.71    0.18
   2  -4  18    2.63    0.18
  18  -2   4    2.44    0.25
  18   2  -4    2.98    0.27
  -2 -18   4    2.72    0.17
   4 -18   2    2.28    0.17
   4  18  -2    2.80    0.23
  -2  18  -4    2.32    0.26
   2 -18  -4    2.64    0.17
  18  -2   4    2.74    0.18
  -2 -18   4    2.42    0.18
  18   4   2    2.57    0.27
  -2 -18   4    2.74    0.12
   4 -18  -2    2.78    0.19
   2   4  18    2.92    0.19
  -4 -18   2    2.88    0.18
  -4 -18   2    2.34    0.18
  18  -4   2    2.68    0.19
  18  -4   2    2.63    0.26
  18   4  -2    2.62    0.26
  -2 -18  -4    2.56    0.13
   4 -18  -2    2.76    0.12
  -2  -4  18    2.84    0.19
  -4   2  18    2.68    0.16
  -4   2  18    2.49    0.18
  18  -2  -4    2.61    0.25
  -4 -18   2    2.71    0.13
 -18  -2   4    2.63    0.21
   2 -18   4    2.59    0.18
   2  18  -4    2.57    0.24
  -4   2  18    2.69    0.12
  -2 -18  -4    2.45    0.17
  -2 -18  -4    2.41    0.18
  18  -2  -4    2.71    0.20
 -18  -4  -2    2.69    0.19
  18   2   4    2.58    0.26
   2  -4 -18    2.47    0.12
   4 -18  -4    1.40    0.08
  -4  18  -4    1.36    0.21
   4 -18  -4    1.53    0.13
  -4 -18   4    1.33    0.09
  -4  -4  18    1.65    0.15
   4 -18  -4    1.47    0.14
   4  18  -4    1.39    0.18
  18  -4  -4    1.58    0.21
  18  -4   4    1.50    0.22
  18   4  -4    1.36    0.20
  -4 -18  -4    1.31    0.09
  -4  -4  18    1.48    0.08
  -4   4  18    1.64    0.15
  -4   4  18    1.39    0.08
   4 -18   4    1.28    0.13
   4  -4 -18    1.58    0.13
   4  -4 -18    1.45    0.09
  18   4   4    1.54    0.22
 -18  -4  -4    1.40    0.15
 -18  -4   4    1.10    0.14
 -18   4   4    1.15    0.13
  -4 -18  -4    1.44    0.14
  -4 -18  -4    1.32    0.14
  -4 -18   4    1.11    0.12
  -4 -18   4    1.54    0.14
   0 -18  -6    1.36    0.14
   0  -6  18    1.55    0.15
   0   6  18    1.68    0.16
   0 -18  -6    1.49    0.09
   0 -18   6    1.66    0.15
 -18   0   6    1.57    0.17
  18   6   0    1.67    0.23
  -6 -18   0    1.61    0.10
  -6   0  18    1.64    0.09
 -18  -6   0    1.83    0.17
  18   0   6    1.67    0.22
  18   0  -6    1.92    0.21
   0 -18  -6    1.37    0.13
  -6   0  18    1.70    0.14
  -6   0  18    1.53    0.14
   0  18  -6    1.48    0.21
   6 -18   0    1.60    0.14
  -6 -18   0    2.04    0.15
  -6  -2  18   72.68    2.41
  18  -2   6   67.85    2.58
  18   2  -6   74.77    2.57
   2 -18  -6   70.41    2.46
   6  18  -2   68.54    2.54
   2  -6  18   78.94    2.48
  18   6   2   68.14    2.59
  -2 -18   6   65.87    2.48
  -2 -18   6   71.76    2.41
   2 -18  -6   66.31    2.48
  -6 -18  -2   68.79    2.42
  -6 -18  -2   70.66    2.47
   6  -2 -18   65.99    2.46
 -18  -6   2   69.26    2.49
  -6  -2  18   73.92    2.45
   2 -18  -6   69.87    2.42
  -2  18  -6   64.67    2.58
  18  -6  -2   71.36    2.59
  -2   6  18   71.68    2.48
 -18   2   6   64.77    2.49
 -18  -2   6   69.90    2.50
   2   6  18   74.83    2.48
   2  18  -6   64.87    2.55
  -6 -18   2   71.18    2.42
   6 -18  -2   67.49    2.47
  -2 -18  -6   68.18    2.42
  18   2   6   66.76    2.57
  -6   2  18   69.10    2.45
  -6 -18   2   71.41    2.47
 -18  -6  -2   68.19    2.49
  -6   2  18   74.24    2.48
  -2  -6  18   74.55    2.48
   2  -6 -18   66.56    2.45
   2  -6 -18   68.17    2.47
   2  -6 -18   65.49    2.41
  -6   2  18   71.36    2.41
   6  -4 -18    4.32    0.18
 -18   4   6    4.28    0.25
  -6 -18  -4    4.61    0.24
  -6 -18  -4    4.60    0.18
   4 -18  -6    4.28    0.18
  -4 -18   6    4.65    0.18
  18  -4   6    4.28    0.31
  -4 -18   6    4.74    0.23
 -18  -6   4    4.51    0.25
  -6  -4  18    4.83    0.22
  -6  -4  18    4.53    0.18
   6  18  -4    4.43    0.29
  -4  18  -6    4.15    0.33
  18   6   4    4.37    0.32
  18   4  -6    4.93    0.31
   6  -4 -18    4.22    0.23
   6  -4 -18    4.40    0.24
   4 -18  -6    4.42    0.23
  -6 -18   4    4.64    0.23
  -6  18  -4    4.29    0.33
 -18  -6  -4    4.62    0.26
  -4  -6  18    4.90    0.18
  18  -4  -6    4.14    0.23
   4  -6 -18    4.26    0.18
  -6   4  18    4.94    0.23
  18   6  -4    5.05    0.33
  -6 -18   4    4.48    0.18
  -4 -18  -6    4.57    0.19
  18  -6   4    4.46    0.32
 -18  -4   6    4.50    0.26
   4  -6 -18    4.29    0.22
   4  -6 -18    4.52    0.24
  -6   4  18    4.54    0.18
  -4 -18  -6    4.78    0.24
   4  18  -6    4.33    0.29
  -6 -18   6   55.30    1.88
  -6 -18   6   51.79    1.84
  -6 -18  -6   51.57    1.84
   6  -6 -18   51.21    1.88
   6  18  -6   53.46    1.96
  -6  18  -6   51.45    2.01
  -6   6  18   52.45    1.84
   6  -6 -18   50.59    1.89
   6  -6 -18   49.47    1.84
 -18  -6  -6   52.86    1.90
 -18  -6   6   56.05    1.91
  -6 -18  -6   52.91    1.89
  18  -6   6   51.89    1.99
  18   6  -6   55.69    1.98
  -6  -6  18   57.09    1.83
   0 -18  -8    1.60    0.09
 -18  -8   0    1.84    0.16
  -8   0  18    1.62    0.13
   0  18  -8    1.47    0.19
  18  -8   0    1.70    0.21
  -8   0  18    1.61    0.09
   0 -18  -8    1.65    0.14
   0  -8 -18    1.45    0.14
  -8 -18   0    1.55    0.09
  18   8   0    1.56    0.20
 -18   0   8    1.78    0.17
  -8 -18   0    1.36    0.13
  -2  -8 -18    3.12    0.19
 -18  -8   2    3.22    0.20
   2 -18  -8    2.76    0.18
  -8  -2  18    3.03    0.17
  -2  18  -8    2.59    0.25
   8  -2 -18    2.94    0.18
  18  -2   8    2.98    0.25
  -2 -18   8    3.09    0.13
  -8  -2  18    3.02    0.13
  18   8   2    2.82    0.25
  -8 -18  -2    3.10    0.18
  -8 -18  -2    2.92    0.13
 -18   2   8    2.98    0.20
   2 -18  -8    2.96    0.13
  18  -2  -8    3.01    0.19
  -8 -18   2    2.85    0.13
   2  18  -8    2.59    0.23
   2  -8 -18    2.86    0.13
  -8   2  18    2.83    0.17
  -8   2  18    2.91    0.13
  18   8  -2    3.28    0.26
 -18  -2   8    3.28    0.20
   2  -8 -18    2.91    0.17
 -18  -8  -2    3.00    0.20
  -2 -18  -8    2.79    0.18
  -2 -18  -8    3.00    0.13
  18  -8   2    3.09    0.26
  -8 -18   2    2.87    0.18
   2  -8 -18    2.91    0.19
   4 -18  -8    4.25    0.22
  -8  -4  18    4.78    0.18
  -8  -4  18    4.84    0.21
  -4 -18   8    4.67    0.18
  -8 -18  -4    4.31    0.23
   4 -18  -8    4.64    0.18
   8  -4 -18    4.48    0.23
   8  -4 -18    4.29    0.24
   8  -4 -18    4.13    0.18
  -4 -18   8    4.45    0.21
  -8 -18  -4    4.23    0.18
 -18   4   8    4.16    0.24
   4  -8 -18    4.28    0.18
  -8 -18   4    4.44    0.22
  -8   4  18    4.40    0.18
 -18  -4   8    4.29    0.24
  18  -4  -8    4.42    0.23
  -4 -18  -8    4.34    0.23
   4  -8 -18    4.58    0.24
  -8   4  18    4.96    0.23
 -18  -8  -4    4.72    0.25
   4  -8 -18    4.43    0.22
  -8 -18   4    4.34    0.18
  -4 -18  -8    4.45    0.18
   8  -6 -18    1.31    0.12
 -18   6   8    1.31    0.13
   8  -6 -18    1.45    0.14
 -18  -8   6    1.58    0.14
  -8  -6  18    1.38    0.11
  -8  -6  18    1.58    0.08
  -8 -18  -6    1.28    0.08
   6 -18  -8    1.54    0.08
  -6 -18   8    1.77    0.12
  -6 -18   8    1.58    0.08
   6 -18  -8    1.62    0.12
   8  -6 -18    1.39    0.08
  -8 -18  -6    1.62    0.13
 -18  -8  -6    1.65    0.15
  -8   6  18    1.36    0.08
 -18  -6   8    1.70    0.14
   6  -8 -18    1.62    0.13
   6  -8 -18    1.48    0.14
  -6  -8  18    1.52    0.08
   6  -8 -18    1.40    0.09
  18  -6  -8    1.50    0.13
  -8 -18   6    1.58    0.08
  -6 -18  -8    1.44    0.13
  -8   6  18    1.55    0.13
  -8 -18   6    1.48    0.12
  -6 -18  -8    1.55    0.09
  -8  -8  18    1.73    0.11
  -8 -18   8    1.61    0.11
   8  -8 -18    1.48    0.08
  -8 -18  -8    1.60    0.12
   8  -8 -18    1.12    0.11
  -8  -8  18    1.71    0.08
  -8 -18   8    1.48    0.08
  -8   8  18    1.56    0.08
   0 -18 -10    4.84    0.20
 -10 -18   0    4.91    0.24
 -10   0  18    4.81    0.19
   0 -18 -10    5.08    0.24
 -10 -18   0    5.10    0.19
 -10   0  18    5.00    0.23
   0 -10 -18    4.76    0.25
 -18 -10   0    5.31    0.26
 -18   0  10    4.65    0.25
  -2 -10 -18   48.70    1.76
 -18   2  10   47.50    1.77
 -10 -18  -2   49.78    1.71
 -10  -2  18   50.93    1.70
   2 -18 -10   47.25    1.71
 -10  -2  18   50.83    1.74
 -18 -10  -2   50.48    1.77
  -2 -18 -10   50.75    1.71
  18  -2 -10   48.66    1.76
   2 -10 -18   47.33    1.74
   2 -10 -18   46.53    1.70
 -10   2  18   50.94    1.74
 -10   2  18   49.71    1.70
 -10 -18   2   49.18    1.75
 -10 -18   2   48.31    1.71
  10  -4 -18    0.88    0.10
   4 -18 -10    1.12    0.11
 -10 -18  -4    1.28    0.12
 -10  -4  18    0.92    0.06
  -4 -18  10    0.92    0.06
 -10  -4  18    1.18    0.10
   4 -18 -10    0.89    0.06
 -18 -10  -4    0.99    0.12
 -18  -4  10    0.76    0.10
 -10 -18   4    1.04    0.10
 -10   4  18    0.67    0.09
 -10   4  18    0.88    0.07
  -4 -18 -10    1.02    0.11
  -4 -18 -10    0.98    0.07
 -10 -18   4    1.00    0.07
   4 -10 -18    1.20    0.11
   4 -10 -18    1.16    0.12
   4 -10 -18    0.82    0.06
 -19  -1  -1    8.72    0.39
 -19  -1   1    7.99    0.39
 -19   1   1    7.74    0.38
  -1 -19  -1    8.41    0.37
  -1 -19  -1    8.14    0.38
  -1 -19  -1    8.62    0.32
  -1 -19   1    8.33    0.36
  -1 -19   1    8.40    0.38
  -1 -19   1    8.22    0.32
  -1  -1  19    8.80    0.38
  -1   1  19    9.19    0.39
   1 -19  -1    8.44    0.36
   1 -19  -1    8.38    0.39
   1 -19  -1    8.94    0.32
   1 -19   1    7.98    0.38
   1 -19   1    8.17    0.31
   1  -1  19    9.05    0.38
   1   1  19    8.88    0.38
  19  -1  -1    8.26    0.48
  19  -1   1    8.45    0.48
  19   1  -1    8.39    0.48
  19   1   1    8.48    0.49
 -19  -3   1    9.02    0.42
 -19   1   3    8.84    0.42
  -3 -19  -1    9.08    0.39
  -3 -19  -1    8.54    0.41
  -3 -19  -1    9.27    0.35
  -3  -1  19    9.46    0.40
  -1 -19   3    9.66    0.34
  -1 -19   3    9.38    0.38
  -1 -19   3    8.39    0.40
  -1   3  19    9.14    0.41
   1  -3  19   10.03    0.41
   1 -19  -3    9.17    0.34
  -1  19  -3    8.77    0.47
  19   3   1    8.90    0.51
  19  -3  -1    9.33    0.51
  19  -1   3    9.20    0.51
  19   1  -3    9.43    0.50
   3 -19  -1    9.67    0.34
  -3 -19   1    9.81    0.40
  -3 -19   1    9.11    0.41
   3 -19  -1    9.67    0.41
   1   3  19    9.71    0.41
   1 -19   3    9.07    0.40
   1  19  -3    8.49    0.46
  19  -1  -3    9.15    0.50
  19  -3   1    9.90    0.52
  19   3  -1    9.08    0.50
  19   1   3    9.17    0.50
  -1 -19  -3    8.81    0.41
  -1 -19  -3    9.00    0.34
  -3 -19   1    9.49    0.35
  -1 -19  -3    9.10    0.39
  -3   1  19    9.28    0.34
  -1  -3  19    9.91    0.41
  -3   1  19    9.75    0.41
 -19  -3  -1    9.16    0.41
 -19  -1   3    8.84    0.42
  -3 -19  -3    6.49    0.30
  -3 -19  -3    6.45    0.25
 -19  -3  -3    6.67    0.31
 -19  -3   3    6.56    0.33
   3 -19  -3    6.39    0.29
   3 -19  -3    6.57    0.25
  -3  19  -3    5.82    0.37
  -3   3  19    6.53    0.24
   3  -3 -19    6.07    0.25
   3  19  -3    6.19    0.35
  19  -3  -3    6.45    0.39
  19  -3   3    6.65    0.40
  19   3  -3    6.42    0.39
  19   3   3    6.48    0.40
  -3 -19   3    6.55    0.25
  -3 -19   3    6.60    0.29
 -19   1   5    8.14    0.40
  -5 -19  -1    8.83    0.33
  -1  19  -5    8.12    0.45
  -5 -19  -1    8.85    0.38
 -19  -5   1    8.26    0.39
  -5  -1  19    9.45    0.36
  -5  -1  19    9.31    0.32
  19   5   1    8.94    0.48
  19  -1   5    8.31    0.47
   1 -19  -5    8.63    0.37
   1 -19  -5    8.83    0.33
  -1 -19   5    8.92    0.32
  19   1  -5    9.15    0.46
 -19  -1   5    8.69    0.40
  19  -1  -5    9.20    0.46
  19  -5   1    8.45    0.47
  -1 -19  -5    8.70    0.37
  -1 -19  -5    8.44    0.33
  -5   1  19    9.30    0.36
  -5   1  19    8.40    0.32
 -19  -5  -1    8.49    0.40
  -5 -19   1    8.82    0.33
   1  19  -5    8.00    0.44
  -5 -19   1    8.53    0.37
  19   5  -1    9.29    0.48
  19   1   5    8.43    0.47
 -19  -5   3    7.39    0.35
  19   5   3    7.16    0.42
  -3   5  19    7.71    0.28
  19  -3   5    7.53    0.43
  -5  -3  19    7.81    0.28
  -3  19  -5    7.11    0.42
 -19   3   5    6.50    0.34
  19   3  -5    8.03    0.41
  -5 -19  -3    7.52    0.28
   5  19  -3    7.26    0.38
   3 -19  -5    7.30    0.32
  19  -5  -3    8.01    0.43
   5  -3 -19    7.06    0.32
  -3 -19   5    7.60    0.28
  -5 -19  -3    7.62    0.33
  -3 -19   5    7.64    0.32
  19   3   5    7.29    0.42
  -5   3  19    7.35    0.28
 -19  -3   5    7.43    0.36
  -3 -19  -5    7.59    0.33
  -5  19  -3    7.09    0.42
  -5 -19   3    7.49    0.32
  -5 -19   3    7.55    0.28
  -5   3  19    7.72    0.32
  19  -5   3    7.34    0.43
   3  -5 -19    6.87    0.28
  19   5  -3    7.85    0.42
   3  -5 -19    6.93    0.32
   3  19  -5    7.38    0.39
 -19  -5   5    7.12    0.35
   5  -5 -19    7.18    0.32
   5  -5 -19    7.26    0.28
  -5  -5  19    8.17    0.28
  -5   5  19    8.14    0.28
  -5 -19  -5    7.64    0.34
  -5 -19  -5    7.45    0.29
  -5 -19   5    7.79    0.33
  -5 -19   5    7.58    0.29
 -19  -5  -5    7.68    0.34
  -5   5  19    7.88    0.32
   5 -19  -5    7.48    0.28
 -19   1   7    5.82    0.30
  -7 -19  -1    6.47    0.29
  -7 -19  -1    6.62    0.24
   1 -19  -7    6.31    0.24
   1 -19  -7    6.14    0.28
 -19  -7   1    6.09    0.30
  -7  -1  19    6.41    0.27
  -7  -1  19    6.49    0.23
  -7   1  19    6.36    0.27
  -7   1  19    6.58    0.24
 -19  -1   7    6.18    0.31
  -7 -19   1    5.69    0.28
  -7 -19   1    5.67    0.24
  -1 -19  -7    5.66    0.28
  -1 -19  -7    5.92    0.24
  -7  -3  19    7.65    0.31
 -19   3   7    7.29    0.34
  -7 -19  -3    7.46    0.33
  -7 -19  -3    7.08    0.28
   7  -3 -19    6.68    0.31
  -3 -19   7    7.77    0.28
   3 -19  -7    7.45    0.32
   3 -19  -7    7.52    0.28
  -7  -3  19    7.93    0.27
  -3   7  19    7.62    0.27
 -19  -7   3    7.75    0.34
  -7 -19   3    7.02    0.32
   3  -7 -19    6.99    0.31
   3  -7 -19    7.13    0.33
  -7   3  19    6.95    0.31
  -3 -19  -7    7.28    0.28
 -19  -7  -3    7.80    0.35
  -7   3  19    7.51    0.28
  -3 -19  -7    7.44    0.33
 -19  -3   7    7.74    0.35
   3  -7 -19    6.86    0.27
  -5   7  19    6.72    0.25
  -7 -19  -5    6.82    0.26
   5 -19  -7    6.60    0.25
   7  -5 -19    6.19    0.29
  -5 -19   7    7.09    0.25
   5 -19  -7    6.78    0.29
  -5 -19   7    7.07    0.29
   7  -5 -19    6.34    0.25
  -7 -19  -5    6.90    0.30
  -7  -5  19    7.33    0.28
  -7  -5  19    7.18    0.25
 -19  -7   5    6.24    0.31
  -5 -19  -7    6.92    0.30
   5  -7 -19    6.04    0.25
   5  -7 -19    6.63    0.29
  -7   5  19    7.22    0.25
  -7   5  19    6.86    0.29
 -19  -5   7    7.12    0.32
 -19  -7  -5    6.52    0.31
  -7 -19   5    6.91    0.25
  -7 -19  -7    4.14    0.22
  -7 -19   7    4.52    0.17
  -7 -19   7    4.49    0.21
   7  -7 -19    4.10    0.17
   7  -7 -19    4.29    0.21
  -7   7  19    4.77    0.21
  -7   7  19    4.70    0.17
  -7  -7  19    4.63    0.17
  -9  -1  19    7.48    0.27
 -19  -9   1    7.18    0.33
  -9 -19  -1    7.35    0.32
  -9 -19  -1    7.23    0.28
   1 -19  -9    7.20    0.28
  -9  -1  19    7.69    0.31
   1 -19  -9    7.55    0.32
  -1 -19  -9    7.24    0.32
  -9   1  19    7.49    0.27
  -9   1  19    7.90    0.31
  -9 -19   1    7.54    0.32
 -19  -9  -1    7.69    0.34
  -9 -19   1    7.40    0.28
  -1 -19  -9    7.33    0.28
 -19  -1   9    7.27    0.33
  -9  -3  19    6.73    0.25
  -9  -3  19    6.42    0.27
  -9 -19  -3    7.04    0.29
  -9 -19  -3    6.75    0.25
   3 -19  -9    6.81    0.25
   3 -19  -9    6.25    0.29
  -3 -19   9    6.36    0.24
   3  -9 -19    6.24    0.25
  -9   3  19    6.82    0.28
  -9   3  19    6.90    0.25
  -3 -19  -9    6.97    0.30
  -3 -19  -9    6.44    0.25
   3  -9 -19    6.35    0.28
  -9 -19   3    6.69    0.25
  -9 -19   3    6.55    0.29
   0 -20   0   69.80    2.38
   0 -20   0   66.02    2.33
  20   0   0   66.31    2.51
 -20   0   2    1.94    0.16
  -2 -20   0    2.14    0.15
  -2 -20   0    2.13    0.10
   2 -20   0    2.05    0.10
   0 -20  -2    2.44    0.11
   0 -20   2    2.02    0.10
 -20  -2   0    2.15    0.17
   0 -20  -2    1.90    0.14
  -2 -20  -2    2.77    0.13
  -2 -20   2    3.01    0.13
   2 -20  -2    2.81    0.13
  -2 -20  -2    2.78    0.17
  -2 -20   2    2.95    0.17
 -20  -2   2    2.65    0.19
   0 -20  -4   47.77    1.70
 -20  -4   0   47.36    1.72
  -4   0  20   50.93    1.65
 -20   0   4   44.64    1.72
  -4 -20   0   46.42    1.70
  -4 -20   0   46.99    1.66
   0 -20  -4   48.81    1.66
 -20   2   4    2.20    0.17
  -4 -20  -2    2.88    0.17
  -4 -20  -2    2.60    0.12
   2 -20  -4    2.59    0.12
 -20  -4   2    2.49    0.18
  -2 -20   4    2.42    0.11
   2 -20  -4    2.46    0.15
  -4 -20   2    2.61    0.12
  -4   2  20    2.52    0.11
  -2 -20  -4    2.68    0.16
  -2 -20  -4    2.61    0.12
 -20  -4  -2    2.60    0.18
 -20  -2   4    2.34    0.18
  -4 -20  -4   60.17    2.06
   4 -20  -4   56.88    2.01
 -20  -4   4   56.22    2.07
  -4   4  20   58.26    2.01
  -4 -20  -4   58.66    2.01
  -6 -20   0    3.09    0.13
  -6 -20   0    3.03    0.18
 -20   0   6    3.12    0.20
  -6   0  20    3.16    0.16
  -6   0  20    3.06    0.13
   0 -20  -6    3.25    0.18
   0 -20  -6    3.28    0.14
  -6 -20  -2    2.28    0.11
 -20  -6   2    2.24    0.16
  -6  -2  20    2.32    0.10
  -2 -20   6    2.17    0.10
   2 -20  -6    2.41    0.11
  -6 -20  -2    2.51    0.15
  -6   2  20    2.47    0.14
  -2 -20  -6    2.34    0.11
  -2 -20  -6    2.06    0.15
 -20  -2   6    2.19    0.17
  -6   2  20    2.34    0.10
  -6 -20   2    2.18    0.11
  -6 -20   2    2.26    0.15
 -20  -6  -2    2.40    0.17
   6  -4 -20    1.48    0.11
   4 -20  -6    1.44    0.08
  -4   6  20    1.42    0.11
  -4   6  20    1.38    0.07
  -6 -20  -4    1.57    0.13
  -6 -20  -4    1.47    0.08
  -4 -20   6    1.48    0.08
  -4 -20   6    1.54    0.11
  -6  -4  20    1.38    0.07
   4 -20  -6    1.50    0.11
  -6   4  20    1.36    0.08
  -4 -20  -6    1.44    0.12
  -4 -20  -6    1.36    0.08
  -6 -20   4    1.28    0.08
  -6 -20   4    1.38    0.11
  -6   4  20    1.26    0.11
   4  -6 -20    1.53    0.11
   4  -6 -20    1.30    0.08
  -1 -21  -1    8.31    0.35
  -1 -21  -1    8.50    0.31
  -1 -21   1    8.59    0.35
  -1 -21   1    8.09    0.31
   1 -21  -1    8.60    0.31
  -3 -21  -1    4.50    0.21
  -3 -21  -1    4.17    0.18
   1 -21  -3    4.44    0.17
   1 -21  -3    4.46    0.21
  -1 -21   3    4.50    0.17
  -1 -21  -3    4.47    0.18
  -1 -21  -3    4.45    0.22
  -3 -21   1    4.60    0.18
  -3 -21   1    4.20    0.21
  -3 -21  -3   10.56    0.38
  -3 -21   3   10.28    0.38
   0   0   0    0.00    0.00
;
_shelx_hkl_checksum              19977
#END Tags that were not found in dictionaries
loop_
_space_group_symop_operation_xyz
'x, y, z'
'-x, -y, z'
'-x, y, -z'
'x, -y, -z'
'z, x, y'
'z, -x, -y'
'-z, -x, y'
'-z, x, -y'
'y, z, x'
'-y, z, -x'
'y, -z, -x'
'-y, -z, x'
'y, x, -z'
'-y, -x, -z'
'y, -x, z'
'-y, x, z'
'x, z, -y'
'-x, z, y'
'-x, -z, -y'
'x, -z, y'
'z, y, -x'
'z, -y, x'
'-z, y, x'
'-z, -y, -x'
'x, y+1/2, z+1/2'
'-x, -y+1/2, z+1/2'
'-x, y+1/2, -z+1/2'
'x, -y+1/2, -z+1/2'
'z, x+1/2, y+1/2'
'z, -x+1/2, -y+1/2'
'-z, -x+1/2, y+1/2'
'-z, x+1/2, -y+1/2'
'y, z+1/2, x+1/2'
'-y, z+1/2, -x+1/2'
'y, -z+1/2, -x+1/2'
'-y, -z+1/2, x+1/2'
'y, x+1/2, -z+1/2'
'-y, -x+1/2, -z+1/2'
'y, -x+1/2, z+1/2'
'-y, x+1/2, z+1/2'
'x, z+1/2, -y+1/2'
'-x, z+1/2, y+1/2'
'-x, -z+1/2, -y+1/2'
'x, -z+1/2, y+1/2'
'z, y+1/2, -x+1/2'
'z, -y+1/2, x+1/2'
'-z, y+1/2, x+1/2'
'-z, -y+1/2, -x+1/2'
'x+1/2, y, z+1/2'
'-x+1/2, -y, z+1/2'
'-x+1/2, y, -z+1/2'
'x+1/2, -y, -z+1/2'
'z+1/2, x, y+1/2'
'z+1/2, -x, -y+1/2'
'-z+1/2, -x, y+1/2'
'-z+1/2, x, -y+1/2'
'y+1/2, z, x+1/2'
'-y+1/2, z, -x+1/2'
'y+1/2, -z, -x+1/2'
'-y+1/2, -z, x+1/2'
'y+1/2, x, -z+1/2'
'-y+1/2, -x, -z+1/2'
'y+1/2, -x, z+1/2'
'-y+1/2, x, z+1/2'
'x+1/2, z, -y+1/2'
'-x+1/2, z, y+1/2'
'-x+1/2, -z, -y+1/2'
'x+1/2, -z, y+1/2'
'z+1/2, y, -x+1/2'
'z+1/2, -y, x+1/2'
'-z+1/2, y, x+1/2'
'-z+1/2, -y, -x+1/2'
'x+1/2, y+1/2, z'
'-x+1/2, -y+1/2, z'
'-x+1/2, y+1/2, -z'
'x+1/2, -y+1/2, -z'
'z+1/2, x+1/2, y'
'z+1/2, -x+1/2, -y'
'-z+1/2, -x+1/2, y'
'-z+1/2, x+1/2, -y'
'y+1/2, z+1/2, x'
'-y+1/2, z+1/2, -x'
'y+1/2, -z+1/2, -x'
'-y+1/2, -z+1/2, x'
'y+1/2, x+1/2, -z'
'-y+1/2, -x+1/2, -z'
'y+1/2, -x+1/2, z'
'-y+1/2, x+1/2, z'
'x+1/2, z+1/2, -y'
'-x+1/2, z+1/2, y'
'-x+1/2, -z+1/2, -y'
'x+1/2, -z+1/2, y'
'z+1/2, y+1/2, -x'
'z+1/2, -y+1/2, x'
'-z+1/2, y+1/2, x'
'-z+1/2, -y+1/2, -x'
'-x, -y, -z'
'x, y, -z'
'x, -y, z'
'-x, y, z'
'-z, -x, -y'
'-z, x, y'
'z, x, -y'
'z, -x, y'
'-y, -z, -x'
'y, -z, x'
'-y, z, x'
'y, z, -x'
'-y, -x, z'
'y, x, z'
'-y, x, -z'
'y, -x, -z'
'-x, -z, y'
'x, -z, -y'
'x, z, y'
'-x, z, -y'
'-z, -y, x'
'-z, y, -x'
'z, -y, -x'
'z, y, x'
'-x, -y+1/2, -z+1/2'
'x, y+1/2, -z+1/2'
'x, -y+1/2, z+1/2'
'-x, y+1/2, z+1/2'
'-z, -x+1/2, -y+1/2'
'-z, x+1/2, y+1/2'
'z, x+1/2, -y+1/2'
'z, -x+1/2, y+1/2'
'-y, -z+1/2, -x+1/2'
'y, -z+1/2, x+1/2'
'-y, z+1/2, x+1/2'
'y, z+1/2, -x+1/2'
'-y, -x+1/2, z+1/2'
'y, x+1/2, z+1/2'
'-y, x+1/2, -z+1/2'
'y, -x+1/2, -z+1/2'
'-x, -z+1/2, y+1/2'
'x, -z+1/2, -y+1/2'
'x, z+1/2, y+1/2'
'-x, z+1/2, -y+1/2'
'-z, -y+1/2, x+1/2'
'-z, y+1/2, -x+1/2'
'z, -y+1/2, -x+1/2'
'z, y+1/2, x+1/2'
'-x+1/2, -y, -z+1/2'
'x+1/2, y, -z+1/2'
'x+1/2, -y, z+1/2'
'-x+1/2, y, z+1/2'
'-z+1/2, -x, -y+1/2'
'-z+1/2, x, y+1/2'
'z+1/2, x, -y+1/2'
'z+1/2, -x, y+1/2'
'-y+1/2, -z, -x+1/2'
'y+1/2, -z, x+1/2'
'-y+1/2, z, x+1/2'
'y+1/2, z, -x+1/2'
'-y+1/2, -x, z+1/2'
'y+1/2, x, z+1/2'
'-y+1/2, x, -z+1/2'
'y+1/2, -x, -z+1/2'
'-x+1/2, -z, y+1/2'
'x+1/2, -z, -y+1/2'
'x+1/2, z, y+1/2'
'-x+1/2, z, -y+1/2'
'-z+1/2, -y, x+1/2'
'-z+1/2, y, -x+1/2'
'z+1/2, -y, -x+1/2'
'z+1/2, y, x+1/2'
'-x+1/2, -y+1/2, -z'
'x+1/2, y+1/2, -z'
'x+1/2, -y+1/2, z'
'-x+1/2, y+1/2, z'
'-z+1/2, -x+1/2, -y'
'-z+1/2, x+1/2, y'
'z+1/2, x+1/2, -y'
'z+1/2, -x+1/2, y'
'-y+1/2, -z+1/2, -x'
'y+1/2, -z+1/2, x'
'-y+1/2, z+1/2, x'
'y+1/2, z+1/2, -x'
'-y+1/2, -x+1/2, z'
'y+1/2, x+1/2, z'
'-y+1/2, x+1/2, -z'
'y+1/2, -x+1/2, -z'
'-x+1/2, -z+1/2, y'
'x+1/2, -z+1/2, -y'
'x+1/2, z+1/2, y'
'-x+1/2, z+1/2, -y'
'-z+1/2, -y+1/2, x'
'-z+1/2, y+1/2, -x'
'z+1/2, -y+1/2, -x'
'z+1/2, y+1/2, x'
loop_
_atom_site_label
_atom_site_type_symbol
_atom_site_fract_x
_atom_site_fract_y
_atom_site_fract_z
_atom_site_U_iso_or_equiv
_atom_site_adp_type
_atom_site_occupancy
_atom_site_site_symmetry_order
_atom_site_calc_flag
_atom_site_refinement_flags_posn
_atom_site_refinement_flags_adp
_atom_site_refinement_flags_occupancy
Pb1 Pb 0.5000 0.0000 0.5000 0.00397(5) Uani 1 48 d S T P
Cu1 Cu 0.5000 0.2500 0.2500 0.00419(7) Uani 1 8 d S T P
O1 O 0.35715(9) 0.14285(9) 0.35715(9) 0.00493(14) Uani 1 6 d S T P
Cl1 Cl 0.5000 0.5000 0.5000 0.0151(4) Uani 0.897(12) 48 d S T P
Br1 Br 0.5000 0.5000 0.5000 0.0151(4) Uani 0.103(12) 48 d S T P
loop_
_atom_site_aniso_label
_atom_site_aniso_U_11
_atom_site_aniso_U_22
_atom_site_aniso_U_33
_atom_site_aniso_U_23
_atom_site_aniso_U_13
_atom_site_aniso_U_12
Pb1 0.00397(5) 0.00397(5) 0.00397(5) 0.000 0.000 0.000
Cu1 0.00387(8) 0.00436(7) 0.00436(7) 0.00092(5) 0.000 0.000
O1 0.00493(14) 0.00493(14) 0.00493(14) 0.00010(18) -0.00010(18) 0.00010(18)
Cl1 0.0151(4) 0.0151(4) 0.0151(4) 0.000 0.000 0.000
Br1 0.0151(4) 0.0151(4) 0.0151(4) 0.000 0.000 0.000
loop_
_atom_type_symbol
_atom_type_description
_atom_type_scat_dispersion_real
_atom_type_scat_dispersion_imag
_atom_type_scat_source
O O 0.0106 0.0060 'International Tables Vol C Tables 4.2.6.8 and 6.1.1.4'
Cl Cl 0.1484 0.1585 'International Tables Vol C Tables 4.2.6.8 and 6.1.1.4'
Cu Cu 0.3201 1.2651 'International Tables Vol C Tables 4.2.6.8 and 6.1.1.4'
Br Br -0.2901 2.4595 'International Tables Vol C Tables 4.2.6.8 and 6.1.1.4'
Pb Pb -3.3944 10.1111 'International Tables Vol C Tables 4.2.6.8 and 6.1.1.4'
loop_
_geom_angle_atom_site_label_1
_geom_angle_atom_site_label_2
_geom_angle_atom_site_label_3
_geom_angle
_geom_angle_site_symmetry_1
_geom_angle_site_symmetry_3
O1 Pb1 O1 180.00(3) 99 3_656
O1 Pb1 O1 109.5 99 100_655
O1 Pb1 O1 70.5 3_656 100_655
O1 Pb1 O1 70.5 99 4_556
O1 Pb1 O1 109.5 3_656 4_556
O1 Pb1 O1 180.0 100_655 4_556
O1 Pb1 O1 109.5 99 98_556
O1 Pb1 O1 70.5 3_656 98_556
O1 Pb1 O1 109.5 100_655 98_556
O1 Pb1 O1 70.5 4_556 98_556
O1 Pb1 O1 70.5 99 2_655
O1 Pb1 O1 109.5 3_656 2_655
O1 Pb1 O1 70.5 100_655 2_655
O1 Pb1 O1 109.5 4_556 2_655
O1 Pb1 O1 180.0 98_556 2_655
O1 Pb1 O1 109.5 99 97_656
O1 Pb1 O1 70.5 3_656 97_656
O1 Pb1 O1 109.471(1) 100_655 97_656
O1 Pb1 O1 70.5 4_556 97_656
O1 Pb1 O1 109.471(1) 98_556 97_656
O1 Pb1 O1 70.5 2_655 97_656
O1 Pb1 O1 70.5 99 .
O1 Pb1 O1 109.471(1) 3_656 .
O1 Pb1 O1 70.5 100_655 .
O1 Pb1 O1 109.5 4_556 .
O1 Pb1 O1 70.5 98_556 .
O1 Pb1 O1 109.5 2_655 .
O1 Pb1 O1 180.0 97_656 .
O1 Pb1 Cu1 35.3 99 2_655
O1 Pb1 Cu1 144.7 3_656 2_655
O1 Pb1 Cu1 90.0 100_655 2_655
O1 Pb1 Cu1 90.0 4_556 2_655
O1 Pb1 Cu1 144.7 98_556 2_655
O1 Pb1 Cu1 35.3 2_655 2_655
O1 Pb1 Cu1 90.0 97_656 2_655
O1 Pb1 Cu1 90.0 . 2_655
O1 Pb1 Cu1 144.7 99 78_556
O1 Pb1 Cu1 35.3 3_656 78_556
O1 Pb1 Cu1 90.0 100_655 78_556
O1 Pb1 Cu1 90.0 4_556 78_556
O1 Pb1 Cu1 90.0 98_556 78_556
O1 Pb1 Cu1 90.0 2_655 78_556
O1 Pb1 Cu1 35.3 97_656 78_556
O1 Pb1 Cu1 144.7 . 78_556
Cu1 Pb1 Cu1 120.0 2_655 78_556
O1 Pb1 Cu1 35.3 99 30
O1 Pb1 Cu1 144.7 3_656 30
O1 Pb1 Cu1 90.0 100_655 30
O1 Pb1 Cu1 90.0 4_556 30
O1 Pb1 Cu1 90.0 98_556 30
O1 Pb1 Cu1 90.0 2_655 30
O1 Pb1 Cu1 144.7 97_656 30
O1 Pb1 Cu1 35.3 . 30
Cu1 Pb1 Cu1 60.0 2_655 30
Cu1 Pb1 Cu1 180.0 78_556 30
O1 Pb1 Cu1 144.7 99 26_655
O1 Pb1 Cu1 35.3 3_656 26_655
O1 Pb1 Cu1 90.0 100_655 26_655
O1 Pb1 Cu1 90.0 4_556 26_655
O1 Pb1 Cu1 35.3 98_556 26_655
O1 Pb1 Cu1 144.7 2_655 26_655
O1 Pb1 Cu1 90.0 97_656 26_655
O1 Pb1 Cu1 90.0 . 26_655
Cu1 Pb1 Cu1 180.0 2_655 26_655
Cu1 Pb1 Cu1 60.0 78_556 26_655
Cu1 Pb1 Cu1 120.0 30 26_655
O1 Cu1 O1 86.62(9) . 100_655
O1 Cu1 O1 93.38(9) . 28
O1 Cu1 O1 180.0 100_655 28
O1 Cu1 O1 180.0 . 121_655
O1 Cu1 O1 93.38(9) 100_655 121_655
O1 Cu1 O1 86.62(9) 28 121_655
O1 Cu1 Pb1 43.31(4) . .
O1 Cu1 Pb1 43.31(4) 100_655 .
O1 Cu1 Pb1 136.69(4) 28 .
O1 Cu1 Pb1 136.69(4) 121_655 .
O1 Cu1 Pb1 136.69(4) . 25_554
O1 Cu1 Pb1 136.69(4) 100_655 25_554
O1 Cu1 Pb1 43.31(4) 28 25_554
O1 Cu1 Pb1 43.31(4) 121_655 25_554
Pb1 Cu1 Pb1 180.0 . 25_554
Cu1 O1 Cu1 116.18(3) 30 9
Cu1 O1 Cu1 116.18(3) 30 .
Cu1 O1 Cu1 116.18(3) 9 .
Cu1 O1 Pb1 101.42(4) 30 .
Cu1 O1 Pb1 101.42(4) 9 .
Cu1 O1 Pb1 101.42(4) . .
loop_
_geom_bond_atom_site_label_1
_geom_bond_atom_site_label_2
_geom_bond_distance
_geom_bond_site_symmetry_2
Pb1 O1 2.2804(15) 99
Pb1 O1 2.2804(15) 3_656
Pb1 O1 2.2804(15) 100_655
Pb1 O1 2.2804(15) 4_556
Pb1 O1 2.2804(15) 98_556
Pb1 O1 2.2804(15) 2_655
Pb1 O1 2.2804(15) 97_656
Pb1 O1 2.2804(15) .
Pb1 Cu1 3.25849(7) 2_655
Pb1 Cu1 3.25849(8) 78_556
Pb1 Cu1 3.25849(7) 30
Pb1 Cu1 3.25849(8) 26_655
Cu1 O1 1.9193(3) .
Cu1 O1 1.9193(3) 100_655
Cu1 O1 1.9193(3) 28
Cu1 O1 1.9193(3) 121_655
Cu1 Pb1 3.25849(7) 25_554
O1 Cu1 1.9193(3) 30
O1 Cu1 1.9193(3) 9
