#------------------------------------------------------------------------------
#$Date: 2016-02-21 11:56:54 +0200 (Sun, 21 Feb 2016) $
#$Revision: 176809 $
#$URL: svn://www.crystallography.net/cod/cif/2/30/04/2300487.cif $
#------------------------------------------------------------------------------
#
# This file is available in the Crystallography Open Database (COD),
# http://www.crystallography.net/. The original data for this entry
# were provided by IUCr Journals, http://journals.iucr.org/.
#
# The file may be used within the scientific community so long as
# proper attribution is given to the journal article from which the
# data were obtained.
#
data_2300487
loop_
_publ_author_name
'Krause, Lennard'
'Herbst-Irmer, Regine'
'Sheldrick, George M.'
'Stalke, Dietmar'
_publ_section_title
;
 Comparison of silver and molybdenum microfocus X-ray sources for
 single-crystal structure determination
;
_journal_coeditor_code           aj5242
_journal_issue                   1
_journal_name_full               'Journal of Applied Crystallography'
_journal_paper_doi               10.1107/S1600576714022985
_journal_volume                  48
_journal_year                    2015
_chemical_formula_moiety         'Br0.09 Cl0.91 Cu6 O8 Pb'
_chemical_formula_sum            'Br0.09 Cl0.91 Cu6 O8 Pb'
_chemical_formula_weight         755.76
_space_group_crystal_system      cubic
_space_group_IT_number           225
_space_group_name_Hall           '-F 4 2 3'
_space_group_name_H-M_alt        'F m -3 m'
_symmetry_space_group_name_Hall  '-F 4 2 3'
_symmetry_space_group_name_H-M   'F m -3 m'
_audit_creation_method           SHELXL-2014/7
_cell_angle_alpha                90
_cell_angle_beta                 90
_cell_angle_gamma                90
_cell_formula_units_Z            4
_cell_length_a                   9.216(2)
_cell_length_b                   9.216(2)
_cell_length_c                   9.216(2)
_cell_measurement_reflns_used    9932
_cell_measurement_temperature    100(2)
_cell_measurement_theta_max      65.274
_cell_measurement_theta_min      3.021
_cell_volume                     782.8(3)
_computing_cell_refinement       'SAINT V7.68A'
_computing_data_collection       'APEX2 v2012.2'
_computing_data_reduction        'SAINT V7.68A'
_computing_molecular_graphics    'Mercury CSD 3.3 (Build RC5)'
_computing_publication_material  'Mercury CSD 3.3 (Build RC5)'
_computing_structure_refinement  'SHELXL-2014/7 (Sheldrick, 2014)'
_computing_structure_solution    'SHELXS-2012 (Sheldrick, 2012)'
_diffrn_ambient_temperature      100(2)
_diffrn_measured_fraction_theta_full 1.000
_diffrn_measured_fraction_theta_max 0.991
_diffrn_measurement_device_type  'Bruker Smart APEX II Quazar'
_diffrn_measurement_method       'omega scans'
_diffrn_radiation_type           AgK\a
_diffrn_radiation_wavelength     0.56086
_diffrn_reflns_av_R_equivalents  0.0290
_diffrn_reflns_av_unetI/netI     0.0101
_diffrn_reflns_Laue_measured_fraction_full 1.000
_diffrn_reflns_Laue_measured_fraction_max 0.991
_diffrn_reflns_limit_h_max       18
_diffrn_reflns_limit_h_min       -29
_diffrn_reflns_limit_k_max       27
_diffrn_reflns_limit_k_min       -18
_diffrn_reflns_limit_l_max       29
_diffrn_reflns_limit_l_min       -29
_diffrn_reflns_number            14473
_diffrn_reflns_point_group_measured_fraction_full 1.000
_diffrn_reflns_point_group_measured_fraction_max 0.991
_diffrn_reflns_theta_full        19.665
_diffrn_reflns_theta_max         65.903
_diffrn_reflns_theta_min         3.021
_diffrn_source                   'INCOATEC Microsource'
_exptl_absorpt_coefficient_mu    20.484
_exptl_absorpt_correction_T_max  0.3149
_exptl_absorpt_correction_T_min  0.1936
_exptl_absorpt_correction_type   multi-scan
_exptl_absorpt_process_details   SADABS-2014/4
_exptl_crystal_colour            black
_exptl_crystal_density_diffrn    6.413
_exptl_crystal_description       block
_exptl_crystal_F_000             1354
_exptl_crystal_size_max          0.120
_exptl_crystal_size_mid          0.110
_exptl_crystal_size_min          0.090
_refine_diff_density_max         14.023
_refine_diff_density_min         -7.007
_refine_diff_density_rms         0.956
_refine_ls_extinction_method     none
_refine_ls_goodness_of_fit_ref   1.197
_refine_ls_hydrogen_treatment    undef
_refine_ls_matrix_type           full
_refine_ls_number_parameters     10
_refine_ls_number_reflns         770
_refine_ls_number_restraints     0
_refine_ls_restrained_S_all      1.197
_refine_ls_R_factor_all          0.0235
_refine_ls_R_factor_gt           0.0235
_refine_ls_shift/su_max          0.000
_refine_ls_shift/su_mean         0.000
_refine_ls_structure_factor_coef Fsqd
_refine_ls_weighting_details
'w=1/[\s^2^(Fo^2^)+(0.0381P)^2^] where P=(Fo^2^+2Fc^2^)/3'
_refine_ls_weighting_scheme      calc
_refine_ls_wR_factor_gt          0.0497
_refine_ls_wR_factor_ref         0.0497
_reflns_Friedel_coverage         0.000
_reflns_number_gt                770
_reflns_number_total             770
_reflns_threshold_expression     'I > 2\s(I)'
_cod_data_source_file            aj5242sup1.cif
_cod_data_source_block           2-(Ag)
_cod_original_cell_volume        782.8(5)
_cod_database_code               2300487
_cod_database_fobs_code          2300487
#BEGIN Tags that were not found in dictionaries:
_shelx_shelxl_version_number     2014/7
_shelx_space_group_comment
;
The symmetry employed for this shelxl refinement is uniquely defined
by the following loop, which should always be used as a source of
symmetry information in preference to the above space-group names.
They are only intended as comments.
;
_shelx_estimated_absorpt_t_min   0.192
_shelx_estimated_absorpt_t_max   0.260
_shelx_res_file
;

    Fm-3m_res_031_Ag_rpim.res created by SHELXL-2014/7


TITL murdo114 in Fm-3m DUBLER
CELL 0.56086   9.216   9.216   9.216  90.000  90.000  90.000
ZERR    4.00   0.002   0.002   0.002   0.000   0.000   0.000
LATT  4
SYMM -X, -Y, Z
SYMM -X, Y, -Z
SYMM X, -Y, -Z
SYMM Z, X, Y
SYMM Z, -X, -Y
SYMM -Z, -X, Y
SYMM -Z, X, -Y
SYMM Y, Z, X
SYMM -Y, Z, -X
SYMM Y, -Z, -X
SYMM -Y, -Z, X
SYMM Y, X, -Z
SYMM -Y, -X, -Z
SYMM Y, -X, Z
SYMM -Y, X, Z
SYMM X, Z, -Y
SYMM -X, Z, Y
SYMM -X, -Z, -Y
SYMM X, -Z, Y
SYMM Z, Y, -X
SYMM Z, -Y, X
SYMM -Z, Y, X
SYMM -Z, -Y, -X
SFAC O CL CU BR PB
UNIT 32 3.644 24 0.3549 3.999
TEMP -173.000
SIZE 0.12 0.11 0.09
LIST 4
L.S. 10
ACTA
BOND
FMAP 2
PLAN 20
EADP  BR1 CL1
WGHT    0.038100
FVAR       0.03692   0.91137
PB1   5    0.000000    0.000000    0.000000    10.02083    0.00270    0.00270 =
         0.00270    0.00000    0.00000    0.00000
CU1   3    0.250000    0.250000    0.000000    10.12500    0.00351    0.00351 =
         0.00308    0.00000    0.00000   -0.00080
O1    1    0.142569    0.142569    0.142569    10.16667    0.00422    0.00422 =
         0.00422    0.00014    0.00014    0.00014
CL1   2    0.000000    0.500000    0.000000    20.02083    0.01419    0.01419 =
         0.01419    0.00000    0.00000    0.00000
BR1   4    0.000000    0.500000    0.000000   -20.02083    0.01419    0.01419 =
         0.01419    0.00000    0.00000    0.00000
HKLF 4

REM  murdo114 in Fm-3m DUBLER
REM R1 =  0.0235 for     770 Fo > 4sig(Fo)  and  0.0235 for all     770 data
REM     10 parameters refined using      0 restraints

END

WGHT      0.0380      0.0000

REM Highest difference peak 14.023,  deepest hole -7.007,  1-sigma level  0.956
Q1    1   0.1069  0.0000  0.0000  10.12500  0.05    2.41
Q2    1  -0.0398 -0.0398  0.0398  10.16667  0.05    1.75
Q3    1  -0.2347  0.5000  0.0000  10.12500  0.05    1.20
Q4    1   0.2500  0.2500  0.2500  10.04167  0.05    1.03
Q5    1  -0.0780 -0.1086  0.0000  10.50000  0.05    0.88
Q6    1   0.2080  0.1680  0.1680  10.50000  0.05    0.87
Q7    1   0.1761  0.0843  0.1761  10.50000  0.05    0.87
Q8    1   0.0000  0.5000  0.2187  10.12500  0.05    0.87
Q9    1   0.2318  0.1546  0.1546  10.50000  0.05    0.85
Q10   1   0.0285  0.0888  0.1672  11.00000  0.05    0.82
Q11   1   0.4265  0.1801  0.0000  10.50000  0.05    0.80
Q12   1   0.2500  0.1819  0.1819  10.50000  0.05    0.78
Q13   1   0.1784  0.3216  0.1784  10.16667  0.05    0.77
Q14   1  -0.0391  0.0000  0.1553  10.50000  0.05    0.70
Q15   1   0.2037  0.2037  0.2037  10.16667  0.05    0.70
Q16   1  -0.0347  0.5347  0.1770  10.50000  0.05    0.69
Q17   1  -0.1705  0.5335  0.0000  10.50000  0.05    0.66
Q18   1   0.0971  0.2487  0.1407  11.00000  0.05    0.66
Q19   1   0.2042  0.1038  0.1038  10.50000  0.05    0.66
Q20   1  -0.1123  0.5000  0.1123  10.25000  0.05    0.66
;
_shelx_res_checksum              5237
_shelx_hkl_file
;
  -1   1  -1  133.61    3.99
  -1   1   1  134.51    3.92
  -1   1   1  129.86    3.95
   1  -1   1  130.62    3.93
   1  -1   1  133.14    3.98
   1   1  -1  129.41    3.92
   1   1  -1  131.89    3.96
   1   1   1  125.13    3.93
   1   1   1  128.16    3.97
   0   0   2   14.27    0.48
   0   0   2   14.81    0.52
   0   2   0   15.16    0.50
   0   2   0   15.10    0.56
   2   0   0   15.50    0.48
   2   0   0   15.58    0.51
  -2   2   0   37.60    1.22
  -2   2   0   39.76    1.30
   0  -2   2   40.64    1.22
   0  -2   2   40.39    1.29
   0   2  -2   40.62    1.23
   0   2  -2   41.38    1.31
   0   2   2   39.75    1.22
   0   2   2   39.77    1.28
   2   0   2   37.35    1.22
   2   0   2   38.55    1.30
   2   2   0   37.80    1.22
   2   2   0   35.57    1.28
  -2   2  -2  823.21   26.91
  -2   2  -2  908.17   26.93
  -2   2   2  951.22   26.99
  -2   2   2  944.24   26.88
   2  -2   2  886.44   26.95
   2  -2   2  917.93   26.90
   2   2  -2  834.68   26.95
   2   2  -2  868.47   26.84
   2   2   2  910.59   26.97
   2   2   2  923.18   26.89
  -3   1   1   31.87    1.00
  -3   1   1   32.42    1.04
  -1  -1   3   32.53    1.00
  -1  -1   3   31.85    1.06
  -1   1   3   32.25    1.00
  -1   1   3   31.47    1.05
  -1   3  -1   32.63    1.05
  -1   3  -1   34.04    1.16
  -1   3   1   33.08    1.04
  -1   3   1   32.49    1.13
   1  -1   3   33.21    1.03
   1  -1   3   31.98    1.11
   1   1   3   33.47    1.03
   1   1   3   32.58    1.10
   1   3  -1   32.69    1.04
   1   3  -1   33.23    1.14
   1   3   1   32.39    1.04
   1   3   1   31.55    1.13
   3  -1  -1   32.04    0.99
   3  -1  -1   31.59    1.03
   3  -1   1   31.37    1.02
   3  -1   1   32.66    1.09
   3   1  -1   31.25    0.99
   3   1  -1   30.78    1.03
   3   1   1   32.87    1.10
  -3  -1   3  130.24    4.07
  -3  -1   3  127.16    4.10
  -3   1   3  134.88    4.08
  -3   1   3  136.93    4.11
  -3   3  -1  139.87    4.16
  -3   3  -1  136.84    4.29
  -3   3   1  146.74    4.14
  -3   3   1  140.64    4.25
  -1   3  -3  134.87    4.15
  -1   3  -3  136.09    4.30
  -1   3   3  134.54    4.13
  -1   3   3  136.26    4.23
   1   3  -3  136.30    4.14
   1   3  -3  137.09    4.25
   1   3   3  135.27    4.14
   1   3   3  133.14    4.25
   3  -3   1  134.99    4.13
   3  -3   1  136.55    4.25
   3  -1   3  136.09    4.15
   3  -1   3  133.67    4.26
   3   1  -3  138.98    4.08
   3   1  -3  139.53    4.11
   3   1   3  136.38    4.14
   3   1   3  130.56    4.25
   3   3  -1  136.86    4.13
   3   3  -1  137.83    4.24
   3   3   1  135.71    4.14
   3   3   1  132.99    4.25
  -3   3  -3   11.76    0.47
  -3   3  -3   12.62    0.48
  -3   3  -3   12.59    0.61
  -3   3   3   11.35    0.43
  -3   3   3   11.30    0.50
   3  -3   3   12.14    0.45
   3  -3   3   11.79    0.46
   3  -3   3   12.39    0.57
   3   3  -3   12.43    0.43
   3   3  -3   12.56    0.52
   3   3   3   11.85    0.56
   0   0   4  584.58   18.38
   0   0   4  591.66   18.28
   0   4   0  653.97   18.43
   0   4   0  641.50   18.39
   4   0   0  581.15   18.32
   4   0   0  598.27   18.25
  -2   4   0   42.70    1.32
  -2   4   0   43.86    1.47
   0  -2   4   39.97    1.29
   0  -2   4   41.08    1.39
   0   2  -4   41.92    1.41
   0   2   4   39.33    1.28
   0   2   4   40.84    1.37
   2   4   0   39.43    1.31
   2   4   0   39.81    1.44
   4   0   2   40.49    1.30
   4   0   2   40.82    1.40
  -4   2   0   41.50    1.29
  -4   2   0   40.63    1.38
  -2   0   4   40.80    1.25
  -2   0   4   39.91    1.29
   0   4  -2   40.57    1.32
   0   4  -2   42.72    1.47
   0   4   2   39.35    1.31
   0   4   2   39.18    1.43
   2   0   4   41.24    1.30
   2   0   4   41.06    1.42
   4  -2   0   39.60    1.27
   4  -2   0   41.07    1.36
   4   2   0   39.86    1.28
   4   2   0   39.73    1.36
  -4   2   2   22.32    0.68
  -4   2   2   21.62    0.75
  -2  -2   4   20.96    0.69
  -2  -2   4   19.22    0.75
  -2   2   4   21.12    0.68
  -2   2   4   20.82    0.75
  -2   4  -2   20.78    0.74
  -2   4  -2   20.45    0.87
  -2   4   2   21.29    0.73
  -2   4   2   19.54    0.82
   2  -4   2   20.36    0.73
   2  -4   2   20.59    0.84
   2  -2   4   20.71    0.73
   2  -2   4   20.16    0.84
   2   2  -4   21.06    0.69
   2   2  -4   21.01    0.77
   2   2   4   20.36    0.72
   2   2   4   20.11    0.82
   2   4  -2   21.38    0.73
   2   4  -2   21.37    0.84
   2   4   2   20.67    0.73
   2   4   2   20.83    0.85
   4  -2  -2   22.26    0.67
   4  -2   2   21.31    0.72
   4  -2   2   20.98    0.82
   4   2  -2   22.43    0.68
   4   2  -2   22.80    0.75
   4   2   2   21.38    0.72
   4   2   2   22.01    0.83
  -4   4   0  962.36   28.17
  -4   4   0  963.09   28.08
   0  -4   4  966.91   28.22
   0  -4   4  947.21   28.05
   0   4  -4  939.70   27.92
   0   4  -4  916.69   28.13
   0   4  -4  943.71   28.10
   0   4   4  956.53   27.90
   0   4   4  995.60   28.01
   0   4   4  960.38   28.05
   4  -4   0 1000.00   28.08
   4  -4   0  937.88   28.02
   4   0   4  843.13   27.90
   4   0   4  866.17   27.99
   4   0   4  887.19   28.06
   4   4   0  881.54   28.03
   4   4   0  886.30   28.05
  -4  -2   4   12.32    0.43
  -4  -2   4   12.58    0.48
  -4   2  -4   12.81    0.52
  -4   2   4   13.14    0.44
  -4   2   4   12.58    0.50
  -4   4  -2   12.75    0.52
  -4   4  -2   13.12    0.53
  -4   4  -2   12.72    0.66
  -4   4   2   13.09    0.49
  -4   4   2   13.56    0.61
  -2   4  -4   13.77    0.53
  -2   4  -4   13.93    0.54
  -2   4  -4   13.72    0.68
  -2   4   4   14.37    0.50
  -2   4   4   14.39    0.61
   2  -4   4   13.63    0.52
   2   4  -4   14.43    0.50
   2   4  -4   14.44    0.63
   2   4   4   13.42    0.51
   2   4   4   14.53    0.52
   2   4   4   12.65    0.62
   4  -4   2   13.16    0.51
   4  -4   2   12.82    0.62
   4  -2   4   13.43    0.51
   4  -2   4   13.19    0.63
   4   2  -4   13.36    0.44
   4   2  -4   13.76    0.50
   4   2   4   12.72    0.51
   4   2   4   12.56    0.51
   4   2   4   13.27    0.64
   4   4  -2   13.55    0.50
   4   4  -2   14.01    0.61
   4   4   2   13.13    0.51
   4   4   2   13.64    0.52
   4   4   2   12.40    0.63
  -4   4  -4  509.14   15.81
  -4   4  -4  505.85   16.04
  -4   4   4  526.48   15.74
  -4   4   4  529.57   15.87
   4  -4   4  526.93   15.78
   4  -4   4  531.02   15.79
   4  -4   4  528.19   15.99
   4   4  -4  527.30   15.74
   4   4  -4  524.10   15.88
   4   4   4  529.15   15.79
   4   4   4  539.02   15.80
   4   4   4  520.46   15.99
  -1  -1   5   51.49    1.60
  -1  -1   5   48.90    1.68
  -1   1   5   52.02    1.60
  -1   1   5   51.55    1.68
  -1   5  -1   49.80    1.82
  -1   5   1   54.44    1.67
  -1   5   1   51.91    1.66
  -1   5   1   50.77    1.81
   1  -1   5   52.74    1.63
   1  -1   5   52.07    1.75
   1   1   5   53.40    1.63
   1   1   5   50.45    1.74
   1   5  -1   51.96    1.66
   1   5  -1   51.41    1.82
   1   5   1   50.03    1.66
   1   5   1   49.85    1.66
   1   5   1   50.35    1.82
   5  -1  -1   50.51    1.58
   5  -1  -1   50.12    1.64
   5  -1   1   51.15    1.61
   5  -1   1   50.06    1.71
   5   1  -1   50.87    1.58
   5   1  -1   52.08    1.65
   5   1   1   54.39    1.62
   5   1   1   51.06    1.72
   3   1   5   68.49    2.12
   3   1   5   66.27    2.27
   5  -3  -1   67.80    2.08
  -3   5   1   67.18    2.13
  -3   5   1   67.39    2.13
  -3   5   1   67.63    2.31
   1   5   3   65.99    2.13
   1   5   3   67.72    2.13
   5   3   1   67.33    2.11
   5   3   1   65.46    2.24
  -1   3   5   67.83    2.09
  -1   3   5   67.97    2.20
   1  -3   5   67.15    2.11
   1  -3   5   67.53    2.11
   1  -3   5   67.27    2.26
   1   3  -5   68.40    2.11
   1   3  -5   68.56    2.24
  -3  -1   5   64.76    2.10
   1   5   3   65.36    2.29
   3   1   5   66.26    2.11
   3   5  -1   64.68    2.12
   3   5  -1   66.22    2.13
   3   5  -1   66.06    2.29
   5  -3  -1   64.82    2.17
  -3  -1   5   64.76    2.04
   5  -1   3   66.17    2.11
   5  -1   3   66.47    2.12
   5  -1   3   67.58    2.27
  -1   5  -3   67.85    2.15
  -1   5  -3   69.38    2.15
  -1   5  -3   68.82    2.34
  -5   3  -1   69.31    2.12
  -5   3  -1   71.87    2.28
  -5   3   1   68.76    2.09
   3   5   1   64.47    2.14
   3   5   1   60.59    2.29
   1   3   5   64.91    2.10
  -3   1   5   66.07    2.04
  -3   1   5   65.97    2.09
   5   1   3   65.80    2.11
   5   1   3   65.83    2.11
   1   3   5   65.76    2.23
  -1   5   3   66.96    2.12
  -1   5   3   68.40    2.13
  -1   5   3   66.51    2.29
   1  -5   3   67.14    2.12
   1   5  -3   68.07    2.14
   1   5  -3   67.24    2.13
   1   5  -3   64.92    2.30
  -1  -3   5   67.13    2.09
  -1  -3   5   65.69    2.21
   1   3   5   68.72    2.11
   3  -1   5   63.80    2.11
   3  -1   5   67.35    2.13
   3  -1   5   67.47    2.28
   5   1   3   67.00    2.26
  -3   5  -1   69.20    2.15
  -3   5  -1   70.53    2.15
  -3   5  -1   70.24    2.34
  -5   3   1   67.64    2.21
   5  -3   1   68.29    2.10
   5  -3   1   67.18    2.23
   5   3  -1   67.77    2.09
   5   3  -1   65.35    2.20
  -1   3  -5   70.69    2.13
  -1   3  -5   68.61    2.30
  -5   3  -3   40.02    1.38
  -5   3   3   41.89    1.31
  -5   3   3   39.69    1.39
  -3  -3   5   40.43    1.31
  -3  -3   5   39.08    1.40
  -3   3  -5   41.27    1.39
  -3   3   5   43.73    1.32
  -3   3   5   42.34    1.42
  -3   5  -3   40.37    1.39
  -3   5  -3   41.44    1.40
  -3   5  -3   42.23    1.60
  -3   5   3   38.85    1.35
  -3   5   3   41.92    1.36
  -3   5   3   40.36    1.51
   3  -5   3   40.89    1.37
   3  -5   3   41.34    1.54
   3  -3   5   38.39    1.36
   3  -3   5   42.88    1.38
   3  -3   5   40.77    1.54
   3   3  -5   41.55    1.32
   3   3  -5   41.33    1.42
   3   3   5   40.16    1.36
   3   3   5   43.93    1.38
   3   3   5   41.58    1.53
   3   5  -3   43.38    1.37
   3   5  -3   42.83    1.37
   3   5  -3   43.42    1.53
   3   5   3   39.91    1.37
   3   5   3   40.45    1.38
   3   5   3   40.35    1.55
   5  -3   3   41.73    1.36
   5  -3   3   39.96    1.36
   5  -3   3   42.24    1.52
   5   3  -3   44.55    1.31
   5   3  -3   44.63    1.42
   5   3   3   41.28    1.37
   5   3   3   42.09    1.37
   5   3   3   41.62    1.53
  -5   5  -1   46.83    1.57
  -5   5  -1   48.79    1.58
  -5   5  -1   50.83    1.79
  -5   5   1   47.77    1.56
  -5   5   1   47.81    1.55
  -5   5   1   45.49    1.72
  -1  -5   5   47.81    1.55
  -1  -5   5   46.21    1.70
  -1   5  -5   47.70    1.58
  -1   5  -5   49.37    1.59
  -1   5  -5   47.26    1.78
  -1   5   5   47.04    1.55
  -1   5   5   48.89    1.56
  -1   5   5   48.24    1.72
   1  -5   5   47.86    1.57
   1  -5   5   48.35    1.75
   1   5  -5   49.25    1.57
   1   5  -5   47.66    1.57
   1   5  -5   46.27    1.74
   1   5   5   46.32    1.55
   1   5   5   47.95    1.56
   1   5   5   47.84    1.74
   5  -5   1   47.57    1.55
   5  -5   1   47.00    1.71
   5  -1   5   46.63    1.56
   5  -1   5   46.52    1.57
   5  -1   5   48.42    1.76
   5   1   5   46.87    1.56
   5   1   5   47.84    1.57
   5   1   5   49.37    1.76
   5   5  -1   45.37    1.55
   5   5  -1   48.93    1.57
   5   5  -1   48.08    1.74
   5   5   1   46.77    1.57
   5   5   1   46.84    1.57
   5   5   1   48.47    1.77
  -5  -3   5   42.12    1.32
  -5  -3   5   41.82    1.40
  -5   3  -5   42.21    1.45
  -5   3   5   43.69    1.33
  -5   3   5   44.24    1.43
  -5   5  -3   41.55    1.45
  -5   5  -3   42.38    1.45
  -5   5  -3   42.76    1.67
  -5   5   3   40.24    1.38
  -5   5   3   42.64    1.39
  -5   5   3   40.36    1.53
  -3  -5   5   40.23    1.37
  -3   5  -5   42.18    1.45
  -3   5  -5   42.42    1.45
  -3   5  -5   41.32    1.66
  -3   5   5   42.84    1.39
  -3   5   5   43.46    1.39
  -3   5   5   43.63    1.55
   3  -5   5   41.72    1.42
   3  -5   5   42.23    1.43
   3  -5   5   44.53    1.64
   3   5  -5   44.50    1.40
   3   5  -5   42.46    1.39
   3   5  -5   43.34    1.56
   3   5   5   41.97    1.42
   3   5   5   43.24    1.43
   3   5   5   43.21    1.63
   5  -5   3   41.11    1.41
   5  -5   3   43.26    1.42
   5  -5   3   42.50    1.61
   5  -3   5   41.15    1.41
   5  -3   5   43.02    1.43
   5  -3   5   42.95    1.62
   5   3  -5   44.01    1.33
   5   3  -5   43.79    1.42
   5   3   5   40.79    1.42
   5   3   5   40.74    1.42
   5   3   5   41.61    1.62
   5   5  -3   44.61    1.40
   5   5  -3   44.17    1.39
   5   5  -3   45.08    1.56
   5   5   3   40.07    1.42
   5   5   3   41.78    1.43
   5   5   3   41.73    1.63
  -5   5  -5   33.85    1.27
  -5   5   5   34.33    1.17
  -5   5   5   35.38    1.17
  -5   5   5   36.16    1.32
   5  -5   5   34.91    1.23
   5  -5   5   36.12    1.24
   5  -5   5   38.41    1.48
   5   5  -5   36.56    1.18
   5   5  -5   36.80    1.18
   5   5  -5   36.62    1.33
   5   5   5   33.69    1.24
   5   5   5   35.38    1.25
   5   5   5   34.52    1.45
   0   0   6   57.61    1.84
   0   0   6   56.25    1.95
   0   6   0   58.98    1.90
   0   6   0   58.08    1.90
   0   6   0   57.51    2.09
   6   0   0   62.03    1.83
   6   0   0   59.67    1.92
  -2   6   0   13.54    0.57
  -2   6   0   14.51    0.58
  -2   6   0   13.22    0.72
   0  -2   6   14.22    0.52
   0  -2   6   14.95    0.53
   0  -2   6   14.51    0.64
   0   2  -6   15.58    0.54
   0   2   6   14.68    0.52
   0   2   6   14.93    0.52
   0   2   6   14.84    0.63
   2   6   0   14.29    0.57
   2   6   0   13.42    0.56
   2   6   0   12.71    0.70
   6   0  -2   13.51    0.46
   6   0  -2   13.22    0.50
   6   0   2   13.43    0.52
   6   0   2   14.45    0.53
   6   0   2   13.77    0.64
   0   6   2   15.52    0.74
   2   0   6   14.03    0.54
   2   0   6   14.76    0.55
   2   0   6   13.98    0.66
   6  -2   0   14.48    0.51
   6  -2   0   14.16    0.60
   6   2   0   14.09    0.51
   6   2   0   14.37    0.61
   0   6  -2   16.81    0.77
   0   6   2   14.87    0.57
   0   6   2   14.92    0.57
  -2   0   6   13.64    0.56
   0   6  -2   15.59    0.58
   0   6  -2   15.28    0.58
  -2   0   6   13.83    0.49
   2   2   6  668.88   19.76
   2   2   6  662.87   19.82
   2   2   6  663.85   19.93
   2  -2   6  658.09   19.94
   2   6   2  646.52   19.79
   2   6   2  651.09   19.79
   2  -2   6  664.76   19.77
   6   2   2  648.62   19.74
   6   2   2  657.95   19.75
   6   2   2  662.85   19.91
   2   6   2  643.33   20.01
   6  -2  -2  636.68   19.75
   6  -2  -2  642.64   19.75
   6  -2   2  599.57   19.73
   6  -2   2  626.90   19.74
   6  -2   2  642.32   19.90
   6   2  -2  714.80   19.72
   6   2  -2  722.47   19.80
  -6   2  -2  595.12   19.75
  -2  -2   6  618.10   19.76
  -2  -2   6  632.21   19.81
  -2   2  -6  652.40   19.78
  -2   2   6  678.89   19.87
  -2   2   6  682.32   19.81
  -2   6  -2  683.34   19.81
  -2   6  -2  697.30   19.82
  -2   6  -2  716.47   20.08
  -2   6   2  658.76   19.78
  -2   6   2  659.25   19.78
  -2   6   2  666.23   20.00
   2  -2   6  644.89   19.75
   2   6  -2  668.91   19.79
   2   6  -2  654.59   20.00
   2   6  -2  672.33   19.79
   6   0   4    4.83    0.26
   6   0   4    5.36    0.38
   6   0   4    5.17    0.26
   4   6   0    4.53    0.27
   4   6   0    4.87    0.47
   0   4   6    4.95    0.34
   4   6   0    4.67    0.28
  -4   6   0    4.67    0.27
  -4   6   0    4.34    0.27
  -4   6   0    4.18    0.43
   0  -4   6    4.43    0.24
   0  -4   6    4.92    0.25
   0  -4   6    4.30    0.33
   0   4  -6    4.48    0.25
   0   4  -6    4.77    0.26
   0   4  -6    4.63    0.36
   0   4   6    4.88    0.25
   0   4   6    4.90    0.25
   6   4   0    4.46    0.35
   0   6  -4    5.11    0.28
   0   6  -4    5.39    0.42
   0   6   4    4.84    0.27
   0   6   4    4.95    0.27
   0   6   4    4.77    0.38
   4   0   6    4.69    0.26
   4   0   6    4.96    0.27
   4   0   6    6.09    0.41
   6  -4   0    4.90    0.24
   6  -4   0    4.69    0.33
   6   4   0    4.67    0.25
   6   4   0    4.61    0.25
  -6   4   0    4.68    0.25
  -6   4   0    4.33    0.34
  -4   0   6    4.60    0.17
  -4   0   6    4.72    0.22
   0  -6   4    4.80    0.26
   0   6  -4    4.65    0.28
  -6   4   0    5.04    0.26
   4  -6   2   21.99    0.81
   4  -6   2   23.16    0.98
   4   6  -2   22.91    0.82
   6   4   2   21.99    0.81
   4   6  -2   22.22    0.98
  -6   4  -2   22.49    1.00
   4   2   6   23.10    0.81
   4   2   6   22.59    0.82
   4   2   6   21.78    0.97
   6  -2   4   20.90    0.79
   6  -2   4   21.98    0.81
   6  -2   4   20.57    0.95
   6   2  -4   22.57    0.69
   6   2  -4   22.48    0.73
   2   6   4   22.52    0.83
   2   6   4   21.73    1.00
  -4  -2   6   21.78    0.72
   4   6  -2   22.75    0.81
   2  -4   6   22.75    0.81
   2  -4   6   22.52    0.98
   2   4  -6   22.92    0.79
   2   4  -6   22.74    0.79
   2   4  -6   21.55    0.92
   6   4   2   20.54    0.79
  -6   4  -2   22.42    0.82
   2   6   4   22.17    0.82
  -4   6   2   21.81    0.81
  -4   6   2   21.00    0.81
  -4   6   2   21.80    0.98
  -4  -2   6   21.59    0.78
   6   4   2   23.14    0.98
  -2   6  -4   23.02    0.85
  -2   4   6   21.69    0.77
  -2   4   6   22.54    0.78
  -2   4   6   22.81    0.91
   2  -4   6   22.62    0.81
  -2   6  -4   23.33    1.05
   6  -4  -2   21.97    0.85
  -2   6  -4   22.40    0.84
   6  -4  -2   22.80    0.75
  -6   4   2   22.48    0.77
  -4   6  -2   21.88    0.84
  -2  -4   6   22.21    0.77
  -4   2   6   23.81    0.73
  -4   2   6   23.73    0.81
   4   6   2   23.27    0.84
   4   6   2   21.92    0.83
  -4   6  -2   22.46    0.84
  -2   6   4   21.83    0.80
  -2  -4   6   21.64    0.89
  -2   6   4   22.02    0.97
   2  -6   4   24.44    0.83
   2  -6   4   24.16    1.01
   2   6  -4   22.58    0.82
   2   6  -4   22.66    0.82
   2   6  -4   22.39    0.99
  -4   6  -2   21.24    1.02
   6   2   4   22.10    0.81
   6   2   4   22.20    0.81
   4  -2   6   22.26    0.81
   4  -2   6   22.33    0.82
   4  -2   6   22.37    0.98
  -2   4  -6   21.63    0.83
   4   6   2   22.53    1.02
   6  -2  -4   21.43    0.69
  -6   4   2   22.93    0.90
   6   2   4   21.65    0.97
   6  -4   2   21.66    0.79
   6  -4   2   22.19    0.79
   6  -4   2   21.24    0.93
   6   4  -2   23.29    0.78
   6   4  -2   22.82    0.91
   2   4   6   21.23    0.80
   2   4   6   21.16    0.95
  -2   6   4   21.94    0.80
  -6   4  -4   34.50    1.19
  -6   4   4   32.25    1.07
  -6   4   4   32.37    1.19
  -4  -4   6   32.12    1.08
  -4  -4   6   32.16    1.19
  -4   4  -6   31.77    1.18
  -4   4   6   33.56    1.09
  -4   4   6   35.41    1.23
  -4   6  -4   32.71    1.19
  -4   6  -4   31.80    1.18
  -4   6  -4   32.24    1.41
  -4   6   4   32.25    1.13
  -4   6   4   33.84    1.13
  -4   6   4   33.72    1.31
   4  -6   4   31.99    1.16
   4  -6   4   31.24    1.34
   4  -4   6   33.00    1.15
   4  -4   6   33.54    1.17
   4  -4   6   33.10    1.37
   4   4  -6   33.44    1.09
   4   4  -6   34.66    1.22
   4   4   6   31.10    1.15
   4   4   6   32.10    1.15
   4   4   6   31.35    1.34
   4   6  -4   35.65    1.15
   4   6  -4   34.55    1.14
   4   6  -4   33.66    1.32
   4   6   4   31.38    1.16
   4   6   4   31.66    1.17
   4   6   4   31.43    1.37
   6  -4   4   33.26    1.15
   6  -4   4   33.73    1.16
   6  -4   4   33.82    1.35
   6   4  -4   37.10    1.09
   6   4  -4   37.82    1.22
   6   4   4   33.15    1.16
   6   4   4   32.63    1.16
   6   4   4   33.40    1.36
  -6   6   0   28.38    1.00
  -6   6   0   28.25    1.00
  -6   6   0   28.97    1.21
   0  -6   6   27.17    0.98
   0  -6   6   28.41    1.18
   0   6  -6   29.46    1.02
   0   6  -6   28.93    1.01
   0   6  -6   30.26    1.24
   0   6   6   26.42    0.98
   0   6   6   28.28    0.99
   0   6   6   28.11    1.18
   6  -6   0   28.13    0.97
   6  -6   0   27.15    1.12
   6   0   6   25.77    0.98
   6   0   6   27.04    0.99
   6   0   6   27.01    1.18
   6   6   0   26.36    0.99
   6   6   0   26.99    1.00
   6   6   0   27.71    1.20
  -6   6  -2  448.09   13.91
  -6   6  -2  474.62   13.93
  -6   6  -2  461.28   14.20
  -6   6   2  450.28   13.87
  -6   6   2  455.90   13.87
  -6   6   2  456.29   14.08
  -2  -6   6  451.41   13.86
  -2  -6   6  457.98   14.07
  -2   6  -6  452.70   13.93
  -2   6  -6  462.08   13.93
  -2   6  -6  447.48   14.21
  -2   6   6  456.45   13.87
  -2   6   6  474.19   13.88
  -2   6   6  466.22   14.09
   2  -6   6  466.47   13.89
   2  -6   6  469.26   13.90
   2  -6   6  457.96   14.15
   2   6  -6  468.53   13.89
   2   6  -6  460.10   13.88
   2   6  -6  469.22   14.12
   2   6   6  457.92   13.89
   2   6   6  463.37   13.90
   2   6   6  452.03   14.15
   6  -6   2  479.32   13.89
   6  -6   2  477.18   14.12
   6  -2   6  440.30   13.89
   6  -2   6  440.82   13.90
   6  -2   6  449.35   14.15
   6   2   6  466.99   13.90
   6   2   6  458.05   13.90
   6   2   6  463.51   14.16
   6   6  -2  461.30   13.88
   6   6  -2  477.61   13.89
   6   6  -2  473.66   14.12
   6   6   2  445.65   13.91
   6   6   2  459.34   13.92
   6   6   2  447.82   14.19
  -6   4  -6    7.40    0.43
  -6   6  -4    7.63    0.43
  -6   6  -4    8.08    0.44
  -6   6  -4    8.74    0.63
  -6   6   4    8.40    0.38
  -6   6   4    8.28    0.38
  -6   6   4    8.14    0.50
  -4  -6   6    8.06    0.37
  -4  -6   6    8.42    0.49
  -4   6  -6    8.89    0.45
  -4   6  -6    8.68    0.63
  -4   6   6    8.94    0.39
  -4   6   6    8.98    0.39
  -4   6   6    8.06    0.51
   4  -6   6    9.98    0.44
   4  -6   6   10.18    0.44
   4  -6   6   10.06    0.62
   4   6  -6    8.92    0.39
   4   6  -6    8.21    0.38
   4   6  -6    8.78    0.53
   4   6   6    8.51    0.43
   4   6   6    8.42    0.43
   4   6   6    9.24    0.61
   6  -6   4    7.81    0.40
   6  -6   4    8.37    0.41
   6  -6   4    8.86    0.58
   6  -4   6    7.77    0.41
   6  -4   6    7.57    0.41
   6  -4   6    7.88    0.56
   6   4   6    7.76    0.42
   6   4   6    7.95    0.57
   6   6  -4    8.70    0.39
   6   6  -4    8.64    0.39
   6   6  -4    8.20    0.52
   6   6   4    7.75    0.42
   6   6   4    8.08    0.43
   6   6   4    8.09    0.58
   6  -6   6  354.23   10.94
   6  -6   6  366.39   11.27
   6   6   6  362.00   10.97
   6   6   6  362.01   10.98
   6   6   6  353.60   11.30
  -1  -1   7   66.85    2.19
  -1  -1   7   71.99    2.20
  -1  -1   7   69.84    2.32
  -1   1   7   67.63    2.19
  -1   1   7   71.82    2.20
  -1   1   7   70.77    2.32
  -1   7  -1   74.57    2.30
  -1   7  -1   72.26    2.30
  -1   7  -1   70.60    2.53
  -1   7   1   69.55    2.28
  -1   7   1   67.86    2.28
  -1   7   1   70.00    2.51
   1  -1   7   67.46    2.22
   1  -1   7   71.24    2.23
   1  -1   7   71.85    2.40
   1   1   7   69.97    2.22
   1   1   7   71.32    2.23
   1   1   7   73.22    2.39
   1   7  -1   74.00    2.29
   1   7  -1   73.93    2.29
   1   7  -1   69.39    2.51
   1   7   1   70.36    2.29
   1   7   1   68.87    2.28
   1   7   1   65.50    2.49
   7  -1  -1   73.65    2.18
   7  -1  -1   71.86    2.26
   7  -1   1   65.64    2.20
   7  -1   1   71.17    2.21
   7  -1   1   71.81    2.35
   7   1  -1   73.42    2.18
   7   1  -1   70.69    2.27
   7   1   1   67.66    2.21
   7   1   1   71.70    2.21
   7   1   1   72.26    2.35
   3   1   7   21.90    0.95
  -1   7  -3   21.27    0.82
  -1   7  -3   21.30    0.82
  -3   7   1   20.35    0.80
  -3   7   1   20.28    0.80
  -3   7   1   21.73    1.01
   7   3   1   20.53    0.89
   7  -1   3   20.33    0.76
   7  -1   3   21.95    0.77
   1   7   3   20.82    0.81
  -1   3   7   20.17    0.73
  -1   3   7   21.20    0.74
  -1   3   7   21.23    0.86
   1  -3   7   20.48    0.76
   1  -3   7   21.44    0.77
   1  -3   7   22.71    0.94
   1   3  -7   22.26    0.76
   3   1   7   21.70    0.78
   3   1   7   20.72    0.78
   7  -3  -1   21.55    0.72
   3   7  -1   21.16    0.81
   3   7  -1   21.29    0.81
   3   7  -1   20.72    0.99
   1   7   3   23.79    1.04
   1   7   3   22.64    0.82
   7  -3  -1   21.35    0.82
   7   3   1   19.95    0.75
   7   3   1   21.66    0.76
   7  -1   3   20.94    0.91
   7   1  -3   24.95    0.67
  -1   7  -3   22.41    1.03
  -3  -1   7   20.19    0.78
  -3  -1   7   20.17    0.70
  -7   3  -1   21.18    0.77
   3   7   1   19.93    0.81
   1   3   7   20.80    0.76
   1   3   7   19.77    0.89
  -3   7  -1   22.43    0.83
   3   7   1   20.29    1.00
   7   1   3   20.59    0.77
   7  -3   1   21.48    0.75
  -1   3  -7   21.45    0.78
   3   7   1   20.07    0.81
   7   3  -1   23.52    0.88
  -1  -3   7   21.19    0.75
  -1  -3   7   21.39    0.88
   7   1   3   20.09    0.90
  -1   7   3   20.53    0.98
   1   7  -3   22.37    0.82
   1   7  -3   22.20    0.82
   1   7  -3   21.23    1.00
  -3   7  -1   21.40    0.82
   7   3  -1   22.02    0.74
   7   1   3   21.05    0.76
   3  -1   7   20.79    0.77
   3  -1   7   21.24    0.78
  -3   7  -1   21.37    1.03
   3  -1   7   22.07    0.96
   1   3   7   20.37    0.76
  -1   7   3   20.85    0.80
  -1   7   3   21.51    0.80
   7  -3   1   21.33    0.74
  -3   1   7   21.26    0.70
  -3   1   7   21.71    0.78
   7  -3   1   22.53    0.89
  -1  -3   7   21.07    0.74
  -3   7  -3   82.26    2.65
  -3   7  -3   82.13    2.64
  -3   7  -3   78.86    2.89
   7   3   3   81.12    2.79
  -3   3   7   83.71    2.53
  -3   3   7   83.01    2.65
  -3  -3   7   78.51    2.52
  -3  -3   7   78.19    2.63
  -3   3  -7   80.69    2.62
  -3   7   3   80.50    2.60
   3  -3   7   82.67    2.61
   3  -3   7   81.70    2.82
   3   7  -3   83.78    2.62
  -7   3  -3   78.76    2.60
   3   7  -3   81.81    2.61
   3   7  -3   83.69    2.86
   3   7   3   77.36    2.62
   3   7   3   78.82    2.63
   3   7   3   74.26    2.85
   7  -3  -3   81.53    2.49
   7  -3  -3   84.23    2.58
   7  -3   3   79.27    2.57
   7  -3   3   80.23    2.58
   7  -3   3   80.31    2.77
   7   3  -3   92.39    2.52
   7   3  -3   93.66    2.64
   7   3   3   82.44    2.59
   7   3   3   81.16    2.59
   3  -7   3   77.37    2.81
  -3   7   3   83.15    2.61
  -3   7   3   78.37    2.82
   3  -7   3   81.32    2.61
   3  -3   7   79.24    2.59
   5   1   7   35.80    1.23
   5  -7   1   36.85    1.42
   5   7  -1   35.46    1.24
   5   7  -1   34.57    1.24
   5   7  -1   36.10    1.47
  -5   7   1   34.10    1.44
  -1   5   7   36.28    1.19
   1   7   5   34.90    1.24
   7  -1   5   34.17    1.21
   7  -1   5   33.87    1.22
   7  -1   5   34.50    1.41
   1  -5   7   33.70    1.40
   1   5  -7   36.15    1.21
   5  -7   1   34.34    1.21
  -1   7  -5   37.24    1.27
  -5   7   1   35.53    1.24
   7   5   1   33.76    1.21
   7   5   1   34.01    1.21
   7   5   1   34.89    1.41
  -7   5  -1   31.60    1.39
  -1   5   7   34.07    1.19
  -1   5   7   35.79    1.36
   1  -5   7   36.04    1.21
   1  -5   7   35.39    1.21
  -1   7  -5   36.00    1.26
   1   7   5   36.37    1.25
   1   5  -7   37.13    1.22
   1   5  -7   37.18    1.42
   5   1   7   36.48    1.23
  -1   7  -5   36.07    1.51
  -7   5  -1   35.64    1.22
   7  -5  -1   35.44    1.17
   7  -5  -1   36.96    1.32
  -7   5  -1   33.81    1.22
  -1  -7   5   34.72    1.21
  -5   7   1   37.07    1.24
   5   1   7   36.92    1.45
   1   7   5   35.45    1.46
  -1  -5   7   35.78    1.20
   7   1   5   33.82    1.22
   5  -1   7   34.52    1.43
  -5   7  -1   35.41    1.48
  -1  -5   7   35.34    1.19
   5  -1   7   34.34    1.23
  -5   7  -1   36.35    1.26
  -5   7  -1   35.44    1.25
   5  -1   7   32.76    1.21
   7  -5   1   34.10    1.19
   7  -5   1   35.66    1.36
   7   5  -1   36.30    1.20
   7   5  -1   36.15    1.21
   7   5  -1   36.44    1.40
  -1  -5   7   35.26    1.37
  -1   5  -7   34.50    1.23
  -1   5  -7   35.62    1.45
   1   7  -5   35.38    1.24
   1   7  -5   35.27    1.24
   1   7  -5   36.18    1.47
   5   7   1   32.63    1.46
   5   7   1   34.54    1.25
  -1   7   5   35.49    1.44
   1  -7   5   35.38    1.22
   1  -7   5   36.00    1.44
   1   5   7   35.53    1.21
  -1   7   5   35.07    1.23
  -1   7   5   35.85    1.23
   7   1   5   34.85    1.21
   1   5   7   35.06    1.20
   7  -5   1   33.62    1.18
  -7   5   1   35.60    1.19
  -7   5   1   35.41    1.37
   5   7   1   33.36    1.24
  -7   5   1   34.69    1.19
   1   5   7   35.67    1.40
   7   1   5   35.55    1.42
   3   7   5   46.09    1.82
  -3   7  -5   45.14    1.58
   7  -3   5   46.61    1.76
   3   7   5   44.62    1.57
   7  -3   5   46.00    1.54
   3   5  -7   45.59    1.50
   7  -3   5   46.69    1.54
   5   7  -3   46.36    1.76
   3  -5   7   46.10    1.55
   7   5   3   44.26    1.54
   5  -7   3   44.98    1.77
   5   7  -3   46.24    1.54
   5   7  -3   47.30    1.54
   3   5  -7   45.95    1.67
   5   3   7   45.38    1.55
   5   3   7   45.49    1.55
   7  -5  -3   47.21    1.46
   5  -7   3   47.18    1.55
  -7   5  -3   47.16    1.57
   3  -5   7   43.63    1.75
  -3   7  -5   44.76    1.58
  -5   7   3   46.00    1.53
  -5   7   3   45.63    1.53
  -5   7   3   44.95    1.73
   7   5   3   44.78    1.55
   7   5   3   45.89    1.78
  -3   5   7   46.19    1.66
  -3   7  -5   42.73    1.83
  -3   5   7   46.58    1.50
  -3   5   7   48.17    1.50
   7  -5  -3   43.13    1.57
   3  -5   7   44.61    1.53
   3   7   5   42.55    1.55
   3   5  -7   46.32    1.50
   5   7   3   43.29    1.81
  -3  -5   7   44.27    1.63
   5   7   3   42.33    1.56
  -7   5   3   43.92    1.47
  -7   5   3   44.00    1.63
  -5   7  -3   45.63    1.58
   7   3   5   45.35    1.77
  -3   5  -7   43.98    1.57
  -3   7   5   44.96    1.53
  -3   7   5   45.75    1.53
  -3   7   5   46.13    1.74
   3  -7   5   44.16    1.55
   3  -7   5   42.03    1.75
   3   7  -5   46.51    1.54
   3   7  -5   47.13    1.54
   3   7  -5   47.28    1.77
  -5   7  -3   45.78    1.59
   7   3   5   42.88    1.53
   7   3   5   45.38    1.55
   5  -3   7   46.20    1.55
   5  -3   7   46.86    1.56
   3   5   7   43.96    1.53
   3   5   7   45.06    1.54
   3   5   7   43.89    1.75
  -5   7  -3   46.09    1.86
   7  -5   3   45.07    1.52
   7  -5   3   44.75    1.53
   7  -5   3   45.71    1.74
   7   5  -3   51.46    1.50
   7   5  -3   50.44    1.69
   5   7   3   45.52    1.58
  -3  -5   7   43.82    1.47
  -3  -5   7   44.62    1.48
  -7   5  -5   33.93    1.30
  -5  -5   7   35.86    1.18
  -5  -5   7   35.92    1.32
  -5   5  -7   36.84    1.32
  -5   7  -5   35.55    1.32
  -5   7  -5   37.13    1.33
  -5   7  -5   36.25    1.60
  -5   7   5   35.79    1.24
  -5   7   5   36.83    1.24
  -5   7   5   35.84    1.43
   5  -7   5   35.06    1.27
   5  -7   5   35.47    1.28
   5  -7   5   34.36    1.50
   5  -5   7   34.91    1.27
   5  -5   7   36.13    1.29
   5  -5   7   36.27    1.53
   5   5   7   35.75    1.29
   5   5   7   34.75    1.28
   5   5   7   33.49    1.50
   5   7  -5   39.85    1.26
   5   7  -5   38.17    1.26
   5   7  -5   37.86    1.47
   5   7   5   36.03    1.30
   5   7   5   35.50    1.30
   5   7   5   35.46    1.55
   7  -5   5   36.36    1.27
   7  -5   5   36.03    1.28
   7  -5   5   35.75    1.50
   7   5   5   35.98    1.29
   7   5   5   35.59    1.29
   7   5   5   35.07    1.52
  -7   7  -1   53.84    1.80
  -7   7  -1   53.62    1.79
  -7   7  -1   55.63    2.07
  -7   7   1   54.07    1.77
  -7   7   1   53.47    1.77
  -7   7   1   51.52    2.00
  -1  -7   7   53.24    1.76
  -1  -7   7   53.97    1.99
  -1   7  -7   51.46    1.80
  -1   7  -7   53.51    1.81
  -1   7  -7   51.92    2.07
  -1   7   7   53.16    1.77
  -1   7   7   54.48    1.77
  -1   7   7   52.29    2.00
   1  -7   7   51.82    1.76
   1  -7   7   53.21    1.78
   1  -7   7   53.82    2.03
   1   7  -7   54.56    1.79
   1   7  -7   55.23    1.79
   1   7  -7   54.93    2.05
   1   7   7   52.17    1.78
   1   7   7   53.39    1.79
   1   7   7   55.59    2.05
   7  -7  -1   50.30    1.72
   7  -7  -1   52.16    1.92
   7  -7   1   53.97    1.76
   7  -7   1   53.37    1.97
   7  -1   7   50.15    1.77
   7  -1   7   52.79    1.79
   7  -1   7   52.81    2.03
   7   1   7   50.76    1.77
   7   1   7   53.41    1.79
   7   1   7   50.82    2.01
   7   7  -1   52.66    1.78
   7   7  -1   53.63    1.78
   7   7  -1   53.95    2.04
   7   7   1   49.12    1.78
   7   7   1   48.90    1.79
   7   7   1   50.31    2.05
  -7   7  -3    9.99    0.52
  -7   7  -3   10.44    0.53
  -7   7  -3   10.36    0.72
  -7   7   3   10.30    0.47
  -7   7   3   10.03    0.46
  -7   7   3   10.85    0.64
  -3  -7   7   10.88    0.47
  -3  -7   7   10.84    0.62
  -3   7  -7   10.33    0.53
  -3   7  -7   10.15    0.53
  -3   7  -7   10.39    0.72
  -3   7   7   10.89    0.48
  -3   7   7   11.01    0.48
  -3   7   7   10.54    0.64
   3  -7   7   10.55    0.50
   3  -7   7   10.26    0.50
   3  -7   7   11.31    0.71
   3   7  -7   11.46    0.50
   3   7  -7   11.01    0.49
   3   7  -7   10.25    0.65
   3   7   7   10.54    0.51
   3   7   7   10.40    0.51
   3   7   7    9.03    0.67
   7  -7  -3   11.20    0.45
   7  -7   3    9.74    0.48
   7  -7   3   10.57    0.49
   7  -7   3   10.61    0.66
   7  -3   7   10.49    0.51
   7  -3   7   10.94    0.52
   7  -3   7   10.50    0.69
   7   3   7    9.49    0.49
   7   3   7   10.41    0.50
   7   3   7    9.81    0.67
   7   7  -3   11.99    0.50
   7   7  -3   11.51    0.50
   7   7  -3   12.17    0.69
   7   7   3   11.26    0.54
   7   7   3   11.28    0.54
   7   7   3   10.27    0.72
  -7   5  -7   24.14    0.99
  -7   7  -5   24.61    0.99
  -5  -7   7   23.20    0.86
  -5  -7   7   22.65    1.02
  -5   7  -7   22.31    0.97
  -5   7   7   28.53    0.90
  -5   7   7   27.63    1.11
   5  -7   7   23.24    0.93
   5  -7   7   22.07    1.16
   5   7  -7   25.93    0.90
   5   7  -7   24.89    1.09
   5   7   7   23.40    0.96
   5   7   7   24.48    0.97
   5   7   7   24.63    1.24
   7  -7   5   22.16    0.92
   7  -7   5   24.19    0.94
   7  -7   5   23.99    1.17
   7  -5   7   22.86    0.93
   7  -5   7   24.04    0.95
   7  -5   7   23.55    1.18
   7   5   7   24.65    0.96
   7   5   7   23.47    0.96
   7   5   7   25.47    1.23
   7   7   5   22.73    0.95
   7   7   5   23.41    0.97
   7   7   5   24.97    1.25
  -7   7  -7   48.00    1.74
   7  -7   7   48.67    1.69
   7  -7   7   47.22    1.70
   7  -7   7   49.13    2.01
   7   7   7   48.87    1.73
   7   7   7   47.82    1.73
   7   7   7   47.06    2.06
   0   0   8  568.88   17.39
   0   0   8  582.31   17.40
   0   0   8  586.80   17.56
   0   8   0  576.82   17.49
   0   8   0  569.20   17.48
   0   8   0  575.64   17.77
   8   0   0  594.52   17.37
   8   0   0  583.13   17.50
  -2   8   0   12.89    0.57
  -2   8   0   13.48    0.58
  -2   8   0   13.17    0.77
   0  -2   8   12.54    0.50
   0  -2   8   12.67    0.51
   0  -2   8   12.90    0.64
   0   2   8   13.28    0.50
   0   2   8   12.91    0.50
   0   2   8   13.66    0.63
   2   8   0   13.27    0.58
   2   8   0   13.35    0.58
   2   8   0   12.46    0.75
   8   0  -2   13.25    0.44
   8   0  -2   13.20    0.50
   8   0   2   12.63    0.50
   8   0   2   12.78    0.50
   8   0   2   11.91    0.62
   0   8   2   12.17    0.74
   2   0   8   12.65    0.51
   2   0   8   12.95    0.52
   2   0   8   12.43    0.66
   8  -2   0   12.37    0.48
   8  -2   0   13.70    0.49
   8  -2   0   13.70    0.60
   8   2   0   12.11    0.48
   8   2   0   12.57    0.49
   8   2   0   12.58    0.60
  -2   0   8   12.98    0.47
  -2   0   8   12.68    0.47
  -2   0   8   12.91    0.57
   0   8  -2   12.26    0.56
   0   8  -2   12.87    0.57
   0   8  -2   12.99    0.76
   0   8   2   11.57    0.55
   0   8   2   12.84    0.57
  -2   8  -2   17.65    0.94
  -2   8   2   17.53    0.71
  -2   8   2   16.98    0.70
  -2   8   2   16.14    0.89
   2  -2   8   17.13    0.67
   2  -2   8   16.86    0.68
   2  -2   8   17.13    0.84
   2   2   8   16.87    0.66
  -2   8  -2   18.03    0.74
  -2   8  -2   18.03    0.73
  -2  -2   8   16.50    0.62
  -2  -2   8   16.79    0.63
  -2  -2   8   18.14    0.75
  -2   2   8   17.64    0.62
  -2   2   8   17.00    0.62
  -2   2   8   17.81    0.74
   8  -2   2   17.95    0.66
   8   2   2   18.32    0.66
   8   2   2   18.34    0.67
   8   2   2   18.19    0.82
   2   2   8   17.78    0.67
   2   2   8   17.29    0.82
   2   8  -2   17.25    0.72
   2   8  -2   17.93    0.72
   2   8  -2   18.31    0.93
   2   8   2   16.45    0.71
   2   8   2   16.72    0.72
   2   8   2   17.13    0.92
   8  -2  -2   18.83    0.60
   8  -2  -2   18.15    0.67
   8   2  -2   19.82    0.72
   8  -2   2   17.91    0.66
   8  -2   2   17.34    0.80
   8   2  -2   20.22    0.62
   0   8   4  385.88   11.49
   4   8   0  357.44   11.49
  -8   4   0  360.35   11.41
  -4   0   8  394.48   11.33
   0   8  -4  381.79   11.50
   0   8  -4  379.35   11.50
   0   8  -4  389.18   11.82
   0   4   8  384.38   11.42
   0   4   8  383.58   11.62
  -4   8   0  384.37   11.50
  -4   8   0  390.14   11.50
  -4   8   0  360.91   11.78
   0  -4   8  379.39   11.42
   0  -4   8  385.87   11.43
   0  -4   8  384.70   11.65
   0   4  -8  373.97   11.44
   0   4   8  376.97   11.41
   8   0   4  368.62   11.43
   8   0   4  374.41   11.44
   8   0   4  376.32   11.66
   8   4   0  382.17   11.42
   8   4   0  381.87   11.62
   8  -4   0  363.98   11.39
   8  -4   0  396.98   11.40
   8  -4   0  373.21   11.56
   8   4   0  366.85   11.41
   4   0   8  387.12   11.71
   4   0   8  381.24   11.45
   4   0   8  383.34   11.46
   0   8   4  387.08   11.79
   0   8   4  390.44   11.50
   4   8   0  348.13   11.77
   4   8   0  360.54   11.49
   4   2   8   16.68    0.69
   2  -4   8   18.85    0.71
   8   4   2   17.26    0.69
   2  -4   8   17.79    0.69
  -2   4   8   19.09    0.81
   2   8   4   18.39    0.74
   2   8   4   19.43    0.97
   2   8   4   18.40    0.74
   8  -2   4   16.81    0.68
   8  -2   4   18.26    0.70
   8  -2   4   18.21    0.87
   4   8  -2   18.34    0.73
  -4   8   2   16.65    0.71
  -4   8   2   17.51    0.72
  -8   4  -2   16.96    0.69
  -4  -2   8   17.15    0.60
  -4  -2   8   17.18    0.69
   2  -4   8   18.16    0.88
   2   4  -8   18.25    0.67
  -2   8  -4   18.39    0.75
  -2   8  -4   18.28    0.97
   8   4   2   17.14    0.69
   4  -8   2   17.82    0.71
   4  -8   2   17.15    0.88
   4   8  -2   18.56    0.73
  -2   8  -4   17.61    0.75
   4   8  -2   17.92    0.93
   8  -4  -2   16.86    0.73
   4   2   8   16.77    0.70
   4   2   8   17.51    0.88
  -2   4   8   17.82    0.65
  -2   4   8   19.07    0.66
   8  -4  -2   17.76    0.63
   8   4   2   18.39    0.87
  -4   8   2   16.27    0.90
   8   2   4   18.73    0.88
   2   8  -4   17.84    0.94
   2   4   8   18.08    0.69
   8   2   4   17.75    0.70
  -2   8   4   17.50    0.72
   2   8  -4   18.76    0.73
   4   8   2   16.45    0.73
   8  -4   2   17.18    0.82
   8   4  -2   20.02    0.67
   8   4  -2   21.00    0.83
  -4   8  -2   18.23    0.75
   2   4   8   18.86    0.88
   8   2   4   16.60    0.69
  -4   2   8   18.49    0.61
  -2  -4   8   17.30    0.65
  -2  -4   8   17.52    0.65
   8  -4   2   17.07    0.67
  -2   4  -8   17.47    0.71
   2  -8   4   17.10    0.89
   2   8  -4   17.34    0.72
   4  -2   8   16.90    0.70
   4  -2   8   17.02    0.70
   4  -2   8   17.99    0.90
  -4   8  -2   18.13    0.74
  -4   8  -2   18.08    0.97
  -2   8   4   17.88    0.91
   2  -8   4   18.80    0.72
   2   4   8   19.12    0.70
  -2  -4   8   18.04    0.80
   8  -4   2   17.41    0.67
  -2   8   4   18.09    0.72
   4   8   2   16.06    0.93
   4   8   2   16.73    0.74
   8   4   4  431.16   13.25
   4  -8   4  453.32   13.58
   8   4   4  441.46   13.54
  -4  -4   8  426.88   13.15
  -8   4  -4  421.23   13.27
   4   8  -4  440.27   13.56
   4   8  -4  444.79   13.27
   4   8  -4  441.70   13.27
  -4   4  -8  437.03   13.30
  -4   8   4  435.98   13.25
   8   4   4  430.92   13.26
   4   4   8  440.93   13.26
   4   4   8  430.68   13.26
   4   4   8  437.79   13.54
   4   8   4  429.16   13.31
  -4  -4   8  415.45   13.29
   4  -4   8  437.97   13.56
  -4   4   8  460.27   13.17
  -4   4   8  470.27   13.35
  -4   8  -4  431.16   13.31
  -4   8  -4  433.32   13.31
  -4   8  -4  427.23   13.67
  -4   8   4  444.01   13.26
   4   8   4  428.33   13.30
  -4   8   4  447.31   13.53
   4  -8   4  456.99   13.28
   8  -4   4  430.49   13.50
   4  -4   8  440.99   13.26
   4  -4   8  433.32   13.27
   4   8   4  420.82   13.63
   8  -4   4  443.91   13.24
   8  -4   4  445.76   13.25
   0   8   6   22.29    0.87
   0   8  -6   21.26    1.10
   8  -6   0   22.35    0.81
   0   8   6   22.43    0.87
   0   6  -8   21.63    1.06
   0   6   8   21.61    0.83
   0   6   8   22.84    0.84
   0   6   8   21.69    1.02
   6  -8   0   22.50    0.84
   6  -8   0   19.47    0.99
   6   8   0   22.41    0.88
   6   8   0   21.91    0.88
   6   8   0   20.76    1.09
   8   0   6   22.12    0.85
   8   0   6   23.78    0.86
   8   0   6   21.70    1.05
   8  -6   0   22.10    0.81
  -8   6   0   22.66    0.84
  -8   6   0   22.01    0.84
  -8   6   0   23.92    1.06
   0  -8   6   22.19    0.85
   0  -8   6   22.48    1.06
   0   8  -6   22.74    0.89
   0   8  -6   22.75    0.89
  -6   8   0   22.52    0.88
  -6   8   0   22.85    0.88
  -6   8   0   21.55    1.08
   0  -6   8   21.94    0.83
   0  -6   8   22.39    0.84
   0  -6   8   22.76    1.04
   0   6  -8   22.90    0.87
   6   0   8   23.05    1.08
   6   0   8   21.48    0.85
   6   0   8   21.98    0.86
   0   8   6   20.46    1.06
   8  -6   0   22.32    0.98
   8   6   0   23.08    0.86
   8   6   0   22.00    0.85
   8   6   0   21.45    1.05
  -8   6  -2   13.33    0.58
  -2   8  -6   11.92    0.59
  -2   8  -6   12.69    0.59
   6   8  -2   13.26    0.58
   6  -8   2   11.63    0.54
   6  -8   2   13.35    0.75
  -6   8   2   12.36    0.56
   2  -6   8   12.54    0.55
   2  -6   8   12.60    0.56
   2  -6   8   11.55    0.72
   2   6  -8   12.31    0.54
   2   6  -8   12.52    0.54
   2   6  -8   12.58    0.71
   2   8   6   12.35    0.58
   2   8   6   12.71    0.79
   8   6   2   12.69    0.57
  -2   8  -6   12.20    0.80
  -2  -8   6   12.25    0.54
  -2  -8   6   12.02    0.70
   6   2   8   12.36    0.57
   6   2   8   12.32    0.75
   8  -6  -2   13.38    0.51
   8  -2   6   12.85    0.56
   8  -2   6   12.31    0.73
  -6   8   2   13.64    0.57
  -6   8   2   10.97    0.71
  -2   6   8   13.32    0.71
  -2   6   8   12.88    0.54
  -2   6   8   12.51    0.53
   2   8   6   12.70    0.58
   8   6   2   12.51    0.57
   8   6   2   14.41    0.80
   8  -6  -2   13.16    0.64
   6   8  -2   11.78    0.75
   6   2   8   12.59    0.57
   8  -2   6   11.97    0.55
   6   8  -2   12.96    0.57
   8   6  -2   14.37    0.55
  -2  -6   8   12.55    0.68
   2  -8   6   12.72    0.76
   2   8  -6   11.98    0.56
   2   8  -6   11.96    0.56
   2   8  -6   13.75    0.78
   6  -2   8   12.21    0.56
   2   6   8   12.40    0.55
  -8   6   2   12.22    0.52
  -8   6   2   12.86    0.52
  -8   6   2   12.80    0.68
   6  -2   8   13.46    0.78
   2  -8   6   13.43    0.58
  -2   8   6   12.82    0.56
   6   8   2   12.24    0.59
   6   8   2   12.31    0.59
  -2   6  -8   12.43    0.58
  -2   8   6   11.73    0.55
   8   2   6   12.59    0.56
   8  -6   2   11.96    0.53
   2   6   8   12.72    0.56
   8   2   6   12.44    0.74
   6  -2   8   12.01    0.56
   8   6  -2   14.03    0.55
   8   6  -2   14.82    0.75
  -2   8   6   12.70    0.75
  -6   8  -2   12.82    0.60
  -6   8  -2   12.40    0.59
  -6   8  -2   11.76    0.79
   2   6   8   11.34    0.72
   8  -6   2   13.18    0.55
   8  -6   2   12.55    0.71
  -2  -6   8   11.87    0.51
   6   8   2   11.06    0.77
  -2  -6   8   12.70    0.53
   4   8   6    8.13    0.45
   4   8   6    7.47    0.62
   8  -4   6    8.11    0.59
   4  -6   8    9.68    0.65
  -4  -8   6    7.60    0.38
   6  -8   4    7.93    0.42
   6  -8   4    7.68    0.42
   6  -8   4    8.51    0.61
   6   8  -4    9.08    0.44
   6   8  -4    8.92    0.43
   6   8  -4    8.82    0.61
   6   4   8    7.63    0.43
   4   8   6    8.41    0.45
  -4   6   8    8.06    0.38
   8  -4   6    8.12    0.43
   8  -4   6    7.64    0.42
  -8   6  -4    7.30    0.44
   8   6   4    7.45    0.43
   8   6   4    6.93    0.58
  -4   8  -6    8.62    0.67
  -6   8   4    8.78    0.42
  -6   8   4    8.80    0.41
  -6   8   4    8.38    0.58
  -4   8  -6    7.03    0.44
   4   6  -8    9.02    0.54
  -4   8  -6    7.52    0.45
   8   6   4    8.54    0.44
  -4   6   8    7.22    0.50
   4  -6   8    8.43    0.44
   4  -6   8    8.20    0.43
   6   4   8    8.43    0.63
   4   6  -8    8.53    0.38
   6   4   8    7.43    0.43
   4   6   8    7.43    0.42
  -4  -6   8    7.60    0.48
   4   6   8    7.35    0.59
   6   8   4    8.95    0.48
  -4  -6   8    7.53    0.36
  -6   8  -4    7.63    0.64
  -4   8   6    8.04    0.41
  -4   8   6    7.62    0.40
  -4   8   6    7.05    0.54
   4  -8   6    7.43    0.42
   4  -8   6    7.90    0.43
   4  -8   6    7.08    0.58
   4   8  -6    8.10    0.42
   4   8  -6    8.41    0.42
   4   8  -6    7.49    0.57
  -4   6  -8    7.54    0.45
   8   4   6    7.68    0.42
   8   4   6    6.89    0.57
   6  -4   8    7.91    0.43
   6  -4   8    7.65    0.43
   4   6   8    7.40    0.42
   6   8   4    7.43    0.45
   8   4   6    8.02    0.43
   8  -6   4    7.73    0.41
   8  -6   4    7.73    0.41
   8  -6   4    8.92    0.60
   6   8   4    9.41    0.70
  -6   8  -4    7.68    0.45
  -6   8  -4    8.14    0.46
  -8   6  -6   16.42    0.73
  -6   6  -8   15.10    0.72
  -6   8  -6   14.29    0.72
  -6   8  -6   16.04    1.00
   6  -8   6   15.22    0.68
   6  -8   6   15.55    0.69
   6  -8   6   15.39    0.92
   6  -6   8   15.84    0.69
   6  -6   8   15.80    0.70
   6  -6   8   16.09    0.92
   6   6   8   15.51    0.71
   6   6   8   15.84    0.95
   6   8   6   16.02    0.73
   6   8   6   15.39    0.72
   6   8   6   14.53    0.95
   8  -6   6   16.03    0.68
   8  -6   6   15.74    0.69
   8  -6   6   15.48    0.89
   8   6   6   16.33    0.72
   8   6   6   15.31    0.71
   8   6   6   16.74    0.97
  -8   8   0  311.45    9.68
  -8   8   0  314.09    9.68
  -8   8   0  308.01    9.99
   0  -8   8  323.10    9.66
   0  -8   8  328.19    9.68
   0  -8   8  320.83    9.98
   0   8  -8  314.31    9.71
   0   8  -8  327.82    9.72
   0   8  -8  315.49   10.05
   0   8   8  313.28    9.68
   0   8   8  312.41    9.68
   0   8   8  310.27   10.00
   8  -8   0  323.47    9.64
   8  -8   0  321.19    9.90
   8   0   8  321.55    9.68
   8   0   8  316.48    9.69
   8   0   8  314.82   10.01
   8   8   0  308.17    9.70
   8   8   0  308.63    9.70
   8   8   0  319.57   10.07
  -8   8  -2   10.35    0.54
  -8   8  -2   11.07    0.55
  -8   8  -2   10.76    0.76
  -8   8   2   10.66    0.51
  -8   8   2   10.03    0.50
  -8   8   2   11.31    0.70
  -2  -8   8   11.59    0.52
  -2  -8   8   11.21    0.68
  -2   8  -8   11.30    0.56
  -2   8  -8   10.59    0.55
  -2   8  -8   11.57    0.78
  -2   8   8   10.96    0.52
  -2   8   8   11.85    0.53
  -2   8   8   11.70    0.72
   2  -8   8   11.24    0.53
   2  -8   8   10.75    0.53
   2  -8   8   10.13    0.71
   2   8  -8   11.26    0.53
   2   8  -8   11.78    0.54
   2   8  -8   11.26    0.73
   2   8   8   11.58    0.55
   2   8   8   10.58    0.54
   2   8   8   11.42    0.76
   8  -8  -2   10.96    0.48
   8  -8  -2   11.36    0.64
   8  -8   2    9.59    0.49
   8  -8   2   10.62    0.51
   8  -8   2   11.40    0.70
   8  -2   8   10.44    0.53
   8  -2   8   11.32    0.55
   8  -2   8   10.40    0.72
   8   2   8   10.02    0.53
   8   2   8   10.42    0.53
   8   2   8   11.16    0.74
   8   8  -2   11.58    0.54
   8   8  -2   12.47    0.55
   8   8  -2   12.06    0.75
   8   8   2   10.86    0.56
   8   8   2   10.08    0.55
   8   8   2    9.63    0.74
  -8   8  -4  232.41    7.25
  -8   8  -4  232.28    7.65
  -4  -8   8  233.59    7.14
  -4  -8   8  231.79    7.39
  -4   8  -8  225.99    7.26
  -4   8   8  234.66    7.15
  -4   8   8  243.76    7.45
   4  -8   8  231.99    7.21
   4  -8   8  227.49    7.21
   4  -8   8  231.84    7.58
   4   8  -8  240.47    7.17
   4   8  -8  238.01    7.47
   4   8   8  233.94    7.24
   4   8   8  234.48    7.24
   4   8   8  224.30    7.59
   8  -8   4  237.72    7.19
   8  -8   4  230.94    7.19
   8  -8   4  243.69    7.55
   8  -4   8  236.16    7.22
   8  -4   8  230.01    7.22
   8  -4   8  233.22    7.58
   8   4   8  233.73    7.23
   8   4   8  222.30    7.21
   8   4   8  230.56    7.58
   8   8   4  234.97    7.26
   8   8   4  229.15    7.26
   8   8   4  229.53    7.66
  -8   6  -8   12.22    0.67
  -8   8  -6   13.38    0.69
  -6   8  -8   13.14    0.68
   6  -8   8   14.06    0.65
   6  -8   8   13.05    0.64
   6  -8   8   13.49    0.88
   6   8   8   13.78    0.68
   6   8   8   12.89    0.66
   6   8   8   13.19    0.92
   8  -8   6   13.57    0.64
   8  -8   6   12.35    0.62
   8  -8   6   14.07    0.88
   8  -6   8   13.57    0.64
   8  -6   8   12.87    0.64
   8  -6   8   13.20    0.86
   8   6   8   13.44    0.67
   8   6   8   14.11    0.67
   8   6   8   12.72    0.90
   8   8   6   13.33    0.68
   8   8   6   13.15    0.67
   8   8   6   13.50    0.93
  -8   8  -8  189.38    6.01
   8  -8   8  192.37    5.94
   8  -8   8  186.95    5.94
   8  -8   8  185.84    6.34
   8   8   8  196.79    6.01
   8   8   8  183.18    5.99
   8   8   8  186.27    6.48
  -1  -1   9   31.11    1.09
  -1  -1   9   32.86    1.10
  -1  -1   9   33.58    1.25
  -1   1   9   31.77    1.10
  -1   1   9   34.21    1.11
  -1   1   9   33.43    1.25
  -1   9  -1   33.19    1.22
  -1   9  -1   31.93    1.21
  -1   9  -1   33.48    1.47
  -1   9   1   33.76    1.21
  -1   9   1   30.98    1.19
  -1   9   1   33.19    1.46
   1  -1   9   32.44    1.13
   1  -1   9   32.84    1.13
   1  -1   9   34.46    1.32
   1   1   9   32.79    1.12
   1   1   9   33.10    1.13
   1   1   9   32.12    1.29
   1   9  -1   32.16    1.21
   1   9  -1   32.65    1.21
   1   9  -1   32.60    1.46
   1   9   1   33.26    1.22
   1   9   1   31.12    1.45
   9  -1  -1   33.03    1.07
   9  -1  -1   33.81    1.17
   9  -1   1   32.60    1.10
   9  -1   1   34.89    1.11
   9  -1   1   34.54    1.26
   9   1  -1   34.27    1.08
   9   1  -1   34.04    1.19
   9   1   1   31.33    1.10
   9   1   1   33.64    1.11
   9   1   1   33.05    1.25
   9   3   1   39.86    1.32
  -3  -1   9   38.52    1.26
   9   3   1   38.61    1.31
  -3   9   1   36.64    1.39
  -3   9   1   37.50    1.39
  -3   9   1   37.33    1.64
   9  -3  -1   39.31    1.40
  -1   9  -3   41.10    1.43
  -1   9  -3   38.28    1.41
  -1   3   9   38.47    1.30
  -1   3   9   41.81    1.31
  -1   3   9   39.89    1.47
   1  -3   9   36.96    1.32
   1  -3   9   39.07    1.34
   1  -3   9   38.02    1.53
   9  -3  -1   39.86    1.27
   1   9   3   40.41    1.41
   1   9   3   39.96    1.40
   3   9  -1   37.96    1.40
   3   9  -1   38.07    1.40
   3   9  -1   37.19    1.66
  -1   9  -3   39.05    1.69
   3   1   9   38.32    1.34
   3   1   9   38.59    1.34
   9  -1   3   37.70    1.32
   9  -1   3   39.17    1.33
   9  -1   3   39.46    1.51
  -3  -1   9   39.76    1.38
   3   1   9   41.30    1.56
   9   3   1   41.92    1.51
   1   9   3   38.85    1.66
   9   1   3   40.15    1.53
   3   9   1   37.82    1.41
  -3   9  -1   38.56    1.41
   9   3  -1   42.64    1.46
  -1   9   3   38.84    1.65
   1   9  -3   42.61    1.42
   1   9  -3   39.50    1.41
   1   9  -3   38.71    1.67
   1   3   9   39.42    1.33
   1   3   9   39.75    1.52
   9   3  -1   42.24    1.30
   3  -1   9   37.33    1.34
   3  -1   9   39.65    1.36
  -3   9  -1   37.69    1.40
   3   9   1   38.10    1.41
   3   9   1   37.17    1.67
   9   1   3   39.86    1.33
   1   3   9   39.93    1.33
  -1  -3   9   38.80    1.30
   9  -3   1   38.49    1.30
   9  -3   1   40.14    1.31
   9  -3   1   39.59    1.47
  -1   9   3   38.83    1.40
  -1   9   3   39.28    1.40
  -3   9  -1   39.85    1.70
  -1  -3   9   38.03    1.47
   3  -1   9   39.23    1.56
   9   1   3   39.92    1.33
  -3   1   9   41.20    1.27
  -3   1   9   39.56    1.38
  -1  -3   9   38.44    1.31
   3   9   3   29.10    1.12
   3   9   3   29.72    1.12
   3   9  -3   29.05    1.09
   3   9  -3   30.10    1.36
   3  -3   9   30.38    1.30
   3   3   9   27.88    1.04
   3   3   9   28.69    1.05
   3   3   9   29.48    1.26
   3   9  -3   30.20    1.11
   9  -3   3   28.55    1.23
   9   3   3   30.02    1.05
   9   3   3   29.06    1.05
   9   3   3   29.20    1.25
   3  -3   9   28.61    1.06
  -3  -3   9   29.37    0.98
  -3  -3   9   29.92    1.12
  -3   3   9   30.94    0.99
  -3   3   9   29.85    1.13
  -3   9  -3   28.22    1.11
  -3   9  -3   28.70    1.11
  -3   9  -3   24.81    1.32
   9  -3   3   30.55    1.05
  -3   9   3   28.77    1.09
  -3   9   3   28.91    1.08
  -3   9   3   27.83    1.31
   3  -9   3   28.47    1.07
   3  -3   9   29.18    1.06
   3   9   3   28.71    1.38
   9  -3   3   29.45    1.04
   9   5   1   29.16    1.08
   9   5   1   28.53    1.28
   5   9  -1   30.94    1.15
   5   9  -1   30.98    1.42
  -1   5   9   31.71    1.07
  -1   5   9   30.92    1.26
   1  -5   9   28.49    1.08
   1  -5   9   30.94    1.10
   1  -5   9   29.04    1.29
  -5   9   1   30.06    1.39
   9   5   1   30.27    1.09
   9  -5  -1   33.01    1.05
   9  -5  -1   33.17    1.21
   5   1   9   30.81    1.34
  -5   9   1   28.66    1.13
   5   9  -1   29.54    1.15
  -5   9   1   29.74    1.13
   1   9   5   29.47    1.13
   1   9   5   31.44    1.15
   1   9   5   28.51    1.37
  -1   9  -5   30.45    1.15
  -1   9  -5   27.43    1.38
   9  -1   5   31.06    1.09
   9  -1   5   30.11    1.09
   9  -1   5   29.08    1.29
   5   1   9   29.58    1.10
   5   1   9   29.96    1.11
  -1   5   9   31.12    1.07
  -9   5  -1   28.77    1.08
  -1   9  -5   31.34    1.17
   5  -9   1   29.53    1.10
   1   5  -9   30.29    1.09
  -5   9  -1   32.31    1.17
  -5   9  -1   30.60    1.15
   5  -1   9   31.57    1.12
   1  -9   5   30.85    1.12
   1  -9   5   30.48    1.35
   1   9  -5   31.06    1.15
   5  -1   9   30.73    1.11
   9  -5   1   30.32    1.25
   9   5  -1   33.11    1.08
   9   5  -1   33.31    1.29
  -1  -5   9   29.84    1.06
  -1  -5   9   30.28    1.07
  -1  -5   9   30.42    1.26
  -1   5  -9   29.05    1.10
   9  -5   1   30.72    1.06
   5   9   1   28.06    1.14
   5   9   1   29.24    1.15
   5   9   1   26.76    1.38
  -1   9   5   30.90    1.13
  -1   9   5   30.03    1.12
  -1   9   5   29.27    1.36
   1   5   9   30.27    1.08
   1   5   9   30.33    1.09
   1   5   9   31.04    1.30
   1   9  -5   30.43    1.14
   1   9  -5   30.08    1.40
   9  -5   1   32.53    1.08
   9   1   5   29.43    1.09
   9   1   5   28.76    1.29
  -5   9  -1   33.03    1.46
   9   1   5   29.27    1.09
  -3   5   9   30.60    1.19
   3  -5   9   28.44    1.04
  -3   9  -5   25.37    1.35
  -3   5   9   29.42    1.00
  -3   9  -5   29.44    1.11
  -3   9  -5   27.54    1.09
  -9   5  -3   27.12    1.05
   9   5   3   26.82    1.26
   9  -3   5   28.31    1.03
   9  -3   5   29.57    1.05
  -5   9   3   27.10    1.04
  -5   9   3   28.17    1.05
  -5   9   3   28.40    1.30
   5   9  -3   28.92    1.08
   5   9  -3   28.01    1.07
   5   9  -3   28.64    1.33
   5   3   9   26.68    1.04
   5   3   9   27.47    1.04
   3   9   5   27.38    1.08
   5   3   9   26.29    1.26
   3  -5   9   27.21    1.04
   3  -5   9   28.12    1.28
   3   9   5   26.25    1.33
   9   5   3   26.93    1.03
   9   5   3   28.12    1.05
   5  -9   3   29.09    1.06
   5  -9   3   27.35    1.28
   9  -3   5   27.40    1.26
   3   9   5   27.95    1.08
  -3  -5   9   26.77    1.13
  -3  -5   9   27.27    0.97
   5   9   3   28.37    1.10
   5   9   3   27.49    1.37
  -5   9  -3   27.99    1.10
  -5   9  -3   28.21    1.39
  -3  -5   9   27.27    0.97
   9   3   5   26.38    1.03
   9   3   5   26.81    1.03
   9   3   5   26.24    1.25
   3  -9   5   27.95    1.31
   3   9  -5   29.18    1.08
   3   9  -5   28.46    1.07
   3   9  -5   30.02    1.34
  -3   9   5   25.86    1.03
   5   9   3   28.37    1.10
   3   5   9   28.37    1.04
   5  -3   9   27.91    1.05
   5  -3   9   30.09    1.07
   5  -3   9   28.60    1.31
  -3   5  -9   29.92    1.08
  -3   9   5   29.08    1.06
   9  -5   3   28.52    1.01
   9  -5   3   28.87    1.03
   9  -5   3   28.47    1.23
   3   5   9   27.22    1.04
   3   5   9   29.61    1.28
   3  -9   5   29.27    1.07
  -3   9   5   27.12    1.28
  -5   9  -3   27.00    1.09
   5   9   5   25.80    1.04
   5   9   5   24.56    1.31
   5   9  -5   26.94    1.26
   5   9   5   23.98    1.02
   9  -5   5   26.03    1.21
  -5   9   5   26.22    1.21
   5  -9   5   26.50    1.01
   5   9  -5   26.59    0.99
   5  -5   9   25.50    0.99
   5  -5   9   25.91    1.01
   5  -5   9   26.61    1.26
   5   5   9   24.65    0.99
   5   5   9   23.97    0.99
   5  -9   5   27.31    1.28
  -5   9   5   24.61    0.97
  -5   9   5   25.00    0.96
   9  -5   5   26.54    0.98
   9   5   5   25.61    1.00
   9   5   5   25.15    0.99
   9   5   5   25.17    1.23
   5   5   9   23.72    1.22
   5   9  -5   27.36    1.00
   9  -5   5   25.58    0.98
  -9   5  -5   25.01    1.01
  -5   5  -9   26.51    1.04
  -5   9  -5   26.01    1.05
  -5   9  -5   23.90    1.03
  -5   9  -5   25.04    1.33
   1   9   7   26.47    1.02
   1   9   7   25.90    1.01
   1  -7   9   26.73    0.99
   9  -7  -1   26.51    0.94
  -7   9   1   25.22    1.00
   9   7   1   26.87    1.27
   7   1   9   24.99    0.99
  -1   9  -7   24.88    1.02
  -1   9  -7   24.32    1.29
  -1  -9   7   24.53    1.20
   7   9  -1   24.64    1.01
  -9   7  -1   24.99    0.99
   9  -7  -1   26.74    1.13
   9  -1   7   25.79    1.22
   7   1   9   27.19    1.26
   9  -1   7   24.86    0.98
  -1  -9   7   25.36    0.98
  -7   9   1   25.12    0.99
  -1   9  -7   26.34    1.04
  -1   7   9   27.11    1.22
   9   7   1   24.71    0.99
   7  -9   1   23.21    1.17
   7   9  -1   25.68    1.02
   9   7   1   25.90    1.01
  -7   9   1   24.60    1.23
  -9   7  -1   26.23    1.24
  -1   7   9   26.22    0.98
   9  -1   7   25.61    0.99
   7   1   9   25.62    1.00
   1  -7   9   26.12    0.99
   1  -7   9   25.40    1.21
   1   7  -9   26.00    0.99
   1   7  -9   25.17    1.21
  -1   7   9   25.20    0.97
   1   9   7   25.70    1.27
   7   9  -1   25.60    1.28
   7  -9   1   24.80    0.97
  -1   9   7   27.67    1.02
  -1   9   7   27.00    1.27
   1   9  -7   25.70    1.01
   1  -9   7   27.42    1.01
   1   9  -7   26.24    1.28
   1   9  -7   26.87    1.02
   9   1   7   25.33    1.22
  -1  -7   9   25.46    0.96
  -1  -7   9   26.22    0.97
  -1  -7   9   24.87    1.17
  -1   7  -9   25.30    1.01
   9   7  -1   28.60    1.25
   7  -1   9   25.07    1.23
  -7   9  -1   24.91    1.01
  -7   9  -1   24.34    1.01
   1   7   9   25.29    0.98
   1   7   9   25.20    0.98
   1   7   9   25.41    1.22
   9  -7   1   26.35    0.95
   9  -7   1   25.45    0.95
   9  -7   1   25.31    1.16
   9   7  -1   27.12    0.99
  -1   9   7   26.83    1.01
   7  -9  -1   25.01    1.16
   9   7  -1   28.55    1.00
   7   9   1   27.69    1.06
   7   9   1   28.96    1.07
   9   1   7   26.51    0.99
  -7   9  -1   24.92    1.28
   9   1   7   26.72    1.00
  -9   7   1   26.10    0.96
   7   9   1   26.97    1.34
  -9   7   1   23.95    1.16
  -9   7   1   25.56    0.96
   1  -9   7   27.77    1.27
   7  -9  -1   24.14    0.95
   7  -1   9   24.84    0.99
   7  -1   9   25.36    1.00
   3   9   7   31.96    1.23
   3  -7   9   33.05    1.48
  -9   7  -3   31.49    1.21
  -3  -9   7   31.53    1.16
  -3  -9   7   33.58    1.40
   7   3   9   31.97    1.20
   3   7  -9   34.17    1.17
   3   9   7   32.71    1.53
  -3   7   9   34.39    1.17
   9   7   3   31.89    1.22
   9   7   3   30.99    1.22
   9   7   3   30.15    1.49
  -3   7   9   32.81    1.39
   3  -7   9   32.29    1.19
   3  -7   9   33.12    1.21
  -7   9   3   32.41    1.42
   9  -3   7   32.64    1.20
   3   9   7   31.20    1.22
  -3   9  -7   31.11    1.24
   7   9  -3   32.15    1.46
   9  -3   7   33.15    1.20
   3   7  -9   33.50    1.17
   3   7  -9   32.23    1.38
  -3   9  -7   30.23    1.23
  -3   9  -7   30.93    1.54
   9  -3   7   28.61    1.41
   7  -9   3   32.60    1.19
   7  -9   3   33.07    1.46
   7   9  -3   33.82    1.21
   7   9  -3   32.91    1.20
  -7   9   3   30.39    1.16
  -3   7   9   33.35    1.16
  -7   9   3   32.51    1.18
   3   7   9   31.47    1.19
   9  -7   3   31.00    1.15
   7  -3   9   31.12    1.20
   3   7   9   36.35    1.53
   9   3   7   32.38    1.20
   9   3   7   31.66    1.20
   7   9   3   29.77    1.23
   9  -7   3   31.78    1.17
   9  -7   3   33.32    1.41
   7  -3   9   31.64    1.47
  -7   9  -3   31.56    1.24
  -7   9  -3   30.99    1.23
  -7   9  -3   33.24    1.56
   7   9   3   29.56    1.23
   7   9   3   31.95    1.56
   3   9  -7   33.97    1.21
  -3  -7   9   30.40    1.12
  -3  -7   9   32.23    1.13
  -3  -7   9   32.22    1.34
  -3   7  -9   32.83    1.24
   9   3   7   31.30    1.46
   3   9  -7   32.41    1.47
   3  -9   7   31.82    1.20
   3  -9   7   32.11    1.48
   3   9  -7   31.46    1.19
   7  -3   9   32.29    1.20
   3  -9   7   31.87    1.19
  -3   9   7   33.97    1.45
  -3   9   7   32.19    1.18
  -3   9   7   33.69    1.19
   3   7   9   31.39    1.20
   7   5   9   25.53    1.02
   9   7   5   24.70    1.31
  -5   9  -7   23.36    1.33
   9  -5   7   26.50    1.28
  -9   7  -5   25.84    1.04
  -5  -9   7   25.76    0.95
   9  -5   7   25.06    0.99
   9  -5   7   26.25    1.01
   9   7   5   27.15    1.04
   7   5   9   25.47    1.03
   7   5   9   25.07    1.30
   5   9   7   23.33    1.03
   5  -7   9   24.91    1.01
   5  -7   9   25.52    1.01
   5  -7   9   24.77    1.28
   9   7   5   24.90    1.03
   5   9   7   25.38    1.05
  -5   9  -7   24.16    1.05
   7  -9   5   26.72    1.01
   7  -9   5   25.53    1.00
   7  -9   5   23.77    1.24
  -5  -9   7   24.63    1.15
  -5   9  -7   24.62    1.06
   5   9   7   24.40    1.34
   7   9   5   25.59    1.06
   5   7   9   24.92    1.31
  -7   9  -5   25.36    1.06
   9   5   7   25.24    1.02
  -5   9   7   25.72    0.96
  -5   9   7   25.30    1.19
   5  -9   7   24.53    1.00
   5  -9   7   26.01    1.02
   5  -9   7   26.27    1.30
   5   9  -7   27.64    0.99
   5   9  -7   28.76    1.26
   9   5   7   25.54    1.02
  -5   7  -9   25.56    1.05
   7   9   5   25.29    1.37
   7  -5   9   25.33    1.01
   7  -5   9   25.38    1.01
   7  -5   9   24.52    1.27
   9   5   7   22.69    1.25
  -7   9  -5   25.23    1.06
  -7   9  -5   23.49    1.32
   9  -7   5   24.58    0.98
   9  -7   5   23.38    0.98
   9  -7   5   24.38    1.23
   7   9   5   24.32    1.05
   5   7   9   26.12    1.03
   5   7   9   25.96    1.03
  -9   7  -7   19.69    0.88
  -7   7  -9   18.68    0.88
  -7   9  -7   19.53    0.89
   7  -9   7   18.36    0.82
   7  -9   7   17.64    0.81
   7  -9   7   17.85    1.07
   7  -7   9   19.66    0.84
   7  -7   9   19.13    0.84
   7  -7   9   18.74    1.10
   7   7   9   19.15    0.86
   7   7   9   17.66    0.84
   7   7   9   19.20    1.15
   7   9   7   18.93    0.88
   7   9   7   19.38    0.89
   7   9   7   19.27    1.20
   9  -7   7   18.75    0.82
   9  -7   7   18.59    0.82
   9  -7   7   19.35    1.09
   9   7   7   19.15    0.86
   9   7   7   17.35    0.84
   9   7   7   18.93    1.15
  -9   9  -1   21.93    0.93
  -9   9  -1   23.43    0.94
  -9   9  -1   22.11    1.19
  -9   9   1   22.56    0.91
  -9   9   1   22.84    0.91
  -9   9   1   22.42    1.15
  -1  -9   9   22.22    0.90
  -1  -9   9   23.46    0.91
  -1  -9   9   22.05    1.14
  -1   9  -9   23.60    0.97
  -1   9  -9   22.54    0.96
  -1   9  -9   22.92    1.24
  -1   9   9   22.41    0.92
  -1   9   9   23.60    0.93
  -1   9   9   23.39    1.19
   1  -9   9   23.11    0.92
   1  -9   9   23.40    0.93
   1  -9   9   21.88    1.16
   1   9  -9   25.04    0.96
   1   9  -9   23.34    0.94
   1   9  -9   23.20    1.21
   1   9   9   24.03    0.95
   1   9   9   21.59    0.93
   1   9   9   24.41    1.24
   9  -9  -1   23.09    0.88
   9  -9  -1   24.74    1.11
   9  -9   1   22.65    0.88
   9  -9   1   22.45    0.89
   9  -9   1   22.46    1.12
   9  -1   9   21.74    0.92
   9  -1   9   23.20    0.93
   9  -1   9   21.23    1.16
   9   1   9   22.40    0.93
   9   1   9   20.93    0.92
   9   1   9   20.82    1.16
   9   9  -1   24.52    0.95
   9   9  -1   23.66    0.94
   9   9  -1   22.97    1.21
   9   9   1   23.28    0.96
   9   9   1   21.15    0.94
   9   9   1   21.96    1.23
  -9   9  -3   20.28    0.91
  -9   9  -3   19.67    1.17
  -3  -9   9   21.00    0.84
  -3  -9   9   21.98    0.86
  -3  -9   9   23.30    1.11
  -3   9  -9   21.27    0.94
  -3   9   9   21.94    0.87
  -3   9   9   22.32    0.87
  -3   9   9   22.51    1.13
   3  -9   9   21.03    0.89
   3  -9   9   21.12    0.90
   3  -9   9   21.38    1.17
   3   9  -9   21.53    0.88
   3   9  -9   22.18    0.89
   3   9  -9   23.11    1.16
   3   9   9   19.09    0.90
   3   9   9   20.21    0.91
   3   9   9   21.60    1.21
   9  -9   3   22.53    0.87
   9  -9   3   21.14    0.87
   9  -9   3   19.91    1.09
   9  -3   9   21.28    0.90
   9  -3   9   21.37    0.90
   9  -3   9   20.29    1.15
   9   3   9   21.11    0.90
   9   3   9   19.96    0.89
   9   3   9   20.25    1.15
   9   9   3   23.52    0.96
   9   9   3   22.32    0.95
   9   9   3   23.42    1.27
  -9   9  -5   18.91    0.88
  -5   9  -9   18.35    0.88
   5  -9   9   20.50    0.85
   5  -9   9   19.27    0.84
   5  -9   9   18.30    1.10
   5   9   9   18.93    0.88
   5   9   9   18.67    0.87
   5   9   9   18.73    1.17
   9  -9   5   18.80    0.82
   9  -9   5   18.38    0.82
   9  -9   5   18.57    1.07
   9  -5   9   19.79    0.85
   9  -5   9   19.11    0.84
   9  -5   9   18.92    1.11
   9   5   9   20.39    0.87
   9   5   9   18.54    0.85
   9   5   9   19.67    1.15
   9   9   5   19.22    0.89
   9   9   5   18.03    0.88
   9   9   5   19.25    1.20
  -9   9  -7   19.71    0.92
  -7   9  -9   20.03    0.93
   7  -9   9   19.53    0.87
   7  -9   9   20.06    0.88
   7  -9   9   19.40    1.17
   7   9   9   21.24    0.95
   7   9   9   19.83    0.93
   7   9   9   19.73    1.26
   9  -9   7   19.32    0.86
   9  -9   7   20.42    0.87
   9  -9   7   18.57    1.12
   9  -7   9   19.28    0.87
   9  -7   9   18.62    0.86
   9  -7   9   20.16    1.17
   9   7   9   19.60    0.91
   9   7   9   18.12    0.89
   9   7   9   17.55    1.17
   9   9   7   18.09    0.91
   9   9   7   18.96    0.92
   9   9   7   19.88    1.27
  -9   9  -9   16.19    0.84
   9  -9   9   15.71    0.77
   9  -9   9   15.52    0.77
   9  -9   9   14.30    1.02
   9   9   9   14.77    0.81
   9   9   9   15.59    0.82
   9   9   9   15.92    1.15
   0   0  10    3.07    0.20
   0   0  10    3.08    0.20
   0   0  10    2.79    0.33
   0  10   0    2.95    0.30
   0  10   0    2.34    0.27
   0  10   0    1.64    0.35
  10   0   0    3.16    0.18
  10   0   0    2.71    0.29
  -2  10   0   17.24    0.74
  -2  10   0   15.26    0.72
  -2  10   0   15.53    0.94
   0  -2  10   15.93    0.64
   0  -2  10   16.81    0.65
   0  -2  10   16.86    0.81
   0   2  10   16.23    0.64
   0   2  10   17.19    0.64
   0   2  10   16.81    0.80
   2  10   0   16.46    0.74
   2  10   0   16.50    0.73
   2  10   0   16.44    0.98
  10   0   2   16.72    0.64
  10   0   2   17.17    0.65
  10   0   2   16.59    0.79
   0  10   2   16.31    0.73
   0  10   2   17.21    0.73
   0  10   2   16.87    0.97
   2   0  10   15.94    0.66
   2   0  10   15.88    0.66
   2   0  10   16.58    0.84
  10  -2   0   17.19    0.62
  10  -2   0   17.43    0.75
  10   2   0   17.93    0.63
  10   2   0   17.32    0.77
   0  10  -2   16.66    0.74
   0  10  -2   16.70    0.74
   0  10  -2   18.13    1.00
  -2   0  10   17.22    0.75
  -2   0  10   17.53    0.62
  -2   0  10   16.57    0.61
  10  -2   2  328.23    9.85
   2  10   2  321.65   10.34
   2  10   2  322.50    9.97
   2  10   2  320.11    9.97
  10   2   2  320.29    9.85
  10   2   2  333.07   10.09
   2   2  10  320.34   10.10
  -2  -2  10  311.84    9.81
  -2  -2  10  321.69    9.82
  -2  -2  10  322.69    9.99
  -2   2  10  339.55    9.82
  -2   2  10  339.14    9.82
  -2   2  10  342.06   10.01
  -2  10  -2  328.72    9.98
  -2  10  -2  319.68    9.97
   2   2  10  319.43    9.87
  -2  10   2  334.53    9.96
  -2  10   2  323.30    9.95
  -2  10   2  328.30   10.32
   2  -2  10  317.18    9.87
   2  -2  10  317.43    9.88
   2  -2  10  315.24   10.13
   2   2  10  320.84    9.87
   2  10  -2  319.84    9.96
   2  10  -2  328.21    9.97
   2  10  -2  324.64   10.34
  -2  10  -2  333.96   10.38
  10  -2   2  321.78   10.06
  10   2   2  326.63    9.85
  10  -2   2  329.12    9.85
  10   0   4   29.94    1.27
   4  10   0   28.80    1.43
  10   0   4   29.49    1.07
  -4  10   0   28.47    1.14
   4  10   0   27.69    1.14
  10   4   0   32.90    1.27
  10   0   4   31.01    1.08
   4   0  10   28.95    1.31
  10  -4   0   32.20    1.05
  10  -4   0   33.86    1.23
  10   4   0   32.92    1.07
   0  10  -4   30.60    1.16
   0  10  -4   29.83    1.44
   0  10   4   29.15    1.14
   0  10   4   29.68    1.14
   0  10   4   30.37    1.42
   4   0  10   28.90    1.09
   4   0  10   29.61    1.09
   0  10  -4   31.41    1.17
   0  -4  10   29.37    1.07
   0  -4  10   30.70    1.27
   0   4  10   28.87    1.06
   0   4  10   30.46    1.07
   0   4  10   31.25    1.26
   4  10   0   26.98    1.14
   0  -4  10   28.47    1.06
  -4  10   0   28.66    1.41
  -4  10   0   28.95    1.14
  -2   4  10    9.07    0.42
  10   4   2    9.86    0.46
  10  -2   4   10.04    0.46
  -2  10  -4    9.66    0.73
   2  10   4   10.04    0.73
   4   2  10    9.67    0.47
  -4  10   2    9.38    0.50
  10  -2   4    9.48    0.46
  10  -2   4    9.39    0.61
  -4  10   2    8.44    0.67
   4   2  10    9.35    0.64
   2  -4  10    9.79    0.64
  -4  10   2    9.88    0.50
  -2  10  -4   10.30    0.54
  -2  10  -4   10.13    0.53
   4 -10   2    9.61    0.49
   4  10  -2   10.01    0.52
   2  10   4    9.51    0.51
  10   4   2    9.66    0.46
  10   4   2    9.37    0.62
   4  10  -2    9.48    0.71
   2  -4  10    9.49    0.46
  -2   4  10   10.39    0.59
   4   2  10   10.35    0.48
  -2   4  10    9.80    0.43
   4  10  -2   10.00    0.51
   2  10   4   10.41    0.52
   2  -4  10    8.48    0.45
  -2  10   4   10.14    0.51
  -2  -4  10    9.71    0.43
  10   2   4    9.69    0.46
  -2  10   4    8.98    0.67
   4  10   2    9.61    0.73
   4  10   2    9.49    0.52
   4  -2  10    9.57    0.65
   4  10   2    9.79    0.53
  10   2   4   10.14    0.63
  -2  -4  10    9.44    0.55
   2   4  10    9.48    0.46
   2   4  10    9.90    0.63
  10  -4   2    9.91    0.45
  10  -4   2   10.42    0.61
  10   2   4    9.22    0.45
  -4  10  -2   10.09    0.74
  -2  -4  10    9.04    0.42
   2 -10   4   11.20    0.51
   2 -10   4    9.57    0.67
   2  10  -4    9.72    0.51
   2  10  -4    9.62    0.51
   2  10  -4    9.35    0.70
  -2  10   4    9.37    0.49
   2   4  10    9.10    0.45
  -4  10  -2   10.21    0.54
   4  -2  10    9.66    0.47
   4  -2  10    9.23    0.47
  10  -4   2    9.74    0.44
  -4  10  -2    9.18    0.51
  -4  10  -4    3.71    0.37
  -4  10  -4    4.35    0.34
   4  -4  10    4.09    0.51
  10  -4   4    4.16    0.48
  10   4   4    4.33    0.30
  10   4   4    4.28    0.30
  10   4   4    3.81    0.47
   4  10  -4    4.19    0.32
   4  10  -4    4.26    0.32
   4  10  -4    4.08    0.53
   4   4  10    3.81    0.28
  -4  10  -4    4.27    0.57
  -4  10   4    4.17    0.31
  -4  10   4    3.95    0.29
  -4  10   4    3.84    0.50
   4 -10   4    4.09    0.30
   4 -10   4    4.16    0.50
   4  -4  10    4.02    0.30
   4  -4  10    3.59    0.28
  10  -4   4    3.98    0.28
  10  -4   4    4.55    0.29
   4  10   4    4.39    0.35
   4  10   4    3.77    0.32
   4  10   4    4.48    0.58
   4   4  10    3.88    0.28
   4   4  10    3.50    0.47
   0  -6  10    5.27    0.32
   0  -6  10    4.77    0.51
   0   6 -10    5.62    0.34
   0  10  -6    5.16    0.36
   0  10  -6    5.73    0.65
   0  10   6    5.50    0.36
   0 -10   6    5.24    0.34
   0 -10   6    5.01    0.55
   6  10   0    4.77    0.59
  10   0   6    5.37    0.34
  10   0   6    4.87    0.32
   6  10   0    4.53    0.35
   6  10   0    5.02    0.36
   6   0  10    4.30    0.52
  10  -6   0    5.75    0.31
  10  -6   0    5.37    0.44
  10   6   0    4.97    0.32
  10   6   0    4.94    0.53
  -6  10   0    4.59    0.35
  -6  10   0    5.18    0.36
  -6  10   0    4.86    0.59
   0  -6  10    5.18    0.32
   0   6  10    5.07    0.53
   6 -10   0    5.61    0.34
   6   0  10    5.46    0.35
   6   0  10    4.73    0.33
   0   6  10    5.35    0.32
   0   6  10    5.51    0.32
   0  10   6    5.51    0.61
   0  10   6    5.35    0.36
  10   0   6    4.61    0.51
   0  10  -6    5.31    0.38
   2   6 -10  280.74    8.12
   6  10  -2  267.03    8.19
  -2   6  10  271.45    8.11
   6  10  -2  265.51    8.57
  -2   6  10  282.08    8.40
   2  -6  10  259.04    8.13
   2  10   6  255.50    8.57
  -2  10  -6  259.15    8.63
   2  -6  10  271.48    8.47
  -2  10  -6  262.45    8.21
   6  10  -2  262.55    8.19
  10  -2   6  265.73    8.45
  -2  10  -6  251.92    8.21
  10   6   2  257.76    8.14
   6 -10   2  257.93    8.47
  10  -2   6  268.74    8.15
   6   2  10  268.40    8.16
  10   6   2  263.39    8.15
  10   6   2  259.40    8.47
   2  10   6  254.23    8.19
  -6  10   2  255.81    8.16
   2  -6  10  261.40    8.14
  10  -2   6  262.68    8.13
  -2 -10   6  261.25    8.13
  -2 -10   6  259.04    8.43
   6   2  10  271.14    8.50
   6 -10   2  267.04    8.15
  -6  10   2  251.94    8.16
  -2   6  10  283.20    8.12
  -6  10   2  245.25    8.47
   2  10   6  254.14    8.19
 -10   6  -2  253.43    8.13
   6   2  10  265.19    8.16
   2  10  -6  268.88    8.19
  -2  10   6  266.98    8.17
   6  10   2  258.24    8.64
  10   2   6  265.00    8.14
   2  10  -6  270.90    8.19
  10  -6   2  271.72    8.11
  10  -6   2  275.67    8.40
  -2   6 -10  271.65    8.18
   6  10   2  255.14    8.22
   6  -2  10  273.10    8.17
  -2  -6  10  273.49    8.35
  10   2   6  264.73    8.14
   2  10  -6  266.66    8.56
   6  -2  10  273.09    8.18
   6  10   2  261.99    8.23
  -2  -6  10  263.79    8.08
  -2  -6  10  273.04    8.10
  10  -6   2  271.50    8.10
  -2  10   6  269.76    8.18
   2   6  10  266.48    8.14
  -2  10   6  262.18    8.51
   2 -10   6  271.21    8.18
   2 -10   6  267.91    8.53
  -6  10  -2  265.42    8.63
  10   2   6  264.25    8.44
  -6  10  -2  262.69    8.21
  -6  10  -2  252.99    8.21
   2   6  10  269.97    8.15
   2   6  10  262.84    8.46
   6  -2  10  278.44    8.54
   4  -6  10   18.53    0.78
   4  -6  10   18.64    0.78
  -4  10  -6   16.57    1.07
  -4  10  -6   17.80    0.82
 -10   6  -4   18.79    0.80
  -4  10  -6   17.92    0.83
   6   4  10   18.27    1.03
  10  -4   6   18.03    0.76
  10   6   4   18.62    0.78
  10   6   4   17.79    0.78
   6 -10   4   18.00    1.01
  10   6   4   19.96    1.07
  10  -4   6   18.38    0.76
  -6  10   4   18.32    0.76
  -6  10   4   17.50    0.75
   6   4  10   17.68    0.78
  -6  10   4   17.86    0.99
   4  10   6   17.43    0.82
   6  10  -4   19.22    0.79
   4  -6  10   17.56    1.01
   4  10   6   17.12    1.07
   6  10  -4   18.84    1.04
   6   4  10   18.06    0.78
   6 -10   4   17.28    0.77
   4  10   6   18.04    0.82
   6  10  -4   20.59    0.81
  10  -4   6   16.71    0.97
   4 -10   6   17.14    0.77
  -6  10  -4   17.26    0.82
   6  10   4   17.18    0.82
   6  10   4   17.22    1.10
  -6  10  -4   17.04    1.08
  10  -6   4   17.70    0.97
   4   6  10   16.92    0.76
  10   4   6   19.11    0.78
  10   4   6   17.44    0.76
  -6  10  -4   16.90    0.81
   4 -10   6   18.40    1.03
   4  10  -6   19.12    0.80
   4  10  -6   18.16    0.78
   4  10  -6   18.74    1.04
  -4  10   6   18.27    0.76
   6  10   4   17.57    0.83
   4   6  10   18.89    0.79
   6  -4  10   18.14    0.78
   6  -4  10   17.27    0.78
   6  -4  10   17.35    1.02
   4   6  10   16.92    1.00
  -4  10   6   18.15    0.76
  10  -6   4   17.99    0.75
  10  -6   4   17.74    0.74
  -4   6 -10   17.95    0.81
  -4  10   6   18.48    1.00
  10   4   6   17.06    0.99
   6  -6  10  184.69    5.74
   6  -6  10  179.43    6.11
   6   6  10  184.49    5.76
   6   6  10  179.95    5.75
   6   6  10  190.26    6.18
   6  10   6  181.37    6.28
  10  -6   6  184.55    5.71
  10  -6   6  177.69    5.71
  10  -6   6  185.60    6.06
  10   6   6  185.00    5.75
  10   6   6  181.64    5.75
  10   6   6  181.41    6.15
   6 -10   6  181.35    6.12
   6  10   6  192.33    5.83
   6  10   6  180.34    5.81
   6 -10   6  189.53    5.74
   6 -10   6  177.48    5.73
  -6  10  -6  183.18    6.27
  -6  10  -6  179.12    5.81
  -6  10  -6  175.25    5.80
   6  -6  10  177.95    5.74
   8  10   0    5.18    0.38
  10   0   8    5.48    0.36
  10   0   8    5.01    0.35
  10   0   8    5.39    0.59
   8  10   0    5.06    0.63
   8 -10   0    4.83    0.53
   8  10   0    5.42    0.39
   8 -10   0    5.01    0.33
   0   8  10    5.23    0.35
   0   8  10    5.17    0.59
   0  -8  10    5.33    0.58
   0  10   8    4.66    0.58
   8   0  10    5.37    0.37
   8   0  10    4.64    0.34
   8   0  10    4.90    0.58
  10  -8   0    4.59    0.30
  10  -8   0    5.26    0.52
   0   8 -10    5.49    0.37
   0   8  10    5.39    0.36
   0  10   8    4.51    0.35
   0  10   8    5.43    0.37
  -8  10   0    4.70    0.35
  -8  10   0    4.72    0.34
  -8  10   0    5.45    0.63
   0  -8  10    5.33    0.34
   0  -8  10    5.22    0.34
   0 -10   8    4.94    0.35
   0 -10   8    4.39    0.54
   0  10  -8    5.44    0.39
   0  10  -8    4.93    0.37
   0  10  -8    4.46    0.59
  10   8   0    5.43    0.62
 -10   8   0    5.01    0.34
 -10   8   0    4.26    0.52
  10   8   0    5.15    0.36
  10   8   0    5.40    0.37
  -2   8  10   12.37    0.57
   2  10   8   11.45    0.60
  10   8   2   11.37    0.60
  10  -2   8   10.76    0.56
   2  -8  10   12.05    0.58
   2  -8  10   11.60    0.57
   2  -8  10   12.06    0.80
  10  -2   8   11.54    0.79
   2   8 -10   11.54    0.56
   8  10  -2   12.25    0.85
  10   8   2   10.42    0.58
  10   8   2   13.16    0.88
   8 -10   2   11.47    0.56
  10  -2   8   11.22    0.57
  -2 -10   8   11.56    0.56
  -2 -10   8   10.47    0.73
  -2  10  -8   12.19    0.63
  -8  10   2   11.35    0.57
  -8  10   2   11.98    0.57
  -8  10   2   12.38    0.81
   2  10   8   11.42    0.60
   2  10   8   11.00    0.82
 -10   8  -2   11.04    0.58
   8 -10   2   11.26    0.76
  -2   8  10   12.31    0.57
   8  10  -2   13.14    0.61
  -2   8  10   12.43    0.78
  -2  10  -8    9.82    0.81
   8   2  10   10.85    0.57
   8   2  10   10.17    0.76
  -2  10  -8   11.04    0.61
   8   2  10   10.93    0.57
   8  10  -2   12.82    0.61
   2   8  10   11.45    0.81
   8  -2  10   11.56    0.59
   2   8  10   11.93    0.59
   8  10   2   11.86    0.89
  10   2   8   10.61    0.56
  10   2   8   11.39    0.78
   2  10  -8   12.35    0.83
   8  -2  10   12.17    0.60
  -2  10   8   12.47    0.59
  -2  10   8   11.35    0.57
  -2  10   8   11.99    0.81
   2 -10   8   11.88    0.58
   2 -10   8   11.71    0.58
   2 -10   8   10.86    0.78
   2  10  -8   12.65    0.61
   2  10  -8   11.71    0.59
  10   2   8   11.46    0.58
   2   8  10   11.45    0.58
  -2  -8  10   11.81    0.54
  -2  -8  10   11.45    0.54
  -2  -8  10   11.14    0.72
  -8  10  -2   12.12    0.62
  -8  10  -2   12.08    0.61
  -8  10  -2   12.70    0.88
   8  10   2   10.20    0.60
  -2   8 -10   11.33    0.60
   8  10   2   11.36    0.63
   8 -10  -2   11.56    0.53
   8 -10  -2   11.90    0.72
   8  -2  10   11.29    0.80
  10  -8   2   12.89    0.56
  10  -8   2   11.98    0.55
  10  -8   2   12.02    0.75
   8 -10   4   14.75    0.94
  10   8   4   16.41    0.77
   8   4  10   16.43    1.01
  10  -4   8   15.93    0.72
  10  -4   8   15.41    0.72
  10  -4   8   16.46    0.98
  -4  10  -8   15.25    0.77
  -4  10  -8   15.13    0.77
  -4  10  -8   15.90    1.06
   4  10   8   15.48    0.77
   4  10   8   16.03    1.06
 -10   8  -4   16.01    0.75
  -4 -10   8   16.16    0.69
  -4 -10   8   16.34    0.92
   8   4  10   14.96    0.73
   8   4  10   14.90    0.73
   4  10   8   16.12    0.78
  10   8   4   14.92    1.02
   4  -8  10   14.86    0.72
   4  -8  10   15.05    0.97
   8 -10   4   15.66    0.71
  10   8   4   15.90    0.76
   4  -8  10   15.83    0.73
   8 -10   4   14.34    0.69
   4 -10   8   16.76    0.74
  10  -8   4   16.43    0.71
  10  -8   4   16.79    0.72
   4 -10   8   14.87    0.72
  -8  10  -4   16.27    1.05
  -4   8 -10   14.87    0.75
   4 -10   8   15.23    0.97
  -4  10   8   16.31    0.70
  -4  10   8   15.14    0.93
   4   8  10   19.08    0.78
   4   8  10   15.16    0.73
   4   8  10   16.27    1.02
   4  10  -8   17.69    0.74
   4  10  -8   17.98    0.74
   4  10  -8   17.56    1.00
   8  10   4   16.70    0.80
   8  10   4   15.25    0.77
   8  10   4   15.22    1.06
   8  -4  10   16.69    0.75
   8  -4  10   15.11    0.73
   8  -4  10   15.79    0.99
  10   4   8   15.84    0.74
  10   4   8   15.23    0.73
  10   4   8   15.79    0.99
  -4  10   8   15.44    0.70
  10  -8   4   16.71    0.96
  -8  10  -4   15.65    0.77
  -8  10  -4   14.82    0.75
   6  -8  10    6.00    0.70
  10   8   6    5.66    0.42
   6  10   8    5.85    0.45
   6  10   8    5.60    0.44
   8 -10   6    6.01    0.41
   8 -10   6    6.09    0.41
   8 -10   6    5.72    0.68
  -6  10  -8    5.80    0.45
   8   6  10    6.24    0.43
   8   6  10    5.58    0.41
  10  -6   8    6.50    0.42
  10  -6   8    5.50    0.40
  10  -6   8    6.48    0.71
   6  10   8    4.92    0.70
  10   8   6    5.61    0.43
   8   6  10    5.05    0.65
 -10   8  -6    5.21    0.47
   6  -8  10    5.78    0.41
   6  -8  10    5.58    0.40
  10   8   6    5.01    0.68
   6   8  10    5.71    0.42
   8  10   6    5.19    0.49
   6 -10   8    6.00    0.42
   6 -10   8    5.63    0.41
   6 -10   8    5.25    0.66
   6   8  10    5.31    0.41
   6   8  10    4.82    0.65
  10   6   8    6.33    0.43
   8  -6  10    5.42    0.41
   8  -6  10    5.63    0.41
   8  -6  10    5.69    0.68
   8  10   6    5.57    0.45
   8  10   6    6.36    0.78
  -8  10  -6    6.68    0.48
  10  -8   6    6.03    0.40
  10  -8   6    5.52    0.38
  10  -8   6    5.15    0.62
  10   6   8    6.13    0.43
  10   6   8    6.71    0.75
  -6   8 -10    5.42    0.43
  -8  10  -8    4.77    0.48
   8 -10   8    4.96    0.39
   8 -10   8    4.99    0.39
   8 -10   8    4.85    0.65
   8  -8  10    5.30    0.40
   8  -8  10    4.80    0.39
   8  -8  10    4.53    0.63
   8   8  10    5.34    0.49
   8   8  10    5.43    0.43
   8   8  10    4.17    0.65
   8  10   8    5.21    0.51
   8  10   8    4.91    0.43
   8  10   8    3.87    0.65
  10  -8   8    5.16    0.39
  10  -8   8    4.94    0.39
  10  -8   8    5.10    0.64
  10   8   8    5.79    0.51
  10   8   8    4.97    0.42
  10   8   8    4.69    0.69
 -10  10   0   17.40    0.80
 -10  10   0   18.56    0.81
 -10  10   0   18.93    1.09
   0 -10  10   17.97    0.80
   0 -10  10   19.25    0.81
   0 -10  10   19.54    1.09
   0  10 -10   19.94    0.87
   0  10 -10   19.36    1.15
   0  10  10   18.40    0.83
   0  10  10   17.72    0.82
   0  10  10   20.24    1.14
  10 -10   0   17.95    0.76
  10   0  10   19.22    0.83
  10   0  10   17.31    0.82
  10   0  10   19.03    1.10
  10  10   0   18.61    0.85
  10  10   0   18.83    0.84
  10  10   0   19.24    1.15
 -10  10  -2  152.94    5.03
 -10  10  -2  155.85    5.45
  -2 -10  10  158.53    4.97
  -2 -10  10  162.58    4.98
  -2 -10  10  166.55    5.36
  -2  10 -10  151.96    5.06
  -2  10  10  161.61    5.01
  -2  10  10  160.01    5.00
  -2  10  10  161.48    5.40
   2 -10  10  153.81    5.00
   2 -10  10  154.55    5.01
   2 -10  10  160.85    5.43
   2  10 -10  169.07    5.04
   2  10 -10  168.67    5.04
   2  10 -10  167.74    5.44
   2  10  10  158.01    5.05
   2  10  10  156.02    5.05
   2  10  10  154.00    5.47
  10 -10   2  154.18    4.96
  10 -10   2  159.32    4.97
  10 -10   2  154.65    5.31
  10  -2  10  162.31    5.03
  10  -2  10  158.81    5.02
  10  -2  10  159.00    5.42
  10   2  10  154.63    5.02
  10   2  10  150.11    5.01
  10   2  10  150.08    5.39
  10  10   2  151.86    5.06
  10  10   2  154.05    5.07
  10  10   2  151.24    5.51
 -10  10  -4    2.44    0.32
  -4  10 -10    3.47    0.39
   4 -10  10    2.76    0.32
   4 -10  10    2.81    0.32
   4 -10  10    2.48    0.47
   4  10  10    2.90    0.36
   4  10  10    2.88    0.35
   4  10  10    2.85    0.55
  10 -10   4    2.79    0.31
  10 -10   4    3.14    0.29
  10 -10   4    3.26    0.49
  10  -4  10    3.02    0.35
  10  -4  10    2.82    0.33
  10  -4  10    3.04    0.50
  10   4  10    2.48    0.32
  10   4  10    2.54    0.32
  10   4  10    2.62    0.49
  10  10   4    2.95    0.37
  10  10   4    2.72    0.35
  10  10   4    3.28    0.60
 -10  10  -6  163.02    5.07
  -6  10 -10  154.56    5.06
   6 -10  10  154.29    4.99
   6 -10  10  153.57    5.00
   6 -10  10  151.90    5.44
   6  10  10  155.17    5.07
   6  10  10  152.67    5.06
   6  10  10  149.38    5.57
  10 -10   6  157.01    4.96
  10 -10   6  161.15    4.99
  10 -10   6  155.87    5.39
  10  -6  10  155.60    4.99
  10  -6  10  155.52    4.99
  10  -6  10  157.20    5.44
  10   6  10  159.18    5.03
  10   6  10  158.15    5.03
  10   6  10  155.01    5.51
  10  10   6  153.23    5.07
  10  10   6  151.51    5.07
  10  10   6  153.31    5.62
 -10  10  -8   10.40    0.66
  -8  10 -10   12.20    0.70
   8 -10  10   10.26    0.61
   8 -10  10   10.63    0.87
   8  10  10   11.72    0.70
   8  10  10    9.74    1.07
  10 -10   8   10.56    0.61
  10 -10   8   10.32    0.60
  10 -10   8   10.75    0.87
  10  -8  10   10.17    0.61
  10  -8  10   11.01    0.89
  10   8  10    9.76    0.63
  10   8  10    9.54    1.01
  10  10   8   10.86    0.69
  10  10   8   10.02    0.66
  10  10   8   10.39    1.09
  10 -10  10   83.79    2.87
  10  10  10   81.91    2.97
  -1  -1  11   19.61    0.74
  -1  -1  11   20.75    0.75
  -1  -1  11   21.58    0.92
  -1   1  11   20.45    0.75
  -1   1  11   21.47    0.76
  -1   1  11   20.71    0.91
  -1  11  -1   18.87    0.86
  -1  11  -1   20.54    0.87
  -1  11  -1   19.38    1.13
  -1  11   1   20.03    0.88
  -1  11   1   20.25    0.87
  -1  11   1   20.82    1.15
   1  -1  11   19.57    0.77
   1  -1  11   19.94    0.77
   1  -1  11   20.65    0.96
   1   1  11   19.11    0.76
   1   1  11   20.76    0.78
   1   1  11   21.38    0.97
   1  11  -1   20.73    0.88
   1  11  -1   20.59    0.88
   1  11  -1   20.29    1.15
   1  11   1   20.87    0.88
   1  11   1   19.20    0.86
   1  11   1   19.99    1.14
  11  -1   1   20.92    0.75
  11   1   1   20.76    0.75
  11  -1   3   38.93    1.30
  11  -1   3   37.53    1.50
   3   1  11   36.62    1.31
  -3  11   1   38.58    1.40
  -3  11   1   35.31    1.38
  -3  11   1   36.31    1.69
  -1  11  -3   37.97    1.42
  -1  11  -3   37.38    1.41
  -1  11  -3   37.77    1.74
  -1   3  11   38.14    1.28
  -1   3  11   39.40    1.29
  -1   3  11   38.92    1.48
   1  -3  11   38.17    1.31
   1  -3  11   37.84    1.31
   1  -3  11   37.74    1.54
   1  11   3   39.91    1.42
   1  11   3   37.81    1.40
   1  11   3   34.99    1.68
   3  11  -1   35.34    1.40
   3  11  -1   36.76    1.40
   3  11  -1   37.71    1.73
  11   3   1   39.58    1.29
   3   1  11   36.10    1.31
   3   1  11   40.92    1.58
  11  -1   3   37.24    1.29
  11   3   1   40.22    1.51
  -3  11  -1   34.86    1.39
  11   1   3   37.06    1.29
  11   1   3   37.43    1.30
  -3  11  -1   38.86    1.75
  -3  11  -1   35.28    1.39
   3  -1  11   37.91    1.56
   3  11   1   38.57    1.43
   3  11   1   36.47    1.41
   3  11   1   37.71    1.75
  11   1   3   37.37    1.49
  -1  -3  11   35.37    1.27
  -1  -3  11   36.88    1.28
  -1  -3  11   37.10    1.47
  -1  11   3   37.17    1.39
  -1  11   3   36.16    1.38
  -1  11   3   37.60    1.71
   1  11  -3   38.26    1.41
   1  11  -3   36.17    1.39
   1  11  -3   36.38    1.71
   1   3  11   37.17    1.30
   1   3  11   38.52    1.31
   1   3  11   36.66    1.51
   3  -1  11   37.78    1.32
   3  -1  11   36.67    1.32
  -3  11   3   10.71    0.79
   3 -11   3   11.29    0.57
   3  -3  11   12.66    0.56
   3  -3  11   11.88    0.55
   3  -3  11   11.34    0.74
  -3  11   3   12.34    0.59
  -3  11  -3   11.66    0.62
  -3  11  -3   10.56    0.59
  -3  11  -3   11.65    0.85
  -3  11   3   11.53    0.59
   3   3  11   11.37    0.53
   3   3  11   10.37    0.70
   3  11  -3   10.53    0.58
   3  11  -3   11.63    0.59
   3  11  -3   11.82    0.82
   3  11   3   11.86    0.61
   3  11   3   11.87    0.61
   3  11   3   11.74    0.84
  11  -3   3   12.30    0.53
  11  -3   3   12.21    0.53
  11  -3   3   11.83    0.70
  11   3   3   11.52    0.53
  11   3   3   11.89    0.53
  11   3   3   11.96    0.71
   3   3  11   11.44    0.53
   1  11   5   26.68    1.40
   1  -5  11   29.10    1.05
   1  -5  11   28.46    1.29
   5 -11   1   27.29    1.08
   5  11  -1   27.51    1.13
   5  11  -1   27.30    1.12
  11   5   1   28.56    1.28
  -5  11   1   28.99    1.12
  -5  11   1   28.06    1.41
   1  11   5   28.66    1.13
  -1  11  -5   27.36    1.13
  -1  11  -5   28.11    1.13
  -1   5  11   28.72    1.03
  -1   5  11   30.28    1.05
  -1  11  -5   26.27    1.40
  11  -1   5   28.76    1.05
   1  -5  11   28.40    1.06
   5  11  -1   27.40    1.44
  11   5   1   29.82    1.06
  -5  11   1   28.09    1.12
   5   1  11   28.11    1.32
  -1   5  11   30.92    1.28
  11  -1   5   28.98    1.05
   5   1  11   28.80    1.08
   1  11   5   28.14    1.12
  11  -1   5   30.31    1.30
   5   1  11   27.86    1.07
  -1  -5  11   27.98    1.02
   5  -1  11   28.48    1.33
   5  11   1   25.86    1.42
   5  -1  11   26.76    1.06
   1  11  -5   27.62    1.13
   1 -11   5   27.58    1.08
   1   5  11   28.57    1.05
   1  11  -5   28.20    1.12
   1  11  -5   28.27    1.43
   1   5  11   29.02    1.05
   5  -1  11   27.59    1.07
  -1  11   5   27.60    1.11
  -1  11   5   28.57    1.11
  -1  11   5   28.61    1.40
   5  11   1   25.94    1.13
   5  11   1   25.89    1.12
   1   5  11   28.33    1.29
  -1  -5  11   28.74    1.24
  -5  11  -1   27.91    1.13
  -5  11  -1   27.42    1.12
  -5  11  -1   26.26    1.40
   1 -11   5   27.53    1.35
  -1  -5  11   29.50    1.04
  11   1   5   29.16    1.06
  11   1   5   28.92    1.29
  11   1   5   28.62    1.05
   3  -5  11   21.12    0.85
   5  11  -3   19.85    0.88
   5   3  11   22.12    1.12
   5   3  11   20.87    0.85
  11   5   3   20.48    0.84
  11  -3   5   21.32    0.84
   5   3  11   19.52    0.84
   5  11  -3   21.06    1.18
  11  -3   5   21.52    1.07
  11   5   3   19.73    0.83
   5 -11   3   20.97    0.86
   5  11  -3   21.12    0.89
  11   5   3   20.20    1.07
  -5  11   3   19.45    0.85
  -5  11   3   19.68    1.12
  11  -3   5   20.84    0.83
  -3  11  -5   20.47    0.92
   3  -5  11   20.14    1.08
   3  11   5   20.94    1.21
   5 -11   3   19.40    1.09
  -3  11  -5   20.58    1.21
   3  11   5   19.60    0.90
  -5  11   3   20.85    0.87
   3  -5  11   20.42    0.84
   3  11   5   20.10    0.91
  -3  11  -5   19.88    0.90
   5  -3  11   20.76    0.85
  -3  11   5   20.66    1.13
   3 -11   5   19.93    0.86
   3 -11   5   18.90    1.09
   3   5  11   20.04    1.06
  11  -5   3   19.96    1.02
  11   3   5   20.04    0.83
   5  11   3   20.41    0.91
  11   3   5   19.55    1.05
   3  11  -5   19.90    0.88
   5  11   3   20.20    0.91
   3  11  -5   21.50    0.89
   3  11  -5   21.80    1.19
  -3  11   5   21.30    0.88
  -3  11   5   20.16    0.85
   3   5  11   20.80    0.84
   3   5  11   20.17    0.84
   5  -3  11   21.18    0.86
   5  -3  11   22.21    1.13
  11   3   5   21.07    0.84
  -5  11  -3   20.35    1.21
   5  11   3   19.75    1.20
  11  -5   3   21.96    0.82
  11  -5   3   21.98    0.83
  -5  11  -3   21.62    0.93
  -5  11  -3   20.06    0.91
   5 -11   5   21.87    1.20
   5  -5  11   22.99    0.93
  -5  11  -5   20.74    0.97
  -5  11  -5   19.88    0.95
   5 -11   5   20.54    0.91
  11   5   5   20.98    0.90
   5  -5  11   21.93    0.92
   5  -5  11   22.56    1.20
   5   5  11   22.42    0.92
   5   5  11   21.39    0.91
   5   5  11   21.30    1.17
   5  11  -5   24.72    0.96
   5  11  -5   24.14    0.95
   5  11  -5   23.46    1.24
   5  11   5   22.50    0.98
   5  11   5   20.71    0.96
   5  11   5   21.50    1.28
  11  -5   5   23.47    0.90
  11  -5   5   22.18    0.90
  11  -5   5   21.06    1.12
  -5  11  -5   21.48    1.29
  -5  11   5   21.80    0.91
  -5  11   5   22.00    0.90
  -5  11   5   22.80    1.19
  11   5   5   21.84    1.17
  11   5   5   21.98    0.91
   7  11  -1   12.53    0.66
  -1  11  -7   13.59    0.94
  -1 -11   7   13.77    0.86
  -1  11  -7   13.02    0.67
  11  -1   7   13.25    0.61
  11  -1   7   13.55    0.61
  11  -1   7   13.08    0.82
  -1   7  11   13.43    0.61
  -1   7  11   12.64    0.60
  -1   7  11   12.91    0.81
   1  -7  11   14.36    0.61
   1  -7  11   13.43    0.61
  11   7   1   12.71    0.84
   7  11  -1   12.55    0.64
  -1  11  -7   12.83    0.66
   1  11   7   11.81    0.63
   1  11   7   11.44    0.86
  -7  11   1   13.09    0.64
  -7  11   1   13.78    0.64
   7 -11   1   12.96    0.61
   7   1  11   13.29    0.63
   7   1  11   11.85    0.61
   7   1  11   12.70    0.85
  11   7   1   13.02    0.62
  -1 -11   7   12.94    0.61
  -7  11   1   13.35    0.88
   7  11  -1   13.27    0.92
   1  11   7   12.55    0.65
   1  -7  11   13.37    0.82
   1   7 -11   14.43    0.62
   7 -11   1   13.82    0.84
   7  -1  11   12.65    0.62
  -1  11   7   13.79    0.65
   1 -11   7   11.77    0.83
   1  11  -7   13.41    0.67
   1  11  -7   13.20    0.66
   7  11   1   11.91    0.66
   7  -1  11   13.05    0.86
   7  -1  11   12.02    0.61
   7  11   1   12.62    0.67
   7  11   1   12.79    0.93
  11   1   7   13.48    0.62
  -1  -7  11   12.79    0.78
  11   1   7   13.31    0.83
   1  11  -7   12.70    0.89
  -1  11   7   13.40    0.89
  -7  11  -1   13.45    0.66
   1 -11   7   11.86    0.61
  -1   7 -11   13.17    0.63
   1   7  11   13.67    0.62
   1   7  11   12.58    0.60
   1   7  11   14.19    0.86
   7 -11  -1   11.40    0.57
   7 -11  -1   12.71    0.79
  -7  11  -1   12.16    0.64
  -7  11  -1   12.33    0.88
  11   1   7   12.36    0.60
  -1  -7  11   12.97    0.59
  -1  11   7   13.04    0.65
  -1  -7  11   12.40    0.58
   7   3  11   33.21    1.60
   7   3  11   34.43    1.31
   3  -7  11   35.16    1.31
   3  -7  11   36.67    1.62
   3  11   7   32.46    1.35
   3  11   7   34.95    1.71
  -3  11  -7   33.08    1.35
   7 -11   3   34.28    1.30
   7 -11   3   33.48    1.59
   3  -7  11   35.17    1.30
  11  -3   7   35.28    1.30
  -7  11   3   32.55    1.29
 -11   7  -3   32.97    1.30
  -3 -11   7   34.90    1.28
  -3 -11   7   34.50    1.55
  -3  11  -7   34.97    1.38
  11   7   3   34.16    1.32
  -3  11  -7   32.95    1.70
   7  11  -3   37.82    1.35
   7  11  -3   37.98    1.70
  -7  11   3   35.27    1.60
   7   3  11   36.06    1.32
   7  11  -3   36.62    1.35
  11   7   3   36.59    1.34
  11   7   3   34.14    1.63
  11  -3   7   34.96    1.58
   3  11   7   34.70    1.36
  11  -3   7   35.18    1.29
  -7  11   3   35.54    1.30
  11  -7   3   35.55    1.27
   7  -3  11   33.78    1.32
   3   7  11   34.75    1.30
   3 -11   7   33.50    1.31
   3 -11   7   35.88    1.64
   3   7  11   34.81    1.61
  -7  11  -3   35.02    1.72
   3   7  11   33.19    1.30
   7  -3  11   34.46    1.32
  11   3   7   33.49    1.58
   3  11  -7   37.62    1.68
  11   3   7   32.61    1.29
   7  11   3   35.02    1.39
  -3   7 -11   35.05    1.34
  11  -7   3   35.32    1.26
   7  11   3   32.43    1.72
   7  -3  11   35.13    1.63
   3  11  -7   37.46    1.35
  -7  11  -3   34.28    1.36
  -7  11  -3   33.83    1.35
  11   3   7   33.92    1.29
  11  -7   3   36.90    1.55
  -3  11   7   34.48    1.31
  -3  11   7   35.65    1.31
  -3  11   7   35.40    1.62
   7  11   3   31.70    1.36
   3  11  -7   38.15    1.35
   7   5  11   22.11    1.25
   5  -7  11   22.85    1.25
  11   7   5   24.34    1.31
  11   7   5   22.35    0.97
   7 -11   5   23.13    0.96
  -5 -11   7   23.35    1.17
  -5  11  -7   21.30    1.00
  -5  11  -7   21.23    1.00
  -5  11  -7   21.50    1.32
   7   5  11   21.68    0.96
 -11   7  -5   22.16    0.97
   5  -7  11   22.85    0.96
   5  -7  11   23.51    0.97
  11  -5   7   23.29    0.94
   5  11   7   23.68    1.03
   5  11   7   21.62    1.00
   5  11   7   22.34    1.34
   7 -11   5   21.32    1.22
  11   7   5   22.62    0.97
   7   5  11   21.90    0.96
  -5 -11   7   22.68    0.91
  11  -5   7   22.87    1.21
  11  -5   7   22.59    0.94
   7 -11   5   23.53    0.96
  -5   7 -11   23.41    1.01
   5   7  11   22.46    0.97
   7  11   5   23.21    1.04
   5  11  -7   25.76    1.29
  -7  11  -5   22.96    1.02
  -7  11  -5   22.91    1.02
   5  11  -7   25.53    0.99
   5 -11   7   23.05    0.96
   5   7  11   22.37    1.26
   5   7  11   22.80    0.97
   5 -11   7   22.14    0.96
   5 -11   7   22.87    1.26
  11  -7   5   21.97    0.92
  11  -7   5   23.45    1.20
  11   5   7   20.79    1.20
   7  -5  11   23.38    0.97
   7  -5  11   23.53    0.97
  -7  11  -5   22.07    1.34
   7  -5  11   21.60    1.24
   7  11   5   22.43    1.37
   7  11   5   21.95    1.02
  11   5   7   21.79    0.95
  11  -7   5   23.52    0.93
  11   5   7   22.45    0.96
   7   7  11    6.83    0.48
   7   7  11    7.67    0.49
  11  -7   7    7.83    0.46
   7  -7  11    7.76    0.80
   7  11   7    7.53    0.52
   7  -7  11    7.40    0.48
   7  -7  11    6.49    0.45
  -7  11  -7    7.21    0.51
   7 -11   7    7.13    0.46
   7 -11   7    6.94    0.46
   7 -11   7    6.59    0.74
  11   7   7    6.96    0.79
  11  -7   7    7.87    0.77
  11   7   7    7.44    0.49
   7  11   7    6.92    0.52
   7  11   7    6.82    0.85
   7   7  11    6.71    0.79
  11  -7   7    6.92    0.44
  11   7   7    6.63    0.47
   1  11   9   22.67    0.98
   1  11   9   24.42    1.00
   1  -9  11   22.70    0.93
   1  -9  11   21.51    0.93
   1  -9  11   22.01    1.21
   1   9 -11   23.25    0.95
  11  -1   9   21.05    0.93
  -9  11   1   21.93    0.93
  -9  11   1   21.74    1.22
  -1   9  11   22.43    1.21
  11  -1   9   21.36    1.20
   9 -11   1   22.32    0.92
   9 -11   1   24.45    1.21
   9  11  -1   25.35    1.01
   9  11  -1   22.68    0.97
   9  11  -1   22.84    1.29
  -1  11  -9   22.78    0.99
  -1  11  -9   21.36    1.29
   9   1  11   22.20    1.23
  11  -1   9   19.98    0.92
  -1 -11   9   21.82    0.93
  -1 -11   9   24.42    1.25
   9   1  11   22.88    0.96
  11   9   1   24.56    0.98
   1  11   9   22.90    1.30
  -1  11  -9   23.66    1.00
  -1   9  11   22.13    0.93
  -9  11   1   21.38    0.93
  -1   9  11   24.16    0.95
  -1   9 -11   22.78    0.98
  -9  11  -1   21.64    1.26
   9  11   1   21.74    1.31
   9 -11  -1   23.92    1.16
   1   9  11   23.81    1.27
   9 -11  -1   21.07    0.88
   1  11  -9   23.50    0.99
  11   1   9   21.19    1.19
   1  11  -9   23.21    1.30
  -9  11  -1   20.38    0.95
  -1  -9  11   23.20    0.92
  -1  -9  11   22.37    1.17
   9  -1  11   22.08    0.95
   9  -1  11   21.02    0.94
   9  -1  11   21.89    1.22
  -9  11  -1   21.26    0.95
  -1  -9  11   23.31    0.92
   1   9  11   22.42    0.96
   1 -11   9   21.83    0.93
   9  11   1   22.26    1.00
   9  11   1   21.71    0.98
  -1  11   9   22.87    0.96
  -1  11   9   22.07    0.94
  -1  11   9   20.87    1.22
  11   1   9   21.54    0.93
   1 -11   9   22.01    1.23
   1  11  -9   22.56    0.98
   1   9  11   22.54    0.95
  11   1   9   22.13    0.94
   1 -11   9   23.13    0.95
   3  -9  11   18.39    1.09
   3  -9  11   16.16    0.77
  11  -3   9   16.34    0.77
  11  -3   9   18.11    1.06
   3  -9  11   16.60    0.77
   9   3  11   15.21    1.03
   3  11   9   16.54    0.81
  -3 -11   9   17.51    0.76
  -3  11  -9   16.88    0.84
   9 -11   3   17.96    0.77
   9 -11   3   16.52    0.75
   9 -11   3   16.27    1.00
   3  11   9   18.12    0.84
  11   9   3   16.43    0.81
   3  11   9   16.27    1.10
  11   9   3   13.97    1.03
 -11   9  -3   15.92    0.78
  -3 -11   9   17.82    1.01
   9   3  11   15.82    0.77
  -3  11  -9   17.03    0.83
  -3  11  -9   16.82    1.13
   9   3  11   16.57    0.78
  11   9   3   15.99    0.79
  11  -3   9   17.14    0.78
   3 -11   9   18.05    0.80
   3 -11   9   16.59    0.78
   9  11   3   15.88    0.83
   3 -11   9   16.78    1.06
   3  11  -9   18.69    0.81
  -9  11  -3   17.41    0.82
  -3  11   9   16.74    0.77
  11  -9   3   17.51    1.01
  11   3   9   18.27    1.09
  -9  11  -3   17.47    0.82
  -3  11   9   17.26    1.04
   3  11  -9   18.78    0.81
   3  11  -9   18.88    1.11
  -3  11   9   16.20    0.76
   3   9  11   16.03    0.79
   9  11   3   15.53    0.82
   9  11   3   14.68    1.10
   9  -3  11   17.94    0.80
   9  -3  11   16.88    0.79
  -3   9 -11   16.90    0.81
  11   3   9   17.18    0.79
  11   3   9   16.13    0.77
  11  -9   3   17.92    0.75
  11  -9   3   17.43    0.75
  -9  11  -3   14.62    1.06
   3   9  11   16.28    0.79
   3   9  11   16.06    1.07
  11   9   5   17.44    1.18
   5  -9  11   16.25    1.08
  11   9   5   17.40    0.86
   9   5  11   17.54    0.84
   9   5  11   15.98    1.09
   5  -9  11   17.44    0.82
   5  11   9   16.25    1.18
  11  -5   9   18.39    0.83
  11  -5   9   18.02    0.82
  11  -5   9   17.22    1.09
   9   5  11   17.91    0.84
   9 -11   5   18.10    0.81
   9 -11   5   17.69    0.81
   9 -11   5   18.64    1.11
   5  11   9   18.68    0.90
   5  11   9   18.51    0.89
  -5  11  -9   17.42    0.88
 -11   9  -5   16.68    0.83
   5  -9  11   17.94    0.82
  11   9   5   17.83    0.87
   9  11   5   17.83    1.24
  -5   9 -11   15.71    0.84
   5   9  11   17.62    0.86
   5   9  11   16.73    1.15
   5 -11   9   18.84    0.84
   5 -11   9   17.28    0.82
   5 -11   9   16.09    1.08
   9  11   5   17.96    0.90
   9  11   5   16.99    0.88
   5   9  11   17.92    0.86
  -9  11  -5   17.89    0.88
   9  -5  11   18.50    0.84
   9  -5  11   19.15    1.15
  11   5   9   18.06    0.84
  11   5   9   17.95    0.84
  11   5   9   17.78    1.12
  11  -9   5   19.63    0.81
  11  -9   5   17.03    0.79
  11  -9   5   17.35    1.04
   9  -5  11   18.48    0.84
 -11   9  -7   19.48    0.94
  -7  11  -9   18.59    0.95
   7  11   9   19.76    0.97
   7  11   9   18.94    0.96
   7  -9  11   17.28    0.86
   7  -9  11   18.59    0.88
   7  -9  11   20.04    1.22
  11  -7   9   19.42    1.19
   9   7  11   19.33    0.92
   9   7  11   18.48    0.91
   9 -11   7   19.35    0.88
   9 -11   7   17.91    0.87
   9 -11   7   18.75    1.19
   7  11   9   17.09    1.28
  11   9   7   18.54    0.93
  11   9   7   18.90    0.93
  11  -7   9   17.33    0.85
  11  -7   9   18.49    0.87
  11   9   7   18.98    1.29
   9   7  11   19.83    1.27
   7   9  11   18.92    0.93
  11   7   9   19.54    1.26
   7 -11   9   19.71    0.89
   7 -11   9   18.73    0.89
   7 -11   9   18.81    1.21
  -9  11  -7   19.36    0.95
  -7   9 -11   17.40    0.92
   9  11   7   20.19    0.98
   9  -7  11   21.46    0.92
   9  -7  11   18.66    0.89
   9  -7  11   20.59    1.24
   7   9  11   18.89    0.92
   7   9  11   20.94    1.32
  11   7   9   18.76    0.91
  11  -9   7   19.06    0.86
  11  -9   7   17.69    0.85
  11  -9   7   16.88    1.11
   9  11   7   19.43    0.97
   9  11   7   18.93    1.33
  11   7   9   19.40    0.92
  -9  11  -9   14.95    0.83
   9 -11   9   14.10    0.75
   9  -9  11   14.89    0.77
   9   9  11   14.44    0.81
   9  11   9   15.34    0.86
  11  -9   9   14.41    0.75
  11   9   9   14.28    0.81
  -1 -11  11   21.64    0.93
  -1 -11  11   21.51    0.93
  -1 -11  11   20.16    1.20
  -1  11 -11   23.08    1.01
  -1  11  11   22.76    0.97
  -1  11  11   22.26    0.96
  -1  11  11   21.49    1.26
   1 -11  11   21.79    0.94
   1 -11  11   21.19    0.94
   1 -11  11   23.27    1.27
   1  11 -11   23.45    0.99
   1  11  11   22.61    0.99
   1  11  11   20.16    0.96
   1  11  11   22.09    1.31
  11  -1  11   22.77    0.97
  11  -1  11   21.28    0.96
  11  -1  11   22.11    1.27
  11   1  11   21.68    0.96
  11   1  11   21.97    0.97
  11   1  11   22.49    1.27
  11  11   1   22.66    1.00
 -11  11  -3    7.89    0.52
  -3  11 -11    7.63    0.54
   3 -11  11    7.86    0.50
   3 -11  11    7.39    0.49
   3 -11  11    6.73    0.77
   3  11  11    7.47    0.53
   3  11  11    7.39    0.51
   3  11  11    7.01    0.84
  11 -11   3    8.10    0.47
  11 -11   3    7.48    0.46
  11 -11   3    8.97    0.72
  11  -3  11    7.85    0.50
  11  -3  11    7.58    0.49
  11  -3  11    7.57    0.81
  11   3  11    8.01    0.51
  11   3  11    7.71    0.50
  11   3  11    8.06    0.84
  11  11   3    7.19    0.53
  11  11   3    7.09    0.52
  11  11   3    6.97    0.85
 -11  11  -5   12.78    0.71
  -5  11 -11   11.10    0.69
   5 -11  11   13.12    0.68
   5 -11  11   13.91    0.99
   5  11  11   12.91    0.73
   5  11  11   13.24    1.06
  11 -11   5   12.38    0.65
  11 -11   5   11.74    0.64
  11 -11   5   12.23    0.91
  11  -5  11   13.22    0.68
  11  -5  11   13.80    0.98
  11   5  11   11.59    0.67
  11   5  11   11.75    0.94
  11  11   5   11.96    0.72
  11  11   5   11.78    0.71
  11  11   5   11.36    1.13
 -11  11  -7   20.15    1.01
  -7  11 -11   21.54    1.05
   7 -11  11   20.90    0.97
   7  11  11   21.53    1.06
  11 -11   7   22.21    0.96
  11  -7  11   19.93    0.96
  11   7  11   22.16    1.03
  11  11   7   20.08    1.04
 -11   9 -11   10.30    0.46
 -11  11  -9    9.97    0.46
  -9  11 -11   10.54    0.47
   9 -11  11   11.22    0.65
   9  11  11   10.82    0.72
  11 -11   9   10.58    0.63
  11  -9  11    9.86    0.62
  11   9  11   10.44    0.70
  11  11   9   11.97    0.76
 -11  11 -11    4.76    0.29
 -11  11  11    4.91    0.23
  11 -11  11    4.12    0.45
  11  11  11    4.43    0.54
   0   0  12  219.10    6.77
   0   0  12  226.26    6.78
   0   0  12  223.10    7.01
   0  12   0  220.92    6.94
   0  12   0  216.37    6.93
   0  12   0  221.46    7.38
  -2  12   0   10.38    0.58
  -2  12   0    9.78    0.56
  -2  12   0    9.05    0.76
   0  -2  12   10.69    0.48
   0  -2  12   10.81    0.48
   0  -2  12   10.97    0.64
   0   2  12   10.35    0.47
   0   2  12   11.15    0.48
   0   2  12   10.21    0.64
   2  12   0   10.30    0.58
   2  12   0   10.71    0.58
   2  12   0   10.28    0.81
   2   0  12   10.95    0.50
   2   0  12   10.87    0.67
   2   0  12   10.59    0.49
   0  12   2   10.13    0.56
   0  12   2   11.69    0.84
   0  12  -2   10.68    0.82
   0  12   2   10.27    0.57
   0  12  -2    9.94    0.57
   0  12  -2   10.23    0.57
   2  -2  12   10.32    0.49
   2  -2  12   10.41    0.68
  -2  12   2   10.87    0.81
   2  -2  12    9.84    0.49
  -2  12   2   10.67    0.57
  -2  12  -2   10.44    0.82
  -2  12   2   11.30    0.59
  -2  12  -2   10.69    0.59
  -2  12  -2   10.42    0.58
   2  12   2   10.44    0.59
   2  12   2    9.68    0.56
   2   2  12   10.70    0.49
   2   2  12   10.60    0.49
   2   2  12   10.33    0.67
   2  12  -2    9.97    0.57
   2  12  -2   10.53    0.58
   2  12  -2   10.76    0.83
   2  12   2   11.14    0.84
  -4  12   0  221.10    6.96
  -4  12   0  221.03    6.96
   0  12   4  219.25    6.95
   0  12   4  218.01    7.37
   4   0  12  228.06    6.87
   4   0  12  216.18    6.86
   4   0  12  223.33    7.18
   0   4  12  226.25    6.83
   0  12  -4  224.30    6.98
   0  12  -4  217.53    6.96
   0  12  -4  228.95    7.43
   0   4  12  234.90    6.84
   0   4  12  236.61    7.12
   4  12   0  217.25    6.98
   4  12   0  205.73    6.95
   4  12   0  211.76    7.42
  12   0   4  227.79    6.83
  12   0   4  227.38    6.84
  12   0   4  215.66    7.10
   0  12   4  221.23    6.96
   0  -4  12  226.18    7.12
   0  -4  12  226.47    6.84
  -4  12   0  214.29    7.38
   0  -4  12  218.43    6.82
   4  12  -2    8.75    0.53
   4   2  12    9.49    0.48
   4   2  12    8.53    0.64
  12  -2   4    8.98    0.45
   2  12   4    9.72    0.55
  12  -2   4    8.57    0.61
  -4  12   2    8.31    0.50
  -4  12   2    7.77    0.81
   4 -12   2    8.44    0.49
   4  12  -2    8.49    0.52
   2  -4  12    8.59    0.64
  12  -2   4    9.24    0.46
   4  12  -2    7.16    0.79
  -4  12   2    7.56    0.49
   4   2  12    8.76    0.47
   2  12   4    8.76    0.86
  -2  12  -4    9.22    0.54
  -2  12  -4    8.70    0.52
  -2  12  -4    9.57    0.78
   2  -4  12    8.64    0.46
   2  12   4    9.60    0.54
   2  -4  12    9.66    0.48
  12   2   4    9.36    0.46
  -4  12  -2    9.46    0.78
   4  -2  12    9.22    0.67
   2   4  12    9.39    0.47
   2   4  12    9.41    0.65
   4  -2  12    9.39    0.48
  12   2   4   10.18    0.67
   4  -2  12    8.76    0.47
  -2  12   4    9.91    0.53
  -2  12   4    7.39    0.77
   2 -12   4    8.61    0.49
   2   4  12    9.34    0.47
   2  12  -4    9.80    0.54
   2  12  -4    8.78    0.52
   2  12  -4    9.61    0.77
  -2  12   4    9.36    0.53
  12   2   4    8.82    0.46
  -4  12  -2    7.73    0.51
  -4  12  -2    8.16    0.51
   4  12   2    9.47    0.56
   4  12   2    8.38    0.53
   4  12   2    8.80    0.88
   2 -12   4    9.86    0.72
   4  12   4  175.16    5.78
   4  12   4  179.35    6.26
  12  -4   4  191.31    5.67
  -4  12  -4  175.66    6.26
  -4  12   4  182.59    5.75
  -4  12   4  179.95    5.73
  -4  12   4  182.11    6.15
   4 -12   4  180.96    5.73
   4 -12   4  187.49    6.14
   4  -4  12  186.14    5.71
   4  12  -4  181.76    5.77
   4  12  -4  181.62    5.77
   4  12  -4  181.52    6.21
   4  12   4  176.14    5.79
  -4  12  -4  182.93    5.81
  -4  12  -4  175.82    5.79
   4   4  12  183.64    5.70
   4   4  12  179.58    5.69
   4   4  12  174.64    6.02
  12   4   4  184.67    6.01
   4  -4  12  177.54    6.06
  12  -4   4  197.05    5.68
  12  -4   4  191.89    6.00
  12   4   4  182.50    5.68
  12   4   4  182.26    5.68
   4  -4  12  177.42    5.70
   6  12   0    7.70    0.83
  12   0   6    7.78    0.43
   6  12   0    7.48    0.48
   0 -12   6    8.09    0.46
   0 -12   6    8.03    0.65
   0  12  -6    6.63    0.47
   0  12  -6    7.21    0.47
   0  12  -6    7.25    0.78
   0  12   6    7.55    0.48
   0  12   6    6.89    0.46
  12   0   6    7.51    0.43
  12   0   6    7.70    0.61
  -6  12   0    6.97    0.47
  -6  12   0    7.54    0.47
  -6  12   0    6.26    0.73
   0  -6  12    8.49    0.43
   0  -6  12    7.71    0.42
   0  -6  12    8.41    0.61
   0   6  12    7.57    0.43
   0   6  12    7.91    0.43
   0   6  12    7.48    0.60
   6 -12   0    7.27    0.43
   6  12   0    7.84    0.51
   6   0  12    8.09    0.66
   6   0  12    7.63    0.45
   6   0  12    8.12    0.46
   0  12   6    6.33    0.72
  -2  12  -6    8.97    0.90
   2  -6  12    9.71    0.71
   6  12  -2    9.80    0.57
   6 -12   2    9.28    0.72
   6 -12   2    9.39    0.51
   6   2  12    9.33    0.51
  -2  12  -6    9.59    0.57
  -2  12  -6    8.95    0.55
   2  -6  12    9.78    0.50
  12  -2   6    9.79    0.50
  12  -2   6    9.26    0.49
  12  -2   6    9.19    0.68
   6  12  -2    9.01    0.55
   2  -6  12    9.42    0.50
   2  12   6    8.65    0.87
   6   2  12    8.92    0.50
   6   2  12    9.99    0.72
   2  12   6    9.71    0.56
  -2 -12   6    9.05    0.50
  -6  12   2    9.46    0.53
  -6  12   2    9.10    0.86
   6  12  -2    9.68    0.94
   2  12   6    9.73    0.55
  -6  12   2    9.30    0.53
   6  12   2    9.13    0.94
   2 -12   6    8.53    0.51
   2   6  12    9.57    0.50
   2  12  -6    9.85    0.56
  -6  12  -2    9.74    0.56
   2  12  -6    9.24    0.54
   2  12  -6    9.98    0.80
   2   6  12    9.20    0.70
  12   2   6   10.26    0.71
   6  -2  12   10.08    0.52
   6  -2  12    8.90    0.50
   6  -2  12    9.46    0.72
  12   2   6    9.18    0.49
   2 -12   6    9.27    0.73
  -6  12  -2    9.79    0.57
   2   6  12    9.79    0.51
  -6  12  -2    9.74    0.95
  -2  12   6    9.29    0.54
  -2  12   6    9.54    0.53
  -2  12   6   10.40    0.79
   6  12   2    9.00    0.57
   6  12   2    8.85    0.56
  12   2   6    9.57    0.50
  12   6   4   10.16    0.54
   4  12   6   10.57    0.87
   4  -6  12    9.25    0.52
   6   4  12   10.04    0.54
  -6  12   4    9.12    0.52
   6  12  -4    9.94    0.56
  -6  12   4   10.36    0.78
   6   4  12   10.18    0.54
   4  -6  12    7.85    0.78
  -4  12  -6    9.64    0.59
  -4  12  -6    8.71    0.56
  -4  12  -6   10.21    0.98
   4  12   6    8.46    0.56
  12   6   4    9.54    0.52
   6   4  12    8.37    0.82
   6 -12   4    8.99    0.74
  12  -4   6    9.67    0.51
  12  -4   6   10.06    0.52
  12  -4   6   10.03    0.73
  -6  12   4    8.79    0.52
  12   6   4    9.78    0.75
   6  12  -4   10.67    0.83
   6  12  -4   10.12    0.57
   4  -6  12    9.98    0.53
   4  12   6    9.66    0.59
   6 -12   4    8.92    0.52
  -6  12  -4    9.47    0.57
  -6  12  -4    8.75    0.91
   4 -12   6    9.19    0.75
  12  -6   4   10.23    0.52
   4  12  -6   10.33    0.82
   6  12   4    9.16    0.58
  12   4   6    9.21    0.51
  12   4   6    9.63    0.52
  12   4   6    9.21    0.72
  12  -6   4   11.08    0.75
   4   6  12    8.81    0.52
   4   6  12    9.11    0.52
   4   6  12    8.71    0.72
  -4  12   6    8.91    0.52
   6  12   4    8.90    0.94
  -4  12   6    9.93    0.78
  12  -6   4    9.33    0.50
  -4  12   6    9.79    0.54
   6  12   4    9.68    0.59
   6  -4  12   10.15    0.54
   6  -4  12    9.27    0.53
   6  -4  12    8.85    0.73
   4  12  -6    9.75    0.56
   4  12  -6   10.28    0.56
  -6  12  -4    9.62    0.58
   4 -12   6    9.54    0.54
   6  12   6    7.84    0.53
  12   6   6    7.24    0.47
  12   6   6    7.48    0.80
  12  -6   6    7.68    0.75
   6  12   6    7.00    0.86
  -6  12  -6    7.06    0.51
  -6  12  -6    7.12    0.50
  -6  12  -6    5.92    0.78
   6 -12   6    7.77    0.48
   6 -12   6    7.33    0.47
   6 -12   6    7.85    0.79
   6  -6  12    7.08    0.47
   6  -6  12    6.78    0.46
   6  -6  12    7.07    0.78
   6   6  12    7.45    0.48
   6   6  12    6.81    0.46
   6   6  12    7.44    0.79
   6  12   6    6.74    0.51
  12  -6   6    7.01    0.44
  12   6   6    7.88    0.48
  12  -6   6    7.34    0.45
  -8  12   0  145.55    4.85
   0  12  -8  150.28    5.36
  -8  12   0  145.49    4.85
   8   0  12  155.97    5.26
  12   0   8  146.82    5.17
   0  -8  12  157.22    5.16
   0   8 -12  157.79    4.84
   0   8  12  159.04    4.83
   0   8  12  156.34    4.83
   0   8  12  159.61    5.23
   8 -12   0  151.96    4.80
   8 -12   0  155.92    5.17
   8  12   0  152.52    4.92
   8  12   0  145.78    4.89
   0 -12   8  150.73    4.83
   0 -12   8  151.38    5.23
   0  12  -8  157.73    4.91
   0  12  -8  155.50    4.90
   8  12   0  143.94    5.35
  12   0   8  152.37    4.81
  -8  12   0  141.23    5.25
   0  12   8  151.60    4.87
   0  12   8  141.57    4.84
   0  12   8  148.16    5.29
   8   0  12  153.62    4.84
   8   0  12  151.28    4.85
  12   0   8  150.29    4.82
   0  -8  12  151.38    4.78
   0  -8  12  156.37    4.80
   8   2  12    7.96    0.49
   2  12   8    7.37    0.51
   8 -12   2    8.11    0.79
   2  12   8    7.89    0.51
   2  12   8    9.22    0.91
   2  -8  12    9.32    0.50
   2  -8  12    8.71    0.71
  -8  12   2    7.51    0.47
  -8  12   2    8.80    0.83
   8  12  -2    8.80    0.53
   2  -8  12    8.64    0.49
  -2  12  -8    8.16    0.53
  -2  12  -8    8.49    0.55
   8   2  12    7.82    0.48
   8   2  12    6.79    0.74
  -8  12   2    8.03    0.49
   8  12  -2    9.06    0.88
  -2 -12   8    8.47    0.48
  12  -2   8    7.57    0.47
  -2 -12   8    8.79    0.71
   8 -12   2    8.16    0.48
  12  -2   8    7.79    0.48
   8  12  -2    7.87    0.51
  -2  12  -8    7.41    0.84
   8  -2  12    7.20    0.48
  -2  12   8    8.02    0.49
   2  12  -8    8.97    0.89
   2 -12   8    7.53    0.48
   2 -12   8    7.45    0.77
   8 -12  -2    8.65    0.46
   8 -12  -2    8.98    0.66
   8  -2  12    7.67    0.79
  -2   8 -12    8.73    0.52
   8  -2  12    7.69    0.48
   2   8  12    8.36    0.49
   2  12  -8    8.99    0.54
   8  12   2    8.60    0.56
   2   8  12    9.48    0.76
   8  12   2    7.36    0.85
  12   2   8    7.68    0.76
  -8  12  -2    8.00    0.52
  12   2   8    7.80    0.47
  -2  12   8    8.01    0.50
  12   2   8    7.54    0.47
  -2  12   8    7.22    0.78
   2  12  -8    9.31    0.54
  -8  12  -2    7.81    0.51
  -8  12  -2    8.54    0.90
   8  12   2    7.15    0.52
   2   8  12    8.73    0.50
   8   4  12  148.24    4.86
   8   4  12  154.13    5.31
  12  -4   8  148.08    5.21
   8 -12   4  155.60    4.84
   8 -12   4  150.07    4.84
  12   8   4  142.04    4.86
  12   8   4  142.95    5.29
   4  12   8  152.44    4.93
   4  12   8  148.75    4.92
   8 -12   4  154.53    5.27
  -4 -12   8  153.35    5.18
  -4  12  -8  151.76    4.94
  -4  12  -8  149.88    4.93
  12   8   4  154.33    4.88
  -4 -12   8  151.35    4.80
  12  -4   8  149.89    4.83
   8   4  12  158.34    4.88
   4  12   8  149.74    5.43
  -4  12  -8  148.80    5.43
   4  -8  12  149.57    4.84
   4  -8  12  150.68    4.85
 -12   8  -4  152.51    4.86
   4  -8  12  150.47    5.26
  12  -4   8  152.31    4.83
   4   8  12  145.76    4.86
   4   8  12  151.69    5.31
   4 -12   8  152.84    5.31
  12  -8   4  161.56    4.81
  12   4   8  142.42    4.83
  12   4   8  139.37    5.20
  -8  12  -4  153.21    5.44
  12   4   8  144.15    4.83
   8  -4  12  153.71    4.86
   8  -4  12  153.60    4.87
   8  12   4  152.86    4.97
   8  12   4  148.98    4.95
   8  12   4  146.97    5.48
   4   8  12  147.78    4.85
  -4  12   8  150.25    4.83
   4 -12   8  153.53    4.85
  12  -8   4  156.78    5.18
   4  12  -8  163.64    4.89
   4  12  -8  159.68    4.88
   4  12  -8  164.78    5.36
  12  -8   4  156.34    4.82
   8  -4  12  151.50    5.29
   4 -12   8  154.25    4.87
  -8  12  -4  153.93    4.94
  -8  12  -4  145.61    4.91
  -4   8 -12  146.30    4.89
  -6  12  -8    6.87    0.51
   8   6  12    6.32    0.47
   8   6  12    5.89    0.45
   8 -12   6    6.08    0.43
   8 -12   6    5.89    0.42
   8 -12   6    5.11    0.67
   6  12   8    5.75    0.47
   6  12   8    5.99    0.82
   6  -8  12    6.10    0.74
   8   6  12    6.69    0.80
  12  -6   8    6.34    0.44
  12  -6   8    5.63    0.68
   6  -8  12    5.72    0.43
   6  12   8    5.75    0.54
  -6  12  -8    7.34    0.88
   6  -8  12    5.91    0.44
  12   8   6    6.15    0.47
  12   8   6    5.68    0.45
  12   8   6    5.27    0.72
   6   8  12    6.10    0.45
   6   8  12    6.21    0.78
  -8  12  -6    6.33    0.49
  -8  12  -6    5.82    0.79
   6 -12   8    6.23    0.44
   8  -6  12    6.30    0.74
   8  12   6    6.91    0.53
   8  12   6    5.67    0.80
  12  -8   6    6.35    0.43
  12  -8   6    6.00    0.41
  12   6   8    5.84    0.45
  12   6   8    5.89    0.45
  12   6   8    6.91    0.79
   8  12   6    5.44    0.48
   8  -6  12    6.11    0.45
   8  -6  12    6.40    0.45
   6 -12   8    6.22    0.44
   6 -12   8    5.48    0.69
   6   8  12    5.65    0.51
  12  -8   6    6.83    0.73
   8   8  12  108.48    4.23
   8  -8  12  108.87    4.15
  -8  12  -8  110.80    3.78
   8 -12   8  106.53    3.65
   8   8  12  111.55    3.72
   8  12   8  118.60    4.44
  12  -8   8  110.21    3.64
  12   8   8  108.02    3.70
  12   8   8  106.43    4.19
   8  -8  12  113.15    3.69
   8 -12   8  111.64    4.15
   8  12   8  109.44    3.79
   0 -10  12    8.74    0.50
  10   0  12    9.35    0.55
 -10  12   0    7.80    0.51
  12   0  10    8.10    0.81
  10 -12   0    9.10    0.49
   0  12 -10    8.05    0.54
   0 -10  12    8.23    0.50
   0  12 -10    8.33    0.55
   0  12 -10    9.38    0.95
   0  12  10    9.33    0.56
   0  12  10    8.20    0.52
   0  12  10    8.46    0.87
  10  12   0    9.06    0.57
  10  12   0    9.13    0.95
  12   0  10    8.68    0.53
  10   0  12    7.94    0.52
  10   0  12    8.82    0.88
   0 -10  12    8.49    0.84
   0  10 -12    9.46    0.55
   0  10  12    8.32    0.52
  12   0  10    8.57    0.52
   0  10  12    8.79    0.53
   0  10  12    8.45    0.86
   0 -12  10    8.36    0.84
   0 -12  10    8.90    0.52
   0 -12  10    8.63    0.51
  -2  12 -10    6.48    0.81
   2 -10  12    6.22    0.72
  10   2  12    6.81    0.46
  10   2  12    7.19    0.48
   2 -10  12    7.16    0.46
  10 -12   2    6.08    0.41
  10 -12   2    5.93    0.67
  10   2  12    6.75    0.77
  12  -2  10    6.50    0.44
  12  -2  10    7.66    0.79
   2  12  10    7.07    0.85
  -2 -12  10    6.79    0.44
  -2 -12  10    6.01    0.71
  -2  12 -10    6.31    0.49
   2  12  10    6.96    0.49
  -2 -12  10    7.00    0.44
  10 -12   2    6.28    0.42
   2 -10  12    6.05    0.43
  12  -2  10    6.25    0.44
   2  12  10    6.81    0.49
   2 -12  10    6.43    0.75
   2 -12  10    6.11    0.44
   2  10  12    6.69    0.47
  -2  12  10    8.14    0.84
   2 -12  10    6.37    0.45
   2  10  12    7.94    0.87
  -2  12  10    6.58    0.46
 -10  12  -2    6.06    0.46
 -10  12  -2    6.17    0.46
 -10  12  -2    7.65    0.83
  -2  10 -12    6.40    0.47
  10  12   2    6.75    0.50
  10  12   2    5.60    0.46
  10  12   2    6.31    0.81
  -2  12  10    6.95    0.47
   2  12 -10    7.25    0.49
  12   2  10    7.23    0.47
  10  -2  12    6.87    0.47
  10  -2  12    5.89    0.44
  10  -2  12    6.09    0.73
  12   2  10    6.84    0.45
  12   2  10    7.10    0.77
   2  10  12    6.51    0.46
   2  12 -10    6.54    0.78
   2  12 -10    6.74    0.48
  12  10   4    5.24    0.73
  10   4  12    4.59    0.45
   4 -10  12    5.12    0.40
   4 -10  12    5.45    0.41
   4  12  10    5.25    0.44
  10 -12   4    4.69    0.62
  12  -4  10    3.95    0.59
  -4  12 -10    4.35    0.47
  10 -12   4    4.96    0.39
  12  10   4    4.43    0.46
  12  -4  10    5.46    0.41
  12  -4  10    5.65    0.41
  12  10   4    4.27    0.40
   4  12  10    5.46    0.52
 -12  10  -4    4.50    0.44
  10 -12   4    5.68    0.41
   4 -10  12    5.83    0.73
   4  12  10    3.44    0.64
  10  12   4    5.08    0.51
  -4  10 -12    5.43    0.51
  12   4  10    4.73    0.39
  12 -10   4    5.28    0.39
  12 -10   4    4.94    0.37
  12 -10   4    5.13    0.62
  10  -4  12    4.76    0.45
  10  -4  12    4.72    0.39
  10  -4  12    4.40    0.64
   4  10  12    4.56    0.40
 -10  12  -4    5.21    0.49
   4 -12  10    4.37    0.42
   4 -12  10    4.97    0.40
  10  12   4    5.19    0.78
  12   4  10    5.80    0.43
   4  10  12    4.55    0.69
  12   4  10    6.28    0.75
   4 -12  10    3.96    0.61
   4  10  12    4.79    0.47
  10  12   4    5.31    0.45
  12  -6  10    7.19    0.81
 -12  10  -6    6.79    0.51
   6 -10  12    6.48    0.47
  -6  12 -10    6.08    0.57
  10 -12   6    7.11    0.48
  12  10   6    7.27    0.92
  10 -12   6    7.17    0.82
   6  12  10    6.38    0.59
  12  -6  10    6.56    0.47
  10   6  12    7.21    0.51
  12  10   6    6.08    0.57
  12   6  10    6.02    0.80
   6  10  12    6.23    0.57
 -10  12  -6    5.98    0.57
  -6  10 -12    5.80    0.55
   6 -12  10    6.75    0.48
  12   6  10    6.73    0.50
  12 -10   6    7.37    0.80
  10  12   6    6.45    0.61
  12 -10   6    6.06    0.45
  10  12   6    6.11    0.89
  10  -6  12    7.24    0.49
  12  -8  10    5.74    0.45
 -10   8 -12    5.60    0.30
  10 -12   8    6.32    0.47
  12  10   8    6.48    0.60
   8 -10  12    6.36    0.48
  10   8  12    6.18    0.57
   8  12  10    5.57    0.59
  -8  12 -10    5.52    0.32
   8  12  10    5.93    0.37
  -8  12 -10    5.53    0.56
  12   8  10    5.69    0.54
 -10  12  -8    6.23    0.60
   8 -12  10    5.20    0.49
  -8  10 -12    5.09    0.31
 -10  12  -8    5.50    0.32
  10  -8  12    6.36    0.47
   8  10  12    6.21    0.59
  12 -10   8    6.10    0.45
  10  12   8    5.78    0.61
 -12  10 -10    3.27    0.24
 -12  10  10    3.58    0.18
 -10  10 -12    3.09    0.24
 -10  10  12    3.11    0.18
 -10  12 -10    3.92    0.49
 -10  12 -10    3.52    0.26
  10 -12  10    3.59    0.42
  10 -10  12    2.94    0.39
  10  10  12    3.38    0.46
  10  12  10    3.30    0.47
  12 -10  10    3.32    0.41
  12  10  10    3.87    0.49
   0 -12  12  110.01    3.62
   0 -12  12  110.69    4.06
   0  12 -12  112.55    3.71
   0  12  12  114.23    3.69
   0  12  12  106.84    3.66
   0  12  12  109.73    4.15
  12   0  12  106.69    3.65
  -2  12 -12    5.63    0.53
   2 -12  12    5.13    0.41
   2  12  12    4.94    0.49
  12  -2  12    5.40    0.48
  12   2  12    5.31    0.49
 -12  12  -4   94.63    3.24
  -4  12 -12   91.75    3.27
  -4  12 -12   95.63    2.98
   4 -12  12   92.97    3.20
   4  12  12   95.25    3.28
   4  12  12   94.29    3.06
  12 -12   4   96.61    3.15
  12  -4  12   93.76    3.21
  12   4  12   99.38    3.25
  12  12   4   90.19    3.27
 -12  12  -6    4.18    0.47
 -12  12  -6    4.58    0.29
  -6  12 -12    4.73    0.51
  -6  12 -12    5.41    0.31
   6 -12  12    4.57    0.46
   6  12  12    5.06    0.54
   6  12  12    5.19    0.36
  12 -12   6    4.38    0.43
  12  -6  12    4.18    0.45
  12   6  12    4.53    0.48
  12  12   6    5.05    0.54
 -12   8 -12   72.92    2.44
 -12   8  12   73.92    2.38
 -12  12  -8   82.45    2.84
 -12  12  -8   73.77    2.46
 -12  12   8   77.98    2.38
  -8  12 -12   76.59    2.82
  -8  12 -12   76.75    2.48
  -8  12  12   79.86    2.38
   8 -12  12   75.63    2.72
   8  12  12   79.52    2.87
   8  12  12   74.92    2.54
  12 -12   8   81.24    2.71
  12  -8  12   78.30    2.73
  12   8  12   80.13    2.80
  12  12   8   78.67    2.86
 -12  10 -12    2.82    0.18
 -12  10 -12    2.84    0.25
 -12  10  12    3.11    0.18
 -12  12 -10    2.90    0.17
 -12  12 -10    2.79    0.25
 -12  12  10    3.13    0.18
 -10  12 -12    3.27    0.18
 -10  12 -12    2.84    0.26
 -10  12  12    3.61    0.18
  10 -12  12    2.79    0.38
  10  12  12    3.21    0.48
  12 -12  10    2.98    0.39
  12 -10  12    3.49    0.43
  12  10  12    3.30    0.49
  12  12  10    2.42    0.44
 -12  12 -12   53.84    1.69
 -12  12 -12   53.13    1.77
 -12  12 -12   52.78    1.66
 -12  12  12   55.02    1.69
  -1  13  -1   24.30    1.04
  -1  13  -1   21.85    1.01
  -1  13  -1   23.19    1.35
  -1  13   1   23.79    1.03
  -1  13   1   24.10    1.03
  -1  13   1   23.55    1.35
   1  -1  13   24.87    0.91
   1  -1  13   24.82    0.91
   1  -1  13   23.96    1.12
   1   1  13   24.19    0.91
   1   1  13   25.60    0.92
   1   1  13   26.10    1.14
   1  13  -1   22.35    1.03
   1  13  -1   21.09    1.00
   1  13  -1   22.05    1.33
   1  13   1   24.05    1.04
   1  13   1   23.29    1.03
   1  13   1   24.06    1.36
   3  13  -1   11.93    0.97
   3  13  -1   15.17    0.78
   1  13   3   16.50    0.78
  -3  13   1   14.54    0.74
  -3  13   1   14.33    0.74
  -3  13   1   15.30    1.03
   1  -3  13   16.27    0.67
   1  -3  13   15.41    0.66
   1  -3  13   15.93    0.88
  -1  13  -3   15.43    1.05
   3   1  13   16.09    0.90
  -1  13  -3   14.76    0.76
   3   1  13   16.91    0.69
   3  13  -1   14.31    0.75
   3   1  13   15.51    0.67
   1  13   3   14.51    1.03
  -1  13  -3   14.18    0.74
   1  13   3   15.75    0.76
   3  13   1   15.53    0.78
   3  -1  13   15.78    0.68
  -3  13  -1   15.16    1.04
   3  -1  13   15.67    0.90
  -3  13  -1   13.68    0.74
  -3  13  -1   14.22    0.74
   1   3  13   16.66    0.67
   3  13   1   15.23    0.76
   3  13   1   14.26    1.05
   1  13  -3   14.94    1.04
   1  13  -3   15.08    0.76
   1  13  -3   15.29    0.76
   1   3  13   16.02    0.87
   3  -1  13   15.94    0.68
   1   3  13   16.06    0.66
  -1  13   3   15.15    0.75
  -1  13   3   14.93    0.74
  -1  13   3   15.68    1.04
  -3  13   3   30.16    1.18
  -3  13   3   29.10    1.16
  -3  13  -3   25.47    1.49
  -3  13  -3   30.07    1.21
  -3  13  -3   27.67    1.17
   3  13   3   27.22    1.19
   3  13   3   26.86    1.17
   3  13   3   27.84    1.53
   3  13  -3   29.15    1.55
   3  13  -3   28.81    1.19
   3  13  -3   27.08    1.17
   3   3  13   27.98    1.34
  -3  13   3   27.56    1.47
   3 -13   3   28.92    1.14
   3  -3  13   28.15    1.08
   3  -3  13   28.94    1.09
   3  -3  13   27.99    1.35
   3   3  13   27.92    1.08
   3   3  13   29.41    1.09
   1  -5  13   17.71    0.73
  -5  13   1   16.33    0.79
  -5  13   1   16.55    1.09
  -5  13   1   17.52    0.82
  -1  13  -5   16.10    1.10
  13  -1   5   17.35    0.72
  13  -1   5   17.16    0.72
  13  -1   5   17.14    0.94
   5   1  13   16.05    0.74
   5   1  13   16.71    0.74
   1  13   5   15.60    1.08
   5 -13   1   16.28    0.76
   5  13  -1   17.71    0.84
   5  13  -1   15.83    0.80
   5  13  -1   15.26    1.09
  -1  13  -5   16.62    0.83
  -1  13  -5   15.81    0.80
   1  13   5   17.07    0.82
   1  13   5   16.98    0.81
   1  -5  13   17.36    0.97
   1  -5  13   16.69    0.72
   5   1  13   16.09    0.97
   5  13   1   13.01    1.04
  -1  13   5   17.37    0.81
   1 -13   5   17.90    1.07
   1 -13   5   17.85    0.79
  13   1   5   17.74    0.73
  13   1   5   17.65    0.73
  13   1   5   17.19    0.94
   1  13  -5   18.33    0.84
   1  13  -5   13.88    1.03
  -5  13  -1   15.63    0.80
  -5  13  -1   16.31    0.80
   5  13   1   16.17    0.83
   5  13   1   15.79    0.81
   5  -1  13   16.62    0.74
   5  -1  13   15.80    0.97
   1   5  13   17.60    0.73
   1   5  13   17.12    0.73
  -5  13  -1   14.05    1.04
   5  -1  13   16.99    0.75
  -1  13   5   17.03    0.79
   1   5  13   16.82    0.96
   1  13  -5   16.49    0.80
  -1  13   5   17.08    1.10
  -3  13  -5   18.75    0.91
   3  -5  13   19.40    1.09
  -5  13   3   19.57    0.88
  -5  13   3   18.58    0.85
   5  13  -3   18.36    1.19
   3  13   5   19.23    0.90
  -3  13  -5   16.96    1.18
   5 -13   3   20.22    1.15
   5 -13   3   17.97    0.83
   3  13   5   20.29    0.93
   5   3  13   18.67    0.82
   5   3  13   19.47    0.83
  13  -3   5   21.44    0.82
   5  13  -3   19.54    0.90
   5  13  -3   18.55    0.88
   3  13   5   18.72    1.21
  -3  13  -5   17.25    0.88
   3  -5  13   18.66    0.82
  13  -3   5   20.13    0.81
  13  -3   5   20.05    1.05
   5   3  13   19.67    1.10
   3  -5  13   20.09    0.83
  -5  13   3   19.50    1.17
   5  13   3   16.97    0.89
   5  13   3   18.72    0.92
   3 -13   5   18.74    1.13
   3 -13   5   18.14    0.84
   3   5  13   19.54    0.82
   3   5  13   18.97    0.82
   3  13  -5   20.85    0.91
   3  13  -5   19.22    0.89
  -3  13   5   19.78    0.88
  -3  13   5   18.50    0.86
  -3  13   5   17.53    1.13
   5  -3  13   21.28    0.86
   5  -3  13   19.40    0.84
   3  13  -5   18.71    1.19
   3   5  13   18.23    1.05
   5  -3  13   20.49    1.12
  13   3   5   19.86    0.82
  13   3   5   18.91    0.81
  -5  13  -3   16.91    0.88
  -5  13  -3   18.01    0.89
  -5  13  -3   19.46    1.24
  13   3   5   20.15    1.07
   5  13   3   19.03    1.25
  -5  13  -5   14.92    0.80
  -5  13  -5   16.07    0.83
  -5  13   5   15.74    0.76
   5  -5  13   17.19    0.77
   5  13   5   15.41    1.13
  13  -5   5   16.94    0.73
   5  -5  13   15.47    0.75
   5  -5  13   17.50    1.05
   5   5  13   16.44    1.03
   5  13  -5   18.76    0.84
   5  13  -5   16.55    0.80
   5  13  -5   16.65    1.12
   5  13   5   15.87    0.83
   5  13   5   15.72    0.82
  -5  13  -5   14.02    1.09
  -5  13   5   15.04    1.02
   5 -13   5   15.84    1.04
  13  -5   5   17.19    0.74
   5   5  13   15.79    0.75
   5   5  13   16.04    0.75
  -5  13   5   17.10    0.78
  13   5   5   16.66    1.02
  13   5   5   16.25    0.75
  13   5   5   16.02    0.75
  13  -5   5   16.20    0.97
   1  -7  13   23.96    0.96
   1  -7  13   24.71    1.25
  -1  13  -7   22.40    1.04
  -1  13  -7   22.50    1.03
   7   1  13   23.00    1.27
  13  -1   7   24.54    0.96
   1  13   7   20.80    1.31
   1  -7  13   25.19    0.97
  -7  13   1   21.77    0.99
  -7  13   1   22.85    1.31
  -7  13   1   23.30    1.02
  -1 -13   7   23.42    0.98
   1  13   7   22.66    1.02
   7  13  -1   24.19    1.42
  13  -1   7   22.09    0.95
  13  -1   7   22.51    1.21
  -1 -13   7   22.87    1.27
  -1  13  -7   24.21    1.41
   7 -13   1   24.13    0.98
   7   1  13   24.42    1.00
   7  13  -1   22.09    1.04
   7  13  -1   24.86    1.06
   1  13   7   23.09    1.04
   7 -13   1   23.76    1.27
   7   1  13   24.20    0.99
  -7  13  -1   21.26    1.01
  -1  13   7   24.75    1.37
   1 -13   7   24.25    1.00
   1 -13   7   23.17    1.29
  -7  13  -1   21.69    1.01
   1  13  -7   25.40    1.06
   1  13  -7   25.43    1.42
  -7  13  -1   24.50    1.39
   7  13   1   23.06    1.07
   7  13   1   22.34    1.05
   7  13   1   24.44    1.45
   7  -1  13   24.54    1.00
   7  -1  13   22.34    1.26
  -1  13   7   22.63    1.02
  -1  13   7   21.74    1.00
  13   1   7   24.12    0.97
  13   1   7   22.71    0.95
  13   1   7   23.77    1.23
   7  -1  13   23.78    0.99
   7 -13  -1   23.06    0.96
   7 -13  -1   23.53    1.24
   1   7  13   24.08    1.26
   1   7  13   24.40    0.97
   1  13  -7   23.42    1.04
   1   7  13   24.69    0.98
   7  13  -3   11.80    0.65
   7  13  -3   11.72    0.94
   7  13  -3   11.66    0.65
   7 -13   3   12.09    0.62
   7   3  13   12.67    0.63
  -3 -13   7   11.57    0.60
   7   3  13   11.14    0.61
  -7  13   3   11.49    0.62
  -7  13   3   10.98    0.60
  -7  13   3   11.45    0.87
   3  -7  13   11.13    0.60
   3  -7  13   11.13    0.60
   7 -13   3   12.46    0.89
   3  13   7   10.73    0.66
   3  13   7   10.93    0.65
   7   3  13   12.53    0.89
  13  -3   7   11.76    0.59
  13  -3   7   12.40    0.84
   3  -7  13   10.79    0.83
  -3  13  -7   11.13    1.08
  -3 -13   7   10.85    0.82
  -3  13  -7   11.16    0.67
  -3  13  -7   12.07    0.67
   3  13   7   10.57    1.04
  -3  13   7   11.36    0.62
  -3  13   7   11.43    0.62
   3   7  13   12.78    0.63
  -7  13  -3   10.07    0.63
  -7  13  -3   10.46    1.04
   7  13   3   11.16    1.11
   3  13  -7   11.82    0.66
   3  13  -7   12.46    0.66
  13   3   7   11.25    0.82
   3 -13   7   11.77    0.63
  -3  13   7   11.30    0.88
   7  -3  13   12.29    0.63
   7  -3  13   11.97    0.62
   7  -3  13   10.26    0.83
   3   7  13   11.00    0.60
   3   7  13   12.02    0.87
   3 -13   7   11.18    0.86
  13   3   7   11.95    0.60
   7  13   3   10.96    0.68
  13   3   7   10.88    0.59
   7  13   3   11.70    0.71
   3  13  -7   11.46    0.92
  -7  13  -3   11.59    0.67
  13   7   5   15.53    1.03
  -5  13  -7   12.84    1.06
   5  -7  13   14.82    1.02
  13   7   5   15.06    0.74
   5  13   7   14.41    0.80
   5  13   7   13.13    1.09
   7 -13   5   14.23    0.73
   7 -13   5   14.57    0.73
   7   5  13   16.71    1.07
  -5  13  -7   14.60    0.79
  13  -5   7   15.42    0.72
   7   5  13   15.17    0.75
   5  13   7   14.72    0.81
  13  -5   7   14.58    0.71
  13  -5   7   14.23    0.96
   5  -7  13   14.75    0.74
   5  -7  13   14.94    0.74
   7 -13   5   13.38    0.99
  13   7   5   13.72    0.72
  -5  13  -7   14.92    0.81
   7   5  13   14.88    0.74
  13   5   7   13.01    0.96
   5   7  13   15.45    0.75
   5   7  13   15.17    1.04
   7  -5  13   17.45    1.08
   7  13   5   14.77    1.15
   5   7  13   14.44    0.74
   5 -13   7   15.59    0.75
  13  -7   5   16.77    0.73
  13  -7   5   15.17    0.71
  13  -7   5   14.21    0.95
   5 -13   7   14.66    0.74
   5 -13   7   15.39    1.04
   5  13  -7   16.81    0.79
   7  -5  13   14.85    0.74
   7  13   5   15.15    0.82
  -7  13  -5   14.17    0.78
  -7  13  -5   14.19    1.11
  13   5   7   14.30    0.72
  -7  13  -5   14.46    0.80
   7  -5  13   15.86    0.75
  13   5   7   13.62    0.71
   7  13   5   15.10    0.83
   7  13   7   22.35    1.52
   7   7  13   23.10    1.03
  13  -7   7   24.74    1.00
  13  -7   7   23.11    0.98
   7  -7  13   20.94    1.32
  -7  13  -7   22.18    1.09
   7   7  13   24.76    1.42
   7  13   7   22.93    1.12
   7 -13   7   23.75    1.03
   7 -13   7   22.73    1.36
  13   7   7   22.97    1.37
  -7  13  -7   22.94    1.48
  13  -7   7   23.53    1.30
  13   7   7   20.95    1.00
  13   7   7   22.24    1.02
   7  -7  13   22.49    1.01
   9  13  -1   13.59    0.74
   9  13  -1   14.10    0.74
   1  13   9   12.72    0.72
  -1 -13   9   13.82    0.69
  -1 -13   9   12.87    0.93
   9  13  -1   14.37    1.06
  13  -1   9   13.38    0.68
  13  -1   9   12.60    0.91
   9   1  13   13.39    0.70
   9   1  13   14.23    0.98
   1  13   9   13.65    0.72
   9 -13   1   14.26    0.68
   9 -13   1   13.72    0.92
   1  -9  13   13.76    0.95
  -9  13   1   12.61    0.69
   9   1  13   14.64    0.72
  -1  13  -9   12.93    1.03
   1  -9  13   13.18    0.67
  -1  13  -9   14.36    0.76
  -1  13  -9   13.91    0.76
   1  -9  13   13.71    0.68
  13  -1   9   13.71    0.68
   1  13   9   12.13    0.98
  13   1   9   11.60    0.89
  -9  13  -1   13.92    0.72
  -1  13   9   13.03    0.70
   9  -1  13   13.57    0.97
   9  -1  13   14.09    0.71
   9  13   1   12.14    0.72
  -1   9 -13   14.13    0.72
  -1  13   9   13.53    0.71
   9  -1  13   14.18    0.71
   9  13   1   12.83    0.75
  13   1   9   13.73    0.69
  13   1   9   14.70    0.70
   1   9  13   13.94    0.99
   1  13  -9   14.06    0.74
   1  13  -9   14.85    1.06
   1 -13   9   14.56    0.70
   1 -13   9   14.33    0.71
   1 -13   9   13.69    0.97
   1  13  -9   14.57    0.75
   9  13   1   11.78    1.16
   1   9  13   13.07    0.69
   1   9  13   13.36    0.70
  -9  13  -1   12.69    0.98
  -9  13  -1   13.68    0.72
  -1  13   9   14.25    1.02
  13  -3   9   14.69    0.75
   3  13   9   15.19    0.82
   9 -13   3   17.11    0.78
   9   3  13   16.89    0.80
   3  -9  13   16.27    0.77
  -3  13  -9   13.94    1.11
   3  -9  13   15.88    0.77
   3  -9  13   16.13    1.05
   3  13   9   14.52    0.80
  -3  13  -9   16.11    0.85
   9   3  13   17.14    1.13
  -3 -13   9   16.43    0.76
   9   3  13   15.52    0.79
  -3 -13   9   16.83    1.05
   3  13   9   15.44    1.14
   9 -13   3   16.34    0.77
  -3  13  -9   15.41    0.83
   9 -13   3   17.34    1.07
   3   9  13   16.16    0.80
  -3  13   9   16.62    0.79
   3 -13   9   16.06    0.78
   3  13  -9   17.95    1.17
   3 -13   9   16.48    0.79
   3 -13   9   15.45    1.07
   9  -3  13   16.61    0.80
  13   3   9   15.32    0.77
  13   3   9   15.44    0.77
  13   3   9   16.47    1.07
   9  13   3   14.65    1.17
   9  13   3   16.11    0.87
   9  13   3   15.55    0.85
  -9  13  -3   16.85    1.17
  -3   9 -13   17.06    0.82
  -9  13  -3   15.85    0.82
  -9  13  -3   16.89    0.83
   3   9  13   15.15    1.08
   9  -3  13   15.88    1.09
   3   9  13   15.76    0.79
   3  13  -9   16.23    0.81
   9  -3  13   15.89    0.78
   9   5  13   13.23    0.72
  13   9   5   11.68    0.70
   5  13   9   13.17    0.77
  13   9   5   12.43    1.02
   9   5  13   14.78    1.06
  -5  13  -9   13.33    0.77
  13  -5   9   14.19    0.70
  13  -5   9   13.59    0.96
   9 -13   5   13.61    0.69
   9 -13   5   12.28    0.95
   5  -9  13   13.23    0.97
   5  13   9   12.87    1.24
   5  -9  13   11.88    0.67
  13   9   5   12.95    0.73
  13  -9   5   13.33    0.92
  -9  13  -5   12.95    0.75
  13  -9   5   13.26    0.66
  -9  13  -5   13.08    1.23
   9  13   5   12.59    0.77
   9  13   5   13.43    1.29
   5 -13   9   13.53    0.71
   9  -5  13   10.56    0.91
   9  -5  13   12.33    0.69
  13   5   9   13.22    0.70
   5 -13   9   13.71    1.01
   5   9  13   13.75    0.74
   5   9  13   12.34    1.02
  13  -9   5   13.04    0.66
  13   5   9   12.48    0.96
  -7  13  -9   10.71    0.50
  -7  13  -9   12.63    0.76
   7  13   9   11.98    0.76
  13  -7   9   11.67    0.65
   7  13   9   11.23    0.56
   7  -9  13   11.32    0.67
   9   7  13   11.27    0.69
   9 -13   7   12.37    0.67
  13   9   7   11.15    0.69
  -9  13  -7   13.01    0.76
  13   7   9   12.44    0.70
   9  -7  13   11.76    0.67
   7   9  13   12.05    0.71
   7 -13   9   11.97    0.68
  -9  13  -7   11.77    0.51
  13  -9   7   12.33    0.65
   9  13   7   12.50    0.77
  -7   9 -13   10.65    0.48
   9   9  13   10.84    0.70
   9  -9  13    9.90    0.63
   9  13   9   11.34    0.76
  13   9   9   10.25    0.69
  13  -9   9   10.36    0.62
  -9  13  -9    9.95    0.47
  -9  13  -9   11.89    0.74
   9 -13   9   11.07    0.65
  -9   9 -13    9.74    0.45
  13  -1  11   10.81    0.63
   1 -11  13    9.93    0.96
  -1 -13  11   12.24    0.92
   1 -11  13   10.99    0.61
  11   1  13   11.02    0.65
  -1 -13  11   10.29    0.60
   1  13  11    9.85    0.52
   1  13  11   10.54    1.06
   1  13  11   11.60    0.67
  -1  13 -11   11.58    0.68
   1  13 -11   12.50    0.70
   1  13 -11   12.56    1.02
  13   1  11   11.40    0.64
   1 -13  11   10.57    0.61
  -1  13  11   10.88    0.65
   1  11  13   11.86    0.67
  -1  11 -13   11.17    0.66
  11  13   1   11.21    0.69
  -1  13  11   11.11    1.05
   1  11  13   12.04    0.96
  11  -1  13   11.45    0.65
   3 -11  13   19.61    0.91
   3  13  11   18.83    0.96
  -3  13 -11   19.47    0.73
   3  13  11   18.09    0.80
  11   3  13   20.58    0.95
  -3  13 -11   19.25    0.98
  11 -13   3   20.96    1.22
  13  -3  11   19.29    0.90
  11 -13   3   19.91    0.88
  11  13   3   19.16    1.37
   3  11  13   20.48    0.97
  13   3  11   18.54    0.91
  -3  11 -13   18.75    0.94
  -3  11 -13   18.71    0.71
   3 -13  11   19.49    0.91
  11  -3  13   18.96    0.91
 -11  13  -3   20.12    0.96
  11  13   3   19.14    0.98
  11   5  13   14.51    0.78
   5  13  11   13.14    0.63
  -5  13 -11   14.73    0.58
  11 -13   5   14.80    0.73
  -5  13 -11   12.98    0.79
 -13  11  -5   13.74    0.77
  13  -5  11   14.27    0.74
   5 -11  13   12.88    0.73
  13  11   5   13.02    0.78
   5  13  11   13.88    0.81
 -11  13  -5   13.47    0.78
  11  13   5   14.12    0.83
  -5  11 -13   13.55    0.56
  13 -11   5   13.81    0.71
  11  -5  13   13.07    0.73
   5  11  13   13.08    0.62
   5  11  13   14.05    0.80
   5 -13  11   13.74    0.74
  13   5  11   13.90    0.76
  -5  11 -13   14.70    0.81
  13  -7  11    6.35    0.50
   7  13  11    8.61    0.47
  -7  13 -11    7.55    0.39
  -7  13 -11    7.30    0.66
  11 -13   7    7.87    0.53
 -13   7  11    7.55    0.31
   7 -11  13    7.87    0.55
 -11   7 -13    7.52    0.36
 -13  11  -7    7.91    0.38
  11   7  13    8.84    0.60
   7  13  11    7.96    0.62
  13  11   7    7.22    0.66
  11  -7  13    8.40    0.57
  -7  11 -13    6.99    0.38
  13 -11   7    7.92    0.52
   7  11  13    7.70    0.60
 -11   7  13    7.36    0.30
   7  11  13    7.79    0.44
  11  13   7    8.18    0.64
   7 -13  11    7.26    0.53
 -13  11   7    7.55    0.31
  13   7  11    8.36    0.58
 -11  13  -7    8.39    0.60
 -11  13  -7    7.34    0.39
 -13   9  11   10.83    0.41
 -11   9 -13   10.78    0.48
  -9  13 -11   11.66    0.77
 -11  13   9   11.57    0.42
  -9  13 -11   10.78    0.50
  -9  11  13   11.28    0.41
   9 -11  13   10.50    0.68
   9  13  11   11.66    0.79
  11 -13   9   11.31    0.68
  11   9  13   11.63    0.75
  13  -9  11   10.94    0.66
  13  11   9   11.93    0.77
 -13  11  -9   10.36    0.48
 -13  11   9   10.33    0.41
 -11  13  -9   12.81    0.79
 -11   9  13   11.31    0.41
 -11  13  -9   10.96    0.50
  -9  11 -13   10.74    0.49
  -9  13  11   11.53    0.42
   9 -13  11   12.18    0.71
   9  11  13    9.87    0.73
  11  -9  13   10.75    0.67
  11  13   9   11.98    0.80
  13 -11   9   12.13    0.69
  13   9  11   11.40    0.74
 -13  11 -11   11.84    0.45
 -13  11 -11   11.72    0.52
 -13  11 -11   11.27    0.42
 -13  11  11   12.59    0.45
 -11  11 -13   11.78    0.45
 -11  11 -13   10.95    0.52
 -11  11 -13   11.36    0.42
 -11  11  13   11.95    0.44
 -11  13 -11   12.24    0.45
 -11  13 -11   11.75    0.53
 -11  13 -11   11.89    0.41
 -11  13  11   13.39    0.45
  11 -13  11   13.08    0.74
  11 -11  13   12.04    0.73
  11  11  13   13.65    0.85
  11  13  11   12.34    0.83
  13 -11  11   12.31    0.72
  13  11  11   13.37    0.83
 -13  13  -1   12.04    0.44
 -13  13   1   11.59    0.44
  -1  13 -13   12.49    0.72
  -1  13 -13   11.90    0.49
  -1  13  13   11.36    0.57
   1 -13  13   12.53    0.67
   1  13 -13   11.11    0.47
   1  13  13   12.05    0.71
   1  13  13   11.37    0.57
  13  -1  13   12.04    0.69
  13   1  13   10.15    0.65
 -13   3  13    7.87    0.30
 -13  13  -3    7.19    0.32
 -13  13   3    7.94    0.32
  -3  13 -13    8.41    0.60
  -3  13 -13    7.82    0.38
   3 -13  13    8.33    0.54
   3  13  13    7.75    0.58
   3  13  13    7.00    0.45
  13  -3  13    7.15    0.52
  13   3  13    7.64    0.55
 -13   5  13    8.27    0.33
 -13  13  -5    8.27    0.59
 -13  13  -5    8.60    0.41
 -13  13   5    8.50    0.34
  -5  13 -13    8.49    0.63
  -5  13 -13    8.45    0.41
   5 -13  13    8.54    0.58
   5  13  13    8.32    0.63
   5  13  13    8.41    0.48
  13 -13   5    7.91    0.53
  13  -5  13    8.34    0.57
  13   5  13    8.89    0.61
  13  13   5    7.48    0.60
 -13   7 -13   11.08    0.44
 -13   7  13   12.04    0.43
 -13  13  -7   11.51    0.52
 -13  13   7   12.14    0.44
  -7  13 -13   11.68    0.52
   7 -13  13   10.48    0.67
   7  13  13   12.14    0.79
   7  13  13   11.28    0.59
  13 -13   7   11.86    0.68
  13   7  13   11.59    0.73
  13  13   7   11.48    0.78
 -13   9 -13    6.46    0.29
 -13   9 -13    6.14    0.35
 -13   9 -13    6.71    0.26
 -13   9  13    6.67    0.29
 -13  13  -9    6.75    0.29
 -13  13  -9    6.73    0.37
 -13  13  -9    6.45    0.26
 -13  13   9    7.36    0.30
  -9  13 -13    7.01    0.29
  -9  13 -13    7.12    0.38
  -9  13 -13    6.66    0.26
  -9  13  13    7.06    0.29
   9 -13  13    7.35    0.55
   9  13  13    6.85    0.70
  13 -13   9    6.82    0.52
  13  -9  13    6.63    0.52
  13   9  13    6.46    0.63
  13  13   9    5.36    0.62
 -13  11 -13    5.97    0.27
 -13  11 -13    6.32    0.34
 -13  11 -13    5.52    0.24
 -13  11  13    5.58    0.26
 -13  13 -11    5.38    0.26
 -13  13 -11    5.61    0.34
 -13  13 -11    5.58    0.23
 -13  13  11    6.27    0.27
 -11  13 -13    5.94    0.27
 -11  13 -13    4.93    0.33
 -11  13 -13    5.99    0.24
 -11  13  13    6.09    0.27
 -13  13 -13    6.29    0.29
 -13  13 -13    5.73    0.35
 -13  13 -13    6.26    0.25
 -13  13  13    6.46    0.28
   0  14   0   18.58    0.89
   0  14   0   18.12    0.87
   0  14   0   19.08    1.21
  -2  14   0    5.53    0.44
  -2  14   0    5.50    0.43
  -2  14   0    4.19    0.65
   2  14   0    5.77    0.45
   2  14   0    5.14    0.42
   2  14   0    5.75    0.75
   2   0  14    6.27    0.37
   0  14  -2    6.27    0.46
   0  14  -2    5.37    0.42
   0  14  -2    6.02    0.78
   0  14   2    6.39    0.46
   0  14   2    5.45    0.42
   0  14   2    6.13    0.77
   2   0  14    5.99    0.36
   2   0  14    5.58    0.59
   2  14  -2  147.49    4.95
   2   2  14  160.45    4.81
   2   2  14  164.06    5.16
   2  14  -2  149.04    4.96
  -2  14   2  161.45    4.97
  -2  14   2  149.60    4.93
   2  -2  14  153.09    4.80
   2  -2  14  155.55    5.13
   2   2  14  155.47    4.80
  -2  14  -2  153.97    4.97
  -2  14  -2  140.48    4.92
  -2  14  -2  144.48    5.42
   2  14   2  158.33    4.98
   2  14   2  146.97    4.94
   2  14   2  150.36    5.46
  -2  14   2  147.01    5.38
   2  -2  14  157.53    4.81
   2  14  -2  152.62    5.48
   0  14   4    2.31    0.31
   0  14   4    2.03    0.45
   4   0  14    1.89    0.25
   4   0  14    2.16    0.26
   4   0  14    2.52    0.43
  -4  14   0    2.32    0.49
   4  14   0    1.86    0.30
   0  14   4    2.63    0.34
  -4  14   0    1.98    0.30
  -4  14   0    2.37    0.32
   0  14  -4    2.21    0.33
   0  14  -4    2.43    0.33
   0  14  -4    2.09    0.49
   4  14   0    1.17    0.37
   4  14   0    2.17    0.32
  -2  14  -4    8.14    0.54
   4  14  -2    8.02    0.55
   4  14  -2    7.86    0.54
   4  14  -2    8.91    0.94
   4   2  14    9.02    0.49
   4   2  14    8.88    0.68
  -2  14  -4    8.12    0.56
   2  14   4    7.87    0.88
   2  14   4    8.18    0.54
  -4  14   2    8.02    0.53
  -4  14   2    8.32    0.53
   4   2  14    9.05    0.49
  -2  14  -4    8.37    0.92
  -4  14   2    7.59    0.85
   2  -4  14    9.80    0.71
   2  -4  14    8.24    0.47
   4 -14   2    9.05    0.53
   2  -4  14    8.36    0.47
   2  14   4    8.82    0.57
   2   4  14    8.20    0.47
  -4  14  -2    8.08    0.54
  -4  14  -2    8.68    0.57
   4  -2  14    9.13    0.49
   4  -2  14    9.17    0.71
   4  14   2    9.04    0.57
   2   4  14    8.49    0.67
   2   4  14    9.38    0.49
   2  14  -4    8.51    0.55
   2  14  -4    8.42    0.91
  -4  14  -2    7.72    0.87
   4  -2  14    8.25    0.47
   2 -14   4    8.63    0.85
   2  14  -4    8.67    0.57
  -2  14   4    8.53    0.53
  -2  14   4    8.56    0.89
   2 -14   4    8.39    0.52
   4  14   2    8.00    0.56
   4  14   2    9.84    1.02
  -2  14   4    8.84    0.55
   4  -4  14   13.38    0.68
   4  14  -4   15.17    1.10
   4  14   4   14.91    0.80
   4  14   4   14.37    0.78
   4  14   4   15.44    1.12
  -4  14   4   15.11    0.75
   4  14  -4   15.18    0.77
   4  14  -4   15.43    0.79
   4 -14   4   15.00    0.74
   4 -14   4   15.62    1.03
   4  -4  14   15.64    0.71
  -4  14   4   14.76    0.74
  -4  14   4   14.08    1.02
  -4  14  -4   15.58    0.81
  -4  14  -4   13.91    0.77
  -4  14  -4   13.46    1.06
   4   4  14   15.06    0.70
   4   4  14   15.39    0.71
   4   4  14   14.72    0.94
   4  -4  14   14.07    0.93
   0  14  -6   11.27    0.95
   0  14   6   12.23    0.66
   0  14   6   12.07    0.96
   6   0  14   11.42    0.61
   6   0  14   12.26    0.63
   6   0  14   11.33    0.86
   0  14   6   12.11    0.68
   6 -14   0   11.43    0.62
   0  14  -6   12.52    0.70
   0  14  -6   12.73    0.69
   6  14   0   12.49    0.71
   6  14   0   11.11    0.67
   6  14   0   11.92    1.00
   0 -14   6   12.56    0.65
   0 -14   6   13.52    0.93
  -6  14   0   11.72    0.67
  -6  14   0   11.43    0.65
  -6  14   0   12.53    0.96
  14   0   6   12.31    0.60
   6 -14   0   12.75    0.89
  14   0   6   12.23    0.60
  14   0   6   13.34    0.84
   6 -14   2  121.28    4.05
   2  14   6  121.97    4.12
   2  -6  14  129.24    4.02
   2  14   6  121.54    4.61
   6   2  14  126.97    4.04
   6   2  14  125.39    4.44
   2  -6  14  125.13    4.40
   6  14  -2  124.65    4.15
   6  14  -2  124.64    4.14
  -6  14   2  121.04    4.09
   2  14   6  131.26    4.17
   6 -14   2  126.62    4.49
   6  14  -2  121.74    4.65
   2  -6  14  124.81    4.02
  -2 -14   6  124.07    4.46
  -2  14  -6  124.21    4.16
  14  -2   6  126.82    4.00
  14  -2   6  125.17    4.00
  14  -2   6  122.39    4.33
  -2  14  -6  122.93    4.14
  -2  14  -6  118.35    4.63
  -6  14   2  122.38    4.08
   6   2  14  130.16    4.05
  -2 -14   6  123.02    4.05
  -6  14   2  117.47    4.50
   6  -2  14  126.16    4.45
   6  -2  14  125.12    4.05
  -6  14  -2  117.51    4.60
   6  14   2  121.27    4.16
   6  14   2  124.21    4.73
  14   2   6  128.42    4.02
  14   2   6  130.02    4.02
   2  14  -6  129.48    4.15
   2  14  -6  126.95    4.13
   2  14  -6  126.89    4.63
  14   2   6  125.94    4.37
  -6  14  -2  117.96    4.12
   2 -14   6  127.86    4.09
   6  14   2  124.27    4.19
   2 -14   6  126.08    4.53
   2   6  14  127.49    4.02
   2   6  14  128.12    4.03
   2   6  14  127.87    4.43
   6  -2  14  131.22    4.06
  -6  14  -2  121.91    4.14
  -2  14   6  126.06    4.11
  -2  14   6  123.96    4.09
  -2  14   6  115.68    4.51
   6   4  14    3.26    0.35
  -4 -14   6    2.96    0.33
  -4  14  -6    3.41    0.42
  -4  14  -6    2.86    0.38
   4  -6  14    3.64    0.32
   4  -6  14    3.42    0.54
  -6  14   4    2.42    0.33
  14  -4   6    2.84    0.32
  14  -4   6    3.39    0.31
  14  -4   6    3.43    0.51
  -6  14   4    2.72    0.53
   6   4  14    3.07    0.53
  -4  14  -6    2.74    0.57
  -6  14   4    2.89    0.34
   4  14   6    3.05    0.39
   6 -14   4    3.08    0.36
   6 -14   4    2.86    0.53
   6  14  -4    3.12    0.38
   6  14  -4    3.24    0.38
   6  14  -4    2.11    0.51
   4  -6  14    3.30    0.35
   4  14   6    3.03    0.40
   6   4  14    2.72    0.33
   4  14   6    2.92    0.60
  -4  14   6    3.34    0.37
   6  -4  14    3.05    0.34
   6  -4  14    2.42    0.46
   6  -4  14    2.44    0.31
  -6  14  -4    2.52    0.36
  -6  14  -4    2.57    0.36
  -6  14  -4    2.96    0.61
   4   6  14    3.07    0.34
  -4  14   6    3.23    0.37
  14   4   6    2.96    0.33
   4  14  -6    3.49    0.61
   6  14   4    3.00    0.39
   6  14   4    3.31    0.64
   6  14   4    3.31    0.41
   4   6  14    2.97    0.32
   4   6  14    3.29    0.53
  -4  14   6    3.30    0.57
   4 -14   6    2.67    0.33
   4 -14   6    3.18    0.54
   4  14  -6    3.18    0.38
   4  14  -6    3.91    0.36
  14   4   6    2.98    0.49
  14   4   6    3.12    0.33
   6  14   6  128.55    4.26
   6   6  14  125.97    4.13
   6   6  14  124.24    4.58
  14   6   6  120.38    4.09
   6  14   6  126.63    4.84
  14   6   6  121.23    4.52
  14  -6   6  133.94    4.09
   6 -14   6  129.15    4.13
   6 -14   6  125.07    4.61
   6  -6  14  128.97    4.12
   6  -6  14  126.48    4.58
  -6  14  -6  125.69    4.80
  14   6   6  119.12    4.10
  -6  14  -6  122.04    4.23
  14  -6   6  130.37    4.49
  -8  14   0   11.19    0.94
   0  14  -8   12.49    0.70
  -8  14   0   11.73    0.66
   0 -14   8   11.54    0.63
  -8  14   0   11.99    0.67
   8 -14   0   13.31    0.91
   0  14  -8    9.85    1.03
   0  14   8   11.39    0.67
   0  14   8   10.81    0.65
   0 -14   8   12.38    0.92
   8 -14   0   11.21    0.61
  14   0   8   11.17    0.60
  14   0   8   11.80    0.85
   0  14   8   11.44    0.95
   8   0  14   11.96    0.65
  14   0   8   12.30    0.62
   8  14   0   11.56    0.69
   8   0  14   11.19    0.62
   8   0  14   10.97    0.88
   8  14   0   12.50    1.04
   0  14  -8   12.01    0.69
   8  14   0   11.12    0.68
  -2  14  -8    5.23    0.45
  -2  14  -8    5.62    0.77
   8 -14   2    4.82    0.38
  -2 -14   8    4.99    0.40
   8  14  -2    6.01    0.81
   2  -8  14    4.73    0.62
  -8  14   2    5.16    0.46
  -8  14   2    5.35    0.71
  14  -2   8    4.93    0.63
   8  14  -2    5.30    0.51
   8  14  -2    6.19    0.47
   8 -14   2    4.19    0.60
  -2  14  -8    5.26    0.51
   8   2  14    5.01    0.46
   8   2  14    6.07    0.73
   2  14   8    5.05    0.43
   2  14   8    3.61    0.64
   2  14   8    5.07    0.50
   2  -8  14    4.95    0.44
   2  -8  14    5.44    0.40
  14  -2   8    5.60    0.40
  14  -2   8    5.53    0.39
  -2 -14   8    5.07    0.66
   2  14  -8    6.47    0.82
   2  14  -8    4.85    0.48
   2  14  -8    5.28    0.44
   2   8  14    4.87    0.39
   2   8  14    5.26    0.70
   8 -14  -2    5.92    0.66
  -2  14   8    5.13    0.47
  -8  14  -2    5.02    0.73
  -2  14   8    5.60    0.75
   2 -14   8    5.10    0.41
   2 -14   8    5.06    0.68
  14   2   8    4.71    0.43
  14   2   8    5.01    0.39
   8  -2  14    5.12    0.68
  -8  14  -2    5.41    0.44
  -2  14   8    5.18    0.42
   2   8  14    5.15    0.41
   8  14   2    4.62    0.49
   8  14   2    5.01    0.78
  14   2   8    6.19    0.72
   8  -2  14    4.45    0.43
   8  14   2    4.35    0.50
  -8  14  -2    4.50    0.46
  14  -4   8    2.99    0.34
   4  14   8    1.66    0.48
   4  -8  14    3.84    0.40
  -4  14  -8    2.91    0.39
   8   4  14    4.02    0.61
   8   4  14    3.04    0.37
  14  -4   8    3.00    0.50
   4  14   8    2.77    0.39
  -4  14  -8    3.26    0.63
   8 -14   4    3.30    0.54
   4  -8  14    3.48    0.57
   8 -14   4    2.83    0.34
  14  -4   8    2.67    0.32
  -4  14   8    2.99    0.36
   4 -14   8    3.76    0.62
   4   8  14    3.36    0.59
   4  14  -8    2.75    0.37
  14   4   8    3.18    0.36
   8  -4  14    4.42    0.63
   4 -14   8    2.44    0.33
  -8  14  -4    2.58    0.37
   8  14   4    3.07    0.64
   8  -4  14    2.58    0.34
   8  14   4    2.85    0.40
  14   4   8    3.80    0.59
   4   8  14    3.67    0.40
  14   4   8    3.13    0.36
  -8  14  -4    2.48    0.56
  -6  14  -8    7.95    0.58
  14  -6   8    8.06    0.84
  14  -6   8    7.75    0.50
   6  -8  14    7.29    0.51
   6  14   8    8.68    0.62
   8 -14   6    7.32    0.51
   8   6  14    7.03    0.52
  -6  14  -8    7.41    0.38
  14   8   6    7.96    0.54
   6  14   8    7.30    0.43
   6 -14   8    7.26    0.51
  14   6   8    8.15    0.90
  14  -8   6    8.40    0.50
  14   6   8    7.39    0.51
   8  14   6    8.28    0.61
   6   8  14    7.46    0.52
   8  -6  14    6.88    0.50
  -6   8 -14    6.66    0.35
  -8  14  -6    7.73    0.58
  -8  14  -8    6.58    0.36
   8 -14   8    6.62    0.50
  -8  14  -8    6.79    0.63
   8   8  14    7.20    0.54
  14   8   8    7.35    0.54
   8  14   8    5.96    0.62
  -8   8 -14    6.48    0.34
   8  -8  14    7.65    0.53
  14  -8   8    7.39    0.50
  10   0  14    1.56    0.28
   0  14  10    1.59    0.22
   0  14  10    0.97    0.24
  10  14   0    1.32    0.29
  14   0  10    1.58    0.28
 -10  14   0    1.37    0.26
   0  14 -10    2.20    0.35
   0 -14  10    1.39    0.26
   2  14  10   99.44    3.49
  -2 -14  10  105.88    3.40
  -2 -14  10  106.09    3.86
  10 -14   2  108.82    3.40
  -2  14 -10  101.98    3.52
  10   2  14  103.95    3.46
   2  14  10   99.26    3.30
  14  -2  10  102.44    3.41
   2 -10  14  100.43    3.40
  -2  14  10   92.75    3.26
   2 -14  10   99.37    3.41
   2  10  14  105.42    3.46
   2  14 -10  108.57    4.04
  -2  14  10  103.69    3.46
  14   2  10  103.45    3.43
   2  14 -10  113.43    3.53
  10  14   2   95.68    3.52
  10  -2  14   99.90    3.43
  -2  10 -14  100.25    3.18
 -10  14  -2  101.25    3.47
   4  14  10   10.23    0.68
   4 -10  14   10.74    0.62
  -4  14 -10   10.26    0.68
  10 -14   4   10.57    0.60
   4  14  10    9.26    0.51
  10   4  14   11.17    0.65
  14  -4  10   10.47    0.60
  -4  14 -10   11.28    0.47
  10  14   4    9.09    0.67
   4 -14  10   10.34    0.62
   4  10  14    9.68    0.49
  -4  10 -14   10.53    0.44
 -10  14  -4    9.20    0.63
  14   4  10    9.42    0.60
   4  10  14    9.72    0.63
  10  -4  14    8.78    0.60
   6 -10  14   67.89    2.50
  10   6  14   73.10    2.56
  -6  14 -10   71.77    2.63
  14  -6  10   70.83    2.48
  14  10   6   65.23    2.53
  10 -14   6   71.48    2.49
   6  14  10   71.22    2.37
  -6  14 -10   70.97    2.28
 -10   6 -14   65.42    2.23
   6  14  10   72.93    2.65
   6 -14  10   70.92    2.51
   6  10  14   70.71    2.57
  10  -6  14   72.01    2.52
  10  14   6   69.54    2.64
 -10  14  -6   73.49    2.61
  -6  10 -14   69.99    2.25
  14   6  10   69.22    2.51
  14 -10   6   76.26    2.48
   6  10  14   67.59    2.31
   8  14  10    1.61    0.36
 -10  14   8    2.06    0.15
  14  -8  10    1.96    0.33
  -8  14 -10    2.12    0.23
 -14   8  10    1.90    0.14
  14  10   8    2.32    0.39
 -10   8 -14    1.83    0.19
  -8  10  14    2.02    0.14
   8 -10  14    2.16    0.34
  10   8  14    1.97    0.35
  -8  14 -10    1.89    0.36
  10 -14   8    1.87    0.32
 -10  14  -8    1.85    0.21
   8 -14  10    1.89    0.32
  14   8  10    2.48    0.38
  10  14   8    1.69    0.37
   8  10  14    2.11    0.38
 -10  14  -8    2.22    0.38
  14 -10   8    2.07    0.32
 -14  10   8    1.81    0.14
  -8  10 -14    1.78    0.20
  10  -8  14    1.58    0.30
  -8  14  10    2.11    0.15
 -10   8  14    1.83    0.14
 -14  10 -10   75.57    2.44
 -14  10 -10   75.46    2.41
 -10  14  10   83.68    2.44
  10 -14  10   80.37    2.81
  10 -10  14   78.28    2.80
 -10  10 -14   77.02    2.41
 -10  10  14   78.99    2.43
 -10  10 -14   78.09    2.44
 -10  10 -14   73.38    2.51
 -14  10  10   76.40    2.43
  14 -10  10   78.41    2.76
  10  10  14   86.56    2.95
  10  14  10   85.38    3.01
 -10  14 -10   85.01    2.95
 -10  14 -10   78.13    2.54
   0  14 -12    3.05    0.41
   0  12  14    2.68    0.28
  12   0  14    3.54    0.41
  14   0  12    2.97    0.37
   0  14  12    2.82    0.28
   0  14 -12    3.20    0.22
   0  12 -14    3.21    0.22
   0  14  12    3.13    0.41
   0 -14  12    3.31    0.37
 -14  12   0    3.04    0.18
   2  14  12    4.38    0.48
   2  12 -14    4.39    0.25
 -12  14   2    4.44    0.22
  14  -2  12    4.14    0.44
   2 -12  14    4.27    0.44
  -2  14 -12    4.40    0.28
  -2  14 -12    3.61    0.45
   2  14  12    4.16    0.34
  12   2  14    4.19    0.45
 -14  12  -2    4.13    0.22
  12  -2  14    4.01    0.43
   2  12  14    4.73    0.49
   2 -14  12    3.95    0.42
 -12  14  -2    4.09    0.22
  -2  12 -14    4.45    0.27
  14   2  12    3.85    0.42
  -2  12 -14    5.18    0.52
  -2  14  12    4.02    0.33
   2  12  14    4.15    0.33
 -14  12   2    4.28    0.22
 -12   2  14    4.42    0.20
  -4  14 -12    4.68    0.30
   4  14  12    4.46    0.36
  12 -14   4    5.03    0.45
  12   4  14    5.14    0.51
   4 -12  14    4.58    0.47
  -4  14 -12    4.35    0.51
   4  14  12    4.73    0.52
 -14  12  -4    5.16    0.24
 -14   4  12    4.90    0.22
 -12  14   4    5.33    0.24
  14  -4  12    5.20    0.49
  14   4  12    5.54    0.52
   4 -14  12    4.73    0.48
  12  -4  14    4.67    0.48
 -14  12   4    4.70    0.24
 -12   4  14    4.81    0.22
 -12  14  -4    4.65    0.49
  -4  12 -14    5.40    0.55
   4  12  14    4.51    0.36
   4  12  14    5.45    0.55
  12  14   4    4.34    0.51
  -4  12 -14    5.54    0.31
   6 -12  14    2.61    0.36
 -12  14   6    3.04    0.18
  12 -14   6    3.07    0.38
   6  14  12    2.88    0.30
  -6  14 -12    2.66    0.25
  14  12   6    2.37    0.40
 -14   6  12    2.51    0.16
   6  14  12    2.22    0.40
  14  -6  12    3.20    0.39
  12   6  14    2.99    0.41
  -6  14 -12    3.27    0.45
 -12   6  14    2.87    0.17
   6  12  14    3.37    0.46
  14 -12   6    2.45    0.33
 -12  14  -6    2.73    0.25
  14   6  12    3.17    0.42
  -6  12 -14    2.85    0.25
   6 -14  12    2.78    0.36
 -12  14  -6    2.15    0.37
  12  14   6    3.19    0.45
 -14  12   6    2.66    0.17
  12  -6  14    3.03    0.38
   6  12  14    3.23    0.30
 -14   8  12    2.33    0.16
 -14  12  -8    2.91    0.25
  12   8  14    2.62    0.41
  14  12   8    2.13    0.39
 -12  14   8    2.61    0.17
 -12   8 -14    2.31    0.22
 -12   8 -14    2.61    0.14
  -8  14 -12    3.06    0.46
  -8  12  14    2.49    0.16
   8 -12  14    2.93    0.39
  -8  14 -12    2.27    0.24
  -8  14 -12    2.62    0.16
  12 -14   8    2.66    0.37
   8  14  12    2.82    0.47
  14  -8  12    2.44    0.35
 -12   8 -14    2.14    0.16
 -14  12  -8    2.63    0.14
 -14  12  -8    2.66    0.17
 -14   8  12    2.66    0.14
  -8  14  12    2.65    0.17
   8  12  14    2.44    0.42
  12  -8  14    2.71    0.38
 -12  14  -8    2.27    0.23
  -8  12 -14    2.44    0.24
 -12   8  14    2.45    0.16
   8  12  14    2.66    0.28
  -8  12 -14    2.84    0.14
 -14   8 -12    2.60    0.17
 -14   8 -12    2.64    0.14
   8 -14  12    2.70    0.39
  12  14   8    2.42    0.44
 -12  14  -8    2.46    0.16
 -12  14  -8    3.25    0.45
 -14  12   8    2.45    0.17
  14 -12   8    2.75    0.37
  -8  12 -14    2.38    0.16
  14   8  12    2.55    0.40
 -10  14 -12    3.19    0.19
 -14  10  12    3.41    0.19
 -10  14 -12    3.70    0.28
 -10  14 -12    3.35    0.16
 -12  10 -14    3.78    0.20
 -12  14  10    3.53    0.20
 -14  12 -10    3.13    0.27
 -14  12 -10    3.34    0.17
 -12  10 -14    3.44    0.26
 -10  12  14    3.59    0.20
 -12  10 -14    3.37    0.17
 -14  12 -10    3.52    0.20
 -10  12 -14    3.32    0.19
 -10  12 -14    2.81    0.26
 -14  12  10    3.36    0.19
 -12  14 -10    3.35    0.16
 -10  12 -14    3.05    0.16
 -14  10 -12    3.74    0.21
 -12  10  14    3.62    0.20
 -14  10 -12    3.17    0.17
 -12  14 -10    2.99    0.18
 -12  14 -10    3.54    0.28
 -10  14  12    3.49    0.20
 -14  12 -12    2.56    0.17
 -14  12 -12    2.74    0.25
 -14  12 -12    2.44    0.14
 -14  12  12    2.38    0.17
 -12  12 -14    2.40    0.17
 -12  12 -14    2.14    0.23
 -12  12 -14    2.58    0.14
 -12  12  14    2.20    0.16
 -12  14 -12    2.53    0.17
 -12  14 -12    2.37    0.25
 -12  14 -12    2.61    0.14
 -12  14  12    2.23    0.17
 -14   0  14    7.85    0.32
 -14  14   0    8.55    0.35
   0  14 -14    8.21    0.39
   0  14  14    7.90    0.47
  14   0  14    8.34    0.58
 -14   2 -14   57.74    1.90
 -14   2  14   61.17    1.89
 -14  14  -2   61.41    1.92
 -14  14   2   63.67    1.92
  -2  14 -14   62.59    2.31
  -2  14 -14   62.94    1.99
  -2  14  14   58.20    2.08
   2 -14  14   61.17    2.22
   2  14  14   58.48    2.27
   2  14  14   57.40    2.08
  14  -2 -14   63.04    1.86
  14  -2  14   60.52    2.24
  14   2 -14   61.66    1.86
  14   2  14   62.95    2.28
 -14   4 -14    0.99    0.12
 -14   4  14    0.93    0.11
 -14  14   4    0.64    0.11
  -4  14 -14    0.85    0.29
  -4  14 -14    1.06    0.18
   4 -14  14    0.98    0.27
   4  14  14    0.93    0.28
   4  14  14    0.96    0.21
  14  -4 -14    1.11    0.09
  14  -4  14    0.72    0.25
  14   4 -14    0.89    0.08
  14   4  14    0.94    0.28
 -14   6 -14   64.50    2.09
 -14   6 -14   64.61    2.05
 -14   6  14   65.29    2.08
 -14  14  -6   65.66    2.08
 -14  14  -6   68.01    2.18
 -14  14  -6   64.13    2.04
 -14  14   6   68.71    2.09
  -6  14 -14   66.98    2.08
  -6  14 -14   68.36    2.19
  -6  14 -14   66.40    2.05
   6  14  14   68.66    2.29
  14  -6 -14   69.88    2.04
  14   6 -14   68.12    2.03
 -14   8 -14    4.28    0.23
 -14   8 -14    4.39    0.20
 -14   8  14    4.34    0.20
 -14   8  14    4.55    0.23
 -14   8  14    4.51    0.18
 -14  14  -8    4.65    0.23
 -14  14  -8    4.39    0.30
 -14  14  -8    4.43    0.20
 -14  14   8    4.46    0.23
  -8  14 -14    4.92    0.23
  -8  14 -14    4.49    0.31
  -8  14 -14    4.53    0.20
  14   8 -14    4.59    0.18
 -14  10 -14   34.87    1.16
 -14  10 -14   34.17    1.22
 -14  10 -14   35.00    1.13
 -14  10  14   34.72    1.15
 -14  14 -10   35.13    1.15
 -14  14 -10   36.28    1.24
 -14  14 -10   35.49    1.12
 -14  14  10   36.90    1.15
 -10  14 -14   35.58    1.15
 -10  14 -14   36.91    1.26
 -10  14 -14   35.63    1.12
 -10  14  14   36.02    1.15
 -14  12 -14    1.08    0.13
 -14  12 -14    1.34    0.19
 -14  12 -14    1.14    0.11
 -14  12  14    1.32    0.13
 -14  14 -12    1.31    0.13
 -14  14 -12    1.33    0.19
 -14  14 -12    1.23    0.11
 -14  14  12    1.39    0.13
 -12  14 -14    1.41    0.14
 -12  14 -14    1.36    0.20
 -12  14 -14    1.54    0.11
 -12  14  14    1.56    0.14
 -14  14 -14   43.78    1.39
 -14  14 -14   45.13    1.47
 -14  14 -14   42.08    1.36
 -14  14  14   43.41    1.38
  -1  15  -1   19.67    0.94
  -1  15  -1   17.95    0.90
  -1  15  -1   17.41    1.22
  -1  15   1   19.01    0.92
  -1  15   1   20.11    0.93
  -1  15   1   16.60    1.19
   1  -1  15   20.85    0.80
   1   1  15   20.69    0.80
   1  15  -1   17.32    0.91
   1  15  -1   18.39    0.92
   1  15  -1   16.81    1.22
   1  15   1   19.73    0.95
   1  15   1   19.02    0.93
   1  15   1   16.84    1.23
   1  15   3   11.24    0.66
  -1  15  -3   11.21    0.68
  -1  15  -3   10.51    0.65
  -3  15   1   11.20    0.67
  -3  15   1   11.82    0.66
  -3  15   1   12.16    0.96
   1  -3  15   12.75    0.58
  -1  15  -3   11.11    1.09
   3  15  -1   11.41    0.69
   3  15  -1   11.28    0.67
   3  15  -1   11.34    1.12
   3   1  15   11.46    0.57
   1  15   3   11.25    1.09
   3   1  15   12.10    0.58
   1  15   3   10.73    0.66
   3   1  15   11.73    0.80
   3  15   1   10.70    1.10
  -3  15  -1   10.67    0.66
   3  -1  15   12.38    0.82
  -3  15  -1   11.07    0.66
  -3  15  -1   10.40    1.06
   1   3  15   12.10    0.57
  -1  15   3   12.73    0.70
  -1  15   3   12.17    0.68
  -1  15   3   12.80    1.00
   1  15  -3   11.98    0.70
   1  15  -3   10.83    0.66
   1  15  -3    9.48    1.03
   3  -1  15   11.70    0.58
   3  15   1   10.72    0.68
   3  15   1   11.24    0.68
   3  -1  15   10.75    0.56
   3   3  15   20.95    1.14
   3  15  -3   20.04    0.98
   3  15  -3   19.42    0.96
   3  15  -3   19.48    1.31
   3  15   3   19.88    0.98
  -3  15   3   19.97    1.29
   3 -15   3   20.70    0.93
   3 -15   3   23.04    1.30
   3  -3  15   20.87    0.87
   3  -3  15   20.09    0.86
   3  -3  15   21.88    1.16
   3   3  15   19.81    0.86
   3   3  15   19.58    0.85
   3  15   3   19.45    0.96
   3  15   3   21.91    1.38
  -3  15   3   21.58    0.97
  -3  15   3   20.09    0.94
  -3  15  -3   18.30    1.28
  -3  15  -3   20.07    0.99
  -3  15  -3   19.03    0.95
   1  15   5   14.90    0.78
   5   1  15   14.73    0.70
   1  15   5   14.84    0.79
  -5  15   1   14.30    0.77
   5   1  15   15.99    0.98
  -1 -15   5   15.23    0.75
  -1  15  -5   13.57    0.78
  -1  15  -5   13.50    0.76
  -5  15   1   12.78    1.02
   1  15   5   14.43    1.09
   5  15  -1   15.95    1.18
  -1  15  -5   15.13    1.12
   5 -15   1   14.83    0.74
   5 -15   1   17.19    1.08
   5  15  -1   13.64    0.79
  -5  15   1   14.59    0.76
   5   1  15   15.25    0.71
   1  -5  15   15.75    0.69
   5  15  -1   13.78    0.78
  -5  15  -1   12.47    1.03
   5  -1  15   14.91    0.70
   1  15  -5   13.37    0.76
   1   5  15   15.47    0.70
  -1  15   5   15.42    0.79
   1  15  -5   15.44    0.81
  -5  15  -1   14.46    0.79
   5  15   1   13.38    0.78
   1  15  -5   12.62    1.05
   5  15   1   11.84    1.19
  -5  15  -1   13.16    0.75
  -1  15   5   12.32    1.02
   1 -15   5   14.91    0.74
   1 -15   5   14.88    1.03
   5  -1  15   14.27    0.70
   5  -1  15   14.47    0.96
  -1  15   5   14.99    0.77
   5  15   1   14.28    0.81
   5 -15   3   15.37    1.07
  -3  15  -5   15.48    0.84
  -3  15  -5   15.03    1.17
   3  15   5   16.36    0.86
   3  15   5   15.61    0.83
   5 -15   3   16.60    0.80
  -3  15  -5   15.69    0.86
   5  15  -3   16.34    0.84
   5  15  -3   16.29    1.19
  -5  15   3   15.69    0.81
  -5  15   3   15.59    0.79
  -5  15   3   16.19    1.13
   3  -5  15   16.81    0.76
   3  -5  15   16.39    0.75
   3  -5  15   16.05    1.02
   5   3  15   16.66    1.04
   5  15  -3   15.08    0.83
   5   3  15   16.41    0.75
   5   3  15   16.65    0.76
   3  15   5   16.13    1.19
   5  15   3   15.91    0.87
   5  -3  15   15.18    0.75
   5  -3  15   16.83    0.77
   3  15  -5   15.59    1.17
  -5  15  -3   15.40    0.84
   5  -3  15   15.42    1.01
  -5  15  -3   15.39    1.17
  -3  15   5   14.47    0.79
  -3  15   5   16.08    0.81
  -3  15   5   15.88    1.13
   3 -15   5   16.66    0.81
   3 -15   5   17.89    1.15
   3  15  -5   16.68    0.86
   3   5  15   15.48    0.74
   3   5  15   15.79    0.74
   3   5  15   16.23    1.03
   5  15   3   14.92    0.83
   5  15   3   14.86    1.18
   3  15  -5   16.53    0.84
  -5  15  -3   14.95    0.82
   5  15  -5   14.16    1.11
  -5  15  -5   12.89    0.80
   5  15  -5   15.24    0.81
   5  15  -5   15.48    0.80
  -5  15   5   15.62    0.77
  -5  15   5   14.53    1.07
   5 -15   5   15.04    1.08
   5  -5  15   13.99    0.73
   5  -5  15   14.51    1.01
   5   5  15   15.72    0.75
   5   5  15   14.04    0.98
  -5  15  -5   13.62    1.14
   5  15   5   15.07    0.85
   5  15   5   15.64    1.21
  -5  15   5   16.07    0.79
  -1  15  -7   18.31    0.92
  -7  15   1   16.89    0.84
   7   1  15   18.35    1.14
   7  15  -1   15.35    1.22
   1  15   7   18.81    0.91
   7 -15   1   18.90    1.16
   7  15  -1   17.27    0.91
   7  15  -1   17.00    0.89
  -1 -15   7   17.84    1.14
   1  -7  15   17.83    0.79
  -7  15   1   17.18    1.18
  -7  15   1   16.49    0.86
  15  -1   7   18.75    0.81
   7   1  15   16.29    0.81
   1  15   7   18.69    1.26
  -1  15  -7   18.12    1.27
   1   7  15   17.24    0.81
  15   1   7   20.23    0.83
   7  15   1   17.03    0.92
  -1  15   7   17.18    1.19
   1 -15   7   19.07    1.20
   1  15  -7   17.93    0.91
  -1  15   7   17.04    0.87
   7 -15  -1   18.41    1.12
  -7  15  -1   15.06    1.16
   7  -1  15   16.81    0.82
   7  -1  15   17.62    1.13
   7 -15  -1   17.32    0.81
  -7  15  -1   16.02    0.87
   7  15   1   16.68    1.27
   1  15  -7   17.69    1.24
  15  -3   7    8.63    0.50
  -3 -15   7    7.02    0.80
  -7  15   3    7.85    0.53
   7  15  -3   10.26    1.05
   7  15  -3    7.56    0.56
   7 -15   3    7.98    0.88
   3  -7  15    7.70    0.50
   3  15   7    7.68    0.57
   7   3  15    7.71    0.51
  -7  15   3    8.61    0.92
  -3  15  -7    6.95    0.55
  -7  15   3    7.55    0.51
   3  -7  15    9.26    0.89
   7  15  -3    7.09    0.54
   3   7  15    8.91    0.91
   3   7  15    8.67    0.52
   3   7  15    8.73    0.52
   3  15  -7    7.46    0.90
   7  15   3    8.50    0.62
  -3  15   7    7.11    0.53
  -3  15   7    7.58    0.88
   3  15  -7    8.19    0.57
  -7  15  -3    6.79    0.54
  -7  15  -3    7.62    0.95
   7  -3  15    7.79    0.51
  15   3   7    7.33    0.48
   5  -7  15   10.56    0.62
   7 -15   5   11.07    0.64
   5  15   7   11.82    0.74
   5  15   7   10.41    0.55
  -5  15  -7   11.06    0.50
   7   5  15   11.15    0.65
  -5  15  -7   11.32    0.72
  15  -5   7   12.82    0.64
   5 -15   7   11.08    0.65
   7  -5  15   12.08    0.65
   5   7  15   10.78    0.63
   5  15  -7   12.76    0.71
  15   5   7   10.81    0.62
  -5   7 -15   10.65    0.46
  -7  15  -5   10.13    0.69
   5  -7 -15   11.07    0.45
   7  15   5   12.42    0.77
   7 -15   7   15.88    0.82
  -7  15  -7   16.78    0.66
  -7  15  -7   14.72    0.88
  15   7   7   14.29    0.80
  15  -7   7   17.33    0.80
  -7   7 -15   15.35    0.61
   7  15   7   16.82    0.94
   7   7  15   15.62    0.82
   7  -7  15   16.67    0.83
   1  15   9   12.46    0.74
   1  -9  15   12.22    0.66
  -1  15  -9   12.90    0.77
   9  15  -1   12.44    0.74
  -9  15   1   11.94    0.69
  -1  -9 -15   11.80    0.49
   9   1  15   12.66    0.69
   1   9 -15   11.89    0.48
   1  15   9   12.60    0.60
  15  -1   9   12.90    0.67
  -9  15  -1   12.10    0.71
  -1   9 -15   12.20    0.50
   9  -1  15   14.54    0.73
  15   1   9   12.97    0.67
   1  15  -9   13.99    0.77
  -1  15   9   11.26    0.57
   1 -15   9   12.58    0.68
  -1  15   9   12.59    0.72
   9  15   1   11.56    0.74
   9 -15   3   14.55    0.72
  -3  15  -9   12.99    0.79
  -9   3 -15   12.92    0.53
  -3  15  -9   14.84    0.57
  -3  -9 -15   13.15    0.52
   9   3  15   12.75    0.73
   3  15   9   14.37    0.81
   3  15   9   14.03    0.65
   3  -9  15   13.26    0.71
  15  -3   9   14.39    0.71
   3   9  15   12.32    0.59
  -3  15   9   13.37    0.75
   9  15   3   12.26    0.80
  -3  15   9   12.56    0.61
  -9  15  -3   13.52    0.77
   3 -15   9   14.27    0.74
   9  -3  15   14.54    0.75
   3   9  15   13.66    0.74
  15   3   9   14.30    0.73
   3  15  -9   14.99    0.80
  -3   9 -15   14.08    0.54
  -9   5 -15   11.77    0.49
  -5  15  -9   12.62    0.54
  15  -5   9   12.82    0.68
   5  -9  15   13.08    0.70
  -5  15  -9   13.03    0.79
   9 -15   5   11.53    0.68
   5  15   9   13.36    0.80
   5  15   9   12.24    0.60
  -5  -9 -15   11.15    0.47
   9   5  15   11.64    0.70
  -5  15   9   11.76    0.57
   5 -15   9   11.85    0.69
   9  -5  15   12.07    0.69
  -5   9 -15   12.45    0.51
  15   5   9   11.89    0.68
   9  15   5   11.92    0.79
   5   9  15   13.35    0.74
  -9  15  -5   11.03    0.73
   9 -15   7    9.62    0.62
   9   7  15   10.10    0.65
  -9  15   7   11.21    0.39
  -7   9  15    9.42    0.36
 -15   7   9    9.12    0.37
  15  -7   9    9.92    0.60
  -7  15  -9   10.09    0.47
   7  15   9    9.82    0.71
  15   9   7   10.16    0.66
  -9   7 -15    9.42    0.43
   7  -9  15   10.76    0.64
  -7  15  -9    9.30    0.68
  -7   9 -15    9.48    0.44
 -15   9   7    9.65    0.37
  -9  15  -7    9.53    0.46
  -9   7  15    9.98    0.37
   7   9  15    9.17    0.63
  -9  15  -7   10.43    0.70
  15   7   9    8.95    0.61
   9  -7  15    9.41    0.61
   9  15   7   10.01    0.73
   7 -15   9    9.30    0.62
   9  -9  15   10.82    0.67
   9  15   9   10.73    0.78
  15  -9   9   10.38    0.64
  -9  15   9   11.85    0.41
 -15   9  -9    9.39    0.40
   9   9  15   11.30    0.73
  -9  15  -9   10.66    0.50
 -15   9   9   10.62    0.40
  -9   9 -15   10.58    0.41
  -9   9 -15    9.45    0.46
  -9   9  15   10.20    0.40
  -9  15  -9   12.04    0.77
   9 -15   9   11.28    0.68
  15   9   9   10.53    0.71
   1  15  11    7.19    0.56
   1  11 -15    7.26    0.34
  11   1  15    7.45    0.54
 -11  15   1    7.39    0.32
  -1  15 -11    7.76    0.38
 -15  11  -1    7.40    0.31
  15  -1  11    7.27    0.52
  -1 -15  11    7.26    0.51
   1  15  11    7.02    0.44
  -1  15 -11    6.66    0.62
 -15  11   1    7.39    0.31
  -1  11 -15    7.52    0.36
   1  11  15    6.89    0.42
  -1  15  11    6.48    0.42
  15   1  11    7.65    0.52
   1 -15  11    8.22    0.54
   1  15 -11    9.01    0.61
  -1  15  11    8.63    0.58
 -11  15  -1    7.62    0.32
  11  -1  15    7.90    0.55
   3  15  11   13.49    0.80
  15  -3  11   13.55    0.73
 -15   3  11   13.15    0.47
  11   3  15   13.13    0.75
  -3  15 -11   13.48    0.81
 -15  11  -3   12.81    0.48
  -3  15 -11   14.26    0.57
   3 -11  15   12.12    0.70
   3  15  11   13.26    0.65
  11 -15   3   13.42    0.70
 -11  15   3   13.86    0.49
  -3  11 -15   12.93    0.54
   3  11  15   12.39    0.61
 -15  11   3   13.13    0.48
  11  15   3   12.79    0.81
  -3  15  11   12.91    0.62
  15   3  11   13.47    0.74
 -11  15  -3   13.22    0.77
 -11   3  15   13.12    0.47
   3  11  15   12.58    0.76
  11  -3  15   12.83    0.73
 -11  15  -3   13.49    0.49
   3 -15  11   13.78    0.74
 -11   5 -15    9.87    0.44
 -15   5  11   10.22    0.39
  -5  15 -11    9.40    0.70
  11   5  15   10.96    0.69
  -5  15 -11   10.23    0.48
   5  15  11   10.97    0.73
   5  15  11   10.59    0.57
  15  -5  11    9.48    0.61
   5 -11  15    9.90    0.63
 -11  15   5   10.98    0.40
  11 -15   5   10.43    0.63
   5  11  15   10.15    0.67
  15   5  11    9.44    0.63
 -11  15  -5   10.83    0.70
 -11   5  15   10.44    0.39
  11  -5  15    9.34    0.62
   5  11  15   10.30    0.53
  11  15   5    9.46    0.71
 -15  11   5    9.98    0.39
  -5  11 -15   10.69    0.47
   5 -15  11   10.29    0.64
 -15  11  -7    4.37    0.23
 -11   7 -15    4.68    0.21
  -7  15 -11    4.79    0.55
  -7  15 -11    4.95    0.32
   7 -11  15    4.41    0.48
   7  15  11    4.64    0.57
  11 -15   7    5.36    0.51
   7  15  11    5.33    0.40
  15  -7  11    4.83    0.48
  11   7  15    4.56    0.51
  -7  11  15    5.13    0.23
 -11   7 -15    4.68    0.29
 -11  15   7    5.32    0.24
 -11   7 -15    4.58    0.23
 -15   7  11    4.66    0.21
 -15   7  11    5.06    0.23
   7  11  15    4.66    0.54
  -7  11 -15    4.81    0.23
 -11   7  15    4.95    0.23
  15   7  11    4.59    0.51
 -15  11   7    5.14    0.24
   7 -15  11    4.29    0.47
 -11  15  -7    5.18    0.56
 -15   7 -11    4.42    0.23
   7  11  15    4.61    0.34
 -11  15  -7    4.89    0.32
  11  -7  15    5.46    0.53
  -7  11 -15    4.99    0.21
  11  15   7    5.61    0.61
 -15   7 -11    4.59    0.21
  -7  11 -15    4.77    0.30
 -11   9 -15    8.84    0.33
 -15   9  11    9.28    0.33
  15  -9  11    9.11    0.60
 -11  15   9    9.64    0.36
 -15   9  11    8.64    0.35
 -15   9  11    9.18    0.31
  -9  15 -11    8.66    0.45
  -9  11  15    9.03    0.35
 -15  11  -9    8.77    0.36
 -15  11  -9    8.92    0.33
 -11   9 -15    8.07    0.42
  15  11   9    8.57    0.67
 -11   9 -15    9.19    0.36
 -15  11   9    9.27    0.36
  15 -11   9    9.59    0.61
  15   9  11    8.15    0.64
 -15   9 -11    8.01    0.36
 -15   9 -11    8.52    0.33
  -9  11 -15    8.56    0.43
  -9  15  11    9.92    0.36
 -11  15  -9    8.84    0.45
  11   9 -15    9.02    0.31
  -9  11 -15    8.67    0.33
 -11   9  15    8.67    0.35
  -9  11 -15    8.94    0.36
 -11  11 -15    8.65    0.32
 -15  11  11    8.56    0.35
 -11  15 -11    9.03    0.45
 -11  11 -15    8.10    0.42
 -15  11 -11    8.51    0.36
 -11  15  11    9.12    0.35
 -11  11 -15    8.51    0.36
 -11  15 -11    8.76    0.32
 -11  11  15    8.80    0.35
 -11  15 -11    8.54    0.35
 -15  11 -11    8.55    0.32
 -13  15   1   11.22    0.44
   1  15  13   10.89    0.59
  13  -1 -15   11.71    0.39
  15  -1  13   11.55    0.69
  15   1 -13   11.65    0.39
 -13  -1  15   11.64    0.42
   1  15  13   10.93    0.72
   1  13 -15   12.29    0.49
  -1  13  15   11.41    0.58
 -15   1  13   11.13    0.42
  -1  15 -13   11.86    0.50
 -15  13  -1   11.66    0.45
  13   1  15   11.89    0.72
  -1  15 -13   11.01    0.73
 -13  15  -1   11.83    0.45
   1  13  15   10.04    0.56
   1  15 -13   12.40    0.49
 -13   1  15   11.06    0.42
   1 -15  13   10.97    0.67
  13   1 -15   11.41    0.39
  -1  13 -15   11.56    0.49
  15  -1 -13   11.53    0.39
  13  -1  15   10.80    0.69
 -15  13   1   11.03    0.44
  15   1  13   12.15    0.71
  -1  15  13   11.12    0.58
  -3  15 -13    7.49    0.40
   3  15  13    7.72    0.61
 -13  15   3    7.48    0.32
 -15  13  -3    7.68    0.33
 -15   3  13    7.62    0.31
 -15  13  -3    7.51    0.31
   3 -13  15    6.79    0.52
 -13   3 -15    7.25    0.31
  15  -3  13    7.78    0.56
  15   3 -13    7.66    0.27
  -3  15 -13    8.32    0.63
   3  15  13    7.64    0.48
  13  -3 -15    8.02    0.28
 -13   3 -15    7.36    0.29
  13   3  15    8.19    0.59
  13   3 -15    7.89    0.28
   3 -15  13    7.41    0.54
   3  13  15    7.36    0.46
 -15   3 -13    7.24    0.32
  15   3  13    8.05    0.57
  -3  15  13    7.41    0.46
   3  13  15    8.39    0.62
 -13   3  15    7.67    0.31
 -15  13   3    8.15    0.33
 -15   3 -13    7.09    0.29
  13  -3  15    8.12    0.58
  15  -3 -13    7.72    0.27
  -3  13 -15    7.78    0.39
  15   5 -13    8.66    0.30
  15  -5  13    8.81    0.59
  13   5  15    9.67    0.65
 -15  13  -5    8.20    0.34
 -13   5 -15    8.61    0.32
   5  15  13    8.35    0.74
  -5  15 -13    9.05    0.45
   5 -13  15    9.34    0.61
 -15  13  -5    8.22    0.31
 -15   5  13    8.26    0.34
 -13   5 -15    8.26    0.35
 -13  15   5    8.74    0.35
  13  -5 -15    8.79    0.30
  -5  15 -13    8.93    0.66
   5  15  13    8.63    0.51
   5  13  15    8.26    0.64
 -15  13   5    8.66    0.35
  13  15   5    8.69    0.67
   5 -15  13    8.62    0.59
  -5  13 -15    8.24    0.31
 -15   5 -13    8.18    0.32
 -13  15  -5    7.90    0.42
 -15   5 -13    8.14    0.35
  -5  13 -15    8.18    0.34
  -5  13 -15    9.07    0.44
  13   5 -15    8.76    0.30
 -13  15  -5    9.06    0.63
  13  -5  15    8.60    0.59
 -13   5  15    8.41    0.34
  15  -5 -13    8.79    0.30
  15   5  13    8.22    0.60
   5  13  15    7.87    0.48
 -15   7  13   10.11    0.35
   7  15  13   10.67    0.58
  13  -7 -15   10.94    0.36
  15   7 -13   10.65    0.35
 -15   7  13   10.18    0.40
 -15  13  -7   10.22    0.40
 -13   7 -15   10.68    0.41
 -15   7  13    9.65    0.37
 -15  13  -7   10.38    0.37
 -13  15   7   10.54    0.41
 -13   7 -15   11.08    0.38
  -7  15 -13   10.36    0.50
 -15   7 -13    9.90    0.41
  -7  13 -15    9.84    0.40
  13   7 -15   10.60    0.36
 -15  13   7    9.96    0.40
 -13  15  -7   10.24    0.49
 -15   7 -13   10.19    0.38
 -13   7  15   10.47    0.40
  -7  13 -15   10.85    0.49
  -7  13 -15   10.51    0.37
   7  13  15   10.36    0.55
  -9  13  15    7.17    0.30
 -15  13  -9    6.54    0.28
  -9  15 -13    7.07    0.27
 -15   9  13    7.13    0.28
 -15   9  13    6.90    0.30
 -15   9  13    7.14    0.26
 -15  13  -9    7.24    0.38
  -9  15 -13    7.17    0.41
  -9  15 -13    6.86    0.30
 -13  15   9    7.68    0.31
 -13   9 -15    7.51    0.38
 -13   9 -15    6.96    0.28
 -13   9 -15    7.24    0.32
 -15  13  -9    6.94    0.31
  -9  13 -15    7.48    0.28
 -13  15  -9    6.66    0.38
 -15   9 -13    6.77    0.28
 -13  15  -9    7.41    0.27
  -9  13 -15    7.60    0.31
  -9  13 -15    7.06    0.40
  -9  15  13    7.48    0.31
 -15  13   9    7.18    0.31
 -15   9 -13    7.16    0.32
 -13  15  -9    7.73    0.31
 -13   9  15    7.32    0.31
 -11  13  15    5.11    0.24
 -13  11 -15    4.86    0.25
 -11  15 -13    5.23    0.22
 -15  13 -11    4.82    0.22
 -15  13 -11    4.96    0.25
 -13  15  11    5.18    0.25
 -11  15 -13    4.76    0.33
 -11  15 -13    4.80    0.24
 -15  11  13    4.98    0.25
 -13  11 -15    4.98    0.22
 -13  11 -15    4.87    0.31
 -15  13 -11    5.63    0.33
 -15  11 -13    4.91    0.22
 -11  13 -15    4.93    0.25
 -15  13  11    5.44    0.25
 -11  13 -15    5.27    0.22
 -13  15 -11    5.17    0.33
 -13  15 -11    5.24    0.25
 -13  11  15    5.06    0.25
 -13  15 -11    5.05    0.22
 -15  11 -13    5.18    0.26
 -11  13 -15    5.33    0.33
 -11  15  13    5.05    0.24
 -15  13 -13    6.76    0.30
 -15  13 -13    7.19    0.37
 -15  13 -13    6.29    0.26
 -15  13  13    6.38    0.28
 -13  13 -15    5.84    0.29
 -13  13 -15    6.23    0.36
 -13  13 -15    6.51    0.26
 -13  13  15    6.66    0.29
 -13  15 -13    6.75    0.29
 -13  15 -13    6.44    0.37
 -13  15 -13    6.67    0.26
 -13  15  13    6.20    0.28
 -15  -1  15    8.14    0.33
 -15   1  15    7.99    0.33
 -15  15  -1    8.14    0.36
 -15  15   1    8.77    0.36
  -1  15 -15    8.76    0.41
  -1  15  15    7.98    0.49
   1  15 -15    8.09    0.39
   1  15  15    7.75    0.49
  15  -1 -15    8.42    0.30
  15   1 -15    8.58    0.30
 -15   3 -15    4.98    0.24
 -15   3 -15    4.94    0.21
 -15   3  15    4.82    0.24
 -15  15   3    4.69    0.25
  -3  15 -15    5.06    0.32
  -3  15  15    4.70    0.38
   3  15  15    4.96    0.39
  15  -3 -15    5.23    0.20
  15   3 -15    5.03    0.20
 -15   5 -15    6.39    0.28
 -15   5 -15    5.35    0.24
 -15   5  15    6.15    0.27
 -15  15  -5    6.93    0.37
 -15  15   5    6.13    0.28
  -5  15 -15    6.09    0.37
  -5  15  15    5.83    0.42
   5  15  15    5.67    0.42
  15  -5 -15    6.22    0.23
  15   5 -15    6.03    0.23
 -15   7 -15    6.85    0.32
 -15   7 -15    6.91    0.29
 -15   7  15    7.49    0.29
 -15   7  15    7.64    0.32
 -15   7  15    7.64    0.27
 -15  15  -7    6.90    0.31
 -15  15  -7    7.93    0.41
 -15  15  -7    7.52    0.29
 -15  15   7    7.23    0.32
  -7  15 -15    7.31    0.31
  -7  15 -15    8.10    0.42
  -7  15 -15    7.58    0.28
   7  15  15    7.33    0.47
  15   7 -15    7.81    0.27
 -15   9 -15    5.24    0.27
 -15   9 -15    5.16    0.24
 -15   9  15    6.12    0.27
 -15  15  -9    5.67    0.26
 -15  15  -9    5.96    0.35
 -15  15  -9    5.82    0.23
 -15  15   9    5.21    0.26
  -9  15 -15    5.62    0.26
  -9  15 -15    5.48    0.35
  -9  15 -15    5.54    0.23
 -15  11 -15    3.19    0.20
 -15  11 -15    3.07    0.17
 -15  11  15    3.09    0.19
 -15  15 -11    3.24    0.19
 -15  15 -11    3.24    0.27
 -15  15 -11    3.13    0.16
 -15  15  11    3.00    0.19
 -11  15 -15    3.43    0.20
 -11  15 -15    3.07    0.27
 -11  15 -15    3.28    0.16
 -11  15  15    3.38    0.19
 -15  13 -15    5.78    0.27
 -15  13 -15    5.62    0.33
 -15  13 -15    6.00    0.24
 -15  13  15    5.47    0.26
 -15  15 -13    5.72    0.27
 -15  15 -13    6.13    0.34
 -15  15 -13    5.50    0.23
 -15  15  13    5.43    0.26
 -13  15 -15    5.59    0.27
 -13  15 -15    5.79    0.33
 -13  15 -15    5.63    0.23
 -13  15  15    5.65    0.25
 -15  15 -15    3.65    0.21
 -15  15 -15    4.56    0.28
 -15  15 -15    4.18    0.19
 -15  15  15    3.90    0.20
   0  16   0  103.99    3.55
   0  16   0  102.81    3.53
   0  16   0  102.75    4.08
  -2  16   0    6.27    0.57
  -2  16   0    5.88    0.47
  -2  16   0    5.85    0.81
   2  16   0    5.66    0.55
   2  16   0    5.73    0.47
   2  16   0    5.82    0.81
   0  16  -2    5.65    0.54
   0  16  -2    4.91    0.44
   0  16  -2    5.91    0.82
   0  16   2    5.84    0.54
   0  16   2    5.75    0.78
   2   0  16    5.89    0.38
   2  16   2    6.14    0.57
   2  16   2    6.21    0.84
   2  -2  16    6.59    0.41
   2   2  16    5.83    0.40
   2  16  -2    5.75    0.57
   2  16  -2    6.57    0.89
  -2  16  -2    6.51    0.51
  -2  16  -2    5.74    0.84
  -2  16   2    6.67    0.51
  -2  16   2    5.22    0.77
   4  16   0  106.89    3.74
   4  16   0  104.58    4.29
   4   0  16  110.51    3.56
  -4  16   0  108.64    3.71
   4   0  16  111.32    3.56
   0  16   4  112.53    3.73
   0  16   4  110.84    4.25
   0  16  -4  106.35    3.72
   0  16  -4  105.14    4.24
   4   0  16  112.10    3.93
  -4  16   0  108.57    4.22
   2  16   4    5.70    0.81
  -4  16   2    5.08    0.50
   4   2  16    4.52    0.41
   2  16   4    5.05    0.52
   2  -4  16    5.21    0.37
   4   2  16    5.11    0.38
   4   2  16    4.98    0.65
  -2  16  -4    4.69    0.50
  -2  16  -4    5.11    0.76
  -4  16   2    4.39    0.72
   4 -16   2    4.42    0.66
   4  16  -2    4.49    0.50
   4  16  -2    5.01    0.77
   2  16  -4    3.88    0.70
  -4  16  -2    4.38    0.48
  -4  16  -2    4.47    0.72
   4  -2  16    4.89    0.38
  -2  16   4    5.64    0.52
   2  16  -4    5.67    0.55
   2   4  16    5.15    0.38
   4  -2  16    4.79    0.37
   4  -2  16    5.43    0.67
   4  16   2    5.49    0.55
   4  16   2    5.01    0.80
  -2  16   4    4.96    0.73
   2 -16   4    5.06    0.70
  -4  16  -4   93.08    3.35
  -4  16   4   95.45    3.30
  -4  16   4   91.27    3.75
   4  -4  16   98.91    3.21
   4   4  16   99.18    3.61
   4  16  -4   96.20    3.35
   4   4  16   97.38    3.21
   4  -4  16   92.94    3.58
   4  16   4   98.55    3.39
   4  16  -4  100.07    3.93
   6  16   0    3.69    0.47
   0  16   6    4.41    0.47
   6   0  16    3.95    0.39
  -6  16   0    4.03    0.45
   0  16  -6    3.90    0.46
  -2  16  -6    5.18    0.53
   6   2  16    4.71    0.44
   2  16   6    5.01    0.36
  -6  16   2    5.65    0.51
   6  16  -2    5.69    0.55
   2  16   6    4.74    0.51
   2  -6  16    6.50    0.43
   2  -6 -16    5.82    0.29
  -2  16   6    5.05    0.50
  -6  16  -2    5.90    0.56
   2   6  16    5.76    0.42
  -2   6 -16    5.08    0.28
   6  -2  16    5.22    0.41
   2  16  -6    5.83    0.56
   6  16   2    5.29    0.55
   4  16   6    4.55    0.53
  -6   4 -16    5.15    0.27
   4  -6  16    5.02    0.45
  -6  16   4    5.80    0.52
  -4  16  -6    5.03    0.54
   4  16   6    5.04    0.36
   6  -4 -16    5.13    0.27
  -4  -6 -16    4.65    0.27
   6   4  16    4.81    0.45
   6  16  -4    5.77    0.55
  -4   6 -16    5.04    0.28
   4  -6 -16    5.51    0.28
   6  -4  16    5.64    0.43
  -4  16   6    5.80    0.53
   4  16  -6    5.46    0.53
   6  16   4    5.42    0.57
  -6  16  -4    5.44    0.54
   4   6  16    4.67    0.44
  -6  -6 -16    3.73    0.23
   6  -6 -16    3.99    0.24
   6  -6  16    3.88    0.42
  -6   6 -16    4.21    0.25
  -6  16  -6    3.87    0.48
   6   6  16    3.82    0.42
   6  16   6    4.52    0.53
   6 -16   6    3.74    0.41
  16   0   8   84.02    2.87
   0  -8 -16   84.58    2.66
   0   8 -16   86.16    2.66
  -8   0 -16   82.75    2.65
   8  16   0   78.89    3.02
   0  16   8   83.66    2.79
   8   0  16   87.40    2.93
   0  16  -8   88.81    3.04
   0  16  -8   87.86    2.68
   0  16   8   83.12    2.98
  -8  16   0   87.21    2.98
   8  16  -2    4.80    0.51
  -8  16   2    3.77    0.43
  -8   2 -16    4.00    0.25
   2   8 -16    4.61    0.25
   2  16   8    4.72    0.35
   2  16   8    4.74    0.51
  -2  -8 -16    4.90    0.27
  -2  16  -8    4.72    0.29
   2  -8  16    5.43    0.42
  -2  16  -8    5.40    0.55
  16  -2   8    4.50    0.43
   8   2  16    4.06    0.43
   8  -2  16    3.78    0.41
   2  -8 -16    5.00    0.27
   2  16  -8    4.49    0.49
  -8  -2 -16    4.29    0.25
  -8  16  -2    4.42    0.48
  -2   8 -16    4.80    0.27
  -2  16   8    4.37    0.33
   2   8  16    5.39    0.48
   8  16   2    5.03    0.54
  -2  16   8    5.54    0.53
  16   2   8    4.71    0.45
   8   4  16   82.66    2.89
   8 -16   4   87.15    2.90
   4  16   8   82.87    2.77
   8  -4 -16   84.71    2.60
   4  16   8   81.70    3.00
  -4  16  -8   90.95    2.69
   4  -8  16   83.68    2.86
  -4  -8 -16   82.76    2.62
  -4  16  -8   82.50    3.00
  -8   4 -16   80.33    2.62
  -4   8 -16   84.84    2.64
   4   8  16   83.98    2.89
  -4  16   8   80.07    2.72
   4 -16   8   78.79    2.88
   8  -4  16   81.78    2.88
   4  16  -8   93.80    3.00
  -8  16  -4   80.91    2.98
   8  16   4   79.07    3.03
   6  16   8    3.58    0.49
  -6  16  -8    2.99    0.44
  -6  16  -8    3.51    0.29
   6  -8  16    3.97    0.42
  -6   8  16    3.53    0.18
  -8   6 -16    3.34    0.23
   8   6  16    2.60    0.38
 -16   6   8    3.08    0.18
   8 -16   6    3.62    0.42
  -6  16   8    3.30    0.30
  -8  16  -6    3.55    0.46
  -6   8 -16    3.55    0.24
   6   8  16    2.86    0.39
   8  -6  16    2.80    0.37
   6 -16   8    3.36    0.41
 -16   8   6    3.32    0.19
   8  16   6    3.26    0.49
  -8   6  16    3.32    0.17
 -16   8   8   65.98    2.04
  -8   8  16   65.53    2.03
   8 -16   8   66.77    2.40
   8  -8  16   64.70    2.38
  -8  16  -8   66.54    2.16
   8  16   8   66.08    2.57
  -8   8 -16   65.21    2.12
  -8   8 -16   66.04    2.05
 -16   8  -8   63.67    2.05
   8   8  16   66.51    2.43
  -8  16  -8   66.47    2.51
   0 -16  10    4.58    0.45
 -10  16   0    4.72    0.23
   0  16 -10    4.98    0.53
 -16  10   0    4.69    0.23
  10  16   0    4.63    0.52
  10   0  16    4.63    0.47
   0  10 -16    4.78    0.27
   0  16  10    4.09    0.47
  16   0  10    4.32    0.43
   0  16 -10    4.64    0.28
   0  16  10    4.24    0.35
  10   2  16    3.80    0.44
 -16  10  -2    3.64    0.21
  -2  16 -10    4.01    0.28
   2  16  10    4.21    0.49
  -2  16 -10    3.68    0.46
 -10  16   2    3.53    0.20
  10 -16   2    3.66    0.39
   2  16  10    3.57    0.33
  16  -2  10    4.33    0.44
 -10   2 -16    3.89    0.24
  -2 -16  10    3.99    0.42
   2  10 -16    3.57    0.23
   2 -10  16    4.14    0.42
 -16   2  10    3.81    0.19
 -16  10   2    3.86    0.20
  10  16   2    3.14    0.45
   2  16 -10    4.22    0.48
  -2  16  10    3.84    0.32
 -10  16  -2    3.58    0.20
  10  -2  16    3.34    0.41
   2 -16  10    3.87    0.43
  -2  10 -16    4.34    0.26
  -2  16  10    3.71    0.44
  16   2  10    4.21    0.44
 -10  16  -2    4.20    0.47
   2  10  16    3.39    0.30
 -10   4 -16    2.83    0.22
   4 -10  16    2.71    0.36
 -10  16   4    3.04    0.18
  -4  16 -10    2.79    0.42
  10 -16   4    2.94    0.38
  16  -4  10    2.59    0.35
  10   4  16    3.39    0.42
   4  16  10    3.27    0.46
 -16   4  10    2.81    0.17
  -4  16 -10    2.82    0.26
   4  16  10    2.88    0.30
 -16  10  -4    3.02    0.18
 -10  16  -4    3.31    0.43
 -16  10   4    2.83    0.18
 -10   4  16    2.74    0.16
   4  10  16    2.56    0.37
   4 -16  10    2.51    0.36
  -4  16  10    2.81    0.29
  10  16   4    2.79    0.45
  -4  10 -16    2.84    0.24
  16   4  10    2.70    0.37
  10  -4  16    2.80    0.38
   4  10  16    2.58    0.27
 -16   6  10    4.01    0.19
  -6  16 -10    4.09    0.30
  16  -6  10    3.74    0.41
 -16  10  -6    3.87    0.20
   6  16  10    3.88    0.35
   6  16  10    3.85    0.51
  -6  16 -10    4.29    0.53
  10   6  16    3.60    0.46
 -10   6 -16    3.63    0.24
 -16   6  10    3.99    0.20
 -10  16   6    4.10    0.21
  -6  10  16    3.52    0.19
  10 -16   6    2.87    0.38
 -10   6 -16    3.87    0.21
   6 -10  16    4.19    0.45
  10  -6  16    3.59    0.44
  -6  16  10    4.08    0.34
  10  16   6    4.50    0.55
  -6  10 -16    3.42    0.20
 -10  16  -6    4.11    0.30
  -6  10 -16    3.60    0.26
 -16   6 -10    3.82    0.21
 -10   6  16    3.74    0.20
   6 -16  10    3.67    0.44
 -10  16  -6    3.71    0.47
 -16  10   6    4.06    0.21
   6  10  16    3.81    0.47
 -16   8  10    2.97    0.18
 -16  10  -8    2.93    0.16
 -10  16   8    3.81    0.20
  -8  16 -10    3.00    0.45
  10 -16   8    4.06    0.46
 -16   8  10    3.36    0.17
 -16  10  -8    3.25    0.19
  -8  16 -10    3.51    0.30
   8 -10  16    3.75    0.44
   8  10 -16    3.40    0.15
   8  16  10    3.86    0.54
 -16   8  10    3.09    0.14
 -10   8 -16    3.04    0.24
 -10   8 -16    3.45    0.17
  10   8  16    3.26    0.43
  -8  10  16    3.36    0.19
  16  -8  10    3.15    0.39
 -10   8 -16    3.34    0.19
 -16  10   8    3.01    0.14
  10  -8  16    3.54    0.44
 -16   8 -10    2.81    0.18
 -16   8 -10    3.07    0.16
 -16  10   8    3.16    0.17
 -10   8  16    3.36    0.19
 -10  16  -8    4.42    0.54
  10   8 -16    3.41    0.15
  -8  10 -16    3.47    0.26
  -8  16  10    3.58    0.32
  -8  10 -16    3.15    0.19
 -16  10   8    3.24    0.19
   8  10  16    3.48    0.46
   8 -16  10    2.63    0.37
  10  16   8    2.94    0.48
  -8  10 -16    3.08    0.16
 -10  16  -8    3.59    0.28
  16   8  10    3.10    0.43
 -10  16  10    2.27    0.16
  10  10 -16    2.52    0.13
 -10  16 -10    2.23    0.25
 -16  10  10    2.49    0.14
 -10  10  16    2.13    0.16
 -16  10  10    2.45    0.12
 -10  10 -16    2.04    0.17
 -16  10  10    2.14    0.16
 -10  10 -16    2.12    0.13
 -16  10 -10    1.92    0.16
 -16  10 -10    1.89    0.13
 -10  10 -16    2.21    0.23
 -16  12   0   65.94    2.01
   0 -16  12   64.81    2.33
 -12   0  16   64.32    2.01
   0  16 -12   68.91    2.10
   0  16  12   63.06    2.40
  16   0  12   63.40    2.34
 -16  12   0   64.81    2.03
 -12  16   0   65.78    2.04
   0  12 -16   64.83    2.08
   0  16  12   63.08    2.22
  12   0 -16   63.93    1.98
  12   0  16   65.93    2.39
  16   0 -12   65.69    1.97
   0  12  16   62.78    2.19
   2  16  12    3.47    0.46
  16   2 -12    3.08    0.14
 -12   2 -16    2.92    0.15
   2  12 -16    3.35    0.22
 -16  12  -2    2.88    0.19
  -2  16 -12    3.37    0.25
  -2  16 -12    4.02    0.49
  12  -2 -16    2.94    0.14
 -16  12  -2    2.84    0.15
  12   2  16    3.03    0.41
 -12  16   2    3.38    0.20
  16  -2  12    3.03    0.38
   2  16  12    2.94    0.32
 -16  12  -2    2.98    0.18
 -16   2  12    2.89    0.17
 -12   2 -16    2.97    0.18
 -12  16  -2    3.29    0.20
  16   2  12    3.30    0.41
 -16  12   2    2.90    0.18
  12   2 -16    3.10    0.15
  -2  12 -16    3.06    0.15
   2  12  16    2.88    0.29
  12  -2  16    3.50    0.43
 -16  12   2    3.00    0.17
  16  -2 -12    3.00    0.14
  -2  12 -16    3.08    0.24
  -2  16  12    2.97    0.31
 -16   2 -12    2.81    0.18
 -12   2  16    3.22    0.18
   2 -16  12    3.03    0.40
  16  -4  12   58.16    2.17
  12 -16   4   58.45    2.14
 -12   4 -16   58.35    1.86
 -12   4 -16   59.32    1.83
  16   4 -12   59.94    1.81
   4  16  12   59.25    2.08
  12  -4 -16   60.88    1.82
  -4  16 -12   61.69    1.97
   4 -12  16   57.75    2.18
  12   4  16   61.99    2.27
 -12  16   4   61.66    1.87
  -4  16 -12   58.76    2.29
   4  16  12   60.85    2.32
 -16  12  -4   60.78    1.86
 -16   4  12   57.24    1.85
 -16  12  -4   59.80    1.83
   4  12  16   57.25    2.03
 -16   4 -12   56.11    1.86
  -4  12 -16   59.04    1.83
  -4  16  12   59.41    2.05
  12  16   4   58.06    2.31
  12   4 -16   59.07    1.82
 -12   4  16   60.90    1.86
 -12  16  -4   59.83    2.25
  12  -4  16   59.71    2.22
  -4  12 -16   61.42    1.95
  16   4  12   61.56    2.22
 -16   4 -12   56.39    1.83
   4  12  16   60.29    2.25
   4 -16  12   58.06    2.19
 -16  12   4   61.79    1.87
 -16   6  12    2.73    0.16
 -16  12  -6    2.58    0.18
 -12   6 -16    2.68    0.15
   6  16  12    2.87    0.33
 -16   6  12    2.43    0.17
 -12   6 -16    2.86    0.24
  12  -6 -16    2.85    0.14
 -12   6 -16    2.85    0.18
 -16  12  -6    2.72    0.15
  -6  16 -12    2.94    0.28
 -12  16   6    2.67    0.18
  16   6 -12    2.71    0.13
 -16   6  12    2.62    0.13
  -6  16  12    3.10    0.32
 -16   6 -12    2.64    0.15
 -16  12   6    2.85    0.18
 -12   6  16    2.63    0.17
  -6  12 -16    2.83    0.18
  12   6 -16    2.82    0.14
  -6  12 -16    2.75    0.15
  -6  12 -16    3.02    0.27
 -12  16  -6    2.27    0.24
 -16   6 -12    2.53    0.18
   6  12  16    2.76    0.29
 -12   8 -16   48.04    1.65
 -12   8 -16   49.76    1.56
  -8  16 -12   50.78    1.70
 -16   8  12   49.83    1.59
 -12  16   8   51.60    1.59
 -16  12  -8   50.48    1.59
 -16  12  -8   50.74    1.56
 -16   8  12   50.04    1.56
 -16   8  12   50.02    1.54
 -12   8 -16   50.33    1.60
  -8  12  16   51.63    1.58
  -8  12 -16   49.66    1.68
 -12  16  -8   49.74    1.69
 -12   8  16   50.42    1.59
 -16   8 -12   49.08    1.56
 -16   8 -12   48.89    1.60
 -16  12   8   49.61    1.59
  12   8 -16   50.86    1.54
  -8  12 -16   51.62    1.60
  -8  12 -16   50.75    1.56
 -12  10 -16    1.97    0.22
 -16  12 -10    1.86    0.13
 -12  10 -16    2.19    0.14
 -10  12  16    2.18    0.16
 -12  10 -16    2.12    0.17
 -16  12 -10    2.15    0.17
 -12  16  10    2.05    0.16
 -10  16 -12    2.21    0.25
 -16  10  12    2.12    0.16
 -16  12  10    1.93    0.15
 -16  10 -12    2.00    0.14
 -10  12 -16    1.97    0.22
 -10  12 -16    2.00    0.13
 -12  10  16    2.12    0.16
 -10  12 -16    1.93    0.16
 -16  10 -12    1.90    0.17
 -12  16 -10    1.82    0.23
 -10  16  12    2.44    0.16
 -12  16 -12   38.34    1.33
 -12  16 -12   38.75    1.22
 -12  16  12   38.91    1.22
 -16  12  12   39.66    1.23
 -12  12 -16   37.64    1.23
 -12  12 -16   37.90    1.31
 -16  12 -12   35.57    1.19
 -16  12 -12   35.90    1.23
 -12  12 -16   38.47    1.20
 -12  16 -12   38.21    1.19
 -12  12  16   38.80    1.22
 -14  16   0    1.91    0.17
   0  14  16    2.03    0.27
  14   0 -16    2.33    0.13
 -16  14   0    2.00    0.17
 -14   0  16    2.20    0.15
   0  16  14    1.99    0.28
   0  14 -16    2.10    0.21
 -16   0  14    1.86    0.15
  16   0 -14    2.16    0.12
   0  16 -14    2.09    0.21
  14  -2 -16    2.67    0.14
 -14   2 -16    2.62    0.14
 -16  14  -2    3.04    0.18
 -14   2 -16    2.73    0.17
 -16  14  -2    2.75    0.19
 -14  16   2    2.72    0.19
   2  16  14    2.54    0.30
 -14  -2  16    2.63    0.17
  16   2 -14    2.77    0.13
 -16  14  -2    2.59    0.14
 -16   2  14    2.80    0.17
  -2  16 -14    2.60    0.24
  -2  14  16    2.87    0.32
  16  -2 -14    2.88    0.14
 -14   2  16    2.50    0.17
 -16   2 -14    2.60    0.14
  -2  16  14    2.35    0.29
  14   2 -16    2.94    0.14
  -2  14 -16    2.90    0.25
 -16   2 -14    2.61    0.17
 -16  14   2    2.46    0.18
   2  14  16    2.48    0.30
 -16  14  -4    3.02    0.18
  16   4 -14    2.76    0.14
   4  16  14    3.38    0.33
 -14  16   4    3.11    0.19
  -4  14  16    3.03    0.31
 -16   4  14    2.98    0.18
 -16  14  -4    3.03    0.15
 -14   4 -16    2.85    0.16
 -14   4 -16    3.01    0.19
  14  -4 -16    2.98    0.14
  -4  16 -14    2.88    0.27
  -4  16  14    3.43    0.33
  -4  14 -16    2.65    0.25
  -4  14 -16    3.08    0.15
 -16   4 -14    2.70    0.18
  14   4 -16    2.95    0.14
 -14  16  -4    3.18    0.28
 -14   4  16    2.87    0.18
   4  14  16    2.82    0.31
 -16   4 -14    2.82    0.15
  16  -4 -14    2.67    0.14
 -16  14   4    2.90    0.19
  16   6 -14    2.02    0.11
 -16   6  14    2.08    0.14
  14  -6 -16    1.94    0.11
 -14   6 -16    1.59    0.15
 -14   6 -16    1.95    0.13
 -16  14  -6    1.98    0.13
  -6  16 -14    1.64    0.23
 -16   6  14    2.15    0.12
   6  16  14    2.17    0.30
 -16  14  -6    2.20    0.16
 -14  16   6    2.17    0.16
 -16   6  14    2.11    0.16
  14   6 -16    1.80    0.11
 -14   6  16    1.74    0.15
   6  14  16    2.26    0.28
 -16  14   6    2.16    0.16
 -16   6 -14    1.85    0.13
  -6  14 -16    1.83    0.12
  -6  16  14    2.26    0.29
 -14  16  -6    1.58    0.21
 -16   6 -14    1.85    0.16
  -6  14 -16    2.12    0.24
 -16  14  -8    1.34    0.14
 -16  14  -8    1.87    0.13
 -16   8  14    1.71    0.13
 -16   8  14    1.53    0.14
 -14  16   8    1.76    0.15
 -14   8 -16    1.89    0.13
 -16   8  14    1.73    0.10
  -8  16 -14    1.66    0.22
 -14   8 -16    1.79    0.16
 -16   8 -14    1.58    0.12
 -16  14   8    1.65    0.15
 -14  16  -8    2.08    0.24
  -8  14 -16    1.77    0.22
  -8  16  14    1.62    0.26
  14   8 -16    1.73    0.11
  -8  14 -16    1.84    0.12
 -16   8 -14    1.74    0.16
  -8  14 -16    1.57    0.14
 -14   8  16    1.78    0.13
 -14   8  16    1.85    0.15
 -14  10 -16    1.90    0.14
 -10  16 -14    2.26    0.16
 -10  16 -14    2.43    0.25
 -10  14  16    2.30    0.16
 -10  16 -14    2.30    0.13
 -14  16  10    2.16    0.16
 -16  10  14    2.35    0.17
 -14  10 -16    1.86    0.17
 -14  10 -16    2.10    0.22
 -16  14 -10    1.94    0.16
 -16  14 -10    2.30    0.14
 -16  14  10    2.11    0.16
 -16  10 -14    2.40    0.17
 -16  10 -14    2.18    0.14
 -10  14 -16    2.13    0.17
 -10  14 -16    2.06    0.23
 -10  14 -16    2.36    0.14
 -14  16 -10    2.08    0.13
 -10  16  14    2.25    0.16
 -14  16 -10    1.93    0.23
 -14  10  16    2.27    0.17
 -14  16 -10    2.16    0.16
 -12  16 -14    1.79    0.15
 -14  16  12    1.56    0.14
 -12  16 -14    1.86    0.12
 -16  14 -12    1.59    0.15
 -14  12 -16    1.39    0.18
 -12  14  16    1.43    0.13
 -14  12 -16    1.49    0.12
 -14  12 -16    1.38    0.14
 -16  12  14    1.74    0.15
 -16  14 -12    1.48    0.12
 -12  16 -14    1.48    0.20
 -14  16 -12    1.59    0.20
 -16  12 -14    1.54    0.15
 -16  14  12    1.74    0.15
 -16  12 -14    1.66    0.12
 -12  14 -16    1.55    0.12
 -14  16 -12    1.94    0.15
 -14  12  16    1.41    0.14
 -14  16 -12    1.89    0.12
 -12  14 -16    1.63    0.20
 -12  14 -16    1.71    0.15
 -12  16  14    1.33    0.13
 -16  14 -14    1.05    0.13
 -16  14 -14    1.29    0.11
 -16  14  14    0.76    0.11
 -14  14 -16    1.11    0.13
 -14  14 -16    0.97    0.17
 -14  14 -16    1.19    0.11
 -14  14  16    1.02    0.11
 -14  16 -14    1.00    0.12
 -14  16 -14    1.08    0.17
 -14  16 -14    1.00    0.10
 -14  16  14    0.89    0.11
 -16   0  16   46.04    1.46
 -16  16   0   47.86    1.49
   0  16 -16   44.71    1.53
   0  16  16   45.64    1.68
  16   0 -16   46.44    1.42
 -16   2 -16    2.03    0.16
 -16   2 -16    1.84    0.13
 -16   2  16    1.97    0.15
 -16  16   2    1.80    0.16
  -2  16 -16    1.92    0.22
  -2  16  16    1.90    0.27
   2  16  16    1.81    0.27
  16  -2 -16    1.94    0.12
  16   2 -16    2.31    0.12
 -16   4 -16   39.17    1.32
 -16   4 -16   39.21    1.29
 -16   4  16   43.49    1.32
 -16  16  -4   40.91    1.41
 -16  16   4   42.14    1.33
  -4  16 -16   42.17    1.42
  -4  16  16   41.76    1.53
   4  16  16   39.68    1.51
  16  -4 -16   41.73    1.27
  16   4 -16   40.77    1.27
 -16   6 -16    1.79    0.16
 -16   6 -16    1.70    0.13
 -16   6  16    1.92    0.14
 -16   6  16    1.76    0.15
 -16   6  16    1.77    0.11
 -16  16  -6    1.86    0.22
 -16  16   6    1.78    0.15
  -6  16 -16    1.93    0.24
  -6  16  16    1.82    0.28
   6  16  16    1.90    0.27
  16   6 -16    1.81    0.11
 -16   8 -16   33.94    1.20
 -16   8 -16   34.89    1.17
 -16   8  16   38.61    1.17
 -16   8  16   35.16    1.19
 -16   8  16   37.45    1.14
 -16  16  -8   38.62    1.20
 -16  16  -8   36.16    1.27
 -16  16  -8   38.76    1.16
 -16  16   8   36.62    1.19
  -8  16 -16   36.23    1.29
  -8  16 -16   36.98    1.16
  -8  16  16   39.24    1.41
  16   8 -16   37.82    1.14
 -16  10 -16    1.31    0.14
 -16  10 -16    1.32    0.12
 -16  10  16    1.13    0.13
 -16  16 -10    1.65    0.15
 -16  16 -10    1.41    0.19
 -16  16 -10    1.54    0.11
 -16  16  10    1.19    0.13
 -10  16 -16    1.51    0.14
 -10  16 -16    1.83    0.22
 -10  16 -16    1.59    0.11
 -10  16  16    1.78    0.26
 -16  12 -16   29.14    0.96
 -16  12 -16   29.09    0.93
 -16  12  16   27.35    0.94
 -16  16 -12   29.45    0.95
 -16  16 -12   30.55    1.02
 -16  16 -12   28.62    0.92
 -16  16  12   27.54    0.94
 -12  16 -16   28.60    0.95
 -12  16 -16   29.93    1.03
 -12  16 -16   28.34    0.92
 -12  16  16   28.41    0.94
 -12  16  16   31.17    1.12
 -16  14 -16    1.22    0.13
 -16  14 -16    1.01    0.10
 -16  14  16    1.06    0.11
 -16  16 -14    1.32    0.13
 -16  16 -14    1.43    0.18
 -16  16 -14    1.24    0.10
 -16  16  14    1.28    0.12
 -14  16 -16    1.36    0.13
 -14  16 -16    1.16    0.17
 -14  16 -16    1.11    0.10
 -14  16  16    0.97    0.11
 -16  16 -16   22.26    0.72
 -16  16 -16   22.21    0.76
 -16  16 -16   21.69    0.69
 -16  16  16   19.86    0.70
  -1  17  -1    9.16    0.64
  -1  17   1    9.21    0.64
   1  17  -1    9.27    0.65
   1  17   1    9.29    0.64
  -3   1 -17   16.91    0.63
  -3  17   1   16.46    0.90
  -1  -3 -17   16.93    0.63
  -1  17  -3   17.66    0.94
   3   1  17   19.17    0.81
   1   3 -17   17.90    0.63
   3  17  -1   16.40    0.93
   3  -1 -17   16.96    0.62
   1  17   3   17.06    0.92
  -1   3 -17   17.52    0.63
  -1  17   3   15.90    0.88
   1  17  -3   17.73    0.94
  -3  17  -1   16.36    0.90
   3  17   1   17.27    0.94
   3  -1  17   18.19    0.79
   1  -3 -17   16.74    0.63
  -3  -1 -17   16.87    0.63
  -3   3 -17    7.06    0.33
  -3  17  -3    6.26    0.60
  -3  17   3    6.61    0.59
  -3  -3 -17    6.71    0.32
   3  -3  17    6.94    0.45
   3   3 -17    7.26    0.32
   3   3  17    6.13    0.44
   3  17  -3    6.43    0.61
   3  17   3    7.64    0.67
   3  -3 -17    7.29    0.33
   1  17   5   12.05    0.58
   5  -1 -17   12.17    0.47
   5  17  -1   11.27    0.74
   1  17   5   11.72    0.74
   5   1  17   12.00    0.64
  -5  17   1   12.05    0.73
  -1  -5 -17   11.86    0.48
  -5   1 -17   12.26    0.48
  -1  17  -5   11.78    0.75
   1   5 -17   12.23    0.48
   5  -1  17   11.80    0.64
   1  17  -5   12.18    0.76
  -5  17  -1   10.41    0.70
   5  17   1   11.66    0.77
  -5  -1 -17   11.86    0.48
  -1   5 -17   12.60    0.48
   1  -5 -17   12.19    0.48
  -1  17   5   11.85    0.73
  -1  17   5   11.40    0.56
   5   1 -17   12.05    0.47
   5  17  -3    8.80    0.65
   3  17   5    8.81    0.65
   5  -3 -17   10.14    0.41
  -5  17   3    8.98    0.61
  -5   3 -17    9.29    0.41
  -3  17  -5    9.74    0.67
   3  17   5   10.34    0.53
   3   5 -17   10.64    0.41
   3  -5  17    9.69    0.56
  -3  -5 -17    9.43    0.42
   5   3  17    9.83    0.58
  -5  -3 -17   10.03    0.41
  -3  17   5    9.19    0.62
   3   5  17    9.80    0.58
   3  17  -5    9.54    0.67
   5  17   3    9.05    0.67
   5  -3  17    9.58    0.57
   3  -5 -17    9.38    0.41
  -3  17   5    9.69    0.50
  -3   5 -17    9.56    0.41
   5   3 -17    9.95    0.40
  -5  17  -3    9.83    0.67
  -5   5 -17    9.63    0.42
  -5  17  -5    9.74    0.68
   5  17   5    8.79    0.67
  -5  17   5    9.49    0.62
   5  -5 -17    9.75    0.41
   5  17  -5    9.47    0.66
  -5  -5 -17    9.43    0.41
   5  -5  17    9.09    0.57
   5   5  17    9.49    0.58
  -1  -7 -17    7.29    0.35
   1  17   7    6.95    0.56
  -1  17  -7    7.24    0.58
   7   1  17    8.62    0.54
   7  17  -1    7.56    0.68
  -7  17   1    7.81    0.57
   1  17   7    6.99    0.44
   7  -1 -17    7.85    0.34
   1   7 -17    7.41    0.35
  -1  17  -7    7.47    0.38
  -7   1 -17    7.30    0.35
  -1  17   7    7.15    0.44
  -7  17  -1    7.60    0.57
  -1   7 -17    7.42    0.35
   7  -1  17    7.43    0.51
   1  17  -7    7.42    0.59
   7  17   1    7.36    0.69
  -1  17   7    7.01    0.56
  -7  -1 -17    7.15    0.34
   1  -7 -17    7.78    0.36
   7  -3 -17   18.00    0.66
   3  17   7   16.47    0.95
  -3  -7 -17   18.74    0.68
   3   7 -17   17.80    0.66
  -7  17   3   17.78    0.91
   3  -7  17   17.78    0.85
   7  17  -3   18.62    0.97
  -7   3 -17   17.67    0.67
  -3  17  -7   16.96    0.96
  -3  17  -7   18.67    0.72
   3  17   7   18.26    0.80
   7   3  17   17.80    0.88
  -3  17   7   17.96    0.77
  -7  -3 -17   17.57    0.66
   7  17   3   16.47    0.97
  -3   7 -17   18.52    0.68
  -3  17   7   16.19    0.90
   3  -7 -17   19.49    0.68
   3   7  17   19.04    0.89
   7  -3  17   18.88    0.89
  -7  17  -3   18.98    0.98
   3  17  -7   19.94    1.00
   7 -17   5   11.18    0.68
  -5  -7 -17   11.97    0.48
   5  17   7   10.57    0.76
  -5  17  -7   11.01    0.75
  -5  17  -7   11.96    0.53
   7  -5 -17   12.13    0.47
 -17   5   7   11.16    0.42
   7   5  17   10.95    0.67
   5  -7  17   11.18    0.66
  -7   5 -17   11.32    0.48
 -17   7   5   11.26    0.42
  -5  17   7   11.36    0.56
   7  17   5   12.98    0.83
   5 -17   7   11.74    0.70
   7  -5  17   12.59    0.69
  -7  17  -5   10.20    0.72
  -7  -5 -17   11.44    0.47
  -5   7 -17   11.78    0.49
   5   7  17   11.77    0.68
   7  -7  17    5.40    0.50
   7  17   7    5.42    0.63
 -17   7  -7    4.73    0.24
  -7   7 -17    5.12    0.29
   7 -17   7    5.70    0.54
  -7   7  17    5.17    0.23
  -7  17  -7    5.02    0.57
 -17   7   7    4.61    0.22
   7   7  17    4.70    0.49
 -17   7   7    4.92    0.23
  -7   7 -17    5.13    0.24
  -7  17  -7    4.79    0.33
  -1  -9 -17    9.42    0.43
  -1  17  -9    9.82    0.45
  -9  17   1    9.77    0.38
   9  17  -1    9.75    0.69
   1  17   9    8.94    0.53
  -9   1 -17    9.70    0.42
   1  17   9   11.02    0.70
 -17   9  -1    9.85    0.38
   9   1  17   10.32    0.64
   1   9 -17   10.60    0.43
  -1  17  -9   10.35    0.70
  -9  17  -1    9.99    0.39
   9  17   1    8.49    0.68
   9  -1  17   10.68    0.65
   1 -17   9    8.62    0.59
 -17   9   1    9.85    0.38
   1  17  -9    9.94    0.68
  -1  17   9    9.52    0.53
  -1   9 -17   10.36    0.43
  -1  17   9   10.22    0.67
  -9  17  -1    9.35    0.64
 -17   3   9    8.25    0.32
   3   9 -17    8.81    0.37
   9   3  17    7.89    0.57
  -3  17  -9    8.84    0.65
  -3  17  -9    8.33    0.42
   3  -9  17    7.63    0.54
   9 -17   3    7.94    0.55
  -3  -9 -17    7.99    0.38
   3  17   9    8.27    0.63
   3  17   9    7.76    0.49
 -17   9  -3    7.93    0.33
  -9  17   3    8.81    0.34
  -9   3 -17    8.34    0.38
   9  -3  17    7.67    0.56
 -17   9   3    8.13    0.33
  -3   9 -17    7.89    0.38
   3  17  -9    8.78    0.63
  -3  17   9    7.54    0.46
   3   9  17    8.67    0.58
   3   9  17    6.87    0.42
   9  17   3    7.13    0.70
   3 -17   9    7.98    0.56
  -9  17  -3    8.50    0.62
 -17   9  -5    7.76    0.29
   9 -17   5    8.05    0.56
  -5  -9 -17    7.51    0.36
  -5  17  -9    8.86    0.43
  -5   9  17    7.76    0.31
 -17   5   9    8.15    0.30
 -17   5   9    7.60    0.31
   5  17   9    8.03    0.73
   5  17   9    7.41    0.49
 -17   9  -5    7.91    0.32
  -9  17   5    7.86    0.33
   9   5  17    8.01    0.58
  -5  17  -9    9.55    0.68
  -9   5 -17    7.98    0.32
  -9   5 -17    7.30    0.37
 -17   5   9    7.49    0.28
   5  -9  17    7.93    0.56
   9   5 -17    7.73    0.28
   5   9  17    7.55    0.57
 -17   9   5    8.01    0.31
 -17   9   5    7.98    0.32
  -5  17   9    7.84    0.46
   5 -17   9    7.07    0.55
   9  17   5    6.58    0.68
 -17   5  -9    7.80    0.32
  -5   9 -17    7.86    0.32
  -5   9 -17    8.09    0.39
   9  -5  17    8.02    0.57
  -5   9 -17    7.71    0.29
  -9  17  -5    8.39    0.64
  -9   5  17    7.72    0.31
 -17   7   9    9.17    0.37
 -17   7   9    9.42    0.33
 -17   7   9    9.41    0.35
 -17   9  -7    9.32    0.38
  -7  17  -9    9.17    0.70
  -7  17  -9    9.44    0.48
   9   7  17   10.70    0.68
  -7   9  17    9.33    0.36
   7  17   9   10.55    0.76
   9 -17   7   10.00    0.64
  -9   7 -17    9.40    0.38
   7   9 -17    9.98    0.34
  -9   7 -17    9.54    0.43
  -9   7 -17    9.23    0.34
   7  -9  17    9.71    0.63
 -17   9  -7    9.47    0.35
 -17   9   7    9.14    0.35
 -17   9   7    9.62    0.37
  -9  17  -7    8.75    0.47
  -7   9 -17    8.94    0.44
 -17   7  -9    8.87    0.34
  -9   7  17    9.35    0.37
 -17   9   7    9.31    0.33
  -7   9 -17    9.35    0.38
  -7  17   9   10.39    0.54
  -7   9 -17    9.54    0.34
   7 -17   9    9.71    0.64
   9   7 -17    9.89    0.33
   7   9  17    9.60    0.66
  -9  17  -7   10.07    0.71
 -17   7  -9    8.99    0.37
   9  17   7   10.61    0.78
   9  -7  17   10.81    0.66
 -17   9  -9    6.63    0.26
   9   9 -17    6.38    0.24
  -9   9 -17    6.28    0.29
  -9   9 -17    5.79    0.34
 -17   9  -9    6.23    0.29
  -9  17  -9    6.12    0.39
 -17   9   9    6.37    0.24
 -17   9   9    6.30    0.28
  -9   9  17    6.48    0.28
  -9   9 -17    6.69    0.26
 -17   9   9    6.15    0.26
 -17  11  -1   12.49    0.48
  17  -1  11   13.50    0.72
 -17  11  -1   13.04    0.46
  -1 -17  11   12.81    0.72
   1  17  11   12.05    0.63
  11  -1 -17   12.73    0.42
   1  17  11   13.06    0.80
  17   1 -11   12.95    0.42
  -1  17 -11   13.14    0.81
  -1  17 -11   12.37    0.54
 -11   1 -17   12.54    0.46
 -11   1 -17   12.30    0.43
 -17  11  -1   12.74    0.43
   1  11 -17   12.96    0.51
   1  11 -17   12.86    0.43
  11   1  17   12.80    0.76
 -11  17   1   12.70    0.48
  11  -1  17   12.31    0.74
 -17  11   1   12.68    0.45
 -17  11   1   12.79    0.48
  11   1 -17   12.55    0.42
   1 -17  11   12.50    0.72
  17   1  11   11.99    0.71
  -1  17  11   12.89    0.64
   1  11  17   11.51    0.60
  -1  11 -17   12.27    0.52
  -1  11 -17   12.96    0.43
 -17   1 -11   12.07    0.46
 -17   1 -11   11.47    0.43
  -1  17  11   12.41    0.76
 -11  17  -1   12.28    0.48
 -17  11   1   12.62    0.43
  -3  17 -11    5.57    0.34
 -11  17   3    6.00    0.27
  11   3  17    6.13    0.58
   3  17  11    6.32    0.63
 -11   3 -17    5.70    0.25
 -17  11  -3    5.31    0.25
   3  17  11    5.22    0.41
  -3  17 -11    5.51    0.58
 -17  11  -3    5.09    0.26
   3  11 -17    5.53    0.22
  11  -3 -17    5.33    0.21
 -11   3 -17    5.45    0.22
  17  -3  11    4.73    0.47
 -17   3  11    5.41    0.24
 -17  11  -3    5.71    0.23
  17   3 -11    5.30    0.21
 -17   3  11    5.51    0.21
 -17   3  11    5.57    0.24
  11 -17   3    6.41    0.54
 -17   3 -11    5.13    0.25
  17   3  11    5.59    0.52
  -3  11 -17    4.93    0.31
   3 -17  11    4.76    0.49
 -11  17  -3    5.05    0.55
  -3  11 -17    5.65    0.22
  11  -3  17    5.15    0.53
  -3  17  11    5.20    0.39
 -17  11   3    6.10    0.27
 -17  11   3    5.66    0.22
 -17  11   3    5.72    0.24
   3  11  17    5.07    0.37
 -11   3  17    5.34    0.25
  11  17   3    5.70    0.62
 -17   3 -11    4.96    0.22
  11   3 -17    5.78    0.22
 -11  17   5    7.88    0.32
  11  -5 -17    7.14    0.27
 -17   5  11    7.10    0.30
 -11   5 -17    7.45    0.28
 -11   5 -17    7.20    0.36
 -17  11  -5    7.40    0.28
 -11   5 -17    7.23    0.31
   5  17  11    7.56    0.49
 -17   5  11    7.76    0.27
  17   5 -11    7.38    0.26
 -17   5  11    7.40    0.29
  -5  17 -11    7.46    0.41
 -17  11  -5    7.12    0.31
   5  11 -17    7.41    0.27
   5  11  17    6.47    0.42
 -11   5  17    7.27    0.31
  -5  11 -17    7.57    0.39
 -17   5 -11    7.07    0.31
  11   5 -17    7.40    0.27
 -17  11   5    7.80    0.32
  -5  17  11    8.00    0.47
  -5  11 -17    7.57    0.28
 -17   5 -11    7.28    0.28
 -17  11   5    7.24    0.27
 -17  11   5    7.20    0.30
  -7  17 -11   13.22    0.59
 -17   7  11   12.82    0.47
 -11   7 -17   13.48    0.45
  -7  11  17   12.30    0.46
 -11   7 -17   13.17    0.49
 -11  17   7   13.31    0.48
 -17   7  11   12.81    0.43
 -17  11  -7   13.39    0.48
 -17  11  -7   12.58    0.45
 -17   7  11   12.64    0.45
 -11   7 -17   11.80    0.53
   7  11 -17   13.26    0.43
 -17  11   7   12.77    0.45
 -17   7 -11   12.66    0.45
 -11  17  -7   13.88    0.59
 -17  11   7   12.52    0.43
 -17  11   7   12.20    0.47
  11   7 -17   12.89    0.43
  -7  11 -17   12.76    0.56
 -11   7  17   12.91    0.48
 -17   7 -11   12.02    0.48
  -7  11 -17   12.75    0.45
  -7  11 -17   12.58    0.48
  -7  17  11   13.76    0.66
 -17   9  11    6.23    0.26
 -17  11  -9    6.70    0.26
 -17  11  -9    6.31    0.29
  -9  11  17    6.28    0.28
 -11   9 -17    6.31    0.29
 -17   9  11    6.06    0.28
 -17   9  11    6.44    0.24
 -11   9 -17    5.89    0.34
 -11  17   9    6.76    0.29
  -9  17 -11    6.57    0.38
 -11   9 -17    6.59    0.26
  -9  11 -17    6.13    0.35
  -9  11 -17    5.93    0.28
 -17  11   9    6.05    0.26
  11   9 -17    6.70    0.24
  -9  11 -17    6.00    0.25
 -11   9  17    6.40    0.28
 -17   9 -11    5.95    0.26
 -17  11   9    5.77    0.28
 -17   9 -11    6.03    0.29
 -11  17  -9    5.96    0.37
  -9  17  11    7.29    0.46
 -17  11   9    6.15    0.23
 -11  17  11    4.34    0.22
 -11  11 -17    3.67    0.22
 -11  17 -11    3.82    0.30
 -11  11 -17    3.21    0.28
 -11  11 -17    4.11    0.19
 -11  11  17    4.09    0.21
 -17  11  11    3.78    0.21
 -17  11 -11    4.06    0.22
 -17  11 -11    3.91    0.19
   1  13 -17    5.41    0.30
  -1  13  17    5.29    0.40
 -17   1  13    5.32    0.24
   1  17  13    4.96    0.40
 -13  -1  17    5.12    0.24
  17   1 -13    5.12    0.21
  13  -1 -17    5.26    0.21
 -17  13  -1    5.47    0.25
   1  13 -17    5.56    0.22
 -13  17   1    5.52    0.27
 -17  13  -1    5.12    0.26
 -17  13  -1    5.31    0.22
  -1  17 -13    5.50    0.32
  -1  17  13    5.43    0.41
 -17  13   1    5.52    0.27
   1  13  17    5.19    0.38
  -1  13 -17    5.60    0.31
 -13  17  -1    5.29    0.27
  17  -1 -13    5.12    0.21
  -1  13 -17    5.62    0.22
 -13   1  17    5.33    0.25
  13   1 -17    5.38    0.21
 -17  13   1    5.30    0.22
 -17  13   1    5.10    0.24
  13  -3 -17    9.33    0.32
 -13  17   3    9.95    0.39
 -17  13  -3    9.13    0.34
  -3  17 -13    9.72    0.46
 -13  -3  17    9.63    0.36
 -13   3 -17    9.13    0.34
 -17   3  13    9.27    0.36
 -13   3 -17    9.70    0.37
  17   3 -13    9.28    0.32
   3  17  13    9.24    0.55
 -17  13  -3    9.55    0.37
 -17   3 -13    8.77    0.37
  -3  13 -17    9.13    0.33
 -17   3 -13    8.52    0.33
  13   3 -17    8.90    0.32
  -3  13 -17    8.68    0.43
 -17  13   3    9.56    0.38
  -3  17  13    8.96    0.53
 -13   3  17    9.26    0.36
   3  13  17    9.00    0.52
 -13  17   5    6.75    0.30
  13  -5 -17    6.21    0.24
 -17   5  13    6.51    0.24
 -17  13  -5    6.47    0.29
 -17  13  -5    6.50    0.26
  17   5 -13    6.69    0.24
 -13   5 -17    6.46    0.26
   5  17  13    6.17    0.46
 -17   5  13    6.25    0.27
 -17   5  13    6.29    0.28
 -13   5 -17    6.30    0.29
  -5  17 -13    6.90    0.39
 -17   5 -13    6.16    0.29
 -13  17  -5    6.58    0.38
  -5  17  13    7.30    0.46
  -5  13 -17    6.61    0.26
 -13   5  17    6.66    0.29
  -5  13 -17    6.41    0.37
 -17  13   5    6.45    0.29
   5  13  17    6.28    0.42
 -17   5 -13    6.25    0.26
  13   5 -17    6.40    0.24
 -13  17   7    4.37    0.23
 -17   7  13    4.31    0.18
 -17   7  13    4.07    0.22
  17   7 -13    4.48    0.18
 -13   7 -17    4.18    0.20
 -17  13  -7    4.06    0.19
 -17  13  -7    4.39    0.23
 -17   7  13    4.20    0.20
  13  -7 -17    4.33    0.18
 -13   7 -17    3.99    0.27
  -7  17 -13    4.19    0.32
 -13   7 -17    4.42    0.24
  -7  17  13    4.18    0.38
 -13  17  -7    3.95    0.31
   7  13  17    4.05    0.33
  13   7 -17    4.27    0.18
  -7  13 -17    4.38    0.19
 -17   7 -13    4.43    0.24
 -17  13   7    4.38    0.23
 -13   7  17    4.39    0.22
 -17   7 -13    4.12    0.20
  -7  13 -17    4.40    0.31
  -9  13  17    5.53    0.25
 -13   9 -17    5.15    0.23
 -17  13  -9    5.25    0.23
 -17   9  13    5.26    0.26
 -13   9 -17    5.73    0.27
 -17  13  -9    4.68    0.25
 -13  17   9    5.45    0.26
  -9  17 -13    5.18    0.35
 -13   9 -17    4.86    0.30
 -17   9  13    4.99    0.21
 -17   9  13    5.41    0.23
  -9  17  13    6.11    0.43
  -9  13 -17    5.13    0.22
  -9  13 -17    5.30    0.26
 -17   9 -13    4.92    0.26
  13   9 -17    5.64    0.21
 -13  17  -9    5.77    0.35
  -9  13 -17    5.21    0.34
 -17   9 -13    5.08    0.23
 -13   9  17    5.66    0.26
 -17  13   9    5.57    0.26
 -13  11 -17    6.83    0.36
 -13  11 -17    7.34    0.28
 -13  11 -17    7.37    0.32
 -17  11  13    6.99    0.30
 -17  13 -11    6.94    0.31
 -13  17  11    7.08    0.31
 -11  13  17    7.16    0.30
 -17  13 -11    6.76    0.28
 -11  17 -13    6.56    0.39
 -17  11 -13    7.38    0.32
 -11  13 -17    7.03    0.28
 -11  17  13    8.20    0.48
 -17  13  11    6.68    0.30
 -11  13 -17    7.29    0.38
 -11  13 -17    6.91    0.31
 -13  11  17    7.10    0.31
 -17  11 -13    7.24    0.28
 -11  17  13    7.41    0.31
 -13  17 -11    7.46    0.40
 -13  13  17    2.79    0.18
 -13  13 -17    3.14    0.26
 -17  13  13    3.03    0.18
 -13  17 -13    2.93    0.15
 -13  17  13    2.85    0.18
 -13  17 -13    2.90    0.18
 -17  13 -13    3.00    0.16
 -13  17 -13    2.51    0.24
 -17  13 -13    2.71    0.19
 -13  13 -17    2.71    0.18
 -13  13 -17    2.98    0.16
 -17  15  -1    5.53    0.28
  -1  17 -15    5.47    0.32
 -15  17   1    5.51    0.28
  -1  15  17    5.10    0.40
   1  15 -17    5.42    0.30
 -17   1  15    5.80    0.26
  17   1 -15    5.82    0.22
  15  -1 -17    5.61    0.22
 -15  -1  17    5.50    0.25
   1  17  15    5.36    0.42
  -1  15 -17    5.73    0.32
  -1  17  15    5.81    0.43
  15   1 -17    5.58    0.22
 -15   1  17    5.03    0.25
  17  -1 -15    5.38    0.22
   1  15  17    5.37    0.41
 -17  15   1    5.47    0.27
  17   3 -15    9.04    0.32
  -3  15  17    9.28    0.53
 -17  15  -3    9.40    0.36
   3  17  15    7.79    0.52
  -3  17 -15    8.64    0.44
 -17   3  15    9.83    0.36
 -15  17   3    8.84    0.38
  15  -3 -17    8.98    0.32
 -15   3 -17    8.77    0.33
 -17  15  -3   10.14    0.34
 -15   3 -17    8.91    0.37
 -17  15   3    9.41    0.38
 -17   3 -15    8.64    0.33
  -3  17  15    9.60    0.55
 -15   3  17    8.63    0.36
   3  15  17    8.98    0.52
 -15  17  -3    9.66    0.46
 -17   3 -15    8.33    0.36
  -3  15 -17    9.41    0.45
  -3  15 -17    9.03    0.33
  15   3 -17    9.28    0.32
   5  17  15    6.44    0.46
 -15   5 -17    6.57    0.27
 -15  17   5    7.46    0.32
 -17   5  15    7.09    0.30
  -5  17 -15    7.18    0.40
  -5  15  17    7.38    0.48
 -15   5 -17    6.75    0.31
  17   5 -15    7.05    0.25
  15  -5 -17    7.01    0.25
 -17  15  -5    7.40    0.27
 -17   5  15    6.95    0.26
 -17  15  -5    7.21    0.30
 -17   5  15    7.18    0.29
  -5  15 -17    7.17    0.40
 -15   5  17    7.02    0.30
 -17   5 -15    6.45    0.31
   5  15  17    6.08    0.43
  -5  17  15    7.33    0.48
  -5  15 -17    6.94    0.27
 -17  15   5    6.81    0.31
 -15  17  -5    7.25    0.39
 -17   5 -15    6.65    0.27
  15   5 -17    7.02    0.26
 -15  17   7    4.31    0.23
  17   7 -15    4.12    0.17
  -7  17 -15    4.45    0.32
  -7  15  17    4.74    0.38
 -17  15  -7    4.08    0.22
 -15   7 -17    4.00    0.23
 -15   7 -17    3.92    0.20
 -17  15  -7    3.95    0.19
 -17   7  15    4.27    0.22
 -17   7 -15    4.24    0.23
 -15   7  17    4.31    0.18
  15   7 -17    4.42    0.18
 -17  15   7    4.13    0.22
  -7  15 -17    4.32    0.19
  -7  17  15    4.59    0.38
 -15   7  17    4.37    0.20
 -15   7  17    4.37    0.23
  -7  15 -17    4.00    0.31
 -15  17  -7    4.34    0.30
 -17   7 -15    4.27    0.20
 -15   9 -17    5.93    0.28
 -15   9 -17    5.59    0.25
 -17  15  -9    5.66    0.24
 -17   9  15    5.87    0.25
 -17   9  15    5.76    0.27
 -17   9  15    6.05    0.22
  -9  17 -15    6.22    0.36
 -15  17   9    5.68    0.27
 -17  15  -9    6.03    0.27
  -9  15 -17    5.73    0.24
  -9  15 -17    6.07    0.36
  15   9 -17    5.95    0.22
 -17   9 -15    5.64    0.28
 -17   9 -15    5.60    0.24
 -15  17  -9    6.33    0.35
  -9  17  15    6.75    0.45
 -17  15   9    6.10    0.27
 -15   9  17    5.53    0.27
 -15  11 -17    6.29    0.26
 -15  11 -17    6.22    0.30
 -17  15 -11    6.69    0.26
 -11  17 -15    6.57    0.28
 -15  17  11    6.24    0.28
 -11  17 -15    7.39    0.26
 -17  11  15    6.48    0.29
 -11  17 -15    6.61    0.37
 -11  15  17    6.12    0.27
 -17  15 -11    6.26    0.29
 -15  17 -11    6.82    0.36
 -17  15  11    6.34    0.28
 -17  11 -15    6.32    0.30
 -17  11 -15    6.51    0.27
 -11  15 -17    7.15    0.37
 -11  15 -17    6.66    0.26
 -11  15 -17    6.41    0.29
 -11  17  15    7.15    0.44
 -15  17 -11    7.24    0.29
 -15  11  17    6.54    0.29
 -15  17 -11    6.98    0.26
 -13  17 -15    3.81    0.20
 -15  17  13    3.32    0.19
 -13  17 -15    3.75    0.17
 -17  15 -13    3.38    0.20
 -15  13 -17    3.52    0.25
 -13  15  17    3.31    0.18
 -15  13 -17    3.38    0.17
 -15  13 -17    3.26    0.20
 -17  13  15    3.32    0.19
 -17  15 -13    3.50    0.17
 -13  17 -15    3.80    0.27
 -15  17 -13    3.26    0.25
 -17  13 -15    3.32    0.20
 -17  15  13    3.38    0.19
 -17  13 -15    3.55    0.17
 -13  15 -17    3.83    0.17
 -15  17 -13    3.70    0.20
 -15  13  17    3.54    0.19
 -15  17 -13    3.70    0.17
 -13  15 -17    3.82    0.26
 -13  15 -17    3.42    0.20
 -13  17  15    3.45    0.19
 -17  15 -15    3.37    0.19
 -17  15 -15    3.23    0.15
 -17  15  15    2.91    0.17
 -15  15 -17    3.27    0.18
 -15  15 -17    2.89    0.22
 -15  15 -17    2.99    0.15
 -15  15  17    2.80    0.16
 -15  17 -15    3.24    0.18
 -15  17 -15    2.90    0.23
 -15  17 -15    3.03    0.15
 -15  17  15    2.80    0.16
 -17  -1  17    6.69    0.28
 -17   1  17    6.35    0.28
  -1  17 -17    6.54    0.35
  -1  17  17    5.77    0.43
   1  17  17    6.15    0.43
  17  -1 -17    6.28    0.24
  17   1 -17    6.13    0.24
 -17   3 -17    2.77    0.18
 -17   3 -17    2.49    0.15
 -17   3  17    3.06    0.18
 -17  17   3    2.71    0.18
  -3  17 -17    2.46    0.24
  -3  17  17    2.67    0.33
   3  17  17    2.29    0.30
  17   3 -17    2.78    0.13
 -17   5 -17    3.56    0.21
 -17   5 -17    3.43    0.18
 -17   5  17    3.91    0.19
 -17   5  17    3.70    0.20
 -17   5  17    3.63    0.16
 -17  17   5    3.53    0.21
  -5  17 -17    3.92    0.29
  -5  17  17    3.86    0.36
   5  17  17    3.40    0.33
  17   5 -17    3.60    0.16
 -17   7 -17    6.91    0.31
 -17   7 -17    6.96    0.28
 -17   7  17    7.23    0.28
 -17   7  17    7.16    0.30
 -17   7  17    7.34    0.26
 -17  17   7    6.64    0.30
  -7  17 -17    7.42    0.40
  -7  17  17    7.32    0.47
  17   7 -17    6.98    0.25
 -17   9 -17    3.01    0.19
 -17   9 -17    3.21    0.17
 -17   9  17    3.12    0.16
 -17   9  17    2.98    0.19
 -17   9  17    3.24    0.14
 -17  17  -9    3.27    0.19
 -17  17  -9    3.27    0.16
 -17  17   9    2.97    0.18
  -9  17 -17    3.03    0.26
  -9  17 -17    3.10    0.16
  -9  17  17    3.44    0.32
 -17  11 -17    2.25    0.17
 -17  11 -17    2.48    0.14
 -17  11  17    2.51    0.16
 -17  17 -11    2.71    0.17
 -17  17 -11    2.64    0.14
 -17  17  11    2.44    0.16
 -11  17 -17    2.46    0.23
 -11  17 -17    2.69    0.14
 -11  17  17    2.87    0.29
 -17  13 -17    3.93    0.20
 -17  13 -17    3.66    0.17
 -17  13  17    3.39    0.18
 -17  17 -13    4.04    0.20
 -17  17 -13    3.77    0.17
 -17  17  13    3.24    0.18
 -13  17 -17    3.52    0.24
 -13  17 -17    3.63    0.16
 -13  17  17    3.38    0.18
 -13  17  17    3.78    0.29
 -17  15 -17    4.23    0.20
 -17  15 -17    4.38    0.18
 -17  15  17    3.90    0.19
 -17  17 -15    4.52    0.20
 -17  17 -15    4.68    0.18
 -17  17  15    3.67    0.18
 -15  17 -17    4.32    0.17
 -15  17  17    3.76    0.18
 -17  17 -17    1.46    0.09
   0   0 -18    1.40    0.15
   0  18   0    1.58    0.32
  -2  18   0    5.24    0.55
   0  -2 -18    5.42    0.28
   0   2 -18    5.19    0.28
   2  18   0    4.30    0.51
   0  18   2    4.67    0.53
   2   0 -18    5.19    0.27
   0  18  -2    5.31    0.56
  -2   0 -18    5.61    0.28
  -2  18   2   78.08    2.86
  -2  18  -2   77.55    2.88
  -2  -2 -18   82.74    2.51
  -2   2 -18   80.98    2.51
   2  18  -2   72.61    2.87
   2  18   2   76.17    2.89
   2  -2 -18   81.12    2.50
   2   2 -18   83.80    2.51
  -4  18   0    8.41    0.62
   0  -4 -18    9.66    0.41
   4   0  18    8.67    0.53
   0   4 -18    9.00    0.39
   4  18   0    9.62    0.68
  -4   0 -18    8.59    0.39
   0  18  -4    8.72    0.65
   0  18   4    9.22    0.65
   0  18   4    8.92    0.49
   4   0 -18    9.12    0.39
   2  18   4    2.85    0.42
  -4  18   2    2.56    0.38
  -4   2 -18    3.12    0.21
  -2  18  -4    2.61    0.41
   4  18  -2    3.02    0.43
   4   2  18    2.56    0.33
   2   4 -18    2.90    0.21
   4  -2 -18    3.41    0.22
  -2  -4 -18    3.00    0.22
   2  18  -4    3.28    0.46
  -4  18  -2    2.68    0.40
  -2   4 -18    3.44    0.22
   2  -4 -18    3.07    0.21
   4  -2  18    3.48    0.37
   4   2 -18    2.91    0.20
  -2  18   4    3.30    0.43
   4  18   2    3.57    0.48
  -4  -2 -18    2.72    0.21
   4  -4 -18    1.90    0.18
   4  18   4    1.40    0.33
  -4  18   4    1.38    0.31
   4  -4  18    1.32    0.26
  -4   4 -18    1.49    0.17
  -4  18  -4    1.45    0.34
  -4  -4 -18    1.72    0.18
   4   4  18    1.52    0.27
   4  18  -4    1.43    0.33
   4   4 -18    1.58    0.16
   6   0  18    1.92    0.30
   0  18  -6    1.63    0.35
   6   0 -18    1.84    0.18
  -6  18   0    1.92    0.35
   0  -6 -18    2.02    0.19
   0   6 -18    1.57    0.17
   0  18   6    1.83    0.25
   0  18   6    1.62    0.33
  -6   0 -18    1.85    0.18
   0  18  -6    2.34    0.22
   6  18   0    1.50    0.34
   6   2  18   75.52    2.60
  -2  -6 -18   77.87    2.36
   2  18   6   75.73    2.50
   6  -2 -18   74.55    2.33
   6  18  -2   67.57    2.71
   2  18   6   68.97    2.70
  -2  18  -6   77.82    2.39
  -2  18  -6   72.33    2.74
  -6  18   2   67.96    2.64
   2   6 -18   75.77    2.34
  -6   2 -18   70.46    2.34
  -2   6 -18   75.61    2.35
   6  -2  18   74.48    2.58
   6  18   2   70.55    2.77
  -2  18   6   72.44    2.46
  -2  18   6   76.06    2.70
  -6  18  -2   73.22    2.71
   2  -6 -18   75.89    2.35
   6   2 -18   75.61    2.33
 -18   6   2   76.23    2.29
  -6  -2 -18   74.65    2.34
   2  18  -6   74.40    2.74
  -4  18  -6    5.46    0.59
   6   4  18    5.13    0.48
  -6   4 -18    5.63    0.31
  -6  18   4    5.23    0.53
   6  18  -4    6.52    0.63
   6  -4 -18    5.37    0.29
  -4  -6 -18    4.99    0.29
  -4  18  -6    5.64    0.34
   4  -6  18    5.52    0.49
   4   6 -18    5.84    0.29
   4  18   6    5.63    0.60
  -4   6 -18    6.15    0.32
  -6  -4 -18    5.44    0.29
   4   6  18    5.20    0.48
  -6  18  -4    4.82    0.54
   6  18   4    4.43    0.55
 -18   6   4    5.65    0.25
  -4  18   6    5.67    0.55
   4  -6 -18    5.73    0.30
   4  18  -6    6.19    0.61
   6  -4  18    5.07    0.48
  -6   6 -18   57.19    1.77
 -18   6   6   59.08    1.76
   6   6  18   57.11    2.12
   6  18   6   57.78    2.30
 -18   6   6   57.06    1.80
 -18   6  -6   55.76    1.80
  -6  18  -6   57.41    1.91
   6 -18   6   57.78    2.16
   6   6 -18   58.47    1.77
  -6   6 -18   58.02    1.87
  -6  -6 -18   58.21    1.86
  -6   6 -18   57.34    1.80
  -6  18  -6   58.54    2.26
   6  -6  18   56.97    2.10
 -18   6  -6   55.53    1.77
 -18   6   6   59.06    1.79
  -8  18   0    1.71    0.34
   0  -8 -18    1.98    0.20
   0  18   8    1.74    0.26
   8   0  18    1.76    0.31
  -8   0 -18    2.18    0.20
 -18   0   8    1.77    0.13
   0  18   8    1.31    0.31
 -18   8   0    1.91    0.14
 -18   8   0    1.72    0.14
   0   8 -18    1.94    0.19
   8  18   0    1.30    0.34
   0  18  -8    1.86    0.20
   0  18  -8    1.89    0.36
   2  18   8    3.36    0.33
   8   2  18    3.59    0.42
 -18   8  -2    3.86    0.20
 -18   8  -2    3.92    0.20
 -18   8  -2    3.59    0.17
   2  18   8    2.81    0.43
   2   8 -18    3.53    0.23
 -18   2   8    3.70    0.18
 -18   2   8    3.58    0.16
   8  -2 -18    4.12    0.24
  -8  18   2    3.78    0.46
  -2  -8 -18    3.34    0.24
  -2  18  -8    4.20    0.29
  -2  18  -8    3.50    0.48
  -8   2 -18    3.60    0.24
   8  18  -2    4.41    0.53
  -2  18   8    3.97    0.48
 -18   8   2    3.97    0.20
   2  18  -8    4.14    0.51
  -8  18  -2    3.87    0.47
  -2  18   8    3.46    0.32
 -18   8   2    3.74    0.19
  -2   8 -18    3.59    0.25
  -2   8 -18    3.64    0.17
   2  -8 -18    3.55    0.24
 -18  -2   8    3.59    0.18
   8  -2  18    4.52    0.46
   8  18   2    3.54    0.51
  -8  -2 -18    3.75    0.24
   2 -18   8    3.05    0.40
   8  -4 -18    5.99    0.30
  -8   4 -18    5.64    0.25
 -18   4   8    5.81    0.24
  -8   4 -18    5.41    0.30
  -8   4 -18    4.97    0.22
  -4  18  -8    4.86    0.56
  -4  18  -8    5.32    0.34
  -4  -8 -18    5.50    0.31
   8   4  18    5.85    0.54
   4  18   8    4.13    0.53
   4  18   8    5.51    0.42
 -18   4   8    5.85    0.25
   4   8 -18    5.57    0.22
   4  -8  18    6.14    0.53
  -4   8  18    5.40    0.24
 -18   8  -4    5.39    0.25
 -18   8  -4    5.69    0.23
 -18   4   8    5.84    0.22
   8 -18   4    5.11    0.51
 -18   8   4    5.77    0.22
 -18   4  -8    5.19    0.22
 -18   4  -8    5.19    0.25
   4   8  18    6.24    0.56
 -18   8   4    5.25    0.24
  -8  18  -4    5.49    0.57
  -4  18   8    5.46    0.40
 -18   8   4    5.64    0.26
   4 -18   8    5.95    0.54
 -18  -4   8    5.55    0.24
   8   4 -18    5.65    0.22
   8  18   4    5.76    0.63
  -4   8 -18    5.44    0.23
  -4   8 -18    5.02    0.30
   8  -4  18    6.01    0.54
   8   6  18    1.44    0.31
  -8   6 -18    1.88    0.12
   6   8 -18    1.81    0.12
  -6  18  -8    1.46    0.22
  -8   6 -18    1.73    0.19
 -18   8  -6    1.62    0.14
 -18   8  -6    1.46    0.11
  -6  -8 -18    1.98    0.19
 -18   6   8    1.79    0.13
  -6   8  18    1.72    0.14
   6  -8  18    1.56    0.30
 -18   6   8    1.80    0.14
  -8   6 -18    2.03    0.16
   8 -18   6    1.88    0.33
 -18   6   8    1.74    0.11
  -8  18  -6    1.70    0.37
  -6   8 -18    1.74    0.12
  -8  18  -6    1.69    0.22
 -18   8   6    1.89    0.14
  -6   8 -18    1.88    0.15
 -18   6  -8    2.04    0.16
 -18   6  -8    1.64    0.12
   8  -6  18    1.78    0.31
  -6  18   8    1.67    0.25
   6   8  18    1.44    0.31
 -18   8   6    1.62    0.11
   8   6 -18    1.91    0.12
  -8   6  18    1.85    0.14
  -6   8 -18    1.79    0.20
 -18   8   6    1.89    0.13
 -18   8   8    1.94    0.13
  -8   8 -18    1.80    0.15
 -18   8   8    1.94    0.15
 -18   8   8    1.85    0.11
 -18   8  -8    1.84    0.16
  -8   8 -18    1.75    0.20
  -8   8 -18    1.77    0.12
  -8   8  18    1.82    0.14
  -8  18  -8    1.60    0.22
   8   8 -18    1.72    0.11
 -18   8  -8    1.85    0.13
   0  18 -10    6.12    0.34
 -18  10   0    6.41    0.25
   0  18 -10    6.76    0.64
 -10  18   0    5.90    0.28
   0  18  10    6.51    0.61
 -18   0  10    6.28    0.23
 -18  10   0    6.30    0.27
   0  18  10    5.49    0.42
 -18   0  10    6.42    0.26
   0  10 -18    6.35    0.24
   0  10  18    6.08    0.40
   0  10 -18    6.09    0.32
   0 -18  10    6.70    0.52
  10   0 -18    6.10    0.24
  10   0  18    7.42    0.55
 -18  10   0    5.95    0.28
   2  10 -18   54.96    1.70
   2  10 -18   55.19    1.78
   2  18  10   53.34    1.94
  10  -2 -18   54.60    1.69
 -10   2 -18   55.72    1.70
 -18  10  -2   56.71    1.74
 -18  10  -2   53.95    1.74
 -18   2  10   55.64    1.71
 -18   2  10   57.81    1.69
 -18  10  -2   57.07    1.70
 -10   2 -18   56.03    1.73
 -10   2 -18   54.50    1.78
 -10  18   2   58.81    1.75
  -2  18 -10   58.20    1.83
  -2 -18  10   57.16    2.06
  -2  10 -18   55.04    1.80
 -18  10   2   54.16    1.73
 -18  10   2   55.10    1.72
  -2  10 -18   54.91    1.70
   2  18 -10   59.96    2.19
 -10  18  -2   53.16    2.10
 -18  -2  10   55.54    1.71
 -18   2 -10   49.73    1.72
 -18  10   2   56.95    1.70
  -2  18  10   55.04    1.93
 -18   2 -10   50.50    1.69
   2  10  18   49.95    1.87
  10   2 -18   55.93    1.69
  -4  18 -10    1.33    0.20
   4  18  10    1.17    0.24
  10  -4 -18    1.09    0.09
 -18   4  10    0.88    0.08
 -18   4  10    0.94    0.11
 -18  10  -4    1.13    0.12
 -18  10  -4    1.03    0.09
 -18   4  10    0.97    0.10
 -10  18   4    1.07    0.13
   4  10 -18    1.09    0.09
 -10   4 -18    1.15    0.17
 -10   4 -18    1.10    0.10
 -10   4 -18    0.94    0.12
 -18  10   4    1.12    0.11
 -18  -4  10    1.13    0.11
  -4  10 -18    1.10    0.16
  10   4 -18    1.19    0.09
  -4  18  10    1.08    0.22
 -18   4 -10    0.78    0.09
 -18   4 -10    0.94    0.12
 -10   4  18    0.90    0.11
 -18  10   4    1.21    0.13
 -18  10   4    1.01    0.09
  -4  10 -18    0.96    0.09
 -18  10  -6   56.66    1.84
 -10  18   6   62.94    1.85
  -6  18 -10   59.35    1.96
 -18  10  -6   57.16    1.81
 -10   6 -18   57.45    1.90
 -10   6 -18   58.40    1.81
 -10   6 -18   58.84    1.85
   6  10 -18   58.08    1.80
  -6  10  18   57.90    1.83
 -18   6  10   59.32    1.82
 -18   6  10   58.28    1.84
 -18   6  10   59.79    1.80
 -18   6 -10   55.50    1.81
 -18  10   6   58.94    1.82
  -6  18  10   61.79    2.04
  10   6 -18   59.95    1.80
 -18  10   6   58.48    1.80
 -18  10   6   59.13    1.84
 -18   6 -10   54.05    1.84
 -10  18  -6   59.56    1.96
 -10   6  18   60.75    1.84
  -6  10 -18   59.00    1.93
  -6  10 -18   59.38    1.81
 -18  10  -8    3.48    0.18
 -10   8 -18    3.70    0.21
 -18  10  -8    3.38    0.21
 -18   8  10    3.63    0.19
  -8  18 -10    3.67    0.32
 -10   8 -18    3.55    0.18
 -18   8  10    3.66    0.20
 -18   8  10    3.62    0.16
   8  10 -18    3.71    0.17
  -8  10  18    3.78    0.20
 -10   8 -18    3.39    0.25
  -8  10 -18    4.06    0.28
 -10  18  -8    4.09    0.30
  -8  18  10    4.74    0.37
 -10   8  18    3.67    0.21
 -18   8 -10    3.46    0.21
 -18  10   8    3.66    0.16
  -8  10 -18    3.94    0.18
 -18   8 -10    3.60    0.18
  -8  10 -18    3.91    0.21
 -18  10   8    3.80    0.19
  10   8 -18    3.73    0.17
 -18  10   8    3.59    0.20
 -18  10 -10   34.81    1.14
 -18  10 -10   34.46    1.11
  10  10 -18   35.69    1.09
 -10  10 -18   32.97    1.20
 -18  10  10   35.89    1.13
 -10  18 -10   35.91    1.25
 -10  10 -18   34.58    1.11
 -18  10  10   34.69    1.08
 -18  10  10   34.96    1.11
 -10  10  18   35.91    1.13
 -10  10 -18   33.75    1.14
   0  18 -12    3.10    0.24
 -12   0  18    3.25    0.19
 -18  12   0    3.40    0.16
   0  12  18    3.14    0.31
  12   0 -18    3.37    0.16
   0  12 -18    3.09    0.24
 -18  12   0    3.52    0.19
 -18  12   0    3.27    0.21
   0  12 -18    3.42    0.16
   0  18  12    3.09    0.33
 -12  18   0    3.21    0.21
  12  -2 -18    2.27    0.13
   2  18  12    2.57    0.32
 -18  12  -2    1.88    0.16
  -2  18 -12    2.18    0.23
 -12   2 -18    2.27    0.16
 -12   2 -18    2.16    0.13
  -2  12  18    1.87    0.26
 -18  12  -2    2.16    0.16
 -18   2  12    2.36    0.13
 -12  18   2    2.33    0.17
 -18   2  12    2.36    0.16
 -18   2  12    1.87    0.14
   2  12 -18    2.29    0.13
   2  12 -18    2.35    0.20
 -18  12  -2    2.11    0.13
  -2  12 -18    2.29    0.13
 -18  12   2    2.37    0.16
 -18   2 -12    2.35    0.16
  12   2 -18    2.32    0.13
 -12   2  18    2.09    0.16
   2  12  18    2.12    0.27
  -2  12 -18    2.43    0.23
 -18  12   2    2.31    0.13
 -18   2 -12    2.11    0.13
  -2  18  12    2.11    0.29
 -18  12   2    2.32    0.17
  -4  18 -12    2.06    0.24
 -12   4 -18    2.00    0.13
   4  18  12    2.06    0.29
 -18   4  12    2.06    0.14
   4  12 -18    1.92    0.12
 -18   4  12    1.99    0.12
  18   4 -12    2.11    0.12
 -18  12  -4    2.27    0.13
  12  -4 -18    1.86    0.12
 -18   4  12    1.95    0.15
 -12   4 -18    1.81    0.15
 -18  12  -4    1.95    0.16
 -12  18   4    1.53    0.15
 -18  12   4    2.27    0.12
  -4  12 -18    2.13    0.23
 -18   4 -12    1.61    0.15
 -18   4 -12    2.03    0.13
 -18  12   4    2.04    0.14
 -12   4  18    2.06    0.16
   4  12  18    1.56    0.23
 -18  12   4    1.86    0.16
  -4  18  12    2.13    0.28
  12   4 -18    2.08    0.12
  -4  12 -18    1.48    0.12
 -12   6 -18    2.39    0.14
 -12   6 -18    2.28    0.22
 -18  12  -6    2.45    0.14
  12  -6 -18    2.31    0.12
 -18   6  12    2.09    0.15
 -18   6  12    2.45    0.17
 -18   6  12    2.22    0.13
   6  12 -18    2.61    0.14
 -12  18   6    2.74    0.18
  -6  18 -12    2.57    0.27
  18   6 -12    2.41    0.12
 -12   6 -18    2.50    0.17
 -18  12  -6    2.60    0.18
 -18   6 -12    2.37    0.14
  -6  18  12    2.37    0.29
 -12  18  -6    2.39    0.26
 -18   6 -12    2.43    0.18
 -18  12   6    2.36    0.15
 -12   6  18    2.50    0.17
  12   6 -18    2.46    0.13
 -18  12   6    2.23    0.17
  -6  12 -18    2.79    0.26
  -6  12 -18    2.36    0.14
 -18  12   6    2.44    0.13
 -18  12  -8    2.44    0.15
  -8  18 -12    2.50    0.26
 -18   8  12    2.53    0.15
 -18   8  12    2.69    0.17
 -12   8 -18    2.27    0.17
 -12   8 -18    2.04    0.21
 -12   8 -18    2.33    0.14
 -18  12  -8    2.35    0.18
 -12  18   8    2.78    0.18
  -8  12  18    2.40    0.16
 -18   8  12    2.41    0.13
 -18  12   8    2.21    0.17
  -8  12 -18    2.40    0.14
  -8  12 -18    2.16    0.24
 -18   8 -12    1.92    0.17
  -8  18  12    2.55    0.31
  12   8 -18    2.38    0.13
 -18   8 -12    2.20    0.14
 -12   8  18    2.33    0.17
 -12  18  -8    2.14    0.25
 -12  18  10    1.46    0.14
 -10  12  18    1.34    0.13
 -10  18 -12    1.86    0.23
 -12  10 -18    1.39    0.11
 -18  10  12    1.32    0.10
 -18  10  12    1.37    0.14
 -12  10 -18    1.13    0.17
 -18  12 -10    1.19    0.11
 -18  12 -10    1.08    0.13
 -12  10 -18    1.46    0.14
 -18  10  12    1.33    0.11
 -18  12  10    1.18    0.13
 -10  12 -18    1.45    0.20
 -10  12 -18    1.21    0.11
 -18  10 -12    1.30    0.11
 -18  10 -12    1.54    0.15
 -12  18 -10    1.17    0.20
 -12  10  18    1.41    0.13
 -10  12 -18    1.48    0.14
  12  10 -18    1.45    0.10
 -12  18 -12    1.38    0.20
 -12  12  18    1.45    0.13
 -18  12 -12    1.53    0.15
 -12  12 -18    1.53    0.19
 -12  12 -18    1.19    0.11
 -12  12 -18    1.56    0.15
 -18  12 -12    1.33    0.11
 -18  12  12    1.67    0.14
 -12  18  12    1.44    0.13
   0  18  14    0.68    0.21
   0  18 -14    0.48    0.14
 -14  18   0    0.66    0.12
  14   0 -18    0.68    0.08
   0  14 -18    0.54    0.08
 -14   0  18    0.61    0.10
 -18  14   0    0.68    0.10
 -18  14   0    0.63    0.12
   0  14  18    0.66    0.19
 -18  14   0    0.67    0.08
   0  14 -18    0.74    0.14
 -18  14  -2   45.42    1.41
 -18  14  -2   45.55    1.37
 -14   2 -18   42.18    1.40
  14  -2 -18   44.25    1.36
  -2  14  18   43.70    1.60
  18   2 -14   44.99    1.36
 -14  -2  18   45.38    1.40
 -14   2 -18   43.64    1.37
 -18   2  14   43.69    1.40
 -18   2  14   45.89    1.39
 -14  18   2   45.17    1.42
   2  18  14   44.25    1.63
 -18   2  14   44.83    1.36
  -2  18 -14   46.10    1.50
  -2  14 -18   45.56    1.49
 -18  14   2   44.76    1.42
 -18   2 -14   41.21    1.40
   2  14  18   42.72    1.59
  14   2 -18   43.46    1.36
  -2  14 -18   43.18    1.37
 -18   2 -14   40.25    1.37
  -2  18  14   44.52    1.63
 -14   2  18   44.52    1.40
  18   4 -14    4.02    0.17
 -14   4 -18    3.82    0.22
   4  18  14    3.79    0.37
  14  -4 -18    4.01    0.17
  -4  14  18    4.35    0.37
 -18   4  14    3.88    0.20
  -4  18 -14    4.70    0.31
 -14  18   4    4.00    0.23
 -18   4  14    4.07    0.21
 -18  14  -4    4.01    0.18
 -14   4 -18    3.64    0.18
 -18   4  14    4.03    0.17
 -18  14  -4    3.84    0.22
  -4  14 -18    4.28    0.30
  -4  14 -18    4.28    0.19
   4  14  18    3.73    0.33
  14   4 -18    3.86    0.17
 -14  18  -4    3.84    0.30
  -4  18  14    4.46    0.38
 -18   4 -14    3.85    0.18
 -14   4  18    4.06    0.22
 -18  14   4    3.79    0.22
 -18   4 -14    3.77    0.22
  -6  18 -14   33.63    1.18
  18   6 -14   32.51    1.02
 -18  14  -6   34.68    1.05
 -18   6  14   33.46    1.05
 -14   6 -18   32.47    1.09
 -18  14  -6   34.74    1.08
  14  -6 -18   31.48    1.02
 -14  18   6   34.59    1.09
 -18   6  14   33.02    1.07
 -14   6 -18   32.38    1.05
 -18   6  14   33.86    1.03
 -18   6 -14   31.86    1.08
  -6  14 -18   33.62    1.04
  14   6 -18   32.57    1.03
 -14  18  -6   32.10    1.17
 -18  14   6   31.77    1.08
   6  14  18   30.20    1.23
 -18   6 -14   31.59    1.05
 -14   6  18   32.95    1.08
  -6  18  14   36.01    1.29
  -6  14 -18   33.34    1.17
 -18  14  -8    0.76    0.09
 -18  14  -8    0.92    0.12
 -14   8 -18    0.80    0.10
 -14   8 -18    0.88    0.13
 -18   8  14    0.58    0.10
 -18   8  14    0.77    0.08
  -8  18 -14    0.94    0.19
 -18   8  14    0.73    0.09
 -14  18   8    0.89    0.12
 -18   8 -14    0.72    0.09
 -14   8  18    0.70    0.11
  -8  18  14    1.13    0.24
  -8  14 -18    0.97    0.10
  -8  14 -18    0.66    0.17
  14   8 -18    0.97    0.08
 -18   8 -14    0.50    0.11
 -18  14   8    0.60    0.10
 -14  18  -8    0.95    0.18
 -10  14  18   37.79    1.23
 -10  18 -14   39.33    1.34
 -18  10  14   39.04    1.22
 -14  10 -18   39.42    1.22
 -18  10  14   38.40    1.24
 -18  14 -10   38.45    1.21
 -14  10 -18   36.22    1.29
 -18  10  14   38.36    1.19
 -18  14 -10   39.06    1.25
 -14  18  10   38.54    1.24
 -14  10 -18   38.46    1.26
 -18  10 -14   38.63    1.22
 -10  14 -18   38.84    1.21
 -18  14  10   38.12    1.24
 -14  10  18   36.79    1.24
 -14  18 -10   38.30    1.33
 -10  18  14   44.59    1.45
  14  10 -18   39.53    1.19
 -18  10 -14   38.82    1.25
 -10  14 -18   37.20    1.32
 -14  12 -18    1.43    0.14
 -18  12  14    1.57    0.14
 -12  14  18    1.64    0.13
 -18  14 -12    1.93    0.16
 -14  18  12    1.52    0.13
 -18  14 -12    1.71    0.12
 -12  18 -14    1.48    0.20
 -14  12 -18    1.63    0.19
 -14  12 -18    1.28    0.11
 -18  14  12    1.47    0.13
 -14  18 -12    1.55    0.20
 -14  12  18    1.29    0.13
 -18  12 -14    1.51    0.15
 -12  14 -18    1.47    0.14
 -12  14 -18    1.78    0.12
 -12  18  14    1.72    0.14
 -18  12 -14    1.61    0.12
 -12  14 -18    1.42    0.18
 -14  14 -18   19.31    0.72
 -14  18 -14   19.82    0.73
 -14  14 -18   20.12    0.64
 -18  14 -14   20.20    0.64
 -18  14 -14   19.84    0.67
 -14  18  14   19.11    0.65
 -14  14 -18   19.71    0.67
 -18  14  14   18.85    0.66
 -14  14  18   18.80    0.65
  16   0 -18    2.12    0.12
   0  16 -18    2.06    0.20
 -18  16   0    1.86    0.16
   0  18  16    1.92    0.28
   0  18 -16    2.15    0.21
 -16   0  18    2.10    0.16
   0  16  18    2.29    0.30
  -2  16  18    1.55    0.26
 -16   2 -18    1.66    0.14
 -16  18   2    1.34    0.15
 -18   2  16    1.57    0.13
  -2  18 -16    1.79    0.20
 -18   2  16    1.81    0.14
  16  -2 -18    1.72    0.11
 -16   2 -18    1.58    0.12
   2  18  16    1.49    0.26
 -16  -2  18    1.59    0.13
  18   2 -16    1.80    0.11
  -2  18  16    1.46    0.25
  16   2 -18    1.68    0.11
  -2  16 -18    1.38    0.19
 -16   2  18    1.84    0.15
 -18   2 -16    1.60    0.12
 -18  16   2    1.49    0.15
   2  16  18    1.27    0.23
 -18   2 -16    1.57    0.14
 -16  18  -2    1.47    0.20
 -18   4  16    1.52    0.13
 -16   4 -18    1.40    0.14
  18   4 -16    1.34    0.10
 -18  16  -4    1.78    0.15
   4  18  16    1.74    0.28
 -18   4  16    1.39    0.13
 -18   4  16    1.40    0.10
  -4  18 -16    1.45    0.20
 -16   4 -18    1.37    0.11
  -4  16  18    1.38    0.25
 -16  18   4    1.47    0.14
  16  -4 -18    1.43    0.10
 -18   4 -16    1.56    0.12
  -4  18  16    1.62    0.27
  -4  16 -18    1.53    0.20
 -16   4  18    1.50    0.14
 -16  18  -4    1.29    0.19
  16   4 -18    1.41    0.10
   4  16  18    1.33    0.24
 -18   4 -16    1.60    0.15
 -18  16   4    1.16    0.14
  -6  16  18    2.14    0.29
 -16  18   6    1.71    0.15
 -18   6  16    1.65    0.11
 -16   6 -18    1.44    0.14
 -16   6 -18    1.63    0.12
  18   6 -16    1.57    0.10
 -18  16  -6    2.09    0.16
 -18  16  -6    1.72    0.12
  -6  18 -16    1.82    0.22
 -18   6  16    1.64    0.14
 -18   6  16    1.69    0.13
 -16  18  -6    1.63    0.20
 -18   6 -16    1.41    0.14
 -16   6  18    1.90    0.13
 -16   6  18    2.02    0.16
 -16   6  18    1.71    0.11
  -6  16 -18    1.99    0.23
 -18   6 -16    1.64    0.12
 -18  16   6    1.50    0.15
  16   6 -18    1.60    0.10
  -6  18  16    2.15    0.29
  -6  16 -18    1.66    0.12
 -16   8 -18    1.20    0.14
  -8  16  18    1.53    0.25
  18   8 -16    1.65    0.10
 -16   8 -18    1.28    0.11
  -8  18 -16    1.61    0.21
 -18   8  16    1.55    0.10
 -18   8  16    1.68    0.13
 -16  18   8    1.58    0.14
 -18   8  16    1.80    0.15
 -18  16  -8    1.62    0.14
 -18  16  -8    1.42    0.11
 -18  16   8    1.46    0.13
 -16  18  -8    1.73    0.20
 -16   8  18    1.88    0.15
 -16   8  18    1.53    0.10
 -16   8  18    1.46    0.12
 -18   8 -16    1.71    0.12
  -8  18  16    2.11    0.28
  16   8 -18    1.55    0.10
  -8  16 -18    1.78    0.22
  -8  16 -18    1.60    0.11
 -18   8 -16    1.45    0.14
 -16  10 -18    0.93    0.12
 -16  10 -18    0.93    0.10
 -10  18 -16    1.15    0.18
 -16  18  10    1.14    0.12
 -10  16  18    1.15    0.22
 -18  16 -10    1.07    0.12
 -18  16 -10    1.13    0.10
 -18  10  16    0.93    0.11
 -18  10 -16    1.01    0.12
 -18  10 -16    1.05    0.10
 -18  16  10    0.96    0.11
 -10  16 -18    1.17    0.10
 -16  10  18    1.18    0.12
 -16  18 -10    1.08    0.17
 -10  18  16    1.06    0.21
 -10  16 -18    0.85    0.16
 -18  12  16    1.00    0.11
 -12  18 -16    1.17    0.17
 -12  16  18    1.02    0.10
 -12  16  18    1.23    0.20
 -18  16 -12    1.04    0.09
 -16  18  12    1.09    0.11
 -16  12 -18    0.92    0.12
 -18  16 -12    1.05    0.12
 -16  12 -18    1.03    0.10
 -18  12 -16    1.19    0.13
 -12  16 -18    1.24    0.17
 -16  12  18    1.21    0.11
 -12  16 -18    1.04    0.09
 -18  12 -16    1.14    0.10
 -18  16  12    1.06    0.11
 -16  18 -12    1.07    0.16
 -16  18  14    1.02    0.10
 -14  18 -16    1.12    0.16
 -18  14  16    0.95    0.10
 -14  16  18    1.10    0.10
 -14  16  18    1.40    0.20
 -16  14 -18    1.19    0.10
 -16  14 -18    1.26    0.12
 -18  16 -14    1.26    0.12
 -18  16 -14    1.11    0.09
 -14  18 -16    1.16    0.09
 -16  18 -14    1.11    0.16
 -14  16 -18    1.13    0.15
 -18  14 -16    1.26    0.12
 -18  16  14    1.02    0.10
 -18  14 -16    1.16    0.09
 -16  18 -14    1.21    0.11
 -16  14  18    1.12    0.10
 -16  18 -14    1.18    0.09
 -14  16 -18    1.17    0.09
 -14  18  16    1.05    0.10
 -18  16 -16    0.77    0.09
 -18  16 -16    0.90    0.08
 -18  16  16    0.89    0.09
 -16  16 -18    0.87    0.08
 -16  16  18    0.72    0.08
 -16  18 -16    0.87    0.08
 -18   0  18    2.96    0.17
   0  18  18    2.96    0.31
 -18   2  18   28.54    0.91
 -18   2  18   28.11    0.91
 -18   2  18   27.35    0.88
  -2  18 -18   28.53    0.99
  -2  18  18   28.99    1.12
   2  18  18   27.18    1.10
  18   2 -18   27.88    0.88
 -18   4 -18    0.53    0.10
 -18   4 -18    0.51    0.08
 -18   4  18    0.52    0.09
 -18   4  18    0.52    0.09
 -18   4  18    0.48    0.07
 -18  18   4    0.40    0.10
  -4  18 -18    0.52    0.15
  -4  18  18    0.71    0.20
   4  18  18    0.53    0.18
  18   4 -18    0.56    0.07
 -18   6 -18   29.64    0.99
 -18   6 -18   29.41    0.96
 -18   6  18   30.08    0.97
 -18   6  18   30.32    0.98
 -18   6  18   30.57    0.94
 -18  18   6   29.79    0.99
  -6  18 -18   31.15    1.07
  -6  18  18   32.15    1.18
  18   6 -18   30.15    0.94
 -18   8 -18    1.66    0.15
 -18   8 -18    1.73    0.12
 -18   8  18    1.76    0.13
 -18   8  18    1.84    0.14
 -18   8  18    1.82    0.10
 -18  18   8    1.81    0.14
  -8  18 -18    2.32    0.23
  -8  18  18    2.38    0.28
 -18  10 -18   19.50    0.66
 -18  10 -18   19.32    0.62
 -18  10  18   18.40    0.64
 -18  18  10   17.85    0.64
 -10  18 -18   18.97    0.71
 -10  18  18   21.00    0.79
 -18  12 -18    0.50    0.09
 -18  12 -18    0.69    0.08
 -18  12  18    0.64    0.09
 -18  18 -12    0.85    0.10
 -18  18 -12    0.77    0.08
 -18  18  12    0.72    0.09
 -12  18 -18    0.71    0.14
 -12  18 -18    0.80    0.08
 -12  18  18    0.77    0.16
 -18  14 -18   21.93    0.72
 -18  14 -18   22.54    0.70
 -18  14  18   21.06    0.71
 -18  18 -14   23.07    0.71
 -18  18 -14   22.69    0.69
 -18  18  14   20.29    0.71
 -14  18 -18   22.44    0.69
  -1  -1 -19    9.73    0.41
  -1   1 -19    9.47    0.41
  -1  19  -1    8.23    0.65
  -1  19   1    8.88    0.66
   1  -1 -19    9.75    0.41
   1   1 -19   10.04    0.42
   1  19  -1    9.28    0.68
   1  19   1    7.38    0.70
  -3   1 -19   10.40    0.45
  -3  19   1    9.61    0.69
  -1  -3 -19   10.70    0.45
   3  19  -1    8.72    0.70
   1  19   3   10.53    0.72
   1   3 -19   10.73    0.44
   3  -1 -19   10.86    0.44
  -1  19  -3   10.02    0.72
  -1   3 -19   10.73    0.45
   3  19   1   10.62    0.74
  -3  -1 -19   10.47    0.44
  -3  19  -1    9.19    0.69
   3   1 -19   11.03    0.44
  -1  19   3    9.60    0.69
   1  19  -3    9.95    0.71
   1  -3 -19   10.30    0.45
   3  -3 -19    7.73    0.36
   3   3 -19    8.17    0.36
  -3  -3 -19    7.58    0.36
  -3   3 -19    8.11    0.37
  -3  19  -3    6.57    0.65
  -3  19   3    7.97    0.61
   3  19   3    7.91    0.72
   3  19  -3    6.98    0.68
  -5   1 -19    9.88    0.43
 -19   1   5   10.43    0.37
   1   5 -19   10.17    0.43
  -1  -5 -19    9.41    0.43
  -5  19   1    8.87    0.65
   1  19   5    9.16    0.68
   5  -1 -19   11.08    0.44
 -19   5  -1    9.47    0.37
   5  19  -1   10.76    0.75
   5   1  19    9.19    0.59
  -1  19  -5    9.52    0.71
  -1  19   5    8.79    0.65
   1  -5 -19    9.80    0.43
   5  19   1    9.33    0.71
  -1  19   5    9.92    0.54
   5  -1  19   10.76    0.61
 -19   5   1   10.06    0.38
  -5  -1 -19    9.48    0.43
  -5  19  -1    8.97    0.66
   1  19  -5   10.66    0.72
  -1   5 -19    9.89    0.43
   5   1 -19   10.18    0.42
 -19   5  -3    8.52    0.32
   3   5 -19    9.22    0.32
   5   3  19    9.06    0.57
  -3  -5 -19    8.68    0.40
 -19   3   5    8.47    0.31
   5  19  -3    8.67    0.66
  -3  19  -5    8.14    0.65
 -19   5  -3    8.57    0.34
   5  -3 -19    8.81    0.40
 -19   3   5    8.45    0.34
   3  19   5    8.96    0.68
  -5  19   3    8.37    0.63
  -5   3 -19    8.67    0.40
   3   5 -19    9.23    0.39
   5  -3  19    9.69    0.57
 -19   3  -5    8.37    0.34
   3  -5 -19    8.69    0.40
  -5  -3 -19    8.58    0.40
  -3   5 -19    8.94    0.40
   3  19  -5    8.87    0.68
   5  19   3    9.23    0.70
   5   3 -19    9.16    0.39
 -19   5   3    8.61    0.34
 -19   5   3    9.10    0.31
  -3  19   5    8.55    0.63
   5   3 -19    9.14    0.32
  -5  19  -3    8.26    0.65
  -3   5 -19    8.54    0.32
 -19   5  -5    8.82    0.36
  -5  19   5    8.34    0.62
   5  -5 -19    8.85    0.40
   5  -5  19    8.38    0.56
   5  19   5    8.57    0.78
 -19   5   5    9.31    0.32
  -5  -5 -19    9.21    0.42
   5   5  19    9.30    0.60
   5  19  -5    8.10    0.65
   5   5 -19    9.26    0.39
 -19   5  -5    9.07    0.33
 -19   5   5    9.14    0.35
  -5   5 -19    9.06    0.42
  -5   5 -19    9.04    0.33
  -5  19  -5    8.25    0.66
   5   5 -19    9.27    0.33
   1   7 -19    7.82    0.36
 -19   7  -1    7.54    0.28
   1  19   7    7.39    0.47
   7  -1 -19    7.45    0.34
  -7   1 -19    7.03    0.35
 -19   7  -1    7.49    0.30
   7   1  19    6.26    0.51
   1  19   7    7.05    0.66
   1   7 -19    7.32    0.28
 -19   1   7    7.28    0.29
  -1  19  -7    7.26    0.67
  -1  19  -7    7.12    0.38
  -7  19   1    6.05    0.59
   7  19  -1    6.91    0.68
   7  -1 -19    6.99    0.27
  -7   1 -19    7.37    0.27
  -1  -7 -19    7.11    0.36
 -19   1   7    7.29    0.27
 -19  -1   7    7.61    0.29
   1  -7 -19    7.19    0.36
   1  19  -7    7.76    0.70
 -19   7   1    7.53    0.30
 -19   7   1    7.53    0.27
  -7  -1 -19    7.27    0.36
  -1  19   7    7.10    0.64
   7  -1  19    7.29    0.53
   7   1 -19    7.17    0.27
  -1  19   7    7.71    0.46
 -19   1  -7    6.45    0.27
 -19   7   1    7.38    0.31
 -19  -1   7    7.42    0.27
 -19   1  -7    6.56    0.29
   7  19   1    6.58    0.67
  -1   7 -19    7.61    0.28
  -7  19  -1    6.85    0.65
  -1   7 -19    7.44    0.36
   7   3  19    9.68    0.61
   7  19  -3    9.06    0.68
   7  -3 -19    8.98    0.31
   3   7 -19    9.23    0.32
   7  -3 -19    9.15    0.39
  -3  19  -7    9.11    0.68
  -3  19  -7    9.46    0.45
  -7   3 -19    8.85    0.40
   3  19   7    9.09    0.69
 -19   3   7    8.34    0.34
 -19   7  -3    9.21    0.33
 -19   3   7    8.88    0.32
  -7  19   3    8.95    0.63
   3   7 -19    8.65    0.39
  -3  -7 -19    9.12    0.41
 -19   7  -3    9.23    0.36
  -7   3 -19    9.11    0.32
   3  -7 -19    8.53    0.40
   7   3 -19    8.87    0.32
  -7  -3 -19    8.78    0.40
   7  -3  19    8.86    0.58
  -3   7 -19    8.43    0.41
 -19   7   3    9.00    0.32
  -7  19  -3   10.06    0.69
  -3   7 -19    8.76    0.32
 -19   3  -7    7.88    0.32
 -19   3  -7    8.28    0.35
 -19   7   3    8.72    0.35
 -19  -3   7    8.69    0.34
 -19  -3   7    9.41    0.31
  -3  19   7    7.47    0.60
  -3  19   7    8.81    0.51
   3  19  -7    9.35    0.68
 -19   7   3    9.10    0.36
   7  19   3    8.55    0.77
   5   7 -19    8.03    0.30
 -19   5   7    8.35    0.33
  -7   5 -19    8.03    0.39
  -5  -7 -19    8.06    0.39
 -19   5   7    8.12    0.32
 -19   7  -5    7.88    0.30
  -5   7  19    7.96    0.32
  -7   5 -19    8.71    0.31
  -5  19  -7    8.73    0.44
 -19   7  -5    8.08    0.34
 -19   5   7    8.47    0.30
 -19   7   5    7.70    0.33
  -5   7 -19    8.26    0.40
 -19   5  -7    7.73    0.30
   7   5 -19    8.64    0.30
  -7  -5 -19    8.12    0.39
  -5   7 -19    8.73    0.31
 -19   5  -7    7.56    0.33
 -19   7   5    8.06    0.32
 -19   7   5    8.42    0.30
 -19   7  -7    5.45    0.26
 -19   7  -7    5.12    0.22
 -19   7   7    5.25    0.23
  -7  19  -7    6.07    0.37
 -19   7   7    4.93    0.21
  -7   7 -19    5.33    0.22
 -19   7   7    5.53    0.25
   7   7 -19    5.34    0.22
  -7   7 -19    5.32    0.31
  -7   7  19    5.33    0.24
 -19   9  -1    8.74    0.35
 -19   1   9    8.63    0.30
 -19   9  -1    8.65    0.35
   1   9 -19    8.26    0.39
  -9   1 -19    8.73    0.40
  -9   1 -19    8.99    0.31
  -1  19  -9    8.71    0.43
 -19   1   9    8.74    0.33
   1   9 -19    8.60    0.31
   1  19   9    8.43    0.52
   9  -1 -19    8.61    0.31
 -19   9  -1    8.56    0.32
 -19  -1   9    8.63    0.33
 -19  -1   9    8.73    0.31
 -19   9   1    8.69    0.31
 -19   1  -9    7.55    0.31
  -9  -1 -19    8.13    0.39
 -19   9   1    8.92    0.36
  -1  19   9    8.37    0.51
  -1   9 -19    8.69    0.40
  -1   9 -19    8.28    0.31
   9   1 -19    9.01    0.31
   1   9  19    7.67    0.46
 -19   9   1    9.02    0.34
 -19   1  -9    8.39    0.34
 -19   3   9    8.19    0.29
  -3  -9 -19    7.77    0.38
   3   9 -19    7.74    0.36
   9  -3 -19    7.85    0.28
 -19   9  -3    7.95    0.30
   3  19   9    7.97    0.51
  -9   3 -19    7.99    0.30
  -3  19  -9    7.92    0.42
 -19   9  -3    7.69    0.33
   3   9 -19    7.90    0.29
  -9   3 -19    7.43    0.38
  -9   3 -19    8.10    0.33
 -19   3   9    7.98    0.31
 -19   9   3    8.00    0.32
  -3   9 -19    7.59    0.38
  -3  19   9    8.79    0.50
 -19  -3   9    7.95    0.31
 -19   9   3    7.33    0.33
 -19   9   3    7.79    0.29
  -3   9 -19    8.18    0.30
 -19  -3   9    8.07    0.28
 -19   3  -9    7.21    0.32
   9   3 -19    7.96    0.29
 -19   3  -9    7.74    0.29
 -19   9  -5    8.29    0.30
   9  -5 -19    7.78    0.28
  -5   9  19    7.30    0.31
 -19   9  -5    7.71    0.33
  -9   5 -19    7.25    0.38
 -19   5   9    7.87    0.31
  -9   5 -19    8.18    0.33
 -19   5   9    7.83    0.29
 -19   5   9    8.04    0.32
  -9   5 -19    7.88    0.30
  -5  19  -9    8.44    0.44
   5   9 -19    7.68    0.29
 -19   5  -9    7.17    0.32
  -9   5  19    7.64    0.32
 -19   9   5    8.00    0.33
 -19  -5   9    7.95    0.31
 -19   9   5    8.18    0.29
   9   5 -19    7.93    0.29
 -19   5  -9    7.24    0.29
  -5  19   9    8.16    0.50
 -19   9   5    7.80    0.31
  -5   9 -19    7.74    0.39
  -5   9 -19    8.12    0.30
 -19  -5   9    7.77    0.28
  -9   7 -19    7.09    0.37
  -9   7 -19    7.13    0.28
  -7   9  19    7.02    0.30
 -19   7   9    7.07    0.29
 -19   7   9    6.87    0.26
   7   9 -19    7.14    0.27
 -19   7   9    6.75    0.30
  -9   7 -19    7.17    0.31
 -19   9  -7    7.12    0.31
  -7  19  -9    7.21    0.41
 -19   9  -7    6.95    0.28
 -19   7  -9    6.77    0.31
   9   7 -19    7.19    0.27
  -7   9 -19    7.34    0.38
 -19   9   7    7.19    0.26
 -19   9   7    7.05    0.30
 -19   7  -9    7.03    0.28
  -7   9 -19    7.12    0.28
 -19   9   7    7.02    0.29
  -9   7  19    7.09    0.30
  -9  19  -7    6.91    0.41
   9   9 -19    6.71    0.25
 -19   9   9    6.76    0.29
 -19   9   9    6.81    0.25
 -19   9  -9    5.92    0.26
 -19   9   9    7.14    0.28
  -9   9 -19    6.56    0.27
  -9   9  19    6.56    0.29
  -9   9 -19    7.20    0.37
  -9   9 -19    7.35    0.31
  -9  19  -9    6.90    0.40
 -19   9  -9    6.15    0.30
 -19  11  -1    7.09    0.31
 -19  11  -1    8.03    0.33
   1  11 -19    7.15    0.28
 -19  11  -1    7.34    0.28
 -11  19   1    7.42    0.32
  -1  11  19    7.15    0.45
   1  11 -19    6.85    0.35
  -1  19 -11    7.58    0.38
 -19   1  11    7.33    0.29
 -19   1  11    7.18    0.27
  11  -1 -19    7.44    0.27
   1  19  11    7.34    0.48
  -1  19  11    6.65    0.46
 -19  -1  11    7.05    0.27
   1  11  19    7.40    0.44
 -19  -1  11    7.17    0.29
  11   1 -19    7.59    0.27
  -1  11 -19    7.68    0.37
  -1  11 -19    6.99    0.28
 -19  11   1    6.96    0.32
 -19  11   1    7.08    0.27
 -11   1  19    7.00    0.30
 -19  11   1    6.98    0.30
 -19  11  -3    5.55    0.26
  11  -3 -19    4.96    0.20
 -11   3 -19    5.00    0.29
 -19  11  -3    5.44    0.22
   3  11 -19    5.27    0.21
 -11  19   3    5.39    0.26
 -19   3  11    4.95    0.21
 -11   3 -19    5.05    0.25
   3  19  11    4.92    0.41
 -11   3 -19    5.06    0.22
 -19   3  11    5.04    0.23
  -3  19 -11    5.64    0.33
 -19   3  11    4.91    0.24
  -3  11 -19    5.59    0.32
  -3  19  11    5.85    0.42
   3  11  19    4.90    0.37
 -19  -3  11    5.21    0.21
 -19   3 -11    4.82    0.22
 -11   3  19    4.84    0.24
  -3  11 -19    5.09    0.22
 -19  11   3    5.01    0.21
 -19  -3  11    5.14    0.23
  11   3 -19    5.18    0.21
 -19  11   3    5.22    0.24
 -19  11   3    5.33    0.25
 -19   3 -11    5.06    0.25
 -19  11  -5    6.31    0.28
 -19  11  -5    6.10    0.25
 -11   5 -19    5.66    0.27
 -19   5  11    6.00    0.26
 -19   5  11    5.66    0.27
 -19   5  11    5.97    0.23
 -11   5 -19    5.80    0.32
 -11   5 -19    6.01    0.25
 -11  19   5    6.65    0.29
  -5  19 -11    6.49    0.37
  11  -5 -19    5.68    0.23
   5  11 -19    5.99    0.24
 -19  11   5    6.19    0.26
  -5  11 -19    6.45    0.36
  -5  11 -19    5.98    0.25
  11   5 -19    5.75    0.23
 -19   5 -11    5.36    0.24
 -11  19  -5    5.71    0.37
 -19  -5  11    6.12    0.23
 -11   5  19    6.07    0.27
 -19   5 -11    5.89    0.28
 -19  11   5    6.08    0.23
  -5  19  11    6.39    0.45
 -19  11   5    5.87    0.27
 -19  -5  11    6.14    0.25
 -19   7  11    5.48    0.23
 -19  11  -7    6.01    0.28
 -11  19   7    6.21    0.28
  -7  19 -11    5.86    0.37
 -19   7  11    6.31    0.27
  -7  11  19    5.54    0.26
   7  11 -19    6.24    0.23
 -11   7 -19    5.78    0.33
 -19  11  -7    5.87    0.24
 -19   7  11    5.97    0.25
 -11   7 -19    5.82    0.25
 -11   7 -19    5.75    0.28
 -19  11   7    5.86    0.23
 -19   7 -11    5.63    0.28
 -19   7 -11    5.42    0.24
 -11   7  19    6.05    0.28
 -19  11   7    5.87    0.27
 -19  11   7    5.83    0.25
  -7  11 -19    5.96    0.24
  -7  19  11    7.22    0.46
  11   7 -19    5.92    0.23
 -11  19  -7    5.64    0.37
  -7  11 -19    5.96    0.35
 -11   9 -19    5.02    0.31
   9  11 -19    5.56    0.21
  -9  19 -11    5.60    0.35
 -11   9 -19    5.32    0.26
 -19   9  11    5.22    0.23
 -19   9  11    5.31    0.25
 -19   9  11    5.38    0.21
  -9  11  19    5.17    0.24
 -19  11  -9    5.47    0.23
 -19  11  -9    5.37    0.26
 -11   9 -19    5.00    0.23
 -11   9  19    5.26    0.25
  -9  11 -19    5.17    0.23
 -19   9 -11    5.56    0.23
 -19   9 -11    5.44    0.26
 -19  11   9    5.31    0.23
 -19  11   9    5.00    0.25
 -19  11   9    5.05    0.21
 -11  19  -9    5.52    0.36
  -9  11 -19    5.68    0.33
 -19  11 -11    3.57    0.18
 -19  11  11    3.54    0.20
 -19  11  11    3.72    0.16
 -11  11 -19    3.26    0.25
  11  11 -19    3.56    0.16
 -19  11  11    3.61    0.18
 -11  19 -11    3.96    0.30
 -11  11  19    3.33    0.19
 -19  11 -11    3.22    0.21
 -11  11 -19    3.31    0.17
 -11  11 -19    3.72    0.21
 -19  13  -1    6.49    0.30
  -1  19 -13    6.66    0.35
  13  -1 -19    6.47    0.24
 -19   1  13    6.54    0.27
 -19  13  -1    6.63    0.25
   1  13 -19    6.43    0.33
   1  13 -19    6.36    0.25
 -13  19   1    6.89    0.31
 -19   1  13    6.51    0.24
   1  19  13    6.39    0.46
  -1  13  19    6.29    0.43
 -19  13  -1    6.69    0.29
 -13  -1  19    6.29    0.28
 -19  13   1    6.26    0.25
  -1  13 -19    5.98    0.34
 -19  13   1    6.96    0.28
 -19  -1  13    5.93    0.27
  -1  19  13    6.62    0.46
   1  13  19    6.09    0.42
 -19  13   1    6.11    0.29
 -19  -1  13    6.25    0.24
  13   1 -19    6.66    0.25
 -13   1  19    5.85    0.28
  -1  13 -19    6.42    0.25
  -3  19 -13    7.31    0.39
 -19  13  -3    6.76    0.30
  13  -3 -19    6.97    0.25
 -19   3  13    6.69    0.28
 -19   3  13    6.89    0.29
 -19   3  13    6.60    0.26
 -13  19   3    7.13    0.31
 -13   3 -19    6.94    0.27
   3  19  13    6.60    0.47
 -19  13  -3    6.87    0.27
 -13  -3  19    6.91    0.29
 -13   3 -19    6.83    0.30
   3  13 -19    6.75    0.26
  -3  13  19    6.79    0.45
 -19  13   3    7.21    0.31
  -3  19  13    7.16    0.47
 -13   3  19    6.52    0.29
  13   3 -19    7.02    0.26
 -19  13   3    6.98    0.26
   3  13  19    6.62    0.43
  -3  13 -19    6.86    0.37
  -3  13 -19    7.13    0.27
 -19   3 -13    6.11    0.26
 -19  13   3    7.01    0.29
 -19   3 -13    6.53    0.30
 -19  -3  13    6.71    0.28
 -19  13  -5    6.35    0.26
 -13   5 -19    6.31    0.26
 -19   5  13    6.90    0.29
 -13  -5  19    6.29    0.27
  13  -5 -19    6.24    0.24
   5  13 -19    6.56    0.25
 -19  13  -5    6.53    0.29
  -5  19 -13    6.31    0.37
 -19   5  13    6.15    0.24
 -13   5 -19    6.47    0.30
 -13  19   5    6.62    0.30
 -19   5  13    6.80    0.27
 -13  19  -5    6.90    0.39
 -19  -5  13    6.47    0.27
 -19   5 -13    5.66    0.28
 -19   5 -13    5.85    0.25
 -19  13   5    6.20    0.29
  -5  19  13    7.15    0.47
 -13   5  19    7.16    0.30
  13   5 -19    6.31    0.24
 -19  13   5    6.48    0.27
   5  13  19    6.27    0.41
 -19  13   5    6.40    0.24
  -5  13 -19    7.12    0.38
  -5  13 -19    6.08    0.25
 -19   7  13    5.41    0.25
 -19  13  -7    4.97    0.22
 -19  13  -7    5.16    0.26
 -13  19   7    5.54    0.26
 -19   7  13    5.48    0.24
 -13   7 -19    5.20    0.23
 -19   7  13    5.11    0.21
 -13   7 -19    4.55    0.29
  13  -7 -19    5.14    0.20
 -13   7 -19    5.42    0.26
  -7  19 -13    5.35    0.34
 -13   7  19    5.05    0.25
 -19  13   7    4.90    0.25
 -19   7 -13    5.13    0.26
 -19   7 -13    4.98    0.22
  -7  13 -19    5.18    0.22
  13   7 -19    4.91    0.20
  -7  19  13    6.13    0.43
 -13  19  -7    4.92    0.34
 -13  19   9    5.55    0.26
 -13   9 -19    5.33    0.27
 -19  13  -9    5.46    0.27
  -9  19 -13    5.87    0.35
 -13   9 -19    5.83    0.24
  -9  13  19    5.69    0.25
 -13   9 -19    4.86    0.30
 -19   9  13    5.58    0.24
 -19   9  13    5.33    0.21
 -19  13  -9    5.45    0.23
 -19   9  13    5.73    0.26
 -19   9 -13    4.80    0.26
  -9  13 -19    5.30    0.23
 -13  19  -9    5.36    0.34
 -19  13   9    5.23    0.25
  -9  19  13    6.45    0.43
  13   9 -19    5.72    0.21
  -9  13 -19    5.43    0.33
 -13   9  19    5.43    0.26
 -19   9 -13    5.68    0.24
 -19  13 -11    4.91    0.25
 -13  11 -19    4.66    0.21
 -13  19  11    5.20    0.23
 -13  11 -19    4.62    0.24
 -11  13  19    4.64    0.23
 -19  13 -11    5.35    0.22
 -11  19 -13    4.89    0.32
 -19  11  13    5.00    0.24
 -13  11 -19    4.34    0.28
 -13  11  19    4.76    0.23
 -13  19 -11    4.89    0.31
 -19  11 -13    5.22    0.22
 -19  13  11    4.81    0.23
 -11  13 -19    5.27    0.31
 -19  11 -13    4.73    0.24
 -11  13 -19    4.83    0.21
 -13  13 -19    4.25    0.19
 -19  13 -13    4.20    0.19
 -19  13  13    4.11    0.21
 -13  13 -19    4.08    0.26
 -13  13  19    3.96    0.20
 -19  13 -13    4.20    0.22
 -13  19  13    4.18    0.20
 -13  19 -13    4.41    0.28
 -15  -1  19    4.48    0.22
   1  15 -19    4.63    0.27
 -19  15  -1    4.42    0.22
 -19  15  -1    4.54    0.19
  -1  19 -15    4.71    0.29
  -1  15  19    4.41    0.37
 -19   1  15    4.52    0.21
   1  19  15    4.51    0.38
 -19   1  15    4.31    0.19
  15  -1 -19    4.41    0.18
 -19  -1  15    4.01    0.21
   1  15  19    4.39    0.36
  -1  15 -19    4.44    0.19
 -15   1  19    4.12    0.22
  -1  15 -19    5.04    0.29
  15   1 -19    4.34    0.18
  -1  19  15    4.37    0.38
 -19  15   1    4.13    0.24
 -19  -1  15    4.22    0.18
 -19   3  15    4.98    0.23
  -3  19 -15    5.26    0.32
 -15   3 -19    4.68    0.24
 -19   3  15    4.84    0.22
   3  19  15    4.42    0.38
  15  -3 -19    4.78    0.19
 -19   3  15    4.75    0.20
 -19  15  -3    5.07    0.24
 -15  -3  19    4.89    0.23
  -3  15  19    4.75    0.38
 -15   3 -19    4.90    0.21
 -19  15  -3    5.31    0.21
 -15  19   3    4.54    0.25
  -3  15 -19    5.24    0.31
 -19   3 -15    4.51    0.20
   3  15  19    4.39    0.35
 -19  -3  15    4.85    0.22
 -19   3 -15    3.94    0.23
  -3  19  15    4.95    0.40
 -15   3  19    4.83    0.24
 -19  15   3    5.12    0.25
  15   3 -19    4.44    0.19
 -15  19  -3    4.94    0.32
  -3  15 -19    4.79    0.20
  -5  15  19    5.09    0.39
 -15   5 -19    4.50    0.24
 -19   5  15    4.67    0.19
 -19  15  -5    4.79    0.20
 -19   5  15    4.55    0.22
 -15   5 -19    4.57    0.21
 -19  15  -5    4.97    0.24
 -15  19   5    4.27    0.23
 -19   5  15    5.22    0.24
  15  -5 -19    4.83    0.19
  -5  19 -15    4.61    0.32
  -5  15 -19    4.73    0.20
 -15   5  19    4.57    0.23
  15   5 -19    4.41    0.19
   5  15  19    4.03    0.34
 -19   5 -15    4.42    0.23
 -19   5 -15    4.81    0.21
 -19  15   5    4.62    0.24
 -15  19  -5    4.53    0.30
  -5  19  15    5.20    0.41
  -5  15 -19    4.42    0.30
 -19   7  15    3.20    0.17
 -19  15  -7    3.51    0.20
  -7  15  19    3.60    0.33
 -15  19   7    3.05    0.19
 -19   7  15    3.34    0.15
  -7  19 -15    3.22    0.28
 -15   7 -19    3.39    0.17
 -15   7 -19    3.00    0.20
 -19   7  15    3.11    0.19
 -19  15  -7    3.38    0.17
 -19  -7  15    3.16    0.17
 -19  15   7    3.09    0.19
  -7  15 -19    3.28    0.16
  15   7 -19    3.41    0.15
  -7  15 -19    3.56    0.27
 -15   7  19    3.28    0.17
 -19   7 -15    3.31    0.20
 -15   7  19    3.13    0.19
 -15   7  19    3.12    0.14
 -15  19  -7    3.62    0.27
 -19   7 -15    3.24    0.17
  -7  19  15    3.96    0.36
 -15   9 -19    4.14    0.23
 -19   9  15    4.46    0.18
 -19   9  15    4.47    0.22
 -15  19   9    4.28    0.22
  -9  15  19    4.38    0.35
  -9  19 -15    4.41    0.30
 -19   9  15    4.26    0.20
 -19  15  -9    4.58    0.20
 -19  15  -9    4.66    0.23
 -15   9 -19    4.10    0.20
  -9  15 -19    4.33    0.19
 -19   9 -15    4.18    0.23
  15   9 -19    4.05    0.17
 -15   9  19    4.17    0.22
 -15  19  -9    4.28    0.29
 -19   9 -15    4.24    0.20
  -9  15 -19    4.25    0.29
 -19  15   9    3.97    0.21
  -9  19  15    5.02    0.37
 -19  15 -11    3.30    0.19
 -15  11 -19    3.33    0.19
 -15  11 -19    2.69    0.16
 -15  19  11    3.18    0.18
 -11  15  19    3.54    0.30
 -19  15 -11    3.41    0.16
 -19  11  15    3.38    0.18
 -11  15  19    3.21    0.17
 -11  19 -15    3.36    0.25
 -15  11  19    3.11    0.18
 -19  15  11    3.12    0.18
 -11  15 -19    3.14    0.24
 -19  11 -15    3.46    0.20
 -11  15 -19    3.29    0.16
 -15  19 -11    3.07    0.25
 -19  11 -15    3.56    0.17
 -15  19  13    3.10    0.17
 -15  13 -19    3.14    0.22
 -13  19 -15    3.25    0.24
 -19  15 -13    3.42    0.19
 -19  15 -13    3.66    0.16
 -15  13 -19    3.33    0.16
 -19  13  15    3.45    0.18
 -13  15  19    2.89    0.16
 -13  15  19    3.46    0.28
 -15  19 -13    3.22    0.23
 -13  15 -19    3.38    0.16
 -19  13 -15    3.20    0.16
 -19  13 -15    3.42    0.19
 -19  15  13    2.94    0.17
 -13  15 -19    3.31    0.23
 -15  13  19    3.33    0.17
 -19  15  15    2.10    0.13
 -15  15  19    1.79    0.12
 -19  15 -15    2.15    0.14
 -15  19  15    1.93    0.12
 -15  15 -19    1.97    0.11
 -19  15 -15    2.07    0.12
 -19   1  17    5.68    0.21
 -19   1  17    5.21    0.24
   1  19  17    5.39    0.40
  -1  17  19    5.85    0.41
  17  -1 -19    5.21    0.21
 -17  -1  19    5.28    0.24
 -19   1  17    5.60    0.24
  -1  19 -17    5.84    0.31
  17   1 -19    5.05    0.21
 -17   1  19    5.22    0.24
  -1  19  17    5.56    0.41
 -17  19  -1    5.39    0.31
 -19  -1  17    5.18    0.24
 -19  -1  17    5.39    0.21
  -1  17 -19    5.13    0.30
   1  17  19    5.42    0.39
 -19   3  17    4.24    0.20
 -17  19   3    4.02    0.22
  -3  17  19    4.28    0.37
 -17   3 -19    4.06    0.18
   3  19  17    4.17    0.35
 -17   3 -19    4.31    0.22
 -19   3  17    4.26    0.18
 -19   3  17    4.33    0.21
  -3  19 -17    4.02    0.27
 -17   3  19    4.36    0.22
  17   3 -19    4.17    0.17
 -19  17   3    4.42    0.23
  -3  19  17    4.95    0.38
 -19   3 -17    3.97    0.18
   3  17  19    4.22    0.35
 -19  -3  17    4.25    0.20
 -19   3 -17    3.97    0.21
  -3  17 -19    4.59    0.29
 -17  19  -3    4.41    0.28
 -19   5  17    4.42    0.22
 -17  19   5    4.58    0.23
 -17   5 -19    4.30    0.22
 -17   5 -19    4.13    0.19
 -19   5  17    4.47    0.21
  -5  17  19    5.16    0.38
  -5  19 -17    4.88    0.30
 -19   5  17    4.63    0.18
  17   5 -19    4.57    0.18
 -17   5  19    4.32    0.21
  -5  19  17    4.46    0.37
 -19   5 -17    4.33    0.22
 -19   5 -17    4.30    0.19
 -17   5  19    4.55    0.18
  -5  17 -19    4.41    0.29
 -17   5  19    4.37    0.22
 -17  19  -5    4.17    0.28
 -19  -5  17    4.50    0.21
 -19  17   5    4.37    0.22
 -17  19   7    4.57    0.23
  -7  17  19    5.03    0.37
 -17   7 -19    4.58    0.24
  -7  19 -17    5.10    0.31
 -19  17  -7    5.42    0.24
 -19  17  -7    5.40    0.21
 -19   7  17    4.82    0.22
 -19   7  17    5.08    0.23
 -17   7 -19    4.73    0.21
 -19   7  17    4.98    0.19
 -17   7  19    5.00    0.21
 -17   7  19    4.88    0.19
 -19   7 -17    4.84    0.24
 -17  19  -7    4.77    0.29
 -19  -7  17    5.04    0.21
  -7  19  17    5.74    0.40
  17   7 -19    4.72    0.19
 -19  17   7    4.70    0.23
 -19   7 -17    4.80    0.21
  -7  17 -19    5.09    0.31
  -7  17 -19    4.97    0.20
 -17   7  19    5.23    0.24
  -9  17  19    4.34    0.32
 -19   9  17    4.04    0.18
 -19   9  17    4.12    0.20
 -19   9  17    4.13    0.16
  -9  19 -17    4.53    0.28
 -17  19   9    3.65    0.20
 -17   9 -19    3.82    0.18
 -19  17  -9    4.39    0.21
 -19  17  -9    4.35    0.18
 -17   9 -19    4.16    0.21
 -17  19  -9    4.39    0.27
  -9  17 -19    4.13    0.18
  -9  19  17    4.50    0.34
 -19   9 -17    3.97    0.21
  17   9 -19    4.34    0.16
 -19   9 -17    3.81    0.18
 -17   9  19    3.93    0.21
  -9  17 -19    4.08    0.26
 -19  17   9    3.71    0.20
 -17  11 -19    3.32    0.18
 -19  11  17    3.16    0.17
 -19  17 -11    3.53    0.18
 -11  19 -17    2.94    0.23
 -19  17 -11    3.51    0.15
 -17  11 -19    3.15    0.15
 -11  17  19    3.33    0.27
 -17  19  11    3.19    0.17
 -11  17 -19    3.42    0.23
 -11  17 -19    3.08    0.15
 -19  11 -17    3.29    0.18
 -11  19  17    3.55    0.29
 -19  17  11    3.08    0.17
 -17  19 -11    3.36    0.23
 -17  11  19    3.27    0.17
 -19  11 -17    3.24    0.16
 -17  13 -19    3.50    0.16
 -19  17 -13    3.81    0.18
 -19  17 -13    3.92    0.16
 -17  19  13    3.51    0.17
 -19  13  17    3.57    0.17
 -19  13 -17    3.52    0.16
 -19  13 -17    3.39    0.18
 -13  17 -19    3.27    0.15
 -19  17  13    3.36    0.17
 -17  13  19    3.24    0.17
 -17  15 -19    3.22    0.14
 -19  17 -15    3.28    0.14
 -15  17 -19    3.41    0.14
 -19  15 -17    3.19    0.16
 -19  15 -17    3.19    0.14
 -19  -1  19    3.22    0.17
 -19  -1  19    3.23    0.15
 -19   1  19    3.31    0.17
 -19   1  19    3.57    0.18
 -19   1  19    3.38    0.15
  -1  19 -19    3.20    0.22
  -1  19  19    3.37    0.31
   1  19  19    3.24    0.31
 -19  -3  19    3.11    0.16
 -19  -3  19    2.97    0.14
 -19   3  19    2.76    0.15
 -19   3  19    2.84    0.16
 -19   3  19    2.81    0.13
  -3  19 -19    2.68    0.22
  -3  19  19    2.73    0.28
 -19  -5  19    3.20    0.16
 -19  -5  19    3.10    0.14
 -19   5 -19    3.13    0.17
 -19   5 -19    3.20    0.15
 -19   5  19    3.09    0.16
 -19   5  19    3.24    0.17
 -19   5  19    3.26    0.14
  -5  19 -19    3.02    0.23
  -5  19  19    3.21    0.29
 -19  -7  19    2.59    0.14
 -19  -7  19    2.71    0.12
 -19   7 -19    2.60    0.16
 -19   7 -19    2.75    0.14
 -19   7  19    2.66    0.14
 -19   7  19    2.64    0.15
 -19   7  19    2.80    0.12
 -19  19   7    2.76    0.16
  -7  19 -19    2.28    0.21
  -7  19  19    2.83    0.26
 -19   9 -19    3.10    0.17
 -19   9 -19    2.96    0.14
 -19   9  19    2.98    0.16
 -19  19   9    2.78    0.16
  -9  19 -19    2.96    0.22
  -9  19  19    3.32    0.26
 -19  11 -19    1.94    0.13
 -19  11 -19    2.01    0.11
 -19  11  19    2.00    0.12
 -19  19  11    1.89    0.12
 -19  13 -19    2.82    0.13
 -20   0   0   73.76    2.28
   0   0 -20   76.21    2.35
   0  20   0   70.69    2.74
 -20   0  -2    2.51    0.16
 -20   0   2    2.42    0.16
 -20   0   2    2.42    0.13
  -2  20   0    2.80    0.43
   0  -2 -20    2.71    0.21
   0   2 -20    2.75    0.22
   0   2 -20    2.62    0.14
   2  20   0    2.38    0.43
   0  20  -2    1.63    0.36
   0  20   2    2.20    0.39
   2   0 -20    2.64    0.22
   2   0 -20    2.86    0.14
 -20   2   0    2.25    0.13
  -2   0 -20    2.55    0.22
 -20   2   0    2.49    0.16
   2  20  -2    3.52    0.50
   2   2 -20    3.56    0.24
   2   2 -20    3.70    0.17
  -2  -2 -20    3.84    0.24
  -2   2 -20    3.71    0.24
  -2   2 -20    3.44    0.17
   2  -2 -20    3.58    0.16
 -20  -2   2    3.89    0.19
 -20  -2   2    3.69    0.16
 -20   2  -2    3.36    0.19
 -20   2  -2    3.58    0.16
  -2  20  -2    3.15    0.46
  -2  20   2    3.29    0.45
   2  -2 -20    3.59    0.25
   2  20   2    4.78    0.55
 -20   2   2    3.89    0.19
 -20   2   2    3.28    0.16
 -20   0   4   53.18    1.60
  -4  20   0   45.59    2.01
 -20   4   0   51.63    1.63
 -20   4   0   51.83    1.60
  -4   0 -20   52.35    1.70
  -4   0 -20   53.07    1.60
   0  20  -4   50.04    2.09
   0  20   4   49.96    2.06
   4   0 -20   54.08    1.69
   4   0 -20   52.81    1.60
   0   4 -20   54.18    1.60
   0  -4 -20   50.29    1.69
   0   4 -20   53.03    1.69
   4  20   0   50.37    2.11
 -20   0   4   53.33    1.62
 -20   0  -4   50.37    1.60
 -20   0  -4   51.37    1.63
  -4   2 -20    3.26    0.24
  -2  20  -4    2.24    0.42
 -20   4  -2    2.69    0.15
   2  20   4    2.34    0.40
 -20   4  -2    2.69    0.17
   2   4 -20    3.45    0.16
   4  20  -2    2.20    0.40
 -20   2   4    3.13    0.15
  -4   2 -20    3.17    0.15
  -4  20   2    3.92    0.48
   4  -2 -20    2.85    0.22
   4  -2 -20    2.95    0.15
  -2  -4 -20    3.12    0.23
   2   4 -20    3.34    0.23
 -20   2   4    3.21    0.18
   4  20   2    2.35    0.43
 -20   2  -4    2.87    0.15
  -2   4 -20    3.36    0.16
 -20   2  -4    2.85    0.17
  -2   4 -20    3.41    0.24
 -20   4   2    2.98    0.18
 -20   4   2    3.16    0.15
   2  20  -4    3.40    0.49
 -20  -2   4    2.96    0.17
 -20  -2   4    3.10    0.15
   4   2 -20    3.23    0.15
   4   2 -20    3.17    0.22
  -4  20  -2    3.08    0.45
  -4  -2 -20    2.92    0.22
  -2  20   4    3.13    0.45
   2  -4 -20    3.22    0.23
 -20   4   4   65.15    2.03
 -20   4  -4   63.21    2.00
   4   4 -20   67.58    2.09
   4   4 -20   65.36    2.00
  -4  -4 -20   66.74    2.11
  -4   4 -20   66.42    2.11
  -4   4 -20   66.84    2.01
   4  -4 -20   64.54    2.10
 -20   4  -4   63.32    2.04
 -20   4   4   65.78    2.00
   0   6 -20    3.88    0.18
   0   6 -20    4.07    0.26
 -20   0   6    3.91    0.20
  -6   0 -20    3.77    0.25
 -20   6   0    3.86    0.20
   0  20   6    3.53    0.35
   0  -6 -20    3.45    0.25
   6   0 -20    3.87    0.17
 -20   0   6    3.66    0.17
   6   0 -20    4.11    0.25
 -20   6   0    3.87    0.18
  -2  20  -6    2.96    0.26
   2   6 -20    2.85    0.15
 -20   2   6    2.94    0.17
   2   6 -20    2.75    0.21
   6  -2 -20    2.61    0.14
 -20   6  -2    2.65    0.17
   6  -2 -20    2.71    0.22
  -2  -6 -20    2.56    0.23
  -6   2 -20    2.62    0.23
  -6   2 -20    2.93    0.15
 -20   6  -2    2.77    0.15
 -20   2   6    2.75    0.14
 -20  -2   6    2.58    0.16
 -20   6   2    2.80    0.17
 -20   6   2    2.97    0.15
  -6  -2 -20    2.98    0.23
  -2   6 -20    2.88    0.22
 -20   2  -6    2.77    0.14
   6   2 -20    2.89    0.23
  -2  20   6    2.23    0.29
  -2   6 -20    2.70    0.14
   2  -6 -20    2.67    0.23
 -20  -2   6    3.12    0.14
   6   2 -20    2.80    0.15
 -20   2  -6    2.26    0.16
   6  -4 -20    1.57    0.18
 -20   6  -4    1.41    0.13
 -20   6  -4    1.69    0.12
 -20   4   6    1.68    0.13
 -20   4   6    1.41    0.10
  -6   4 -20    1.78    0.19
  -4  20  -6    1.59    0.22
  -6   4 -20    1.76    0.12
   4   6 -20    2.11    0.19
   4   6 -20    1.59    0.11
  -4  -6 -20    1.48    0.19
  -4   6 -20    1.76    0.12
   6   4 -20    1.81    0.12
  -4   6 -20    1.32    0.17
 -20   6   4    1.63    0.14
 -20   6   4    1.80    0.11
  -6  -4 -20    1.86    0.20
 -20   4  -6    1.41    0.13
   4  -6 -20    1.38    0.17
 -20   4  -6    1.64    0.11
 -20   6   6    3.24    0.19
 -20   6  -6    3.43    0.16
 -20   6   6    3.18    0.15
 -20   6  -6    3.23    0.19
   6   6 -20    3.23    0.16
  -6  -6 -20    3.55    0.25
  -6   6 -20    3.13    0.25
 -20   6   6    3.14    0.18
  -6  20  -6    3.12    0.30
  -6   6 -20    3.37    0.17
  -6   6  20    3.07    0.18
 -20   0   8   58.07    1.76
 -20   8   0   60.51    1.77
   0   8 -20   58.00    1.77
 -20   8   0   57.94    1.81
  -8   0 -20   55.34    1.86
   8   0 -20   56.97    1.76
   0  -8 -20   56.48    1.86
   0   8 -20   55.59    1.86
 -20   8   0   58.57    1.80
 -20   0   8   55.75    1.78
   0  20   8   58.08    2.03
   8  -2 -20    2.38    0.20
   2   8 -20    2.40    0.21
 -20   8  -2    1.97    0.13
  -8   2 -20    2.17    0.13
  -8   2 -20    2.18    0.21
 -20   8  -2    2.15    0.16
   8  -2 -20    2.33    0.13
  -2  20  -8    1.85    0.22
   2   8 -20    2.41    0.13
 -20   8  -2    2.38    0.17
 -20   2   8    2.07    0.15
 -20   2   8    2.01    0.12
  -2  -8 -20    2.58    0.22
 -20  -2   8    2.16    0.14
  -8  -2 -20    2.25    0.21
 -20   8   2    2.29    0.17
 -20   8   2    1.73    0.14
  -2   8 -20    2.35    0.14
 -20   8   2    1.97    0.13
   8   2 -20    2.20    0.13
 -20   2  -8    2.05    0.15
  -2   8 -20    2.10    0.21
  -2  20   8    2.20    0.29
 -20   2  -8    1.96    0.12
 -20  -2   8    2.16    0.12
 -20   8  -4   43.98    1.42
  -4  -8 -20   44.28    1.48
   8  -4 -20   44.27    1.37
 -20   4   8   43.72    1.38
  -8   4 -20   45.40    1.39
  -4   8  20   44.32    1.40
  -4  20  -8   45.24    1.53
 -20   4   8   42.72    1.40
   4   8 -20   43.98    1.46
  -8   4 -20   42.56    1.48
   4   8 -20   45.89    1.38
 -20   8  -4   44.79    1.39
  -8  -4 -20   43.95    1.48
 -20   4  -8   41.22    1.41
 -20   4  -8   41.41    1.38
   8   4 -20   45.34    1.38
  -4  20   8   47.42    1.63
 -20  -4   8   44.79    1.37
 -20   8   4   45.18    1.41
 -20   8   4   45.16    1.42
  -4   8 -20   46.82    1.50
 -20  -4   8   45.11    1.40
 -20   8   4   46.21    1.38
  -4   8 -20   44.62    1.39
  -8   4  20   46.21    1.42
 -20   6   8    2.39    0.16
 -20   8  -6    2.30    0.17
 -20   6   8    2.54    0.14
  -6   8  20    2.80    0.17
  -6  -8 -20    3.00    0.24
  -8   6 -20    2.56    0.23
 -20   8  -6    2.37    0.15
  -8   6 -20    2.55    0.15
   6   8 -20    2.78    0.15
  -6  20  -8    2.74    0.27
 -20   6   8    2.65    0.16
  -8  20  -6    2.42    0.27
 -20   6  -8    2.30    0.17
   8   6 -20    2.71    0.14
  -8   6  20    2.60    0.17
 -20   8   6    2.42    0.16
 -20   8   6    2.35    0.13
 -20   8   6    2.62    0.17
  -6   8 -20    3.30    0.26
  -6   8 -20    2.47    0.15
 -20   6  -8    2.54    0.14
 -20   8   8   43.10    1.34
  -8   8 -20   42.48    1.46
  -8   8 -20   43.44    1.35
 -20   8  -8   43.67    1.39
 -20   8   8   42.36    1.38
 -20   8   8   42.81    1.36
   8   8 -20   42.48    1.34
 -20   8  -8   44.10    1.36
  -8   8  20   43.24    1.38
  -8  20  -8   45.91    1.52
   0  10 -20    1.41    0.17
 -10   0 -20    1.27    0.17
   0  10 -20    1.14    0.10
 -20   0  10    0.88    0.10
  10   0 -20    1.24    0.10
   0  20  10    1.20    0.23
 -20  10   0    1.17    0.12
 -20  10   0    0.92    0.09
 -20   0  10    1.17    0.09
   0  10  20    1.14    0.21
 -20  10   0    1.05    0.12
 -10   2 -20    2.46    0.22
  -2  20 -10    2.78    0.25
   2  10 -20    2.54    0.14
   2  20  10    2.82    0.34
  10  -2 -20    2.52    0.13
 -20   2  10    2.71    0.16
 -20   2  10    2.50    0.13
 -10   2 -20    2.64    0.14
 -20  10  -2    2.85    0.15
   2  10 -20    2.87    0.21
 -20  10  -2    2.33    0.17
 -20  10   2    2.49    0.14
  -2  10 -20    2.47    0.14
  -2  10 -20    2.77    0.24
 -20   2 -10    2.39    0.17
  10   2 -20    2.68    0.14
  -2  20  10    3.04    0.34
 -20  -2  10    2.51    0.16
 -20  -2  10    2.58    0.13
 -10   2  20    2.49    0.17
 -20  10   2    2.82    0.17
 -20  10   2    2.57    0.18
 -20   2 -10    2.51    0.14
 -20   4  10    2.89    0.15
 -10   4 -20    3.48    0.17
 -10   4 -20    3.02    0.23
   4  10 -20    3.35    0.16
 -20  10  -4    3.05    0.16
  10  -4 -20    3.41    0.15
  -4  20 -10    3.78    0.29
 -20  10  -4    3.34    0.20
 -20   4  10    3.08    0.18
 -20   4 -10    2.95    0.16
 -20  -4  10    2.92    0.17
 -20   4 -10    3.16    0.19
 -20  10   4    3.02    0.18
  -4  10 -20    3.31    0.26
 -20  -4  10    2.80    0.15
 -20  10   4    3.27    0.16
  -4  20  10    3.46    0.34
  10   4 -20    3.35    0.16
 -10   4  20    3.38    0.19
  -4  10 -20    3.31    0.17
 -20  10   4    3.27    0.20
 -20   6  10    1.36    0.10
 -20   6  10    1.38    0.12
 -20   6  10    1.03    0.12
 -10   6 -20    1.57    0.12
 -10   6 -20    1.43    0.18
 -20  10  -6    1.22    0.13
 -20  10  -6    1.50    0.11
   6  10 -20    1.34    0.10
  -6  10  20    1.24    0.12
  -6  20 -10    1.28    0.20
 -20  10   6    1.43    0.12
  10   6 -20    1.46    0.11
  -6  20  10    1.68    0.27
 -10   6  20    1.48    0.14
 -20  10   6    1.39    0.10
 -20   6 -10    1.28    0.14
 -20   6 -10    1.34    0.11
  -6  10 -20    1.35    0.19
 -10  20  -6    1.43    0.22
 -20  10   6    1.63    0.14
  -6  10 -20    1.49    0.12
 -20   8  10    1.27    0.13
 -20   8  10    1.09    0.09
 -10   8 -20    1.18    0.17
 -10   8 -20    1.30    0.11
 -20   8  10    0.98    0.11
 -20  10  -8    1.34    0.11
  -8  10  20    1.18    0.12
 -20  10  -8    1.22    0.14
  -8  20 -10    1.22    0.21
   8  10 -20    1.20    0.09
  -8  10 -20    1.06    0.18
  -8  10 -20    1.22    0.11
 -20   8 -10    0.94    0.10
 -10  20  -8    1.31    0.21
 -20   8 -10    1.06    0.13
 -10   8  20    1.17    0.12
 -20  10   8    1.28    0.09
 -20  10   8    1.14    0.11
 -20  10   8    1.33    0.13
  10   8 -20    1.13    0.09
 -20  10  10    2.74    0.16
 -20  10 -10    2.55    0.15
 -20  10  10    2.67    0.13
  10  10 -20    2.76    0.14
 -10  20 -10    2.44    0.26
 -20  10 -10    2.99    0.19
 -10  10  20    2.71    0.17
 -20  10  10    2.76    0.18
 -10  10 -20    2.30    0.23
   0  12 -20   37.74    1.20
   0  12  20   36.22    1.39
 -20  12   0   39.61    1.25
 -20   0  12   38.64    1.21
   0  20  12   37.60    1.44
   0  12 -20   38.23    1.29
 -20  12   0   38.21    1.23
 -20   0  12   38.89    1.19
 -12   0  20   37.96    1.22
  12   0 -20   38.34    1.18
 -20  12   0   38.35    1.19
 -20  12  -2    1.92    0.16
 -12  20   2    1.81    0.16
  -2  12  20    1.92    0.27
   2  12 -20    2.07    0.20
 -12  -2  20    1.61    0.14
 -12   2 -20    1.81    0.12
   2  12 -20    1.86    0.12
  -2  20 -12    1.99    0.22
 -20  12  -2    1.95    0.13
 -20   2  12    1.71    0.11
 -20   2  12    1.72    0.14
  12  -2 -20    1.80    0.11
   2  20  12    1.83    0.29
 -12   2  20    1.66    0.15
  12   2 -20    1.95    0.12
 -20   2 -12    1.64    0.12
  -2  20  12    1.60    0.27
 -20  12   2    1.72    0.12
 -20  -2  12    1.97    0.14
 -20  12   2    1.62    0.15
   2  12  20    2.24    0.28
 -20  12   2    1.85    0.15
  -2  12 -20    1.85    0.21
  -2  12 -20    1.63    0.12
 -20  -2  12    1.92    0.11
 -20   2 -12    1.42    0.14
 -20   4  12   40.11    1.24
 -12   4 -20   39.92    1.25
 -20   4  12   38.81    1.27
 -20   4  12   40.81    1.26
 -12  20   4   41.76    1.29
 -12   4 -20   39.68    1.28
 -20  12  -4   41.38    1.28
   4  12 -20   39.28    1.24
  -4  20 -12   39.43    1.37
 -20  12  -4   40.79    1.25
  12  -4 -20   38.42    1.23
 -20  12   4   38.67    1.26
 -12   4  20   40.99    1.28
  -4  20  12   44.13    1.51
 -20  12   4   40.00    1.29
 -20  12   4   40.13    1.24
 -20  -4  12   39.48    1.26
 -20  -4  12   39.04    1.23
 -12  20  -4   38.86    1.39
  12   4 -20   38.38    1.23
  -4  12 -20   41.75    1.37
  -4  12 -20   40.09    1.25
 -20   4 -12   36.85    1.24
 -20   4 -12   38.72    1.28
 -20   6  12    1.52    0.10
 -12   6 -20    1.63    0.15
 -20  12  -6    1.43    0.12
  -6  20 -12    1.49    0.21
 -12   6 -20    1.33    0.17
  12  -6 -20    1.44    0.10
 -12  20   6    1.49    0.14
   6  12 -20    1.52    0.11
 -12   6 -20    1.63    0.12
 -20  12  -6    1.45    0.14
 -20   6  12    1.34    0.13
 -20   6  12    1.35    0.12
 -20  12   6    1.23    0.10
 -20  -6  12    1.54    0.10
 -20  -6  12    1.28    0.11
 -20   6 -12    1.38    0.14
  -6  20  12    1.96    0.29
  -6  12 -20    1.59    0.12
 -20   6 -12    1.35    0.11
 -12   6  20    1.41    0.14
  12   6 -20    1.63    0.11
 -12  20  -6    1.17    0.21
 -20  12   6    1.21    0.13
 -20  12   6    1.42    0.12
  -6  12 -20    1.65    0.20
 -12   8 -20   32.82    1.07
  -8  20 -12   30.76    1.16
 -12  20   8   35.40    1.07
 -20   8  12   33.36    1.04
 -12   8 -20   32.38    1.03
   8  12 -20   33.18    1.01
 -12   8 -20   30.91    1.11
 -20   8  12   32.81    1.05
  -8  12  20   29.46    1.04
 -20  12  -8   33.35    1.03
 -20  12  -8   33.93    1.07
 -20   8  12   32.51    1.01
 -12   8  20   32.72    1.06
 -20  12   8   32.12    1.01
 -20  12   8   33.66    1.04
 -20   8 -12   31.08    1.03
 -20  12   8   31.23    1.05
  -8  12 -20   33.62    1.03
 -12  20  -8   31.92    1.16
  -8  12 -20   33.23    1.14
 -20   8 -12   30.61    1.06
 -20  12 -10    1.32    0.13
 -10  20 -12    1.48    0.20
 -20  10  12    1.25    0.13
 -10  12  20    1.47    0.13
 -20  12 -10    1.34    0.11
 -20  10  12    1.43    0.10
 -20  10  12    1.32    0.11
 -12  10 -20    1.43    0.18
 -12  10 -20    1.44    0.12
  10  12 -20    1.67    0.10
 -20  12  10    1.29    0.10
 -12  20 -10    1.50    0.20
 -20  10 -12    1.49    0.12
 -20  12  10    1.47    0.12
 -10  12 -20    1.51    0.19
  12  10 -20    1.49    0.10
 -20  10 -12    1.34    0.14
 -12  10  20    1.44    0.13
 -20  12  10    1.48    0.14
 -12  12 -20   27.06    0.87
 -12  12 -20   25.77    0.95
 -20  12 -12   27.91    0.87
 -20  12  12   27.76    0.89
 -20  12 -12   27.28    0.90
 -12  20 -12   27.23    0.98
 -12  12  20   26.66    0.88
 -20  14   0    3.03    0.18
   0  20  14    2.48    0.31
 -20   0  14    2.91    0.14
 -20   0  14    2.78    0.17
 -20  14   0    2.77    0.19
   0  14 -20    2.80    0.23
   0  14 -20    2.75    0.14
   0  14  20    2.86    0.32
 -20  14   0    2.69    0.14
 -14   0  20    2.77    0.17
  14   0 -20    2.75    0.14
 -14  -2  20    1.51    0.13
  -2  20 -14    1.39    0.19
 -20  14  -2    1.86    0.14
  14  -2 -20    1.50    0.10
 -20  14  -2    1.61    0.11
 -14   2 -20    1.40    0.13
 -20   2  14    1.39    0.12
 -20   2  14    1.62    0.11
   2  20  14    1.55    0.27
   2  14 -20    1.62    0.11
  -2  14  20    1.23    0.23
 -14   2 -20    1.39    0.11
 -14   2  20    1.36    0.13
  -2  14 -20    1.36    0.10
  -2  14 -20    1.60    0.19
 -20   2 -14    1.39    0.13
  14   2 -20    1.42    0.10
 -20  -2  14    1.17    0.09
   2  14  20    1.06    0.21
 -20  -2  14    1.30    0.12
  -2  20  14    1.66    0.27
 -20  14   2    1.51    0.11
 -20   2 -14    1.15    0.10
 -20  14   2    1.51    0.13
 -20  14   2    1.46    0.14
 -20  14  -4    0.67    0.08
  14  -4 -20    0.93    0.08
  -4  14  20    0.75    0.20
 -20  14  -4    0.74    0.11
  -4  20 -14    0.78    0.16
 -14  -4  20    0.89    0.11
 -14   4 -20    1.01    0.12
 -14   4 -20    0.83    0.09
 -20   4  14    0.68    0.08
 -20   4  14    0.81    0.10
 -14  20   4    0.95    0.12
 -20   4  14    0.70    0.10
 -20   4 -14    0.66    0.10
 -20  -4  14    0.81    0.08
  -4  20  14    1.04    0.23
 -20  14   4    0.74    0.10
 -20  14   4    0.76    0.11
 -14  20  -4    0.87    0.17
 -20  14   4    0.69    0.08
  -4  14 -20    0.66    0.15
  -4  14 -20    0.91    0.09
  14   4 -20    0.71    0.08
 -14   4  20    0.73    0.11
   4  14  20    0.75    0.19
 -20  -4  14    0.79    0.10
 -20   4 -14    0.66    0.08
 -20   6  14    2.26    0.12
 -20  14  -6    1.86    0.16
 -20   6  14    2.20    0.14
  -6  20 -14    1.95    0.23
 -14   6 -20    1.89    0.13
 -14   6 -20    2.01    0.16
 -20   6  14    1.90    0.15
 -14  20   6    2.14    0.16
  14  -6 -20    1.98    0.11
 -20  14  -6    2.16    0.13
  -6  14  20    2.55    0.31
 -14  20  -6    1.88    0.22
  -6  14 -20    1.93    0.22
  -6  14 -20    2.04    0.13
 -20  -6  14    2.18    0.12
  14   6 -20    2.00    0.11
 -14   6  20    2.07    0.16
 -20   6 -14    2.06    0.13
 -20   6 -14    2.04    0.16
  -6  20  14    2.68    0.32
 -20  -6  14    2.43    0.14
 -20  14   6    1.71    0.15
 -20   8  14    1.93    0.15
  -8  20 -14    1.45    0.20
 -14   8 -20    1.98    0.16
 -14   8 -20    1.66    0.12
 -20   8  14    1.85    0.11
 -20  14  -8    1.96    0.16
 -20  14  -8    1.73    0.12
  -8  14  20    2.05    0.27
 -14  20   8    2.09    0.16
 -20   8  14    1.97    0.13
 -20   8 -14    1.87    0.13
 -20  14   8    1.83    0.15
  -8  20  14    2.35    0.30
 -14  20  -8    1.96    0.22
  14   8 -20    1.90    0.11
  -8  14 -20    1.77    0.21
 -20   8 -14    1.96    0.16
 -14   8  20    1.92    0.16
  -8  14 -20    1.86    0.12
 -10  20 -14    0.91    0.17
 -14  10 -20    0.51    0.13
 -14  10 -20    0.62    0.08
 -20  14 -10    0.76    0.09
 -20  14 -10    0.68    0.11
 -10  14  20    0.75    0.10
 -14  10 -20    0.88    0.12
 -20  10  14    0.82    0.07
 -20  10  14    0.74    0.09
 -20  10  14    0.73    0.10
 -14  20  10    0.87    0.11
  14  10 -20    0.96    0.08
 -20  14  10    0.64    0.10
 -20  10 -14    0.68    0.11
 -14  10  20    0.75    0.11
 -14  20 -10    0.82    0.16
 -20  10 -14    0.64    0.09
 -10  14 -20    0.63    0.15
 -10  14 -20    0.58    0.08
 -14  12 -20    0.95    0.15
 -20  12  14    0.99    0.11
 -20  14 -12    1.00    0.09
 -14  12 -20    1.08    0.10
 -12  14  20    0.87    0.10
 -12  20 -14    0.94    0.16
 -20  14 -12    0.87    0.12
 -14  20  12    1.02    0.11
 -14  12  20    0.88    0.10
 -20  12 -14    0.96    0.12
 -12  14 -20    0.76    0.08
 -14  20 -12    0.81    0.15
 -20  12 -14    0.87    0.09
 -20  14  12    0.92    0.11
 -12  14 -20    0.86    0.15
 -20  14 -14    1.60    0.11
 -20  14 -14    1.56    0.13
 -14  20 -14    1.85    0.18
 -14  14 -20    1.37    0.10
 -14  14  20    1.56    0.12
 -20  14  14    1.50    0.12
 -14  14 -20    1.84    0.17
 -20   0  16   27.54    0.90
 -16   0  20   28.88    0.91
  16   0 -20   27.79    0.87
 -20   0  16   28.07    0.88
   0  16  20   27.82    1.09
   0  20  16   27.15    1.11
 -20   2  16    1.21    0.11
  16  -2 -20    1.43    0.10
 -20  16  -2    1.46    0.13
  -2  16  20    1.40    0.24
  -2  20 -16    1.41    0.18
 -16  -2  20    1.21    0.12
   2  20  16    1.04    0.22
 -20   2  16    1.08    0.09
 -20  16  -2    1.42    0.10
  -2  20  16    1.43    0.25
  -2  16 -20    1.63    0.19
 -16  20  -2    1.15    0.18
   2  16  20    1.60    0.25
 -16   2  20    1.20    0.12
 -20  16   2    1.32    0.14
 -20  -2  16    1.35    0.12
 -20  -2  16    1.44    0.10
  16   2 -20    1.39    0.10
 -20  16  -4   30.46    0.94
 -20   4  16   30.13    0.93
  -4  20 -16   28.95    1.02
 -20   4  16   29.22    0.94
 -20  16  -4   30.27    0.91
 -16  20   4   28.90    0.95
 -20   4  16   29.62    0.90
 -16   4 -20   26.62    0.94
 -16   4 -20   27.63    0.91
  -4  16  20   28.39    1.12
 -20   4 -16   27.95    0.94
 -16  20  -4   29.16    1.02
 -20  16   4   28.46    0.95
 -16   4  20   27.75    0.94
  -4  16 -20   30.47    1.02
   4  16  20   26.21    1.09
 -20  -4  16   27.89    0.90
  16   4 -20   28.34    0.90
 -20  -4  16   28.38    0.92
  -4  16 -20   29.02    0.91
 -20   4 -16   28.34    0.91
  -4  20  16   32.19    1.16
 -20  16  -6    1.09    0.09
 -16  20   6    1.01    0.12
 -20   6  16    1.04    0.08
 -16   6 -20    0.90    0.12
 -20   6  16    1.11    0.11
 -16   6 -20    1.11    0.10
 -20  16  -6    1.11    0.12
  -6  20 -16    1.27    0.18
  -6  16  20    1.42    0.23
 -20   6  16    1.13    0.11
 -20   6 -16    1.12    0.10
  -6  16 -20    1.02    0.09
 -20  -6  16    0.93    0.08
 -16   6  20    0.92    0.10
 -20  -6  16    0.95    0.10
  -6  16 -20    1.14    0.17
 -20   6 -16    1.06    0.12
 -16   6  20    0.98    0.11
 -20  16   6    0.93    0.11
 -16   6  20    0.91    0.08
  16   6 -20    1.02    0.08
  -6  20  16    1.61    0.25
 -16  20  -6    1.12    0.18
 -20   8  16   25.16    0.77
 -20  16  -8   26.33    0.81
 -20   8  16   23.10    0.80
 -16  20   8   24.03    0.81
 -20   8  16   24.45    0.79
 -20  16  -8   25.30    0.78
  -8  20 -16   25.02    0.89
 -16   8 -20   23.67    0.82
 -16   8 -20   23.81    0.79
  -8  16  20   25.34    0.97
 -16   8  20   25.62    0.82
 -20   8 -16   24.30    0.82
 -20  16   8   23.09    0.81
  -8  16 -20   25.13    0.89
  16   8 -20   23.61    0.77
 -20   8 -16   24.36    0.79
 -16  20  -8   24.77    0.88
  -8  16 -20   24.55    0.78
  -8  20  16   26.99    0.99
 -20  10  16    1.14    0.11
 -20  10  16    1.20    0.08
 -20  16 -10    1.19    0.12
 -20  10  16    1.25    0.10
 -16  10 -20    1.08    0.10
 -10  20 -16    1.18    0.17
 -16  20  10    0.99    0.11
 -20  16 -10    1.39    0.10
 -10  16  20    1.39    0.21
 -20  10 -16    1.06    0.09
 -10  16 -20    1.20    0.09
 -10  16 -20    1.45    0.17
 -16  20 -10    0.81    0.15
 -20  10 -16    1.07    0.12
 -10  20  16    1.33    0.21
 -20  16  10    1.06    0.11
 -16  10  20    1.21    0.12
 -16  12 -20   19.70    0.64
 -16  20  12   19.33    0.66
 -20  12  16   19.87    0.66
 -20  16 -12   20.74    0.67
 -20  16 -12   21.42    0.64
 -12  16  20   20.36    0.77
 -20  12 -16   20.28    0.67
 -12  16 -20   20.49    0.64
 -12  16 -20   19.05    0.71
 -16  12  20   19.39    0.66
 -20  12 -16   20.36    0.64
 -20  16  12   18.70    0.66
 -16  14 -20    0.65    0.07
 -20  16 -14    0.79    0.09
 -20  14  16    0.64    0.08
 -20  16 -14    0.73    0.07
 -20  14 -16    0.66    0.09
 -20  14 -16    0.77    0.07
 -14  16 -20    0.77    0.07
 -20  16  14    0.76    0.08
 -20   0  18    0.53    0.07
   0  18  20    0.66    0.18
   0  20  18    0.57    0.18
 -18   0  20    0.87    0.10
 -18   0  20    0.69    0.09
 -20   0  18    0.67    0.09
  -2  18  20    1.20    0.22
 -20   2  18    1.31    0.12
 -20   2  18    1.20    0.09
  -2  20 -18    1.38    0.16
 -20   2  18    1.41    0.11
  -2  18 -20    1.37    0.16
 -18   2  20    1.17    0.11
  -2  20  18    1.10    0.21
 -20  -2  18    1.36    0.11
 -18   2  20    1.10    0.08
 -18   2  20    1.39    0.12
   2  18  20    1.24    0.21
 -20  -2  18    1.15    0.09
  -4  20 -18    1.66    0.18
  -4  18  20    1.45    0.22
 -20   4  18    1.63    0.10
 -18   4 -20    1.67    0.13
 -20   4  18    1.47    0.12
 -20   4  18    1.75    0.13
 -18   4 -20    1.57    0.11
 -18   4  20    1.78    0.13
 -20   4 -18    1.56    0.13
  -4  20  18    1.48    0.23
  -4  18 -20    1.77    0.19
 -20  -4  18    1.49    0.12
 -18   4  20    1.79    0.10
 -20  -4  18    1.70    0.10
 -18   4  20    1.82    0.12
 -20   4 -18    1.66    0.11
 -20   6  18    0.74    0.09
 -20   6  18    0.68    0.09
  -6  20 -18    0.88    0.15
 -18   6 -20    0.71    0.08
  -6  18  20    0.83    0.18
 -20   6  18    0.84    0.07
 -18   6 -20    0.78    0.10
 -20  -6  18    0.74    0.07
 -20   6 -18    0.73    0.08
  -6  18 -20    0.89    0.15
 -20  18   6    0.73    0.10
 -20   6 -18    0.82    0.10
 -18   6  20    0.60    0.08
  -6  20  18    0.87    0.18
 -18   6  20    0.80    0.07
 -20  -6  18    0.82    0.09
 -18   6  20    0.84    0.10
  -8  18  20    0.73    0.17
 -18   8 -20    0.78    0.10
  -8  20 -18    0.64    0.14
 -20   8  18    0.69    0.08
 -20   8  18    0.79    0.09
 -18   8 -20    0.66    0.07
 -18  20   8    0.67    0.09
 -20   8  18    0.71    0.06
 -20  18   8    0.55    0.08
  -8  18 -20    0.94    0.15
 -18   8  20    0.82    0.06
  -8  20  18    0.96    0.18
 -20   8 -18    0.60    0.07
 -18   8  20    0.79    0.08
 -18   8  20    0.66    0.09
 -20   8 -18    0.66    0.09
 -18  20  10    1.39    0.11
 -20  10  18    1.47    0.11
 -18  10 -20    1.24    0.09
 -20  10 -18    1.39    0.09
 -18  10  20    1.10    0.10
 -20  10 -18    1.37    0.12
 -20  18  10    1.20    0.10
 -18  12 -20    1.11    0.08
 -20  12 -18    1.01    0.10
 -20  12 -18    0.93    0.08
 -20   0  20   21.54    0.70
 -20   0  20   21.92    0.68
   0  20  20   21.58    0.85
 -20  -2  20    0.67    0.08
 -20  -2  20    0.67    0.06
 -20   2  20    0.65    0.08
 -20   2  20    0.85    0.09
 -20   2  20    0.86    0.07
  -2  20  20    0.91    0.18
 -20  -4  20   17.64    0.58
 -20  -4  20   17.96    0.56
 -20   4  20   17.63    0.57
 -20   4  20   17.05    0.58
 -20   4  20   17.64    0.56
  -4  20  20   18.09    0.73
 -20  -6  20    1.03    0.08
 -20  -6  20    1.03    0.07
 -20   6 -20    0.83    0.07
 -20   6  20    0.92    0.08
 -20   6  20    0.83    0.09
 -20   6  20    0.94    0.07
 -20   8 -20   16.80    0.54
 -21  -1  -1    9.87    0.37
 -21  -1  -1   10.00    0.35
 -21  -1   1   10.22    0.38
 -21  -1   1    9.86    0.35
 -21   1  -1    9.53    0.38
 -21   1  -1    9.47    0.35
 -21   1   1   10.12    0.38
 -21   1   1    9.64    0.35
  -1  -1 -21    9.83    0.44
  -1  -1 -21    9.97    0.35
  -1   1 -21    9.68    0.44
  -1   1 -21   10.32    0.35
   1  -1 -21    9.91    0.44
   1  -1 -21   10.26    0.35
   1   1 -21    9.52    0.44
   1   1 -21    9.99    0.35
  -3   1 -21    5.25    0.21
   3  -1 -21    4.81    0.29
   3  -1 -21    4.98    0.21
  -3   1 -21    5.04    0.30
 -21   1   3    5.45    0.24
 -21   1   3    4.87    0.21
  -1  -3 -21    4.99    0.30
 -21   3  -1    4.87    0.21
   1   3 -21    5.30    0.21
 -21   3  -1    4.83    0.24
   1   3 -21    5.09    0.29
  -1   3 -21    5.24    0.21
   3   1 -21    5.22    0.29
   3   1 -21    5.42    0.21
 -21   1  -3    4.67    0.23
 -21  -1   3    5.32    0.24
 -21  -1   3    4.96    0.21
   1  -3 -21    4.99    0.29
  -1   3 -21    5.05    0.29
 -21   3   1    5.19    0.24
 -21   3   1    5.16    0.21
  -3  -1 -21    5.42    0.30
 -21   1  -3    4.98    0.21
  -3   3 -21   12.90    0.42
 -21   3   3   12.41    0.45
   3   3 -21   12.40    0.42
   3  -3 -21   12.19    0.51
   3   3 -21   11.31    0.49
 -21   3  -3   12.05    0.45
 -21   3  -3   12.17    0.42
  -3   3 -21   12.09    0.52
 -21   3   3   12.39    0.42
  -3  -3 -21   12.00    0.52
 -21   1   5    6.03    0.26
  -5   1 -21    5.96    0.33
 -21   1   5    6.19    0.24
  -1  -5 -21    6.33    0.34
   5  -1 -21    5.73    0.32
   5  -1 -21    6.03    0.24
  -1  21  -5    6.35    0.36
   1   5 -21    5.79    0.32
   1   5 -21    6.28    0.24
  -5   1 -21    6.03    0.24
 -21   5  -1    6.53    0.28
 -21   5  -1    6.41    0.24
 -21  -1   5    6.15    0.26
 -21   5   1    6.20    0.24
  -5  -1 -21    5.69    0.32
 -21   1  -5    5.76    0.24
 -21   5   1    6.39    0.27
   1  -5 -21    6.49    0.33
 -21   1  -5    5.69    0.26
  -1   5 -21    6.03    0.24
   5   1 -21    5.90    0.24
 -21  -1   5    6.35    0.24
   5   1 -21    5.93    0.32
  -1   5 -21    6.26    0.33
  -3  21  -5    7.53    0.41
 -21   5  -3    8.05    0.33
  -5   3 -21    7.70    0.39
  -5   3 -21    7.43    0.29
 -21   3   5    8.14    0.29
  -3  -5 -21    8.04    0.39
   3   5 -21    7.98    0.37
   3   5 -21    7.93    0.30
 -21   5  -3    8.18    0.30
   5  -3 -21    7.85    0.38
   5  -3 -21    7.67    0.28
 -21   3   5    7.48    0.31
   3  -5 -21    7.64    0.38
   5   3 -21    7.63    0.36
  -3   5 -21    8.15    0.39
  -3   5 -21    8.25    0.30
 -21  -3   5    7.75    0.29
 -21  -3   5    8.34    0.32
 -21   3  -5    7.80    0.29
 -21   5   3    7.86    0.32
 -21   5   3    8.03    0.29
  -5  -3 -21    7.34    0.38
 -21   3  -5    7.93    0.33
   5   3 -21    7.97    0.29
  -5  -5 -21    5.86    0.33
  -5   5 -21    6.49    0.25
  -5  21  -5    6.24    0.38
 -21   5   5    6.28    0.24
 -21   5   5    6.52    0.27
   5  -5 -21    5.75    0.33
   5   5 -21    6.57    0.32
  -5   5 -21    6.36    0.34
 -21   5  -5    6.37    0.25
 -21   5  -5    6.13    0.28
   5   5 -21    6.45    0.25
   7  -1 -21    9.92    0.36
  -7   1 -21   10.50    0.36
  -1  -7 -21   10.34    0.46
 -21   7  -1    9.83    0.40
  -1  21  -7   10.63    0.48
  -7   1 -21   10.37    0.46
 -21   1   7   10.43    0.36
   7  -1 -21   11.02    0.45
   1   7 -21   10.77    0.45
 -21   7  -1   10.14    0.37
 -21   1   7   10.22    0.39
   1   7 -21   10.32    0.37
 -21  -1   7   10.64    0.36
 -21   7   1   10.25    0.39
  -1  21   7   10.03    0.57
 -21   7   1   10.60    0.37
 -21   1  -7    9.59    0.39
   7   1 -21   10.41    0.44
  -7  -1 -21   10.11    0.45
 -21  -1   7   10.68    0.39
 -21   1  -7    9.91    0.36
  -1   7 -21   10.19    0.45
  -1   7 -21    9.88    0.37
   1  -7 -21   10.01    0.45
   7   1 -21   10.45    0.36
   3   7 -21    3.73    0.18
   3   7 -21    4.05    0.25
 -21   7  -3    3.64    0.21
   7  -3 -21    3.57    0.17
 -21   3   7    4.14    0.17
  -3  21  -7    3.70    0.29
   7  -3 -21    4.41    0.26
  -7   3 -21    3.86    0.26
  -7   3 -21    3.71    0.17
 -21   7  -3    3.65    0.18
  -3   7  21    3.67    0.19
 -21   3   7    3.90    0.20
  -3  -7 -21    3.69    0.26
   7   3 -21    3.70    0.17
  -3   7 -21    3.89    0.26
  -3   7 -21    3.51    0.18
 -21   3  -7    3.82    0.18
 -21   3  -7    3.72    0.20
 -21  -3   7    3.79    0.19
 -21  -3   7    3.74    0.17
 -21   7   3    3.67    0.17
 -21   7   3    3.83    0.20
  -7  -3 -21    3.42    0.26
   5   7 -21    5.46    0.22
 -21   7  -5    4.99    0.22
  -7   5 -21    5.65    0.23
 -21   5   7    5.55    0.24
 -21   5   7    5.30    0.22
  -5  21  -7    5.28    0.35
  -7   5 -21    5.15    0.31
 -21   7  -5    5.18    0.26
  -5   7  21    5.59    0.24
  -5  -7 -21    5.34    0.31
 -21   5  -7    5.47    0.23
  -5   7 -21    5.31    0.23
  -7  -5 -21    5.27    0.31
 -21   7   5    5.81    0.26
  -5   7 -21    5.10    0.31
  -7   5  21    5.24    0.25
 -21   7   5    5.51    0.22
   7   5 -21    5.50    0.22
  -7  21  -5    5.44    0.35
 -21   5  -7    5.41    0.26
 -21   7   5    5.20    0.25
 -21   7  -7   11.37    0.44
   7   7 -21   11.02    0.39
  -7   7  21   11.03    0.42
 -21   7   7   11.55    0.43
 -21   7   7   11.36    0.39
  -7  -7 -21   11.74    0.49
  -7  21  -7   12.48    0.56
  -7   7 -21   11.33    0.40
  -7   7 -21   11.16    0.50
 -21   7  -7   10.88    0.40
 -21   7   7   11.57    0.42
   9  -1 -21    5.14    0.21
 -21   1   9    4.65    0.23
   1   9 -21    5.44    0.29
 -21   1   9    4.92    0.21
  -9   1 -21    5.17    0.30
  -9   1 -21    5.09    0.21
  -1   9  21    4.58    0.35
   1   9 -21    4.91    0.21
 -21   9  -1    5.43    0.26
  -1  21  -9    4.97    0.31
 -21   9  -1    5.22    0.25
 -21   9  -1    5.56    0.22
 -21   1  -9    4.65    0.23
 -21   1  -9    4.74    0.21
 -21  -1   9    5.14    0.23
 -21  -1   9    5.48    0.21
 -21   9   1    5.27    0.25
 -21   9   1    5.35    0.25
 -21   9   1    5.28    0.22
  -1  21   9    5.70    0.42
  -1   9 -21    4.62    0.21
   9   1 -21    5.46    0.21
  -9  -1 -21    4.86    0.29
  -1   9 -21    4.76    0.30
  -9   3 -21    6.17    0.25
 -21   3   9    6.53    0.25
 -21   9  -3    6.34    0.29
  -9   3 -21    6.62    0.34
   9  -3 -21    6.14    0.24
   3   9 -21    6.44    0.32
  -3  21  -9    6.84    0.37
 -21   3   9    6.52    0.27
 -21   9  -3    6.74    0.26
   3   9 -21    6.47    0.25
  -3   9 -21    6.52    0.26
  -9   3  21    6.65    0.28
 -21   9   3    6.66    0.28
 -21   9   3    6.66    0.29
 -21  -3   9    6.45    0.27
 -21  -3   9    6.56    0.25
 -21   3  -9    6.04    0.28
  -3   9 -21    6.30    0.34
  -3  21   9    7.10    0.46
 -21   9   3    6.03    0.25
 -21   3  -9    6.01    0.25
   9   3 -21    6.41    0.25
 -21   9  -5    5.06    0.25
 -21   9  -5    5.05    0.22
 -21   5   9    4.86    0.21
  -5  21  -9    4.49    0.32
  -9   5 -21    5.35    0.22
   5   9 -21    5.18    0.21
  -5   9  21    4.96    0.23
  -9   5 -21    4.76    0.29
   9  -5 -21    5.09    0.20
   9   5 -21    4.87    0.21
  -9   5  21    5.01    0.24
 -21   9   5    5.27    0.25
  -5   9 -21    5.19    0.31
  -5   9 -21    5.42    0.22
 -21   9   5    4.94    0.21
 -21   5  -9    4.89    0.21
 -21   9   5    4.84    0.23
  -9  21  -5    5.38    0.36
 -21   5  -9    4.96    0.25
 -21   9  -7    4.48    0.24
  -9   7 -21    4.87    0.29
  -9   7 -21    4.55    0.21
  -7   9  21    4.67    0.22
 -21   7   9    4.49    0.19
  -7  21  -9    4.86    0.33
 -21   7   9    4.55    0.22
 -21   9  -7    4.58    0.21
 -21   7   9    5.12    0.23
   7   9 -21    4.73    0.20
  -9   7  21    4.98    0.23
   9   7 -21    4.69    0.20
 -21   9   7    4.81    0.22
  -7   9 -21    4.29    0.29
 -21   7  -9    4.49    0.21
 -21   7  -9    4.68    0.24
  -9  21  -7    4.90    0.34
 -21   9   7    5.18    0.24
 -21   9   7    4.70    0.19
  -7   9 -21    4.16    0.20
   9   9 -21    4.22    0.18
 -21   9   9    4.21    0.18
  -9   9 -21    4.34    0.28
 -21   9   9    4.13    0.22
  -9   9 -21    4.05    0.19
  -9   9  21    4.10    0.21
  -9  21  -9    4.62    0.32
 -21   9  -9    4.46    0.23
 -21   9  -9    4.06    0.19
 -21   9   9    3.82    0.20
  -1  11  21    3.98    0.33
 -11  -1  21    4.21    0.21
   1  11 -21    3.89    0.26
   1  21  11    4.34    0.39
  11  -1 -21    4.05    0.18
 -21  11  -1    4.44    0.19
  -1  21 -11    4.22    0.28
 -21   1  11    4.19    0.18
 -21  11  -1    4.48    0.22
   1  11 -21    4.22    0.19
 -21   1  11    4.10    0.21
  11   1 -21    4.11    0.18
  -1  11 -21    3.97    0.19
 -21  -1  11    4.00    0.18
 -21  11   1    4.29    0.22
   1  11  21    3.74    0.32
 -21  11   1    4.26    0.23
 -21  11   1    4.31    0.19
 -21  -1  11    4.19    0.20
 -11   1  21    4.47    0.22
  -1  11 -21    4.50    0.28
  -1  21  11    4.38    0.38
 -21   3  11    9.32    0.35
 -21   3  11    9.45    0.33
 -21  11  -3    9.23    0.34
 -21  11  -3    9.60    0.37
  -3  21 -11    8.99    0.44
 -11   3 -21    8.60    0.41
 -11   3 -21    9.22    0.34
   3  11 -21    9.22    0.33
  11  -3 -21    8.79    0.32
  -3  11  21    9.56    0.52
 -21  -3  11    9.06    0.32
 -21  11   3    8.82    0.33
  11   3 -21    9.90    0.33
 -21   3 -11    8.66    0.33
  -3  21  11    9.75    0.55
  -3  11 -21    9.64    0.44
 -11   3  21    9.54    0.37
  -3  11 -21    9.32    0.34
 -21   3 -11    9.65    0.37
 -21  11   3    9.18    0.36
 -21  11   3    9.26    0.37
 -21  -3  11    8.72    0.35
  -5  21 -11    5.67    0.35
 -11   5 -21    6.07    0.32
 -21  11  -5    6.36    0.29
 -11   5 -21    5.96    0.25
 -21  11  -5    6.00    0.25
 -21   5  11    5.86    0.27
 -21   5  11    6.20    0.26
   5  11 -21    6.22    0.24
  11  -5 -21    6.41    0.23
 -21   5  11    5.95    0.24
 -21  11   5    6.49    0.27
 -11   5  21    6.04    0.28
 -21  -5  11    6.14    0.23
 -11  21  -5    6.53    0.39
 -21   5 -11    6.28    0.25
 -21  11   5    6.17    0.28
 -21   5 -11    6.20    0.28
 -21  -5  11    6.15    0.26
  -5  21  11    6.89    0.45
 -21  11   5    6.15    0.24
  11   5 -21    5.92    0.24
  -5  11 -21    6.59    0.25
  -5  11 -21    6.70    0.36
 -21  11  -7    2.76    0.19
   7  11 -21    3.10    0.15
  -7  11  21    2.70    0.17
 -21   7  11    3.11    0.18
 -11   7 -21    2.97    0.16
  -7  21 -11    2.86    0.27
 -21   7  11    2.97    0.17
 -21   7  11    3.06    0.14
 -11   7 -21    2.62    0.23
 -21  11  -7    3.09    0.16
 -11   7  21    3.06    0.19
 -11  21  -7    3.00    0.29
  -7  11 -21    3.19    0.16
 -21  11   7    2.80    0.17
 -21  11   7    2.89    0.18
 -21   7 -11    3.02    0.19
 -21   7 -11    2.93    0.16
  -7  11 -21    2.85    0.25
 -21  11   7    3.09    0.15
 -21   9  11    5.26    0.20
 -21   9  11    5.16    0.24
 -21  11  -9    5.31    0.23
  -9  11  21    4.88    0.23
  -9  21 -11    5.43    0.34
   9  11 -21    5.04    0.20
 -11   9 -21    4.82    0.30
 -11   9 -21    5.14    0.22
 -21   9  11    4.99    0.23
 -21  11  -9    5.01    0.25
 -21  11   9    5.14    0.20
 -11  21  -9    5.52    0.34
 -21  11   9    4.95    0.24
 -21   9 -11    5.31    0.22
 -11   9  21    5.38    0.25
  11   9 -21    5.18    0.20
  -9  11 -21    5.47    0.22
 -21  11   9    5.21    0.23
 -21   9 -11    5.31    0.26
  -9  11 -21    5.44    0.31
 -11  21 -11    7.06    0.38
 -21  11  11    6.85    0.29
 -21  11 -11    6.56    0.30
 -11  11 -21    7.06    0.35
  11  11 -21    7.29    0.25
 -21  11  11    7.00    0.25
 -21  11 -11    7.04    0.27
 -21  11  11    6.90    0.27
 -11  11 -21    6.78    0.27
 -11  11  21    6.85    0.29
   1  13 -21    5.28    0.29
 -21  13  -1    5.41    0.25
   1  21  13    5.04    0.40
 -21  13  -1    5.46    0.22
  13  -1 -21    5.32    0.21
 -21   1  13    5.41    0.21
  -1  13  21    5.22    0.38
 -13  -1  21    5.08    0.25
  -1  21 -13    5.27    0.31
 -21   1  13    5.40    0.24
   1  13 -21    5.54    0.22
 -21  13   1    5.54    0.22
  -1  21  13    5.32    0.41
 -21  13   1    5.55    0.26
   1  13  21    5.08    0.38
  -1  13 -21    5.99    0.32
  13   1 -21    5.38    0.21
 -21  -1  13    5.33    0.21
 -21  13   1    5.62    0.25
 -21  -1  13    5.30    0.24
 -13   1  21    5.36    0.25
  -1  13 -21    5.28    0.22
  -3  21 -13    2.54    0.24
 -21   3  13    2.64    0.14
 -21   3  13    3.01    0.17
  -3  13  21    3.01    0.31
   3  13 -21    3.05    0.15
  13  -3 -21    2.98    0.14
 -21  13  -3    3.06    0.18
 -21  13  -3    2.84    0.15
 -13  -3  21    2.92    0.17
 -13   3 -21    2.89    0.15
 -21  -3  13    3.17    0.17
   3  13  21    2.43    0.26
 -21   3 -13    2.75    0.15
 -21   3 -13    2.91    0.18
  -3  13 -21    2.94    0.25
  -3  13 -21    2.89    0.15
  -3  21  13    3.54    0.34
 -13   3  21    2.85    0.18
 -21  13   3    2.86    0.14
 -21  13   3    2.79    0.17
 -21  13   3    2.92    0.18
 -21  -3  13    3.03    0.14
 -13  21  -3    2.57    0.26
  13   3 -21    2.94    0.14
 -21   5  13    3.29    0.18
 -21   5  13    3.15    0.15
 -13   5 -21    3.36    0.17
  -5  13  21    3.45    0.33
 -13  21   5    3.60    0.20
 -13  -5  21    3.22    0.18
  13  -5 -21    3.40    0.15
 -21   5  13    3.36    0.18
 -21  13  -5    3.56    0.20
  -5  21 -13    3.63    0.27
   5  13 -21    3.48    0.16
 -21  13  -5    3.44    0.17
 -21  -5  13    3.55    0.15
 -21  13   5    3.27    0.18
  13   5 -21    3.35    0.15
 -21  -5  13    3.33    0.17
 -21  13   5    3.75    0.20
 -21  13   5    3.71    0.16
 -21   5 -13    3.39    0.20
 -21   5 -13    3.37    0.17
 -13   5  21    3.36    0.20
 -13  21  -5    3.36    0.29
  -5  13 -21    3.50    0.17
  -5  21  13    4.03    0.36
  -5  13 -21    3.47    0.26
   7  13 -21    5.73    0.22
 -21   7  13    5.47    0.25
 -21   7  13    5.94    0.22
 -13   7 -21    5.41    0.30
 -13   7 -21    5.59    0.24
 -21  13  -7    5.89    0.24
  -7  21 -13    6.51    0.35
  -7  13  21    5.79    0.40
 -21   7  13    6.15    0.25
 -13  21   7    6.05    0.26
 -21  13  -7    5.87    0.27
 -13   7  21    6.33    0.27
 -13  21  -7    5.59    0.34
 -21  13   7    5.90    0.24
 -21  13   7    5.44    0.26
 -21  13   7    5.61    0.22
  -7  13 -21    6.61    0.34
  -7  13 -21    5.76    0.23
  13   7 -21    5.70    0.22
 -21   7 -13    5.73    0.27
 -21   7 -13    5.53    0.23
  -9  13  21    3.11    0.16
 -21  13  -9    2.94    0.15
 -21   9  13    2.99    0.16
 -13   9 -21    2.77    0.22
 -13   9 -21    2.85    0.15
 -21   9  13    2.91    0.14
 -21  13  -9    3.25    0.19
 -21   9  13    2.97    0.17
  -9  21 -13    2.66    0.25
  -9  13 -21    2.87    0.15
  13   9 -21    2.82    0.13
 -13   9  21    3.00    0.18
 -21   9 -13    2.90    0.18
 -21   9 -13    2.81    0.15
 -13  21  -9    3.04    0.26
  -9  13 -21    2.96    0.25
 -21  13   9    2.86    0.17
 -13  11 -21    2.67    0.14
 -21  11  13    2.49    0.14
 -13  11 -21    2.68    0.21
 -21  13 -11    2.83    0.14
 -21  11  13    2.74    0.12
 -11  21 -13    2.43    0.23
 -21  11  13    2.59    0.16
 -11  13  21    2.64    0.16
 -21  13 -11    2.59    0.17
 -13  11  21    2.59    0.16
 -11  13 -21    2.53    0.22
 -11  13 -21    2.61    0.14
  13  11 -21    2.48    0.12
 -21  13  11    2.64    0.16
 -21  11 -13    2.88    0.15
 -21  11 -13    2.94    0.18
 -13  21 -11    2.83    0.24
 -21  13 -13    3.34    0.15
 -13  21 -13    2.97    0.22
 -21  13 -13    3.07    0.17
 -21  13  13    2.91    0.16
 -13  13  21    2.79    0.16
 -13  13 -21    2.90    0.21
 -13  13 -21    3.04    0.15
   1  15 -21    6.30    0.23
  15  -1 -21    6.05    0.22
 -15  -1  21    6.03    0.26
 -21   1  15    5.91    0.23
 -21  15  -1    5.98    0.23
 -21   1  15    5.89    0.25
 -21  15  -1    5.96    0.26
  -1  15  21    5.58    0.40
   1  21  15    6.04    0.43
  -1  21  15    6.20    0.43
  15   1 -21    5.94    0.23
 -21  -1  15    6.19    0.25
   1  15  21    5.72    0.39
  -1  15 -21    6.07    0.32
 -21  15   1    5.98    0.25
 -21  -1  15    5.74    0.23
  -1  15 -21    6.16    0.23
 -15  21  -1    6.31    0.34
 -21  15   1    6.02    0.23
 -15   1  21    5.96    0.27
 -21   3  15    3.23    0.15
  15  -3 -21    3.26    0.15
 -21  15  -3    3.81    0.19
  -3  21 -15    3.32    0.25
 -21  15  -3    3.45    0.16
 -15  -3  21    3.42    0.18
  -3  15  21    3.27    0.32
 -15   3 -21    3.33    0.16
 -21   3  15    3.14    0.17
 -15  21  -3    3.49    0.26
 -21  -3  15    3.36    0.15
  -3  15 -21    3.50    0.25
  -3  15 -21    3.29    0.16
 -15   3  21    2.88    0.18
  15   3 -21    3.39    0.15
  -3  21  15    3.41    0.33
 -21  -3  15    3.16    0.17
 -21   3 -15    3.07    0.18
   3  15  21    2.83    0.29
 -21  15   3    3.22    0.19
 -21   3 -15    3.35    0.16
 -21   5  15    3.93    0.20
 -21   5  15    3.66    0.19
 -21  15  -5    3.84    0.20
 -21   5  15    3.86    0.17
  -5  21 -15    3.74    0.26
  -5  15  21    4.04    0.34
 -21  15  -5    4.15    0.18
 -15   5 -21    3.54    0.17
 -21   5 -15    3.80    0.18
 -21   5 -15    3.90    0.20
 -21  15   5    3.88    0.20
  -5  15 -21    4.13    0.27
 -21  -5  15    3.58    0.18
 -21  -5  15    3.78    0.16
 -15   5  21    4.17    0.21
  -5  15 -21    3.80    0.17
  -5  21  15    4.41    0.36
  15   5 -21    3.72    0.16
 -15  21  -5    3.91    0.28
 -21  15  -7    6.17    0.26
  -7  15  21    6.41    0.40
 -15   7 -21    5.66    0.23
 -21   7  15    6.01    0.25
 -15  21   7    5.68    0.26
 -21   7  15    5.98    0.24
 -21   7  15    5.61    0.22
 -21  15  -7    6.33    0.24
  -7  21 -15    5.68    0.33
  -7  15 -21    5.96    0.23
 -15  21  -7    6.25    0.33
  -7  15 -21    5.87    0.33
  -7  21  15    6.77    0.42
 -21  15   7    5.76    0.26
 -21   7 -15    6.01    0.26
 -21   7 -15    5.65    0.23
  15   7 -21    5.72    0.22
 -15   7  21    6.04    0.24
 -15   7  21    5.81    0.26
 -15   7  21    5.84    0.21
 -15  21   9    3.51    0.18
 -21  15  -9    3.88    0.19
  -9  21 -15    3.70    0.25
  -9  15  21    3.45    0.29
 -21  15  -9    3.79    0.17
 -21   9  15    3.52    0.17
 -21   9  15    3.47    0.18
 -21   9  15    3.38    0.15
 -15   9 -21    3.36    0.16
 -21   9 -15    3.55    0.19
  -9  15 -21    3.52    0.24
  -9  15 -21    3.53    0.16
 -15   9  21    3.55    0.19
 -21   9 -15    3.44    0.16
 -15  21  -9    3.45    0.25
 -21  15   9    3.45    0.18
  15   9 -21    3.48    0.14
 -15  21  11    2.84    0.15
 -21  15 -11    2.61    0.13
 -21  15 -11    2.71    0.16
 -11  21 -15    2.74    0.21
 -21  11  15    2.49    0.15
 -11  15  21    2.77    0.24
 -15  11 -21    2.51    0.13
 -15  11  21    2.34    0.15
 -11  15 -21    2.49    0.13
 -21  15  11    2.52    0.15
 -15  21 -11    2.60    0.21
 -21  11 -15    2.49    0.13
 -21  11 -15    2.52    0.16
 -11  15 -21    2.61    0.21
 -21  13  15    3.42    0.17
 -21  15 -13    3.94    0.16
 -15  13 -21    3.44    0.16
 -21  15 -13    3.96    0.18
 -21  13 -15    3.68    0.16
 -21  13 -15    3.64    0.18
 -15  13  21    3.51    0.17
 -13  15 -21    3.68    0.16
 -21  15  13    3.45    0.17
 -15  15 -21    3.63    0.15
 -21  15 -15    3.79    0.15
 -21   1  17    2.30    0.11
 -17  21   1    2.18    0.20
 -21   1  17    2.17    0.14
  -1  17  21    2.12    0.26
 -17  -1  21    2.05    0.14
 -17   1  21    2.02    0.14
 -21  -1  17    2.13    0.11
  17   1 -21    2.15    0.11
   1  17  21    2.03    0.26
 -21  -1  17    2.06    0.14
  -1  21  17    2.26    0.27
 -17  21  -1    2.24    0.20
  -1  17 -21    2.11    0.19
 -21   3  17    5.13    0.22
 -21   3  17    4.81    0.19
  -3  21 -17    4.53    0.27
  -3  17 -21    5.29    0.28
   3  17  21    4.65    0.34
 -21  -3  17    4.94    0.19
 -17   3  21    4.95    0.19
 -17  21  -3    4.41    0.28
 -17   3  21    5.05    0.22
 -21  -3  17    4.85    0.21
  -3  21  17    5.11    0.36
 -17   3  21    5.12    0.21
  17   3 -21    4.81    0.19
 -21   5  17    2.97    0.14
 -21   5  17    2.98    0.16
  -5  17  21    3.16    0.28
 -21  17  -5    3.43    0.15
 -21  17  -5    3.24    0.17
 -17   5 -21    3.02    0.15
  -5  21 -17    3.17    0.23
 -21   5  17    2.88    0.16
 -21   5 -17    3.01    0.17
 -17   5  21    3.16    0.15
 -21   5 -17    3.08    0.15
 -17  21  -5    3.19    0.23
  -5  21  17    3.21    0.29
 -17   5  21    3.12    0.17
  -5  17 -21    3.12    0.14
 -21  17   5    3.04    0.17
  -5  17 -21    3.13    0.23
 -21  -5  17    3.14    0.14
 -21  -5  17    3.43    0.16
 -17   5  21    3.07    0.13
  17   5 -21    3.02    0.13
 -21  17  -7    1.77    0.13
  -7  21 -17    1.72    0.18
 -21   7  17    1.75    0.12
 -21   7  17    1.92    0.13
  -7  17  21    1.88    0.23
 -21   7  17    1.79    0.10
 -17   7 -21    1.77    0.11
 -21  17  -7    1.96    0.11
 -21   7 -17    1.59    0.11
 -17   7  21    1.77    0.13
 -17  21  -7    1.89    0.18
 -21  -7  17    1.84    0.11
 -21  -7  17    1.56    0.09
  -7  17 -21    1.53    0.18
 -17   7  21    1.88    0.11
  17   7 -21    1.73    0.09
 -21  17   7    1.59    0.13
  -7  17 -21    1.75    0.11
  -7  21  17    1.80    0.24
 -17   7  21    1.83    0.09
 -21   7 -17    1.71    0.13
  -9  21 -17    2.57    0.21
 -17   9 -21    2.31    0.13
 -21   9  17    2.49    0.14
 -21   9  17    2.53    0.11
  -9  17  21    2.64    0.24
 -21  17  -9    2.81    0.15
 -21   9  17    2.43    0.13
 -21  17  -9    2.72    0.13
 -17  21   9    2.41    0.14
 -21   9 -17    2.39    0.13
  -9  17 -21    2.64    0.20
  -9  17 -21    2.65    0.12
 -21  17   9    2.45    0.14
 -21   9 -17    2.57    0.15
 -17   9  21    2.37    0.14
 -21  11  17    4.39    0.19
 -21  17 -11    4.36    0.17
 -21  17 -11    4.34    0.19
 -17  11 -21    4.09    0.17
 -21  11 -17    4.19    0.19
 -21  11 -17    4.21    0.17
 -21  17  11    3.97    0.18
 -11  17 -21    4.01    0.16
 -17  11  21    3.95    0.18
 -17  13 -21    1.37    0.09
 -21  13 -17    1.33    0.08
  -1  19  21    3.36    0.28
 -19  -1  21    2.95    0.16
 -21   1  19    3.16    0.14
 -21   1  19    3.05    0.16
 -19  -1  21    3.12    0.14
 -19   1  21    3.28    0.14
 -21  -1  19    3.20    0.14
 -19   1  21    3.23    0.15
  -1  21  19    3.40    0.28
 -21  -1  19    3.35    0.16
 -19   1  21    3.39    0.16
  -3  19  21    3.85    0.29
 -19  -3  21    3.78    0.15
 -21   3  19    3.73    0.15
 -21   3  19    3.95    0.17
 -19  -3  21    4.03    0.17
 -21  -3  19    3.45    0.17
 -19   3  21    3.65    0.17
 -19   3  21    3.75    0.18
 -21  -3  19    3.60    0.15
  -3  21  19    4.14    0.30
 -19   3  21    3.71    0.15
 -19  -5  21    3.28    0.15
 -21   5  19    3.12    0.13
 -19  -5  21    3.25    0.13
 -21   5  19    3.21    0.15
 -21   5  19    3.25    0.16
 -19   5 -21    3.35    0.14
 -21  -5  19    3.17    0.13
 -19   5  21    3.48    0.16
 -21  -5  19    3.09    0.15
 -19   5  21    3.45    0.15
 -19   5  21    3.19    0.13
 -21   5 -19    3.36    0.14
 -21   5 -19    3.14    0.16
 -19   7 -21    2.49    0.12
 -21   7  19    2.48    0.11
 -21   7  19    2.63    0.13
 -19  -7  21    2.57    0.11
 -19  -7  21    2.41    0.12
 -21   7 -19    2.54    0.12
 -21  -7  19    2.57    0.11
 -21   7 -19    2.66    0.14
 -21  -7  19    2.42    0.12
 -19   7  21    2.56    0.11
 -19   7  21    2.61    0.12
 -19   7  21    2.62    0.14
 -19   9 -21    3.06    0.13
 -21   9 -19    2.99    0.13
 -21  -1  21    2.98    0.13
 -21  -1  21    2.96    0.12
 -21   1  21    2.88    0.13
 -21   1  21    2.82    0.12
 -21  -3  21    1.32    0.07
 -21   3  21    1.26    0.09
 -21   3  21    1.32    0.07
 -22   0   0    5.02    0.23
 -22   0   0    4.85    0.20
   0   0 -22    5.05    0.30
   0   0 -22    4.71    0.20
 -22   0  -2    1.97    0.15
 -22   0  -2    1.78    0.12
 -22   0   2    1.55    0.14
 -22   0   2    1.65    0.11
   0  -2 -22    1.91    0.21
   0   2 -22    1.92    0.20
   0   2 -22    1.83    0.12
   2   0 -22    1.63    0.19
   2   0 -22    1.88    0.12
  -2   0 -22    1.79    0.20
  -2   0 -22    1.86    0.12
 -22   2   0    1.79    0.12
 -22   2   0    1.69    0.14
 -22   2  -2   46.05    1.48
 -22   2  -2   45.61    1.50
 -22  -2   2   48.59    1.50
 -22  -2   2   48.83    1.47
  -2   2 -22   47.59    1.48
   2  -2 -22   47.64    1.58
   2  -2 -22   45.44    1.47
   2   2 -22   48.90    1.48
 -22   2   2   47.77    1.51
 -22   2   2   49.62    1.48
  -2  -2 -22   47.66    1.58
  -2   2 -22   47.73    1.58
   2   2 -22   48.46    1.57
 -22   0  -4    1.29    0.12
 -22   0   4    1.20    0.12
 -22   0   4    1.26    0.10
   0  -4 -22    1.15    0.17
   0   4 -22    1.05    0.16
 -22   0  -4    1.15    0.10
   4   0 -22    1.25    0.10
 -22   4   0    1.34    0.10
  -4   0 -22    1.31    0.17
  -4   0 -22    1.24    0.10
   4   0 -22    1.26    0.17
   0   4 -22    1.29    0.10
 -22   4   0    1.20    0.12
  -2  -4 -22    1.63    0.20
   2   4 -22    2.23    0.21
   2   4 -22    2.33    0.14
 -22   4  -2    2.18    0.13
  -4   2 -22    2.08    0.21
 -22   2   4    2.19    0.16
   4  -2 -22    2.10    0.21
 -22   2   4    2.35    0.13
  -4   2 -22    2.40    0.13
  -2  22  -4    2.06    0.22
 -22   4  -2    2.11    0.16
   4  -2 -22    2.34    0.13
 -22   2  -4    2.16    0.13
  -2   4 -22    2.14    0.22
 -22   2  -4    2.30    0.16
 -22  -2   4    2.38    0.16
 -22  -2   4    2.55    0.13
   4   2 -22    2.06    0.20
   4   2 -22    2.43    0.14
  -4  -2 -22    2.26    0.22
 -22   4   2    2.28    0.13
  -2   4 -22    2.44    0.14
   2  -4 -22    2.11    0.21
 -22   4   2    2.15    0.16
  -4   4 -22    3.70    0.17
 -22   4  -4    3.79    0.21
 -22   4  -4    3.75    0.18
 -22   4   4    3.73    0.20
 -22   4   4    3.71    0.17
  -4  -4 -22    3.70    0.26
  -4   4 -22    3.67    0.26
   4   4 -22    3.68    0.24
   4   4 -22    3.72    0.17
  -4  22  -4    3.01    0.28
   4  -4 -22    3.66    0.25
   0  -6 -22    3.01    0.23
  -6   0 -22    2.51    0.23
   6   0 -22    2.54    0.22
   0   6 -22    3.10    0.23
 -22   0   6    2.73    0.17
 -22   0   6    2.79    0.14
   0   6 -22    2.78    0.15
 -22   6   0    2.75    0.18
 -22   6   0    2.72    0.15
   6   0 -22    2.83    0.14
  -2  -6 -22   41.45    1.39
 -22   2   6   41.33    1.29
 -22   6  -2   40.88    1.33
   2   6 -22   42.41    1.38
   2   6 -22   41.44    1.29
   6  -2 -22   41.64    1.38
 -22   2   6   41.74    1.32
  -6   2 -22   41.63    1.39
  -6   2 -22   41.00    1.29
 -22   6  -2   40.86    1.29
   6  -2 -22   42.38    1.28
 -22   6   2   42.83    1.29
   6   2 -22   41.91    1.29
 -22   2  -6   39.53    1.29
  -6  -2 -22   39.83    1.39
   6   2 -22   41.99    1.37
 -22  -2   6   42.78    1.29
  -2   6 -22   42.38    1.39
 -22   2  -6   39.75    1.32
  -2   6 -22   39.94    1.29
   2  -6 -22   42.59    1.39
 -22  -2   6   41.89    1.31
 -22   6   2   42.00    1.32
  -6   4 -22    1.18    0.10
  -4  -6 -22    1.29    0.18
 -22   4   6    1.16    0.12
 -22   4   6    1.04    0.09
  -4  22  -6    1.10    0.19
 -22   6  -4    0.92    0.09
 -22   6  -4    0.96    0.12
  -4   6  22    1.44    0.12
   4   6 -22    1.38    0.16
   6  -4 -22    1.00    0.16
  -6   4 -22    0.99    0.16
   4   6 -22    1.35    0.11
  -6  22  -4    0.97    0.19
  -6  -4 -22    0.99    0.16
 -22   4  -6    0.82    0.11
  -4   6 -22    1.16    0.17
 -22   6   4    0.84    0.09
 -22   6   4    0.94    0.11
  -4   6 -22    1.03    0.09
   6   4 -22    1.19    0.10
 -22   4  -6    0.98    0.09
 -22   6  -6   39.13    1.28
  -6  22  -6   41.01    1.40
   6   6 -22   40.34    1.24
 -22   6  -6   39.35    1.25
 -22   6   6   40.82    1.27
 -22   6   6   40.67    1.24
  -6  -6 -22   38.84    1.33
  -6   6 -22   39.48    1.24
  -6   6  22   38.32    1.26
   0   8 -22    2.79    0.22
   0   8 -22    2.85    0.16
 -22   8   0    3.08    0.19
 -22   8   0    3.06    0.16
  -8   0 -22    3.27    0.24
   8   0 -22    3.17    0.15
 -22   0   8    3.07    0.17
 -22   0   8    3.01    0.15
 -22   2   8    1.47    0.11
   2   8 -22    1.72    0.18
 -22   8  -2    1.53    0.14
 -22   2   8    1.51    0.13
 -22   8  -2    1.31    0.11
  -8   2 -22    1.63    0.19
   2   8 -22    1.37    0.11
  -2  22  -8    1.49    0.19
   8  -2 -22    1.57    0.11
  -8   2 -22    1.71    0.11
 -22  -2   8    1.36    0.12
 -22  -2   8    1.46    0.11
  -2   8 -22    1.57    0.12
 -22   2  -8    1.53    0.11
 -22   8   2    1.44    0.11
  -8  -2 -22    1.73    0.20
 -22   8   2    1.42    0.13
   8   2 -22    1.57    0.11
  -2   8 -22    1.58    0.19
 -22   2  -8    1.54    0.14
  -8   4 -22    1.29    0.17
   4   8 -22    1.29    0.16
 -22   4   8    1.04    0.11
 -22   4   8    1.11    0.09
   8  -4 -22    1.05    0.09
 -22   8  -4    1.43    0.11
 -22   8  -4    1.45    0.14
  -4   8  22    1.27    0.12
  -8   4 -22    1.04    0.10
   4   8 -22    1.23    0.10
  -4  22  -8    1.32    0.20
  -8   4  22    1.02    0.12
  -4   8 -22    1.31    0.11
 -22  -4   8    1.09    0.11
 -22   8   4    1.09    0.12
 -22   8   4    1.23    0.13
 -22   8   4    1.27    0.10
  -8  -4 -22    1.41    0.18
 -22  -4   8    1.18    0.09
 -22   4  -8    1.14    0.12
 -22   4  -8    1.23    0.10
  -8  22  -4    0.95    0.19
  -4   8 -22    1.15    0.17
   8   4 -22    1.21    0.10
 -22   8  -6    2.06    0.16
 -22   8  -6    1.86    0.13
  -8   6 -22    2.06    0.13
 -22   6   8    1.90    0.14
  -6  22  -8    1.76    0.23
   6   8 -22    1.85    0.12
  -8   6 -22    2.22    0.21
  -6   8  22    1.73    0.14
 -22   6   8    1.96    0.12
  -8  22  -6    1.77    0.24
 -22   6  -8    1.72    0.13
 -22   8   6    1.70    0.12
 -22   6  -8    1.81    0.15
   8   6 -22    1.94    0.12
  -8   6  22    2.01    0.15
 -22   8   6    2.00    0.14
 -22   8   6    1.92    0.15
  -6   8 -22    2.04    0.13
  -6   8 -22    2.26    0.22
   8   8 -22    2.08    0.12
 -22   8   8    2.04    0.15
 -22   8   8    2.09    0.12
  -8   8 -22    1.99    0.21
 -22   8  -8    2.23    0.14
  -8  22  -8    2.08    0.24
  -8   8 -22    2.25    0.14
 -22   8   8    2.12    0.15
  -8   8  22    2.00    0.15
 -22   8  -8    2.29    0.17
 -10   0 -22    0.80    0.14
 -22  10   0    0.65    0.11
 -22  10   0    0.73    0.09
 -10   0  22    0.75    0.10
   0  10 -22    0.81    0.15
   0  10 -22    0.78    0.09
  10   0 -22    0.75    0.08
 -22   0  10    0.67    0.08
 -22   0  10    0.75    0.10
 -22  10   0    0.75    0.11
 -22  10  -2   36.87    1.17
 -22   2  10   36.28    1.12
 -22  10  -2   37.00    1.13
 -10   2 -22   35.33    1.22
  10  -2 -22   36.20    1.12
 -22   2  10   36.81    1.15
   2  10 -22   36.00    1.21
  -2  10  22   34.28    1.32
  -2  22 -10   34.34    1.23
   2  10 -22   34.84    1.13
 -10   2 -22   36.31    1.13
  -2  10 -22   35.06    1.13
 -22  10   2   36.34    1.17
 -22  10   2   35.57    1.13
 -22  -2  10   35.33    1.14
  -2  22  10   37.39    1.38
 -22  10   2   35.58    1.15
 -22   2 -10   36.17    1.13
 -22   2 -10   35.67    1.16
  10   2 -22   36.49    1.12
 -10   2  22   37.01    1.16
  -2  10 -22   36.86    1.23
  10  -4 -22    2.41    0.13
   4  10 -22    2.59    0.14
 -10   4 -22    2.29    0.21
 -22  10  -4    2.35    0.17
  -4  22 -10    2.30    0.23
 -22  10  -4    2.40    0.14
 -22   4  10    2.43    0.16
 -22   4  10    2.38    0.13
 -10   4 -22    2.62    0.14
 -22  -4  10    2.45    0.13
 -22  -4  10    2.35    0.15
 -22  10   4    2.24    0.16
 -22  10   4    2.40    0.17
  -4  10 -22    2.62    0.14
 -10  22  -4    2.46    0.27
  -4  10 -22    2.75    0.24
 -22   4 -10    2.60    0.14
 -22   4 -10    2.64    0.17
 -22  10   4    2.18    0.13
  10   4 -22    2.37    0.13
 -10   4  22    2.46    0.17
 -10   6 -22   31.03    0.94
 -22  10  -6   30.29    0.97
 -22  10  -6   30.43    0.94
 -22   6  10   29.77    0.92
 -22   6  10   30.48    0.96
 -10   6 -22   27.80    1.02
  -6  10  22   27.38    0.94
   6  10 -22   29.37    0.93
 -22   6  10   29.02    0.95
  -6  22 -10   27.47    1.05
 -22  10   6   29.43    0.96
  10   6 -22   28.60    0.92
 -10   6  22   29.44    0.96
  -6  10 -22   30.43    0.94
  -6  10 -22   28.81    1.04
 -22  10   6   29.60    0.95
 -10  22  -6   28.94    1.08
 -22   6 -10   29.71    0.94
 -22   6 -10   28.41    0.97
 -22  10   6   30.06    0.92
  -8  22 -10    0.87    0.17
 -22  10  -8    0.84    0.09
 -10   8 -22    0.70    0.14
 -10   8 -22    0.81    0.09
   8  10 -22    0.84    0.08
 -22   8  10    0.65    0.09
 -22   8  10    0.62    0.07
 -22   8  10    0.80    0.11
 -22  10  -8    0.65    0.11
  -8  10  22    0.86    0.10
 -22   8 -10    0.68    0.11
  -8  10 -22    0.81    0.15
  -8  10 -22    0.81    0.09
 -22  10   8    0.79    0.10
 -10  22  -8    1.10    0.19
 -22  10   8    0.84    0.08
 -22   8 -10    0.89    0.09
 -22  10   8    0.86    0.11
  10   8 -22    0.80    0.08
 -10   8  22    0.88    0.11
 -22  10 -10   31.10    0.98
 -10  22 -10   29.22    1.06
  10  10 -22   29.09    0.92
 -22  10 -10   31.21    0.94
 -10  10 -22   29.38    0.94
 -22  10  10   29.08    0.92
 -10  10 -22   29.63    1.03
 -10  10  22   29.12    0.96
 -22  10  10   28.18    0.94
 -22  10  10   30.26    0.96
   0  12  22    1.00    0.20
 -22  12   0    1.23    0.12
   0  12 -22    1.37    0.17
   0  12 -22    1.48    0.11
  12   0 -22    1.19    0.09
 -22   0  12    1.20    0.11
 -22  12   0    1.12    0.10
   2  12 -22    1.67    0.17
 -22  12  -2    1.36    0.13
 -22  12  -2    1.33    0.11
 -22   2  12    1.30    0.10
   2  12 -22    1.44    0.11
  -2  22 -12    1.48    0.18
  -2  12  22    1.84    0.25
  12  -2 -22    1.71    0.10
 -22   2  12    1.28    0.12
 -12   2 -22    1.43    0.11
 -12  -2  22    1.59    0.13
 -22  12   2    1.40    0.10
 -22   2 -12    1.33    0.13
 -22  -2  12    1.47    0.12
  -2  12 -22    1.37    0.11
 -22   2 -12    1.33    0.10
  -2  22  12    1.59    0.26
  12   2 -22    1.47    0.10
 -22  12   2    1.26    0.12
 -12   2  22    1.29    0.13
 -22  12   2    1.25    0.13
  -2  12 -22    1.40    0.18
 -22  -2  12    1.39    0.10
 -12  22  -2    1.23    0.19
 -22  12  -4    1.84    0.15
  12  -4 -22    1.82    0.10
 -12  -4  22    1.54    0.13
  -4  22 -12    1.85    0.21
  -4  12  22    1.57    0.24
 -12   4 -22    1.36    0.11
 -22  12  -4    1.71    0.12
   4  12 -22    1.74    0.11
  -4  22  12    1.61    0.26
 -12  22  -4    1.34    0.21
 -22  12   4    1.84    0.14
 -22  -4  12    1.87    0.13
 -22  -4  12    1.83    0.11
 -22   4 -12    1.67    0.14
 -22  12   4    1.59    0.14
  -4  12 -22    1.84    0.21
  -4  12 -22    1.51    0.12
 -12   4  22    1.80    0.15
 -22  12   4    1.65    0.11
  12   4 -22    1.63    0.11
 -22   4 -12    1.68    0.12
 -22   6  12    1.00    0.11
  -6  22 -12    1.17    0.18
   6  12 -22    1.25    0.09
 -12   6 -22    1.15    0.10
 -22  12  -6    1.24    0.13
 -12   6 -22    0.79    0.14
 -12  -6  22    1.13    0.11
 -22  12  -6    1.28    0.10
  -6  12  22    1.45    0.23
 -22   6  12    1.22    0.09
 -22   6  12    1.18    0.11
 -22   6 -12    1.03    0.10
 -22  12   6    0.90    0.08
 -22  12   6    0.94    0.10
 -22   6 -12    1.07    0.12
 -22  12   6    0.99    0.11
 -12  22  -6    1.38    0.20
  -6  12 -22    1.18    0.10
 -12   6  22    1.24    0.13
  -6  12 -22    1.07    0.17
  12   6 -22    1.01    0.08
 -22   8  12    1.21    0.11
 -22   8  12    1.28    0.12
 -12   8 -22    1.02    0.15
 -22  12  -8    1.47    0.14
 -22  12  -8    1.26    0.10
 -12   8 -22    1.16    0.10
   8  12 -22    1.11    0.08
  -8  22 -12    1.11    0.18
 -22   8  12    1.28    0.09
 -22   8 -12    1.22    0.13
 -22  12   8    1.22    0.11
 -12   8  22    1.00    0.12
 -12  22  -8    1.05    0.18
 -22   8 -12    1.08    0.10
  -8  12 -22    1.32    0.18
 -22  12   8    1.17    0.12
 -22  12   8    1.19    0.09
  12   8 -22    1.22    0.09
  -8  12 -22    0.87    0.09
 -22  12 -10    1.24    0.13
 -12  10 -22    1.32    0.10
 -22  10  12    1.03    0.10
 -10  22 -12    1.26    0.18
 -22  10  12    1.18    0.09
 -12  10 -22    1.10    0.15
 -22  10  12    1.17    0.11
  10  12 -22    1.24    0.09
 -10  12  22    1.09    0.11
 -22  12 -10    1.25    0.10
 -22  10 -12    1.26    0.12
 -22  12  10    1.16    0.11
  12  10 -22    1.25    0.09
 -10  12 -22    1.01    0.16
 -10  12 -22    1.08    0.10
 -22  12  10    1.29    0.11
 -22  10 -12    1.12    0.10
 -12  10  22    1.21    0.11
 -12  22 -10    1.35    0.19
 -22  12  10    1.39    0.09
 -22  12 -12    1.12    0.12
 -12  22 -12    0.98    0.16
 -12  12  22    0.90    0.10
 -12  12 -22    1.11    0.15
 -12  12 -22    1.03    0.09
 -22  12 -12    1.25    0.10
 -22  12  12    1.10    0.11
 -14   0  22    2.15    0.15
  14   0 -22    2.26    0.12
 -22  14   0    2.29    0.15
 -22  14   0    1.98    0.12
   0  14 -22    2.32    0.13
 -22   0  14    2.21    0.14
 -22   0  14    2.26    0.12
   0  14  22    2.05    0.26
   0  14 -22    2.06    0.20
  14  -2 -22   25.78    0.82
 -22   2  14   25.68    0.82
  -2  22 -14   25.37    0.91
 -22   2  14   25.99    0.85
 -22  14  -2   26.31    0.83
 -14  -2  22   25.98    0.85
   2  14 -22   26.57    0.83
  -2  14  22   25.53    1.02
 -22  14  -2   25.98    0.85
 -22  -2  14   25.71    0.82
  14   2 -22   24.84    0.82
  -2  22  14   27.79    1.06
 -14  22  -2   25.77    0.95
 -22  -2  14   26.64    0.84
   2  14  22   24.61    0.99
  -2  14 -22   26.47    0.83
 -22  14   2   26.64    0.82
  -2  14 -22   27.67    0.93
 -22  14   2   26.51    0.85
 -14   2  22   26.45    0.86
  -4  14  22    0.69    0.18
 -22  14  -4    0.73    0.10
 -22  14  -4    0.42    0.07
 -14  -4  22    0.61    0.09
 -22   4  14    0.60    0.07
 -22   4  14    0.55    0.09
  14  -4 -22    0.55    0.06
 -14   4 -22    0.39    0.07
   4  14 -22    0.65    0.07
  -4  22 -14    0.61    0.14
 -22  14   4    0.44    0.08
 -22  -4  14    0.49    0.08
 -14   4  22    0.67    0.10
  -4  14 -22    0.77    0.15
  -4  22  14    0.70    0.20
 -22  -4  14    0.64    0.07
  14   4 -22    0.51    0.06
  -4  14 -22    0.70    0.08
 -14  22  -4    0.59    0.15
 -22  14   4    0.46    0.07
 -22   4 -14    0.57    0.10
 -22  14   4    0.49    0.09
 -22   4 -14    0.51    0.07
 -22   6  14   26.72    0.87
 -22  14  -6   28.34    0.86
 -22  14  -6   28.91    0.89
  -6  22 -14   27.15    0.96
  -6  14  22   27.52    1.04
 -14   6 -22   25.30    0.86
 -22   6  14   27.08    0.85
 -22   6  14   26.29    0.87
 -22  14   6   26.70    0.86
 -22  -6  14   26.58    0.84
 -22   6 -14   26.21    0.88
 -14  22  -6   26.77    0.96
  -6  14 -22   26.89    0.96
 -14   6  22   26.71    0.88
 -22  -6  14   26.37    0.86
 -22  14   6   26.70    0.84
 -22  14   6   26.91    0.88
 -14   6  22   27.24    0.86
  14   6 -22   26.38    0.84
  -6  14 -22   26.77    0.86
  -6  22  14   31.66    1.09
 -22   6 -14   26.36    0.86
 -22   8  14    1.53    0.12
 -22   8  14    1.39    0.12
 -22  14  -8    1.52    0.13
 -22  14  -8    1.43    0.11
 -22   8  14    1.54    0.10
 -14   8 -22    1.43    0.11
  -8  14  22    1.52    0.22
  -8  22 -14    1.70    0.19
 -14   8  22    1.37    0.12
  14   8 -22    1.48    0.09
 -22   8 -14    1.60    0.13
 -22   8 -14    1.44    0.11
 -14  22  -8    1.60    0.19
 -22  14   8    1.46    0.12
  -8  14 -22    1.43    0.10
  -8  14 -22    1.63    0.18
 -22  10  14   18.10    0.59
 -22  10  14   17.96    0.61
 -10  22 -14   18.15    0.68
 -22  14 -10   19.62    0.59
 -14  10 -22   17.59    0.59
 -22  14 -10   19.20    0.62
 -22  10  14   18.28    0.58
 -10  14  22   18.24    0.74
 -22  14  10   17.77    0.61
 -10  14 -22   17.79    0.67
  14  10 -22   17.86    0.57
 -22  10 -14   18.69    0.62
 -22  10 -14   18.72    0.59
 -14  10  22   17.61    0.61
 -10  14 -22   18.34    0.59
 -22  12  14    0.82    0.09
 -22  14 -12    0.74    0.07
 -12  14  22    0.72    0.08
 -22  14 -12    0.77    0.09
 -14  12 -22    0.53    0.07
 -12  14 -22    0.59    0.07
 -22  14  12    0.58    0.08
 -22  12 -14    0.65    0.07
 -14  12  22    0.61    0.08
 -22  12 -14    0.71    0.09
 -22  14 -14   20.61    0.65
 -14  14 -22   19.17    0.63
 -22  14 -14   20.06    0.63
   0  16 -22    1.01    0.14
  16   0 -22    0.99    0.08
 -22   0  16    1.04    0.10
 -22   0  16    1.07    0.08
 -16   0  22    1.07    0.11
   0  16  22    1.01    0.19
 -16  22   0    0.93    0.15
 -22  16  -2    1.17    0.11
  -2  16  22    1.19    0.21
 -16  -2  22    1.16    0.11
 -22  16  -2    1.20    0.09
 -22   2  16    1.03    0.08
 -22   2  16    1.08    0.10
 -16   2  22    1.02    0.11
  -2  16 -22    1.11    0.09
 -22  -2  16    1.20    0.11
  -2  22  16    1.12    0.21
  16   2 -22    0.95    0.08
  -2  16 -22    1.03    0.15
 -22  -2  16    1.02    0.08
 -16  22  -2    0.84    0.15
   2  16  22    1.01    0.19
 -16   4 -22    1.03    0.09
  -4  22 -16    1.08    0.15
 -22  16  -4    1.15    0.11
  -4  16  22    1.14    0.21
 -22  16  -4    1.09    0.09
 -22   4  16    1.34    0.09
 -22   4  16    1.24    0.10
  -4  16 -22    1.24    0.09
  -4  22  16    1.35    0.23
  16   4 -22    1.14    0.08
 -22   4 -16    1.13    0.11
 -22   4 -16    1.14    0.09
 -22  -4  16    1.10    0.10
 -16  22  -4    1.24    0.16
 -16   4  22    1.23    0.10
 -16   4  22    1.22    0.12
 -16   4  22    1.12    0.08
  -4  16 -22    1.54    0.17
 -22  -4  16    1.05    0.08
 -22  16  -6    0.96    0.08
  -6  16  22    0.67    0.16
 -16   6 -22    0.94    0.08
 -22   6  16    1.02    0.08
  -6  22 -16    1.13    0.15
 -22   6  16    0.84    0.09
 -22  16  -6    1.02    0.10
 -22   6  16    0.96    0.10
 -16   6  22    1.05    0.09
 -22  -6  16    1.04    0.09
 -22  16   6    0.79    0.10
 -16  22  -6    1.24    0.16
  -6  22  16    1.10    0.20
  16   6 -22    0.99    0.07
 -22   6 -16    0.83    0.10
  -6  16 -22    0.90    0.08
 -16   6  22    0.98    0.10
 -16   6  22    0.89    0.07
 -22   6 -16    0.98    0.08
  -6  16 -22    0.91    0.15
 -22  -6  16    0.90    0.07
 -22   8  16    1.05    0.09
 -22  16  -8    1.02    0.10
 -22  16  -8    1.00    0.08
  -8  16  22    0.96    0.17
 -16   8 -22    0.89    0.08
 -22   8  16    0.97    0.10
  -8  22 -16    1.10    0.15
 -22   8  16    0.88    0.07
 -16   8  22    0.90    0.10
 -22  16   8    0.95    0.10
  16   8 -22    0.74    0.06
 -16  22  -8    0.91    0.14
  -8  16 -22    0.73    0.14
  -8  16 -22    0.87    0.08
 -22   8 -16    0.98    0.10
 -22   8 -16    0.99    0.08
 -22  10  16    0.95    0.09
 -22  10  16    0.84    0.08
 -22  16 -10    0.90    0.09
 -22  16 -10    0.85    0.07
 -16  10 -22    0.90    0.08
 -22  10  16    0.81    0.06
 -22  10 -16    0.84    0.07
 -16  10  22    1.01    0.09
 -22  16  10    0.90    0.09
 -22  10 -16    0.84    0.09
 -10  16 -22    0.95    0.08
 -22  16 -12    0.98    0.07
 -16  12 -22    0.90    0.07
 -22  12 -16    0.97    0.09
 -22  12 -16    0.91    0.07
 -18   0  22    0.47    0.07
 -18   0  22    0.34    0.05
   0  18  22    0.56    0.15
 -18   0  22    0.35    0.07
 -22   0  18    0.35    0.07
 -22   0  18    0.37    0.05
 -18  -2  22   19.24    0.63
 -22   2  18   19.90    0.63
 -18  -2  22   19.77    0.61
 -22   2  18   19.46    0.61
 -22  -2  18   18.70    0.63
 -22  -2  18   19.39    0.61
 -18   2  22   19.45    0.63
 -18   2  22   19.06    0.63
 -18   2  22   19.20    0.61
 -22   4  18    1.26    0.08
 -18  -4  22    1.11    0.10
 -22   4  18    1.37    0.10
 -18   4  22    1.28    0.11
 -18   4  22    1.30    0.08
 -22  -4  18    1.29    0.08
 -18   4  22    1.43    0.10
 -22  -4  18    1.28    0.10
 -22   6  18   15.98    0.50
 -22   6  18   16.14    0.52
 -18   6 -22   15.57    0.51
 -18  -6  22   15.45    0.52
 -22  -6  18   15.48    0.50
 -22  -6  18   15.94    0.52
 -18   6  22   16.46    0.50
 -22   6 -18   16.00    0.51
 -18   6  22   16.52    0.52
 -18   6  22   15.67    0.53
 -22   6 -18   15.97    0.53
 -22   8  18    0.45    0.05
 -18   8 -22    0.46    0.06
 -18  -8  22    0.49    0.05
 -22   8 -18    0.46    0.06
 -22   8 -18    0.44    0.07
 -22   0  20    1.12    0.07
 -22   0  20    0.88    0.08
 -20   0  22    0.99    0.08
 -20   0  22    1.15    0.07
 -20  -2  22    0.68    0.07
 -20  -2  22    0.72    0.06
 -22   2  20    0.64    0.07
 -22   2  20    0.66    0.05
 -22  -2  20    0.83    0.07
 -22  -2  20    0.75    0.06
 -20   2  22    0.78    0.07
 -20   2  22    0.74    0.06
 -23  -1  -1    5.94    0.26
 -23  -1  -1    5.70    0.23
 -23  -1   1    6.01    0.26
 -23  -1   1    5.91    0.23
 -23   1  -1    5.69    0.26
 -23   1  -1    5.77    0.23
 -23   1   1    5.71    0.26
 -23   1   1    6.02    0.23
  -1  -1 -23    5.78    0.33
  -1  -1 -23    5.93    0.23
  -1   1 -23    5.29    0.32
  -1   1 -23    5.63    0.23
   1  -1 -23    6.08    0.33
   1  -1 -23    5.58    0.23
   1   1 -23    5.71    0.32
   1   1 -23    5.78    0.23
   1   3 -23    5.75    0.24
   3  -1 -23    6.24    0.33
   3  -1 -23    5.72    0.23
  -3   1 -23    6.60    0.34
 -23   1   3    5.99    0.27
 -23   1   3    6.34    0.24
  -1  -3 -23    6.00    0.33
  -3   1 -23    5.78    0.24
   1   3 -23    6.26    0.33
 -23   3  -1    6.16    0.27
 -23   3  -1    6.46    0.25
  -1   3 -23    6.27    0.24
 -23  -1   3    6.15    0.24
 -23  -1   3    6.25    0.27
   3   1 -23    5.76    0.32
  -1   3 -23    6.28    0.33
  -3  -1 -23    6.19    0.34
 -23   1  -3    5.93    0.24
   3   1 -23    5.89    0.24
 -23   3   1    5.93    0.27
 -23   3   1    6.12    0.24
 -23   1  -3    6.05    0.27
   1  -3 -23    5.71    0.33
  -3   3 -23    4.89    0.21
  -3   3 -23    5.34    0.30
 -23   3   3    4.95    0.21
  -3  -3 -23    4.57    0.29
 -23   3  -3    4.90    0.24
 -23   3  -3    4.56    0.20
 -23   3   3    4.82    0.23
   3   3 -23    4.99    0.21
   3   3 -23    4.43    0.28
   3  -3 -23    4.73    0.29
 -23   5  -1    5.77    0.24
 -23   1   5    6.05    0.26
 -23   1   5    5.85    0.23
  -1  -5 -23    5.98    0.33
   5  -1 -23    6.06    0.32
   5  -1 -23    5.77    0.23
 -23   5  -1    5.79    0.27
   1   5 -23    5.63    0.31
   1   5 -23    5.96    0.24
  -5   1 -23    5.53    0.32
  -5   1 -23    5.95    0.23
 -23   1  -5    6.07    0.24
   1  -5 -23    6.34    0.33
 -23   1  -5    5.94    0.26
  -5  -1 -23    5.95    0.33
  -1   5 -23    5.89    0.24
 -23   5   1    6.24    0.27
 -23  -1   5    5.89    0.23
 -23  -1   5    5.65    0.26
   5   1 -23    5.96    0.31
   5   1 -23    6.09    0.24
 -23   5   1    5.85    0.24
  -1   5 -23    5.77    0.32
   5  -3 -23    5.39    0.21
   3   5 -23    5.27    0.22
 -23   5  -3    5.26    0.22
  -5   3 -23    5.33    0.31
  -5   3 -23    5.61    0.22
  -3  23  -5    5.49    0.34
   5  -3 -23    5.51    0.30
  -3  -5 -23    5.65    0.31
 -23   3   5    5.43    0.25
 -23   5  -3    5.40    0.26
 -23   3   5    5.15    0.22
   3   5 -23    5.23    0.29
 -23   5   3    5.40    0.22
  -5  -3 -23    4.85    0.30
 -23   3  -5    5.63    0.25
 -23   3  -5    5.22    0.22
  -3   5 -23    5.50    0.31
 -23  -3   5    5.55    0.22
   5   3 -23    5.38    0.22
   3  -5 -23    5.48    0.31
 -23  -3   5    5.63    0.24
 -23   5   3    5.39    0.25
   5   3 -23    5.27    0.29
  -3   5 -23    5.23    0.22
  -5   5 -23    5.65    0.23
  -5  -5 -23    5.75    0.31
  -5  23  -5    4.95    0.34
 -23   5  -5    5.59    0.23
 -23   5   5    5.63    0.25
 -23   5   5    5.44    0.22
   5   5 -23    5.70    0.30
 -23   5  -5    5.55    0.26
  -5   5 -23    5.31    0.31
   5   5 -23    5.58    0.23
  -5   5  23    5.84    0.25
  -7   1 -23    4.71    0.28
 -23   1   7    4.37    0.19
  -7   1 -23    4.42    0.19
   1   7 -23    4.41    0.20
 -23   7  -1    4.67    0.23
 -23   1   7    4.66    0.22
   7  -1 -23    4.87    0.27
   7  -1 -23    4.58    0.19
   1   7 -23    5.16    0.28
 -23   7  -1    4.84    0.20
 -23   7   1    4.99    0.20
  -1   7 -23    4.98    0.29
  -1   7 -23    4.71    0.20
 -23   7   1    4.68    0.23
 -23   1  -7    4.02    0.22
   7   1 -23    4.33    0.19
 -23  -1   7    4.28    0.19
 -23  -1   7    4.48    0.22
 -23   1  -7    4.50    0.20
  -7  -1 -23    4.66    0.28
   7   1 -23    4.59    0.27
 -23   7  -3    5.10    0.25
 -23   7  -3    4.87    0.21
  -7   3 -23    5.14    0.21
  -3   7  23    5.15    0.23
   7  -3 -23    4.92    0.20
 -23   3   7    4.94    0.21
  -3  -7 -23    4.83    0.29
  -3  23  -7    5.00    0.31
   3   7 -23    4.68    0.27
  -7   3 -23    4.68    0.29
   3   7 -23    5.36    0.21
 -23   3   7    4.78    0.23
 -23   3  -7    5.14    0.24
  -3   7 -23    4.49    0.29
  -7  -3 -23    5.35    0.30
 -23  -3   7    5.02    0.23
 -23   7   3    5.08    0.24
 -23   7   3    4.93    0.21
 -23   3  -7    4.96    0.21
 -23  -3   7    5.31    0.20
   7   3 -23    4.95    0.21
  -3   7 -23    4.83    0.21
  -7   3  23    5.05    0.24
  -5  -7 -23    4.80    0.28
  -5   7  23    4.61    0.22
 -23   7  -5    5.10    0.24
 -23   5   7    4.56    0.23
   5   7 -23    5.01    0.21
 -23   7  -5    5.08    0.21
  -5  23  -7    5.17    0.32
  -7   5 -23    4.83    0.21
 -23   5   7    4.59    0.20
  -7   5 -23    4.49    0.28
 -23   5  -7    4.67    0.21
 -23   5  -7    4.65    0.24
  -7  23  -5    4.72    0.33
   7   5 -23    4.66    0.20
  -5   7 -23    4.94    0.30
  -5   7 -23    5.19    0.21
 -23   7   5    4.77    0.20
  -7  -5 -23    4.98    0.28
 -23   7   5    4.65    0.23
  -7   5  23    4.83    0.23
   7   7 -23    3.56    0.16
  -7  23  -7    3.78    0.29
 -23   7   7    3.20    0.16
  -7   7 -23    3.49    0.17
 -23   7  -7    3.53    0.20
 -23   7  -7    3.51    0.17
  -7   7  23    3.73    0.19
 -23   7   7    3.25    0.18
  -7   7 -23    3.71    0.25
   1   9 -23    5.13    0.22
 -23   1   9    5.09    0.21
   1   9 -23    5.61    0.30
  -9   1 -23    5.18    0.29
 -23   9  -1    5.50    0.25
 -23   1   9    4.93    0.23
 -23   9  -1    5.60    0.22
   9  -1 -23    5.27    0.21
 -23   9   1    5.27    0.22
 -23  -1   9    5.06    0.21
  -9  -1 -23    5.52    0.31
  -1   9 -23    5.23    0.22
  -9   1  23    5.07    0.24
 -23  -1   9    5.20    0.23
 -23   9   1    5.41    0.25
  -1   9 -23    4.98    0.30
   9   1 -23    5.33    0.21
  -3   9  23    5.00    0.36
  -3  23  -9    4.45    0.29
   3   9 -23    4.83    0.27
 -23   9  -3    4.82    0.21
 -23   9  -3    4.83    0.24
  -9   3 -23    4.90    0.20
  -9   3 -23    4.48    0.28
 -23   3   9    4.94    0.20
   9  -3 -23    4.76    0.19
   3   9 -23    4.93    0.21
  -9  23  -3    4.64    0.33
 -23  -3   9    4.98    0.20
 -23  -3   9    4.76    0.22
 -23   3  -9    4.93    0.21
 -23   9   3    4.39    0.23
  -9  -3 -23    4.80    0.28
   9   3 -23    4.87    0.20
  -3   9 -23    5.16    0.21
 -23   9   3    4.96    0.23
 -23   3  -9    4.73    0.23
  -9   3  23    4.97    0.24
 -23   9   3    4.56    0.20
  -3   9 -23    5.31    0.30
  -9   5 -23    4.93    0.21
  -5  23  -9    4.79    0.31
 -23   9  -5    4.87    0.21
  -9   5 -23    4.84    0.28
 -23   9  -5    5.00    0.24
 -23   5   9    4.83    0.22
   5   9 -23    4.97    0.20
 -23   5  -9    4.83    0.21
  -9   5  23    4.50    0.23
  -9  23  -5    5.00    0.34
   9   5 -23    5.01    0.20
 -23   9   5    4.96    0.20
 -23   9   5    4.78    0.23
 -23   5  -9    4.64    0.24
  -5   9 -23    4.97    0.30
  -5   9 -23    4.84    0.21
 -23   9   5    4.89    0.23
   7   9 -23    4.36    0.19
  -9   7 -23    4.59    0.28
  -7   9  23    4.33    0.21
 -23   7   9    4.78    0.19
  -7  23  -9    4.18    0.30
 -23   9  -7    4.73    0.23
  -9   7 -23    4.71    0.20
 -23   7   9    4.75    0.22
 -23   7   9    4.24    0.21
 -23   9  -7    4.67    0.20
 -23   9   7    4.41    0.21
 -23   9   7    4.61    0.22
 -23   9   7    4.12    0.18
  -7   9 -23    4.30    0.20
 -23   7  -9    4.85    0.23
  -9  23  -7    4.58    0.31
  -7   9 -23    4.65    0.29
  -9   7  23    4.42    0.22
 -23   7  -9    4.87    0.20
   9   7 -23    4.59    0.19
  -9   9 -23    3.97    0.26
  -9   9 -23    4.39    0.19
  -9   9  23    4.56    0.22
  -9  23  -9    4.90    0.31
 -23   9   9    4.48    0.18
 -23   9   9    4.39    0.21
 -23   9  -9    4.56    0.23
 -23   9  -9    4.34    0.20
   9   9 -23    4.51    0.18
 -23   9   9    4.36    0.20
  11  -1 -23    3.83    0.17
   1  11 -23    4.29    0.18
  -1  11  23    3.82    0.31
 -11  -1  23    3.84    0.21
 -23  11  -1    4.28    0.21
 -23   1  11    3.92    0.20
   1  11 -23    3.93    0.25
 -23   1  11    4.09    0.18
 -23  11  -1    4.32    0.18
 -23  -1  11    4.12    0.17
 -11   1  23    3.95    0.21
  -1  11 -23    4.50    0.27
  -1  11 -23    4.09    0.18
 -23  11   1    4.46    0.18
 -23  -1  11    3.92    0.20
 -23  11   1    4.04    0.21
  11   1 -23    4.22    0.17
 -23  11  -3    3.38    0.16
 -11  -3  23    3.18    0.18
  -3  11  23    2.95    0.29
 -11   3 -23    3.39    0.16
  -3  23 -11    3.09    0.24
 -23   3  11    3.15    0.18
 -23   3  11    3.49    0.15
  11  -3 -23    3.29    0.15
 -11   3 -23    3.06    0.22
 -23  11  -3    3.15    0.19
   3  11 -23    3.18    0.16
 -23  -3  11    3.53    0.17
 -23  11   3    3.20    0.15
 -23  11   3    3.00    0.19
 -23  11   3    3.35    0.18
  -3  11 -23    3.44    0.16
 -11   3  23    3.42    0.19
 -23   3 -11    3.29    0.19
 -23   3 -11    3.43    0.16
 -11  23  -3    3.88    0.29
 -23  -3  11    3.39    0.15
  11   3 -23    3.50    0.15
  -3  11 -23    3.54    0.25
   5  11 -23    3.99    0.17
 -23   5  11    4.04    0.19
 -11   5 -23    3.50    0.24
 -23  11  -5    4.14    0.21
 -23   5  11    3.70    0.17
  -5  23 -11    3.81    0.27
  11  -5 -23    3.62    0.15
  -5  11  23    3.82    0.32
 -23  11  -5    3.93    0.18
 -11   5 -23    3.97    0.18
 -23   5 -11    3.78    0.20
 -11   5  23    3.80    0.21
  -5  11 -23    3.92    0.18
  11   5 -23    3.81    0.17
  -5  11 -23    3.68    0.26
 -23  11   5    3.86    0.20
 -23  -5  11    3.83    0.18
 -23  11   5    3.47    0.17
 -23  11   5    4.06    0.19
 -23   5 -11    3.76    0.18
 -11  23  -5    4.00    0.29
 -23  -5  11    3.83    0.16
 -23  11  -7    3.47    0.20
 -23   7  11    3.46    0.18
 -11   7 -23    3.11    0.23
 -23   7  11    3.50    0.15
 -23  11  -7    3.77    0.17
 -23   7  11    3.33    0.18
  -7  23 -11    3.39    0.25
   7  11 -23    3.37    0.15
 -11   7 -23    3.57    0.17
  11   7 -23    3.60    0.15
  -7  11 -23    3.37    0.16
 -11  23  -7    2.97    0.26
 -23  11   7    3.23    0.17
 -23   7 -11    3.57    0.20
  -7  11 -23    3.47    0.25
 -23  11   7    3.31    0.15
 -11   7  23    3.38    0.19
 -23  11   7    3.70    0.19
 -23   7 -11    3.72    0.17
 -23   9  11    3.47    0.17
   9  11 -23    3.61    0.15
 -23   9  11    3.52    0.18
 -11   9 -23    3.26    0.23
  -9  11  23    3.30    0.18
 -23  11  -9    3.73    0.17
  -9  23 -11    3.62    0.26
 -23  11  -9    3.87    0.20
 -23   9  11    3.35    0.15
 -11   9 -23    3.67    0.17
  -9  11 -23    2.98    0.23
 -23  11   9    3.92    0.18
 -23  11   9    3.46    0.18
 -23  11   9    3.46    0.15
 -23   9 -11    3.45    0.17
 -11  23  -9    3.33    0.26
 -11   9  23    3.58    0.19
  11   9 -23    3.57    0.15
 -23   9 -11    3.88    0.20
  -9  11 -23    3.70    0.17
 -23  11  11    2.23    0.13
 -23  11  11    2.27    0.11
 -11  11 -23    2.35    0.13
 -11  11 -23    2.06    0.19
 -23  11 -11    2.36    0.15
 -11  23 -11    2.00    0.21
  11  11 -23    2.39    0.11
 -23  11 -11    2.57    0.13
 -23  11  11    2.51    0.14
 -11  11  23    2.16    0.14
 -23  13  -1    4.06    0.18
 -23  13  -1    4.44    0.21
 -13  -1  23    4.29    0.21
 -23   1  13    4.36    0.17
 -23   1  13    3.98    0.20
   1  13 -23    3.95    0.18
  -1  13  23    4.14    0.33
   1  13 -23    4.25    0.25
  13  -1 -23    3.96    0.17
  -1  13 -23    4.08    0.25
 -13   1  23    4.05    0.21
 -23  -1  13    4.02    0.17
 -13  23  -1    3.83    0.28
  13   1 -23    4.10    0.17
 -23  13   1    4.53    0.20
 -23  13   1    4.06    0.17
  -1  13 -23    4.03    0.18
 -23  -1  13    4.21    0.20
 -23  13  -3    4.55    0.22
 -13  -3  23    4.33    0.21
 -13   3 -23    3.91    0.18
  -3  23 -13    4.46    0.27
  13  -3 -23    4.47    0.17
 -23  13  -3    4.40    0.19
   3  13 -23    4.33    0.18
 -23   3  13    4.28    0.18
 -23   3  13    4.29    0.20
  -3  13  23    4.45    0.33
 -23  13   3    4.39    0.18
 -23  -3  13    4.43    0.18
  -3  13 -23    4.97    0.28
  13   3 -23    4.11    0.18
 -23  -3  13    4.90    0.20
  -3  13 -23    4.16    0.18
 -13   3  23    4.76    0.22
 -23  13   3    4.29    0.20
 -23  13   3    4.40    0.21
 -13  23  -3    4.21    0.29
 -23   3 -13    4.25    0.21
 -23   3 -13    4.14    0.18
 -23   5  13    4.19    0.17
 -13  -5  23    4.30    0.20
 -23  13  -5    3.79    0.18
 -23  13  -5    4.05    0.21
 -13   5 -23    3.90    0.18
 -23   5  13    4.19    0.19
  13  -5 -23    4.16    0.16
  -5  23 -13    3.72    0.26
  -5  13  23    4.54    0.33
   5  13 -23    4.18    0.17
 -23   5 -13    4.04    0.20
 -13   5  23    4.09    0.21
 -23  13   5    4.31    0.20
 -23  13   5    4.32    0.17
  -5  13 -23    4.32    0.27
  -5  13 -23    4.08    0.18
 -23  -5  13    4.02    0.17
 -23  -5  13    4.04    0.19
 -13  23  -5    3.97    0.28
 -23   5 -13    4.18    0.18
  13   5 -23    4.06    0.17
 -23  13   5    4.45    0.21
  -7  13  23    3.49    0.29
   7  13 -23    3.58    0.15
 -23   7  13    3.48    0.15
 -23   7  13    3.69    0.18
 -23  13  -7    3.52    0.19
 -23  13  -7    3.52    0.16
  -7  23 -13    3.32    0.24
 -23   7  13    3.44    0.17
 -13   7 -23    3.23    0.16
 -13   7  23    3.27    0.18
 -23  13   7    3.41    0.17
 -13  23  -7    3.25    0.25
  -7  13 -23    3.44    0.24
  -7  13 -23    3.40    0.16
 -23   7 -13    3.37    0.16
  13   7 -23    3.28    0.14
 -23   7 -13    3.71    0.19
 -23  13   7    3.51    0.15
 -23  13   7    3.40    0.18
 -23  13  -9    4.04    0.19
 -23   9  13    3.77    0.15
 -23   9  13    3.61    0.18
 -13   9 -23    3.64    0.17
  -9  23 -13    3.84    0.25
  -9  13  23    3.69    0.28
   9  13 -23    3.91    0.15
 -13   9 -23    3.36    0.22
 -23  13  -9    3.79    0.17
 -23   9  13    3.79    0.17
  13   9 -23    3.75    0.15
 -23   9 -13    3.91    0.17
 -23  13   9    3.61    0.15
  -9  13 -23    3.83    0.17
 -23  13   9    3.60    0.17
 -13   9  23    3.34    0.18
 -23   9 -13    3.78    0.19
 -23  13   9    3.62    0.18
 -13  23  -9    3.95    0.25
 -11  13  23    3.28    0.25
 -11  13  23    3.06    0.15
 -23  13 -11    3.33    0.15
 -13  11 -23    3.19    0.15
 -23  11  13    3.27    0.16
 -23  13 -11    3.23    0.17
 -23  11  13    3.02    0.15
 -23  11  13    3.23    0.13
  13  11 -23    3.06    0.13
 -23  11 -13    3.11    0.14
 -23  11 -13    3.20    0.17
 -11  13 -23    3.04    0.14
 -13  11  23    3.32    0.16
 -23  13  11    3.07    0.16
 -13  13 -23    2.97    0.13
 -23  13 -13    2.88    0.13
 -23  13 -13    2.98    0.15
 -23   1  15    2.79    0.13
 -15  23   1    2.93    0.22
 -23  15  -1    3.08    0.16
  15  -1 -23    2.79    0.13
 -23  15  -1    2.85    0.13
  -1  15  23    2.76    0.26
 -23   1  15    3.00    0.15
 -15  -1  23    2.85    0.16
   1  15 -23    2.93    0.13
 -15  23  -1    3.12    0.23
  -1  15 -23    2.59    0.13
 -23  -1  15    3.02    0.13
 -23  -1  15    3.00    0.15
  15   1 -23    2.91    0.13
 -23  15   1    2.80    0.13
 -23  15   1    2.92    0.15
  -1  15 -23    2.50    0.20
 -15   1  23    2.92    0.16
   1  15  23    2.83    0.26
 -23   3  15    3.14    0.13
  -3  15  23    2.88    0.27
  -3  23 -15    2.85    0.21
 -15  -3  23    3.08    0.16
 -23   3  15    2.90    0.15
   3  15 -23    2.75    0.13
 -23  15  -3    2.86    0.14
 -23  15  -3    2.95    0.16
  15   3 -23    2.93    0.13
 -15  23  -3    2.85    0.23
 -23  15   3    2.89    0.13
 -23  -3  15    2.93    0.15
 -15   3  23    2.85    0.16
 -23  15   3    2.98    0.15
 -23  -3  15    2.93    0.13
  -3  15 -23    2.79    0.14
  -3  15 -23    2.95    0.22
 -23  15  -5    3.06    0.14
 -23   5  15    3.00    0.13
 -23  15  -5    3.24    0.16
  -5  15  23    2.69    0.26
 -15   5 -23    2.70    0.14
  -5  23 -15    2.79    0.21
 -23   5  15    3.10    0.15
  -5  23  15    3.83    0.31
  -5  15 -23    2.81    0.14
 -23  -5  15    2.96    0.15
 -23   5 -15    2.93    0.14
 -15   5  23    2.85    0.16
 -15   5  23    3.01    0.13
 -23   5 -15    3.07    0.16
 -23  -5  15    3.06    0.13
 -15  23  -5    2.92    0.23
  -5  15 -23    3.29    0.22
 -23  15   5    2.81    0.16
  15   5 -23    2.99    0.13
 -15   5  23    3.02    0.15
  -7  15  23    2.30    0.22
  -7  23 -15    2.50    0.21
 -23  15  -7    2.47    0.14
 -23  15  -7    2.38    0.12
 -23   7  15    2.08    0.13
 -23   7  15    2.22    0.13
 -23   7  15    2.13    0.11
 -15   7 -23    2.12    0.12
 -23  15   7    2.09    0.14
  15   7 -23    2.21    0.10
  -7  15 -23    2.28    0.12
 -23   7 -15    2.26    0.14
 -23   7 -15    2.21    0.12
 -15   7  23    2.29    0.14
  -7  15 -23    2.23    0.19
 -15  23  -7    2.40    0.20
 -23   9  15    2.77    0.12
 -23  15  -9    3.11    0.13
 -23  15  -9    3.12    0.15
 -23   9  15    2.78    0.14
 -23   9  15    2.78    0.13
 -15   9 -23    2.63    0.13
 -15   9  23    2.47    0.14
  15   9 -23    2.67    0.11
  -9  15 -23    2.81    0.13
 -23  15   9    2.54    0.14
 -23   9 -15    2.54    0.15
 -23   9 -15    2.72    0.13
 -23  15 -11    2.23    0.13
 -15  11 -23    2.14    0.11
 -23  15 -11    2.08    0.11
 -23  11 -15    2.11    0.11
 -23  11 -15    1.92    0.13
 -11  15 -23    2.26    0.11
 -23   1  17    3.49    0.14
 -23   1  17    3.20    0.16
 -17  -1  23    3.72    0.17
 -23  -1  17    3.47    0.14
 -17   1  23    3.38    0.17
 -23  -1  17    3.21    0.16
 -17   1  23    3.32    0.14
 -17   1  23    3.31    0.16
 -23   3  17    3.04    0.15
 -23   3  17    2.78    0.13
 -17   3  23    3.12    0.15
 -23  -3  17    2.92    0.14
 -23  -3  17    2.94    0.13
 -17   3  23    3.07    0.14
 -17   3  23    3.06    0.12
 -17   5 -23    2.77    0.13
 -23   5  17    3.02    0.13
 -23  17  -5    3.11    0.13
 -23   5  17    3.11    0.14
 -23  17  -5    3.20    0.15
  -5  17 -23    3.21    0.13
 -23  -5  17    2.97    0.14
 -23  -5  17    3.02    0.12
 -23   5 -17    3.16    0.15
 -23   5 -17    3.15    0.13
 -17   5  23    2.92    0.14
 -17   5  23    2.91    0.12
 -17   5  23    3.00    0.15
 -23   7  17    3.18    0.12
 -17   7 -23    3.00    0.13
 -23   7  17    3.01    0.14
 -23   7 -17    3.02    0.13
 -23   7 -17    3.14    0.15
 -23   1  19    2.14    0.10
 -19  -1  23    2.31    0.10
 -23   1  19    2.08    0.11
 -19  -1  23    2.29    0.11
 -23  -1  19    2.15    0.10
 -19   1  23    2.25    0.10
 -19  -3  23    1.84    0.09
 -24   0   0   29.80    0.97
 -24   0   0   29.97    0.95
   0   0 -24   30.73    1.05
   0   0 -24   29.28    0.94
 -24   0  -2    1.97    0.15
 -24   0  -2    2.13    0.13
 -24   0   2    1.79    0.14
 -24   0   2    1.72    0.12
   0  -2 -24    1.88    0.20
   0   2 -24    1.84    0.20
   0   2 -24    1.93    0.12
   2   0 -24    1.72    0.20
   2   0 -24    1.93    0.12
  -2   0 -24    1.60    0.19
  -2   0 -24    1.98    0.12
 -24   2   0    1.71    0.15
 -24   2   0    1.83    0.12
 -24   2  -2    2.09    0.16
 -24   2  -2    1.93    0.13
   2  -2 -24    1.75    0.20
   2   2 -24    1.63    0.19
 -24   2   2    1.94    0.15
 -24   2   2    1.83    0.12
  -2   2 -24    1.96    0.21
  -2   2 -24    1.79    0.12
   2   2 -24    1.70    0.12
 -24   4   0   42.83    1.34
 -24   4   0   43.03    1.31
  -4   0 -24   40.78    1.40
  -4   0 -24   40.79    1.30
   4   0 -24   42.68    1.39
   4   0 -24   41.48    1.30
   0  -4 -24   40.85    1.40
   0   4 -24   41.50    1.39
 -24   0   4   42.91    1.30
 -24   0   4   42.71    1.33
   0   4 -24   41.67    1.30
   4  -2 -24    1.07    0.09
  -4   2 -24    1.17    0.09
  -2  24  -4    0.95    0.17
  -4   2 -24    1.35    0.17
 -24   4  -2    1.13    0.10
   2   4 -24    1.08    0.16
 -24   2   4    1.07    0.11
 -24   2   4    1.07    0.09
   4  -2 -24    1.46    0.18
 -24   4  -2    0.96    0.12
  -2  -4 -24    1.28    0.18
   2   4 -24    1.20    0.10
 -24   2  -4    1.09    0.12
 -24   2  -4    1.01    0.09
  -4  -2 -24    1.12    0.17
  -2   4 -24    1.26    0.17
 -24   4   2    0.96    0.11
 -24   4   2    0.86    0.09
 -24  -2   4    1.24    0.12
 -24  -2   4    1.25    0.10
   2  -4 -24    1.02    0.16
   4   2 -24    1.07    0.16
   4   2 -24    1.15    0.09
  -2   4 -24    1.15    0.10
  -4  -4 -24   26.57    0.96
 -24   4   4   27.51    0.86
  -4   4 -24   27.40    0.86
  -4  24  -4   25.00    0.98
   4  -4 -24   27.89    0.95
   4   4 -24   27.74    0.95
 -24   4  -4   27.00    0.90
   4   4 -24   27.07    0.86
 -24   4  -4   27.22    0.87
 -24   4   4   27.38    0.89
  -4   4 -24   27.22    0.96
   0   6 -24    1.08    0.16
   0  -6 -24    0.65    0.14
   6   0 -24    0.82    0.14
   6   0 -24    0.85    0.08
 -24   6   0    0.48    0.10
 -24   6   0    0.61    0.08
  -6   0 -24    0.85    0.15
 -24   0   6    0.63    0.10
 -24   0   6    0.52    0.07
   0   6 -24    0.91    0.09
  -6   2 -24    2.00    0.12
 -24   2   6    1.77    0.12
   6  -2 -24    1.57    0.18
 -24   6  -2    1.98    0.13
  -2  24  -6    1.44    0.19
 -24   6  -2    2.23    0.16
   2   6 -24    1.86    0.12
 -24   2   6    1.90    0.14
  -6   2 -24    1.82    0.19
  -2  -6 -24    1.92    0.20
   6  -2 -24    1.85    0.11
   2   6 -24    2.13    0.20
  -6  -2 -24    1.99    0.20
 -24   2  -6    1.77    0.12
  -2   6 -24    1.89    0.20
 -24   6   2    1.95    0.12
  -2   6 -24    1.72    0.12
 -24  -2   6    1.83    0.12
 -24   2  -6    1.92    0.15
   6   2 -24    2.13    0.19
 -24   6   2    2.02    0.15
   6   2 -24    1.92    0.12
 -24  -2   6    1.96    0.14
  -4   6  24    2.25    0.15
  -6   4 -24    2.15    0.20
 -24   6  -4    1.67    0.15
  -4  24  -6    1.85    0.22
  -6   4 -24    2.25    0.13
 -24   6  -4    2.04    0.13
 -24   4   6    1.95    0.12
   4   6 -24    2.32    0.20
  -4  -6 -24    2.19    0.20
   4   6 -24    1.90    0.13
 -24   4   6    1.92    0.15
 -24   4  -6    2.34    0.16
  -4   6 -24    2.08    0.13
  -4   6 -24    2.24    0.21
  -6  -4 -24    2.16    0.20
 -24   6   4    1.98    0.12
   6   4 -24    2.14    0.13
 -24   4  -6    1.97    0.13
  -6  24  -4    1.79    0.22
  -6   4  24    2.31    0.15
 -24   6   4    2.04    0.15
  -6   6  24    1.00    0.11
   6   6 -24    1.00    0.09
  -6   6 -24    1.02    0.16
  -6   6 -24    0.93    0.09
 -24   6   6    1.16    0.12
 -24   6   6    0.96    0.09
  -6  -6 -24    1.17    0.16
  -6  24  -6    0.93    0.17
 -24   6  -6    0.79    0.11
 -24   6  -6    0.97    0.09
 -24   8   0   26.71    0.84
 -24   0   8   26.11    0.83
   8   0 -24   26.02    0.83
 -24   8   0   26.65    0.87
   0   8 -24   27.10    0.93
  -8   0 -24   26.90    0.93
   0   8 -24   25.39    0.84
 -24   0   8   26.30    0.86
   2   8 -24    1.44    0.17
 -24   2   8    1.26    0.10
 -24   2   8    1.32    0.12
 -24   8  -2    1.31    0.11
   8  -2 -24    1.46    0.10
 -24   8  -2    1.43    0.14
  -8   2 -24    1.41    0.17
   2   8 -24    1.54    0.11
  -8   2 -24    1.47    0.10
  -8  24  -2    1.50    0.21
 -24  -2   8    1.31    0.12
 -24   2  -8    1.43    0.11
 -24   8   2    1.17    0.10
  -2   8 -24    1.91    0.20
   8   2 -24    1.59    0.11
  -8   2  24    1.33    0.13
 -24  -2   8    1.56    0.10
 -24   2  -8    1.55    0.13
 -24   8   2    1.15    0.12
  -2   8 -24    1.69    0.11
  -8  -2 -24    1.58    0.18
  -8   4 -24   32.56    1.09
 -24   4   8   30.64    1.00
   4   8 -24   31.55    1.00
 -24   8  -4   32.88    1.01
   8  -4 -24   32.28    0.99
  -8   4 -24   31.26    1.00
  -4  24  -8   30.14    1.11
 -24   4   8   31.39    1.02
 -24   8  -4   33.48    1.04
  -8   4  24   32.88    1.03
  -8  24  -4   30.18    1.14
 -24   8   4   31.02    1.02
 -24   4  -8   31.67    1.03
   8   4 -24   31.82    1.00
  -4   8 -24   32.70    1.10
  -4   8 -24   32.67    1.01
 -24   4  -8   32.20    1.00
  -8  -4 -24   32.00    1.08
 -24   8   4   31.80    1.00
  -8   6 -24    0.90    0.15
 -24   6   8    0.74    0.10
 -24   8  -6    0.65    0.08
  -6   8  24    0.79    0.10
 -24   8  -6    0.64    0.11
   6   8 -24    0.83    0.08
 -24   6   8    0.80    0.08
  -6  24  -8    0.92    0.17
  -8   6 -24    0.76    0.08
  -8   6  24    0.87    0.11
 -24   6  -8    0.67    0.08
  -6   8 -24    0.81    0.15
  -8  24  -6    0.60    0.16
 -24   6  -8    0.69    0.11
 -24   8   6    0.61    0.07
   8   6 -24    0.92    0.08
  -6   8 -24    0.89    0.09
 -24   8   6    0.62    0.09
  -8   8 -24   21.45    0.83
  -8   8 -24   22.85    0.76
  -8  24  -8   23.55    0.87
 -24   8   8   23.66    0.75
 -24   8   8   23.21    0.77
 -24   8  -8   25.70    0.79
 -24   8  -8   24.59    0.76
  -8   8  24   24.13    0.78
   8   8 -24   23.25    0.75
 -24   0  10    2.21    0.14
   0  10 -24    2.30    0.13
 -24  10   0    2.13    0.16
   0  10 -24    1.98    0.19
 -10   0  24    2.62    0.16
 -24   0  10    2.29    0.12
  10   0 -24    2.55    0.13
 -24  10   0    2.25    0.13
 -10   0 -24    2.35    0.20
 -10   2 -24    1.20    0.16
 -24  10  -2    1.32    0.13
 -10   2 -24    1.23    0.09
 -24  10  -2    1.18    0.10
 -10  -2  24    1.05    0.11
   2  10 -24    1.26    0.15
   2  10 -24    1.06    0.09
 -24   2  10    0.99    0.09
  10  -2 -24    1.11    0.08
 -24   2  10    1.11    0.11
 -24  10   2    1.16    0.12
 -24  -2  10    1.35    0.09
  -2  10 -24    1.22    0.10
 -24   2 -10    1.03    0.11
 -24  10   2    1.15    0.09
  10   2 -24    1.08    0.09
 -10  24  -2    1.04    0.18
 -24   2 -10    1.11    0.09
 -24  -2  10    1.28    0.11
  -2  10 -24    1.41    0.18
 -10   2  24    1.12    0.12
 -24  10  -4    0.36    0.09
  -4  10  24    0.56    0.17
 -24  10  -4    0.48    0.07
 -24   4  10    0.41    0.08
 -10   4 -24    0.55    0.07
   4  10 -24    0.47    0.07
  -4  24 -10    0.55    0.14
 -10   4 -24    0.41    0.12
  10  -4 -24    0.51    0.06
 -24   4  10    0.42    0.07
 -24   4 -10    0.60    0.08
  10   4 -24    0.48    0.07
  -4  10 -24    0.65    0.14
 -10   4  24    0.58    0.10
 -10  24  -4    0.40    0.15
 -24  10   4    0.53    0.07
 -24  -4  10    0.44    0.06
 -24   4 -10    0.32    0.09
 -24  10   4    0.54    0.09
  -4  10 -24    0.65    0.08
 -24  -4  10    0.40    0.08
 -24  10   4    0.43    0.09
 -24   6  10    1.87    0.11
 -24  10  -6    1.95    0.12
 -24   6  10    2.06    0.14
 -10   6 -24    1.70    0.18
  -6  24 -10    1.57    0.19
  -6  10  24    1.49    0.22
 -24  10  -6    2.12    0.15
   6  10 -24    1.98    0.11
 -10   6 -24    1.80    0.12
 -10   6  24    1.78    0.14
  -6  10 -24    2.07    0.20
 -24  10   6    1.78    0.14
  -6  10 -24    1.80    0.12
 -24   6 -10    1.98    0.15
 -24  10   6    1.79    0.11
 -10  24  -6    1.70    0.21
  10   6 -24    2.17    0.11
 -24  10   6    1.89    0.14
 -24   6 -10    1.98    0.12
 -10   8 -24    1.65    0.17
 -24  10  -8    1.86    0.12
  -8  24 -10    1.57    0.19
 -24   8  10    1.67    0.12
 -24   8  10    1.47    0.10
  -8  10  24    1.31    0.11
   8  10 -24    1.75    0.10
 -10   8 -24    1.81    0.11
 -24   8  10    1.43    0.12
 -24  10  -8    1.69    0.14
 -10   8  24    1.51    0.13
  10   8 -24    1.59    0.10
  -8  10 -24    1.55    0.18
 -10  24  -8    1.35    0.18
 -24  10   8    1.64    0.10
 -24   8 -10    1.56    0.11
 -24  10   8    1.76    0.12
 -24  10   8    1.55    0.12
  -8  10 -24    1.74    0.11
 -24   8 -10    1.92    0.15
 -24  10  10    0.55    0.06
 -10  24 -10    0.60    0.14
  10  10 -24    0.70    0.07
 -24  10  10    0.48    0.08
 -24  10 -10    0.52    0.07
 -10  10 -24    0.56    0.12
 -24  10  10    0.44    0.08
 -24  10 -10    0.57    0.09
 -10  10  24    0.62    0.09
 -10  10 -24    0.54    0.07
 -24   0  12   25.44    0.80
 -24  12   0   25.26    0.80
 -24  12   0   25.28    0.83
 -24   0  12   25.94    0.82
 -12   0  24   24.72    0.83
   0  12 -24   25.46    0.88
  12   0 -24   25.42    0.80
   0  12 -24   25.53    0.81
 -12  -2  24    1.04    0.11
 -24   2  12    0.85    0.09
  12  -2 -24    1.08    0.08
 -24  12  -2    1.09    0.11
  -2  12  24    1.12    0.20
 -24  12  -2    0.99    0.09
 -24   2  12    0.96    0.08
   2  12 -24    0.87    0.08
 -24  -2  12    1.06    0.10
  12   2 -24    1.04    0.08
 -24  12   2    0.98    0.08
  -2  12 -24    1.19    0.16
 -24  12   2    0.98    0.10
 -12  24  -2    0.96    0.17
 -24  -2  12    1.00    0.08
 -12   2  24    1.06    0.11
  -2  12 -24    0.99    0.09
 -12   4 -24   21.08    0.71
 -24  12  -4   22.82    0.74
 -24  12  -4   22.69    0.71
  -4  12  24   23.13    0.88
  12  -4 -24   21.58    0.69
   4  12 -24   21.58    0.71
 -12  -4  24   22.63    0.73
 -24   4  12   22.16    0.73
 -24   4  12   22.48    0.70
  -4  24 -12   21.32    0.79
 -24   4 -12   22.82    0.74
 -24  -4  12   22.70    0.72
 -24  -4  12   23.07    0.70
  12   4 -24   22.74    0.70
  -4  12 -24   21.93    0.80
 -24  12   4   21.87    0.73
 -24  12   4   22.04    0.70
 -24   4 -12   23.04    0.71
 -24  12   4   22.35    0.73
 -12  24  -4   20.71    0.81
  -4  12 -24   21.78    0.71
 -12   4  24   22.62    0.74
 -24   6  12    1.10    0.08
  -6  24 -12    1.19    0.16
 -12   6 -24    0.97    0.14
 -12  -6  24    1.25    0.11
 -12   6 -24    1.02    0.09
 -24  12  -6    1.06    0.09
   6  12 -24    1.16    0.08
  -6  12  24    1.34    0.20
 -24   6  12    0.98    0.10
 -24  12  -6    0.98    0.11
  12   6 -24    1.20    0.08
 -24  12   6    1.07    0.10
 -24  12   6    1.15    0.11
 -12  24  -6    1.03    0.17
  -6  12 -24    1.21    0.16
  -6  12 -24    1.03    0.09
 -24   6 -12    1.14    0.09
 -24   6 -12    1.05    0.11
 -12   6  24    0.92    0.10
 -24  12   6    0.88    0.08
 -24   8  12   21.26    0.69
  -8  12  24   22.03    0.83
   8  12 -24   21.50    0.67
 -12   8 -24   19.63    0.74
 -24   8  12   21.07    0.67
 -24  12  -8   22.45    0.71
 -24  12  -8   22.36    0.68
 -12   8 -24   20.44    0.68
 -24   8  12   20.48    0.69
  -8  24 -12   21.12    0.77
 -24   8 -12   22.27    0.71
 -12   8  24   21.53    0.70
 -24   8 -12   22.02    0.68
  12   8 -24   20.89    0.67
 -24  12   8   21.09    0.67
 -12  24  -8   20.91    0.77
  -8  12 -24   20.66    0.75
  -8  12 -24   21.61    0.68
 -24  12   8   20.89    0.69
 -24  12   8   20.89    0.70
 -24  10  12    0.70    0.08
  10  12 -24    0.81    0.06
 -24  10  12    0.68    0.06
 -12  10 -24    0.65    0.07
 -24  10  12    0.66    0.08
 -10  24 -12    0.78    0.13
 -24  12 -10    0.75    0.09
 -24  12 -10    0.77    0.08
 -10  12  24    0.79    0.09
 -10  12 -24    0.72    0.07
 -24  10 -12    0.66    0.09
 -24  10 -12    0.65    0.07
 -12  10  24    0.69    0.08
 -24  12  10    0.72    0.09
 -24  12  10    0.59    0.06
  12  10 -24    0.73    0.06
 -24  12  10    0.69    0.08
 -24  12 -12   17.14    0.53
 -24  12 -12   16.79    0.55
 -12  12 -24   15.77    0.53
 -24  14   0    0.35    0.06
 -14  24   0    0.39    0.13
   0  14 -24    0.33    0.11
  14   0 -24    0.35    0.05
 -24   0  14    0.33    0.05
 -24   0  14    0.37    0.07
   0  14 -24    0.41    0.06
 -14   0  24    0.35    0.08
 -24  14   0    0.31    0.08
 -14  -2  24    1.02    0.10
 -24  14  -2    1.42    0.12
   2  14 -24    1.21    0.09
  -2  14  24    1.47    0.21
 -24   2  14    1.24    0.09
 -24  14  -2    1.27    0.09
  14  -2 -24    1.30    0.08
 -24   2  14    1.26    0.10
 -14   2  24    1.11    0.11
 -24  14   2    1.23    0.10
 -14  24  -2    1.15    0.16
  -2  14 -24    1.08    0.08
 -24  14   2    1.25    0.09
 -24  -2  14    1.27    0.09
 -24  -2  14    1.22    0.10
  -2  14 -24    1.55    0.16
  14   2 -24    1.30    0.09
   4  14 -24    1.72    0.10
  -4  24 -14    1.67    0.17
 -24   4  14    1.64    0.12
 -24  14  -4    1.77    0.13
 -24  14  -4    1.68    0.10
 -24   4  14    1.71    0.10
  -4  14  24    1.62    0.21
 -14  -4  24    1.81    0.13
 -14   4 -24    1.70    0.10
 -24   4 -14    1.84    0.13
 -24  14   4    1.93    0.10
 -24  -4  14    1.66    0.11
  -4  14 -24    1.78    0.10
 -24   4 -14    1.78    0.10
 -24  14   4    1.77    0.12
 -14   4  24    1.72    0.13
  14   4 -24    1.65    0.09
 -24  -4  14    1.71    0.09
 -14  24  -4    1.76    0.18
  -4  14 -24    2.08    0.19
 -24  14  -6    0.62    0.09
 -24   6  14    0.61    0.08
 -24  14  -6    0.72    0.07
 -14   6 -24    0.44    0.06
 -24   6  14    0.52    0.06
   6  14 -24    0.56    0.06
  -6  14  24    0.60    0.15
 -24   6 -14    0.60    0.08
  -6  14 -24    0.75    0.13
 -24  14   6    0.62    0.06
 -14  24  -6    0.57    0.13
 -24   6 -14    0.68    0.07
  -6  14 -24    0.55    0.06
 -24  14   6    0.62    0.08
 -24  14   6    0.68    0.09
 -14   6  24    0.60    0.09
  14   6 -24    0.57    0.06
 -24  14  -8    0.35    0.07
 -24   8  14    0.49    0.07
 -14   8 -24    0.42    0.06
 -24   8  14    0.47    0.05
 -24  14  -8    0.47    0.06
 -24  14   8    0.42    0.07
 -14   8  24    0.45    0.08
  -8  14 -24    0.50    0.06
 -24   8 -14    0.58    0.08
 -24   8 -14    0.45    0.06
  14   8 -24    0.53    0.05
 -24  10  14    1.56    0.08
 -14  10 -24    1.45    0.09
 -24  14 -10    1.50    0.09
 -24  14 -10    1.62    0.11
 -24  10 -14    1.44    0.11
 -24  10 -14    1.52    0.09
 -10  14 -24    1.51    0.09
 -24   0  16   18.39    0.60
 -24  16   0   18.26    0.58
 -24   0  16   18.47    0.58
 -24  16   0   18.38    0.60
 -16   0  24   18.75    0.61
 -24   2  16    0.64    0.06
 -24  16  -2    0.68    0.06
 -24   2  16    0.86    0.08
 -24  16  -2    0.68    0.08
 -24  -2  16    0.77    0.08
 -16   2  24    0.83    0.06
 -16   2  24    0.85    0.09
  -2  16 -24    0.78    0.07
 -24  -2  16    0.81    0.06
 -16   2  24    0.81    0.08
 -24   4  16   16.77    0.54
 -24  16  -4   17.17    0.52
 -24  16  -4   16.60    0.54
 -24   4  16   16.55    0.52
 -24  -4  16   16.34    0.52
 -16   4  24   15.86    0.53
 -24  -4  16   16.33    0.53
  -4  16 -24   16.57    0.52
  16   4 -24   16.29    0.52
 -16   4  24   15.95    0.52
 -16   4  24   17.00    0.55
 -16   6 -24    0.66    0.06
 -24   6  16    0.80    0.06
 -24   6  16    0.91    0.08
 -24  16  -6    0.92    0.07
 -24  16  -6    0.86    0.08
 -24   6 -16    0.75    0.07
  -6  16 -24    0.84    0.07
  16   6 -24    0.79    0.06
 -18   0  24    1.47    0.08
 -25  -1   1    3.66    0.19
 -25  -1   1    3.76    0.17
 -25   1  -1    3.64    0.20
 -25   1  -1    3.62    0.17
 -25   1   1    3.53    0.20
 -25   1   1    3.65    0.17
  -1  -1 -25    3.67    0.25
  -1   1 -25    3.43    0.25
  -1   1 -25    3.54    0.16
   1  -1 -25    3.43    0.25
   1  -1 -25    3.49    0.16
   1   1 -25    3.53    0.25
   1   1 -25    3.55    0.16
 -25   3  -1    6.55    0.28
  -3   1 -25    6.53    0.24
   3  -1 -25    6.29    0.33
   3  -1 -25    6.05    0.24
 -25   1   3    6.61    0.27
 -25   1   3    6.34    0.24
  -1  -3 -25    6.61    0.34
 -25   3  -1    6.21    0.25
   1   3 -25    6.23    0.24
  -3   1 -25    6.53    0.34
   1   3 -25    6.11    0.33
  -1   3 -25    6.39    0.24
 -25  -1   3    6.43    0.24
   1  -3 -25    6.55    0.33
 -25   1  -3    6.30    0.25
   3   1 -25    6.00    0.33
   3   1 -25    6.60    0.24
  -3  -1 -25    5.78    0.33
 -25   1  -3    6.26    0.27
 -25  -1   3    6.02    0.27
  -1   3 -25    6.57    0.33
 -25   3   1    6.59    0.28
 -25   3   1    6.60    0.25
 -25   3  -3    2.75    0.17
 -25   3  -3    2.74    0.15
   3  -3 -25    2.99    0.22
   3   3 -25    2.84    0.22
   3   3 -25    2.75    0.14
  -3  25  -3    2.41    0.24
 -25   3   3    2.69    0.17
 -25   3   3    2.79    0.14
  -3  -3 -25    3.20    0.24
  -3   3 -25    2.90    0.23
  -3   3 -25    2.89    0.14
   1   5 -25    4.37    0.27
   1   5 -25    4.66    0.19
 -25   5  -1    4.70    0.22
 -25   5  -1    4.54    0.19
 -25   1   5    4.37    0.19
  -1  -5 -25    4.79    0.28
  -5   1 -25    4.36    0.18
   5  -1 -25    4.59    0.27
  -5   1 -25    4.45    0.28
 -25   1   5    4.30    0.21
   5  -1 -25    4.47    0.18
 -25   1  -5    4.69    0.22
 -25   5   1    4.46    0.19
  -5  -1 -25    4.82    0.28
 -25   1  -5    4.46    0.19
  -1   5 -25    4.42    0.27
  -1   5 -25    4.21    0.19
 -25   5   1    4.23    0.22
   5   1 -25    3.94    0.26
 -25  -1   5    4.46    0.19
 -25  -1   5    4.16    0.21
   5   1 -25    4.38    0.18
 -25   3   5    3.68    0.19
  -3  -5 -25    3.74    0.24
 -25   5  -3    3.92    0.20
   3   5 -25    3.40    0.24
  -3   5  25    3.62    0.18
  -3  25  -5    3.30    0.25
 -25   5  -3    3.61    0.17
   3   5 -25    3.60    0.17
  -5   3 -25    3.71    0.25
  -5   3 -25    3.40    0.16
 -25   3   5    3.38    0.16
  -5  25  -3    3.69    0.28
  -5   3  25    3.63    0.19
   5   3 -25    3.73    0.17
  -3   5 -25    3.65    0.17
  -5  -3 -25    3.83    0.25
 -25   5   3    3.59    0.19
 -25   5   3    3.92    0.17
 -25   3  -5    3.69    0.20
 -25   3  -5    3.61    0.17
  -3   5 -25    3.34    0.25
   5   3 -25    4.02    0.24
 -25   5  -5    3.56    0.17
 -25   5   5    3.22    0.18
 -25   5   5    3.82    0.16
 -25   5  -5    3.73    0.20
  -5  -5 -25    3.41    0.23
  -5   5 -25    3.45    0.24
  -5   5 -25    3.64    0.16
  -5   5  25    3.53    0.19
  -5  25  -5    2.80    0.26
   5   5 -25    3.30    0.23
   5   5 -25    3.35    0.16
 -25   1   7    3.03    0.15
  -7   1 -25    2.99    0.23
 -25   1   7    3.09    0.17
   1   7 -25    3.09    0.22
   1   7 -25    2.82    0.15
 -25   7  -1    3.02    0.15
 -25   7  -1    3.04    0.18
   7  -1 -25    3.25    0.14
 -25   7   1    3.00    0.15
  -1   7 -25    3.08    0.23
 -25  -1   7    3.10    0.17
  -7  -1 -25    3.15    0.22
 -25  -1   7    3.09    0.14
  -7   1  25    3.23    0.18
  -1   7 -25    2.93    0.15
   7   1 -25    2.87    0.14
 -25   7   1    3.05    0.18
 -25   7  -3    6.84    0.26
   3   7 -25    6.42    0.25
   3   7 -25    7.05    0.32
 -25   3   7    6.43    0.27
  -7   3 -25    6.29    0.33
  -7   3 -25    6.23    0.25
 -25   3   7    6.52    0.25
  -3  25  -7    5.93    0.33
   7  -3 -25    6.48    0.24
 -25   7  -3    6.92    0.29
 -25  -3   7    6.55    0.24
  -7  -3 -25    6.51    0.33
  -7   3  25    6.81    0.28
 -25   3  -7    6.58    0.25
  -3   7 -25    6.83    0.34
  -3   7 -25    6.09    0.25
   7   3 -25    6.70    0.25
 -25  -3   7    6.58    0.26
  -7  25  -3    5.96    0.36
 -25   3  -7    6.87    0.28
 -25   7   3    6.66    0.28
 -25   7   3    6.63    0.25
  -7   5 -25    4.16    0.18
 -25   5   7    4.00    0.20
  -7   5 -25    4.32    0.26
 -25   7  -5    4.66    0.22
 -25   7  -5    4.26    0.19
  -5  25  -7    4.32    0.28
 -25   5   7    4.36    0.18
   5   7 -25    4.24    0.18
  -5   7  25    4.18    0.20
  -5   7 -25    4.24    0.19
  -7  -5 -25    4.33    0.25
  -7   5  25    4.97    0.22
 -25   7   5    4.28    0.18
 -25   7   5    4.36    0.21
   7   5 -25    4.27    0.18
 -25   5  -7    4.42    0.19
 -25   5  -7    4.37    0.22
  -5   7 -25    4.31    0.27
  -7   7 -25    2.56    0.21
 -25   7  -7    2.22    0.13
  -7   7 -25    2.35    0.13
  -7   7  25    2.14    0.15
   7   7 -25    2.32    0.12
 -25   7   7    2.13    0.14
 -25   7   7    2.13    0.12
  -7  25  -7    1.96    0.21
 -25   7  -7    2.00    0.15
  -9  -1  25    3.85    0.19
 -25   9  -1    3.75    0.19
   1   9 -25    3.79    0.24
   1   9 -25    3.64    0.17
   9  -1 -25    3.64    0.16
 -25   1   9    3.77    0.18
 -25   9  -1    3.86    0.17
  -9   1 -25    3.78    0.24
 -25   1   9    3.48    0.16
  -1   9 -25    3.85    0.17
  -9  -1 -25    3.75    0.24
 -25  -1   9    3.71    0.18
   9   1 -25    3.56    0.16
  -1   9 -25    3.96    0.25
  -9   1  25    3.78    0.19
 -25   9   1    3.35    0.16
 -25   9   1    3.81    0.19
 -25  -1   9    3.50    0.16
  -9  25  -1    3.50    0.26
   3   9 -25    3.38    0.22
 -25   3   9    3.34    0.17
 -25   3   9    3.26    0.15
 -25   9  -3    3.28    0.16
  -3  25  -9    3.06    0.22
  -9   3 -25    2.82    0.21
 -25   9  -3    3.39    0.18
   3   9 -25    3.20    0.15
  -9   3 -25    3.29    0.15
   9  -3 -25    2.99    0.14
 -25   3  -9    3.18    0.15
  -9   3  25    3.02    0.18
 -25  -3   9    3.23    0.14
 -25   3  -9    3.37    0.18
 -25   9   3    3.23    0.18
 -25   9   3    3.06    0.15
 -25  -3   9    3.16    0.16
   9   3 -25    3.25    0.15
  -3   9 -25    3.33    0.15
  -3   9 -25    3.40    0.23
  -9  25  -3    2.96    0.26
  -9   5 -25    2.99    0.21
 -25   5   9    2.71    0.16
  -5  25  -9    2.71    0.23
 -25   9  -5    3.26    0.15
 -25   5   9    3.03    0.14
  -9   5 -25    2.95    0.14
  -5   9  25    2.60    0.26
   5   9 -25    2.81    0.14
 -25   9  -5    3.21    0.18
 -25   5  -9    2.79    0.17
 -25   5  -9    3.20    0.15
 -25   9   5    2.88    0.14
  -5   9 -25    2.97    0.22
  -5   9 -25    2.92    0.14
  -9  25  -5    2.62    0.24
 -25   9   5    3.01    0.16
   9   5 -25    3.15    0.14
  -9   5  25    3.29    0.18
  -9   7 -25    3.63    0.16
 -25   7   9    3.53    0.16
  -7  25  -9    3.51    0.25
   7   9 -25    3.60    0.16
 -25   9  -7    3.76    0.20
 -25   7   9    3.88    0.18
 -25   9  -7    4.00    0.17
  -7   9  25    3.85    0.18
  -7   9  25    3.29    0.27
  -9   7 -25    3.82    0.23
 -25   9   7    3.78    0.16
 -25   7  -9    3.57    0.19
  -7   9 -25    3.42    0.23
  -9  25  -7    3.76    0.26
 -25   9   7    3.67    0.18
  -9   7  25    4.19    0.19
  -7   9 -25    3.79    0.17
   9   7 -25    3.56    0.16
 -25   7  -9    3.86    0.17
  -9   9  25    2.53    0.15
  -9  25  -9    2.28    0.21
 -25   9   9    2.57    0.14
  -9   9 -25    2.55    0.13
   9   9 -25    2.39    0.12
 -25   9  -9    2.50    0.15
 -25   9  -9    2.40    0.13
  -9   9 -25    2.39    0.20
 -25   9   9    2.44    0.12
  11  -1 -25    5.11    0.19
 -25  11  -1    5.02    0.20
   1  11 -25    4.92    0.26
   1  11 -25    4.95    0.20
 -25  11  -1    4.96    0.22
 -25   1  11    5.22    0.19
 -25   1  11    5.03    0.22
 -11  -1  25    5.04    0.23
  -1  11 -25    4.60    0.20
 -11   1  25    4.85    0.22
 -11  25  -1    5.08    0.30
  -1  11 -25    4.59    0.27
  11   1 -25    4.85    0.19
 -25  -1  11    4.99    0.21
 -25  11   1    5.00    0.20
 -25  -1  11    5.15    0.19
 -25  11   1    5.10    0.22
 -25   3  11    2.31    0.14
  11  -3 -25    2.40    0.11
 -11   3 -25    2.21    0.19
 -25  11  -3    2.77    0.16
 -11  -3  25    2.23    0.15
 -25   3  11    2.44    0.12
   3  11 -25    2.47    0.13
 -11   3 -25    2.47    0.12
 -25  11  -3    2.64    0.13
 -11  25  -3    2.17    0.22
  -3  11 -25    2.36    0.13
 -25  11   3    2.33    0.14
 -25  -3  11    2.49    0.12
 -11   3  25    2.48    0.16
 -25   3 -11    2.55    0.13
  11   3 -25    2.55    0.12
 -25   3 -11    2.65    0.15
 -25  -3  11    2.18    0.13
 -25  11   3    2.25    0.12
  -3  11 -25    2.44    0.20
 -25  11  -5    2.86    0.17
 -11   5 -25    2.74    0.20
 -11   5 -25    2.92    0.14
 -25   5  11    3.05    0.16
 -11  -5  25    3.12    0.16
 -25  11  -5    2.94    0.14
   5  11 -25    3.09    0.14
  -5  25 -11    2.86    0.21
  -5  11  25    3.14    0.26
 -25   5  11    2.94    0.14
 -25  11   5    3.12    0.14
 -11   5  25    2.99    0.17
 -25   5 -11    3.14    0.14
 -11  25  -5    2.99    0.23
  -5  11 -25    3.35    0.22
  -5  11 -25    3.09    0.14
 -25   5 -11    3.36    0.17
 -25  11   5    2.90    0.16
  11   5 -25    2.99    0.13
  -7  25 -11    4.74    0.27
 -25  11  -7    5.56    0.21
 -11   7 -25    4.71    0.26
 -25   7  11    5.33    0.22
 -25  11  -7    5.51    0.23
 -25   7  11    5.22    0.20
   7  11 -25    5.34    0.20
 -11   7 -25    5.34    0.21
 -11  -7  25    5.00    0.22
  -7  11  25    5.12    0.32
 -25  11   7    5.21    0.22
  -7  11 -25    5.17    0.21
 -25   7 -11    5.72    0.23
 -25  11   7    5.27    0.22
  11   7 -25    5.31    0.19
 -25  11   7    5.29    0.20
  -7  11 -25    4.70    0.27
 -25   7 -11    5.48    0.21
 -11   7  25    4.92    0.22
 -25  11  -9    2.63    0.13
 -25   9  11    2.75    0.12
   9  11 -25    2.82    0.12
 -11   9 -25    2.75    0.13
 -25   9  11    2.55    0.14
 -25  11  -9    2.84    0.15
  -9  11 -25    2.79    0.13
 -25  11   9    2.76    0.14
 -25  11   9    2.76    0.14
 -11   9  25    2.83    0.15
 -25  11   9    2.65    0.12
 -25   9 -11    2.78    0.13
 -25   9 -11    2.61    0.15
  11   9 -25    2.71    0.12
 -11  11 -25    2.04    0.11
  11  11 -25    2.10    0.09
 -25  11  11    2.01    0.09
 -25  11 -11    2.13    0.13
 -25  11 -11    1.92    0.10
 -25  11  11    1.95    0.11
 -25   1  13    2.19    0.13
 -25   1  13    2.17    0.11
 -13  -1  25    1.93    0.13
  13  -1 -25    2.20    0.10
 -25  13  -1    2.13    0.13
 -25  13  -1    2.09    0.11
   1  13 -25    2.09    0.11
 -25  -1  13    2.03    0.12
  -1  13 -25    2.23    0.18
  -1  13 -25    1.95    0.11
 -13   1  25    2.05    0.14
 -25  13   1    2.16    0.13
  13   1 -25    2.07    0.10
 -25  -1  13    1.92    0.10
 -25  13   1    2.12    0.11
 -25   3  13    3.59    0.15
   3  13 -25    3.57    0.15
  13  -3 -25    3.46    0.14
 -25  13  -3    3.52    0.15
 -25   3  13    3.65    0.17
 -13  -3  25    3.68    0.18
 -25  13  -3    3.48    0.17
 -25  13   3    3.36    0.16
 -25  -3  13    3.52    0.16
 -13   3  25    3.50    0.17
 -25  13   3    3.58    0.15
 -25  -3  13    3.49    0.14
  -3  13 -25    3.26    0.15
  13   3 -25    3.55    0.14
  -3  13 -25    3.46    0.22
 -25  13  -5    2.60    0.12
 -25   5  13    2.37    0.13
 -25  13  -5    2.50    0.14
 -13   5 -25    2.31    0.12
   5  13 -25    2.40    0.11
 -25   5  13    2.32    0.11
 -13  -5  25    2.74    0.14
  -5  13 -25    2.48    0.12
  13   5 -25    2.50    0.11
 -25  13   5    2.38    0.13
 -25   5 -13    2.59    0.15
 -25   5 -13    2.67    0.12
 -25  13   5    2.42    0.11
 -13   5  25    2.33    0.14
 -13   7 -25    1.62    0.10
 -25   7  13    1.93    0.11
 -25   7  13    2.04    0.10
 -25  13  -7    2.02    0.13
   7  13 -25    1.77    0.09
 -25  13  -7    2.07    0.11
 -13   7  25    1.95    0.12
 -25   7 -13    1.89    0.10
  13   7 -25    1.92    0.09
  -7  13 -25    1.83    0.10
 -25   7 -13    1.95    0.13
 -25  13   7    2.04    0.11
 -25  13   7    1.88    0.09
 -25  13  -9    2.00    0.10
 -25   9  13    1.99    0.11
 -25  13  -9    2.05    0.12
 -25   9  13    2.03    0.10
 -13   9 -25    1.90    0.10
 -25   9 -13    2.33    0.13
 -25   9 -13    2.19    0.11
  13   9 -25    1.97    0.09
  -9  13 -25    2.12    0.10
 -25  15  -1    2.42    0.11
 -25  15  -1    2.39    0.13
 -25   1  15    2.52    0.11
 -25   1  15    2.53    0.13
   1  15 -25    2.42    0.11
  15   1 -25    2.25    0.10
  -1  15 -25    2.38    0.11
 -25  15   1    2.35    0.11
 -25  15   1    2.38    0.12
 -25  -1  15    2.63    0.13
 -25  -1  15    2.41    0.11
 -25  15  -3    3.96    0.17
 -25  15  -3    4.09    0.15
 -25   3  15    3.81    0.15
   3  15 -25    3.85    0.15
 -25   3  15    3.82    0.17
 -25  -3  15    3.72    0.16
  -3  15 -25    4.01    0.15
 -25  -3  15    3.77    0.15
  15   3 -25    3.76    0.14
 -15   3  25    3.74    0.14
 -15   3  25    3.73    0.16
 -25  15   3    4.24    0.15
 -25  15  -5    3.03    0.13
 -25   5  15    2.95    0.12
 -25   5  15    3.19    0.14
 -25  15  -5    2.86    0.14
  -5  15 -25    3.07    0.13
  15   5 -25    3.08    0.12
 -26   0   0    1.53    0.13
 -26   0   0    1.62    0.11
   0   0 -26    1.41    0.18
   0   0 -26    1.28    0.10
 -26   0  -2    1.18    0.12
 -26   0  -2    1.32    0.10
 -26   0   2    1.30    0.12
 -26   0   2    1.20    0.09
   0  -2 -26    1.41    0.17
   0   2 -26    1.28    0.17
   0   2 -26    1.28    0.10
 -26   2   0    1.34    0.13
 -26   2   0    1.22    0.10
  -2   0 -26    0.94    0.15
  -2   0 -26    1.36    0.10
   2   0 -26    1.22    0.17
   2   0 -26    1.33    0.10
   2   2 -26   26.31    0.95
   2   2 -26   27.56    0.86
  -2  -2 -26   26.47    0.95
  -2   2 -26   27.01    0.96
  -2   2 -26   25.76    0.86
   2  -2 -26   26.44    0.94
 -26   2  -2   28.40    0.90
 -26   2  -2   28.34    0.87
 -26   2   2   28.21    0.89
 -26   2   2   29.37    0.87
 -26   4   0    1.43    0.13
 -26   4   0    1.63    0.11
  -4   0 -26    1.81    0.19
   4   0 -26    1.84    0.18
   4   0 -26    1.66    0.10
 -26   0   4    1.76    0.13
   0   4 -26    1.69    0.18
   0   4 -26    1.73    0.11
   0  -4 -26    1.84    0.19
 -26   0   4    1.76    0.11
  -4   2 -26    1.23    0.17
 -26   4  -2    0.99    0.11
  -2   4  26    1.24    0.11
   2   4 -26    0.90    0.15
 -26   4  -2    1.05    0.09
  -4   2 -26    1.07    0.09
  -2  -4 -26    0.78    0.14
   2   4 -26    1.04    0.09
   4  -2 -26    1.20    0.09
 -26   2   4    0.98    0.11
 -26   2   4    1.00    0.09
 -26   4   2    1.10    0.12
 -26   2  -4    1.00    0.09
  -2   4 -26    1.03    0.16
  -2   4 -26    1.11    0.09
 -26   2  -4    0.99    0.11
  -4  -2 -26    1.05    0.16
 -26   4   2    1.05    0.09
  -4  26  -2    0.73    0.15
   4   2 -26    1.09    0.15
   4   2 -26    1.11    0.09
  -4   4 -26    0.99    0.08
  -4   4  26    1.08    0.11
  -4  -4 -26    1.05    0.15
  -4   4 -26    1.03    0.15
 -26   4  -4    0.89    0.11
   4   4 -26    1.12    0.15
   4   4 -26    1.05    0.09
  -4  26  -4    0.69    0.15
 -26   4   4    0.98    0.09
 -26   4  -4    1.04    0.09
 -26   4   4    0.87    0.10
 -26   6   0    0.97    0.09
   6   0 -26    0.81    0.07
 -26   0   6    0.73    0.07
   0   6 -26    1.05    0.15
   0   6 -26    0.93    0.08
 -26   6   0    0.75    0.10
  -6   0 -26    0.96    0.15
 -26   0   6    0.86    0.09
   2   6 -26   24.51    0.86
   2   6 -26   24.85    0.79
 -26   6  -2   25.53    0.82
 -26   6  -2   25.63    0.79
   6  -2 -26   24.22    0.78
  -6   2 -26   24.10    0.87
  -6   2 -26   25.65    0.79
 -26   2   6   25.09    0.81
 -26   2   6   24.95    0.79
   6   2 -26   24.46    0.85
  -2   6 -26   24.49    0.79
 -26  -2   6   25.01    0.78
 -26   2  -6   25.72    0.79
 -26   2  -6   26.23    0.82
   6   2 -26   24.76    0.79
  -6  26  -2   21.51    0.89
  -2   6 -26   24.97    0.87
 -26   6   2   24.95    0.82
 -26   6   2   25.47    0.79
  -6  -2 -26   24.73    0.87
  -6   2  26   25.46    0.82
 -26  -2   6   25.38    0.80
 -26   6  -4    1.30    0.12
 -26   6  -4    1.20    0.10
  -4   6  26    1.25    0.11
  -4  26  -6    1.12    0.16
  -6   4 -26    1.05    0.09
  -6   4 -26    1.22    0.16
   4   6 -26    1.18    0.15
 -26   4   6    1.00    0.10
 -26   4   6    1.11    0.09
   4   6 -26    1.20    0.09
  -6  26  -4    1.14    0.17
 -26   4  -6    1.10    0.11
 -26   6   4    1.13    0.09
  -6   4  26    1.16    0.11
  -4   6 -26    1.24    0.16
  -4   6 -26    1.32    0.10
 -26   6   4    1.29    0.12
 -26   4  -6    1.23    0.10
   6   4 -26    1.27    0.09
  -6  -4 -26    1.29    0.15
 -26   6  -6   23.00    0.71
 -26   6  -6   22.70    0.74
 -26   6   6   22.48    0.70
  -6   6 -26   21.92    0.71
 -26   6   6   22.56    0.73
  -6   6  26   22.57    0.73
  -6  26  -6   20.25    0.80
   6   6 -26   22.16    0.70
  -6   6 -26   21.72    0.79
   0   8 -26    1.13    0.09
  -8   0 -26    1.04    0.15
 -26   0   8    1.06    0.10
 -26   0   8    1.17    0.09
  -8  26   0    0.97    0.16
 -26   8   0    1.09    0.11
 -26   8   0    1.09    0.09
   8   0 -26    1.01    0.08
  -8   0  26    0.91    0.10
   0   8 -26    0.85    0.14
  -8   2 -26    1.19    0.15
   2   8 -26    1.22    0.15
 -26   2   8    0.81    0.09
 -26   2   8    0.94    0.08
 -26   8  -2    0.87    0.08
   2   8 -26    1.07    0.08
 -26   8  -2    0.98    0.11
   8  -2 -26    1.07    0.08
  -8   2 -26    1.02    0.08
  -8  -2  26    1.12    0.11
  -8  -2 -26    0.98    0.14
  -2   8 -26    1.07    0.15
  -2   8 -26    1.03    0.08
  -8  26  -2    0.84    0.16
 -26   8   2    0.88    0.08
 -26   8   2    0.84    0.10
 -26  -2   8    0.98    0.08
 -26  -2   8    1.13    0.10
   8   2 -26    1.13    0.08
  -8   2  26    1.26    0.12
  -8   4 -26    1.37    0.09
  -8   4 -26    1.26    0.15
   4   8 -26    1.37    0.10
  -4  26  -8    1.17    0.16
 -26   8  -4    1.40    0.10
 -26   8  -4    1.34    0.12
 -26   4   8    1.30    0.11
 -26   4   8    1.36    0.09
 -26   4  -8    1.59    0.13
 -26   8   4    1.37    0.12
  -8   4  26    1.29    0.12
 -26   4  -8    1.36    0.10
  -4   8 -26    1.37    0.10
 -26   8   4    1.26    0.09
  -8  -4 -26    1.31    0.15
   8   4 -26    1.42    0.09
  -8  26  -4    1.32    0.17
  -4   8 -26    1.28    0.16
  -8   6 -26    0.80    0.13
 -26   8  -6    0.81    0.10
 -26   8  -6    0.70    0.08
  -8   6 -26    0.80    0.08
 -26   6   8    0.75    0.07
 -26   6   8    0.76    0.09
  -6  26  -8    0.74    0.14
   6   8 -26    0.68    0.07
  -6   8  26    0.86    0.09
  -8   6  26    0.94    0.10
  -8  26  -6    0.79    0.15
 -26   8   6    0.78    0.07
   8   6 -26    0.82    0.07
  -6   8 -26    0.72    0.08
  -6   8 -26    0.61    0.13
 -26   6  -8    0.73    0.10
 -26   8   6    0.71    0.09
 -26   6  -8    0.72    0.08
  -8   8 -26    0.93    0.08
  -8   8  26    0.88    0.09
   8   8 -26    0.84    0.07
 -26   8   8    0.83    0.07
 -26   8   8    0.99    0.09
 -26   8  -8    1.05    0.10
 -26   8  -8    1.06    0.08
  -8   8 -26    0.88    0.14
  -8  26  -8    0.76    0.14
 -26  10   0    0.86    0.10
 -26   0  10    1.13    0.08
   0  10 -26    1.32    0.15
 -10  26   0    0.93    0.16
   0  10 -26    1.12    0.09
 -26   0  10    1.25    0.10
  10   0 -26    1.24    0.08
 -10   0  26    1.12    0.11
 -26  10   0    1.04    0.08
 -26  10  -2   20.99    0.68
 -26  10  -2   20.44    0.65
  10  -2 -26   20.20    0.64
 -10   2 -26   20.29    0.72
   2  10 -26   20.76    0.65
 -10  -2  26   19.79    0.67
 -26   2  10   20.39    0.67
 -26   2  10   20.87    0.65
 -10  26  -2   18.99    0.75
  10   2 -26   20.47    0.64
 -10   2  26   20.58    0.68
 -26  10   2   20.23    0.67
 -26  -2  10   21.22    0.66
  -2  10 -26   20.67    0.73
  -2  10 -26   20.43    0.65
 -26  10   2   19.95    0.65
 -26  -2  10   21.28    0.65
 -10   4 -26    0.83    0.07
 -10  -4  26    0.69    0.09
 -26   4  10    0.63    0.08
 -26  10  -4    0.55    0.09
 -26  10  -4    0.63    0.07
 -26   4  10    0.52    0.06
   4  10 -26    0.75    0.07
 -10   4 -26    0.82    0.13
  -4  10 -26    0.88    0.14
 -26  10   4    0.63    0.08
  -4  10 -26    0.59    0.07
 -26   4 -10    0.80    0.07
  10   4 -26    0.78    0.07
 -26  10   4    0.67    0.07
 -10  26  -4    0.53    0.14
 -10   4  26    0.68    0.09
 -26   4 -10    0.75    0.09
 -26  10  -6   20.71    0.65
   6  10 -26   19.17    0.62
 -26   6  10   19.46    0.63
 -26   6  10   18.94    0.61
 -26  10  -6   19.84    0.62
 -10   6 -26   18.96    0.62
 -10  -6  26   18.65    0.64
  10   6 -26   19.59    0.61
  -6  10 -26   19.08    0.62
 -10   6  26   19.72    0.64
 -26   6 -10   20.89    0.62
 -26  10   6   18.89    0.62
 -10  26  -6   19.43    0.71
 -26  10   6   19.31    0.64
 -26   6 -10   20.34    0.65
  -6  10 -26   19.31    0.69
 -26  10  -8    0.87    0.10
 -26   8  10    1.07    0.09
 -10   8 -26    0.81    0.07
   8  10 -26    0.81    0.06
 -26   8  10    0.89    0.07
 -26  10  -8    1.09    0.08
 -26   8 -10    0.91    0.08
  -8  10 -26    0.99    0.08
  10   8 -26    0.80    0.06
 -10   8  26    1.00    0.09
 -26   8 -10    1.05    0.10
 -26  10   8    0.94    0.07
 -26  10   8    0.93    0.09
 -26  10 -10   16.07    0.50
 -26  10  10   15.59    0.51
 -10  10 -26   15.09    0.50
  10  10 -26   15.43    0.49
 -26  10  10   15.48    0.49
 -26  10 -10   15.87    0.52
  12   0 -26    1.11    0.07
 -26   0  12    1.06    0.08
 -26  12   0    1.08    0.10
 -26  12   0    1.09    0.08
 -12   0  26    1.05    0.10
 -26   0  12    1.03    0.09
   0  12 -26    0.97    0.08
 -26   2  12    0.75    0.07
 -26  12  -2    0.78    0.09
 -26  12  -2    0.82    0.07
  12  -2 -26    0.79    0.06
 -26   2  12    0.71    0.08
   2  12 -26    0.85    0.07
 -12  -2  26    1.00    0.10
  12   2 -26    0.83    0.06
 -12   2  26    0.80    0.09
 -26  -2  12    0.59    0.07
 -26  12   2    0.74    0.08
 -26  12   2    0.70    0.07
  -2  12 -26    0.73    0.07
 -26  -2  12    0.72    0.06
   4  12 -26    0.92    0.07
 -26   4  12    0.76    0.07
 -12   4 -26    0.65    0.06
 -26  12  -4    0.91    0.09
 -26   4  12    0.86    0.08
 -12  -4  26    0.97    0.09
 -26  12  -4    0.82    0.07
  12   4 -26    0.84    0.07
 -26   4 -12    0.98    0.07
 -26  12   4    0.86    0.08
 -26  12   4    0.95    0.07
 -26   4 -12    0.97    0.09
 -12   4  26    0.84    0.09
  -4  12 -26    0.79    0.07
   6  12 -26    0.80    0.06
 -26  12  -6    0.72    0.08
 -26   6  12    0.69    0.06
 -26   6  12    0.71    0.08
 -12   6 -26    0.58    0.06
 -26  12  -6    0.84    0.07
 -26   6 -12    0.92    0.09
 -26  12   6    0.75    0.06
 -26  12   6    0.85    0.08
  -6  12 -26    0.84    0.07
 -26   6 -12    0.85    0.07
 -12   6  26    0.85    0.09
  12   6 -26    0.84    0.06
 -26  12  -8    0.93    0.07
 -12   8 -26    0.86    0.07
 -26  12  -8    1.12    0.09
 -26   8  12    0.98    0.08
 -26   8  12    0.88    0.07
  -8  12 -26    0.75    0.07
 -26   8 -12    0.94    0.07
  12   8 -26    0.99    0.06
 -26  14   0    0.70    0.07
 -26  14   0    0.49    0.05
 -26   0  14    0.58    0.05
   0  14 -26    0.57    0.06
 -26   0  14    0.57    0.07
 -26  14  -2   15.79    0.53
 -26   2  14   16.01    0.52
 -26  14  -2   16.29    0.51
 -26   2  14   16.21    0.51
 -26  -2  14   16.45    0.51
  14   2 -26   16.28    0.51
 -26  14   2   16.60    0.51
  -2  14 -26   15.56    0.51
 -26   4  14    0.94    0.08
 -26   4  14    0.78    0.06
 -26  14  -4    0.74    0.06
  -4  14 -26    0.97    0.07
  14   4 -26    0.94    0.06
 -27   1  -1    4.31    0.20
 -27   1  -1    4.38    0.18
 -27   1   1    4.47    0.20
 -27   1   1    4.18    0.17
  -1  -1 -27    3.93    0.25
  -1   1 -27    3.87    0.25
  -1   1 -27    4.27    0.17
   1  -1 -27    3.83    0.24
   1   1 -27    3.84    0.25
   1   1 -27    4.28    0.17
   3  -1 -27    2.80    0.20
   3  -1 -27    2.78    0.13
 -27   3  -1    2.89    0.16
 -27   3  -1    2.97    0.14
 -27   1   3    2.95    0.16
 -27   1   3    3.10    0.14
  -1  -3 -27    2.69    0.21
  -3   1 -27    2.68    0.21
  -3   1 -27    2.86    0.13
   1   3 -27    2.87    0.21
   1   3 -27    3.00    0.14
   3   1 -27    2.63    0.20
   3   1 -27    2.63    0.13
 -27   1  -3    3.15    0.14
 -27   3   1    2.75    0.16
 -27   3   1    2.74    0.14
  -3  -1 -27    2.67    0.21
  -1   3 -27    2.72    0.21
  -1   3 -27    2.95    0.14
 -27  -1   3    2.57    0.16
 -27  -1   3    2.87    0.14
 -27   1  -3    3.04    0.16
   3   3 -27    3.94    0.24
 -27   3   3    3.91    0.19
 -27   3   3    4.10    0.17
  -3  -3 -27    3.80    0.24
   3   3 -27    3.88    0.17
  -3   3 -27    3.98    0.17
  -3   3  27    4.08    0.19
 -27   3  -3    4.29    0.17
 -27   3  -3    4.16    0.20
  -3   3 -27    4.43    0.25
   1   5 -27    3.54    0.15
   1   5 -27    3.54    0.22
  -5  27   1    3.11    0.23
  -5   1 -27    3.07    0.22
   5  -1 -27    3.38    0.14
 -27   5  -1    3.76    0.18
 -27   5  -1    3.46    0.15
 -27   1   5    3.50    0.17
 -27   1   5    3.64    0.15
 -27  -1   5    3.44    0.15
  -1   5 -27    3.16    0.15
   5   1 -27    3.33    0.14
  -5   1  27    3.30    0.17
 -27   5   1    3.46    0.18
 -27   5   1    3.47    0.15
  -5  27  -1    2.58    0.23
  -5  -1 -27    2.94    0.21
  -1   5 -27    3.32    0.22
 -27  -1   5    3.62    0.17
  -3   5  27    3.61    0.17
 -27   3   5    3.45    0.17
   3   5 -27    3.13    0.21
   3   5 -27    3.59    0.15
 -27   3   5    3.46    0.15
 -27   5  -3    3.54    0.18
 -27   5  -3    3.62    0.16
  -5   3 -27    3.23    0.22
  -5   3 -27    3.43    0.15
 -27   5   3    3.73    0.16
  -5  -3 -27    3.35    0.22
  -5   3  27    3.63    0.18
   5   3 -27    3.63    0.21
  -3   5 -27    3.52    0.15
 -27   5   3    3.49    0.18
 -27   3  -5    3.89    0.18
 -27   3  -5    3.82    0.16
   5   3 -27    3.48    0.15
  -3   5 -27    3.58    0.24
  -5  27  -3    3.42    0.24
 -27   5  -5    3.66    0.18
 -27   5  -5    3.63    0.15
 -27   5   5    3.81    0.17
 -27   5   5    3.41    0.15
  -5   5 -27    3.02    0.22
  -5   5  27    3.63    0.17
  -5  27  -5    3.12    0.22
   5   5 -27    3.35    0.15
  -5   5 -27    3.23    0.15
  -7  27   1    3.59    0.25
  -7   1 -27    3.26    0.22
 -27   1   7    3.77    0.17
 -27   7  -1    3.46    0.18
 -27   7  -1    3.25    0.15
   1   7 -27    3.58    0.15
   1   7 -27    3.68    0.22
 -27   1   7    3.80    0.15
  -7  -1  27    3.60    0.18
   7  -1 -27    3.62    0.14
  -7   1  27    3.52    0.18
 -27   7   1    3.50    0.18
   7   1 -27    3.37    0.15
 -27  -1   7    3.86    0.17
  -7  27  -1    3.63    0.25
 -27  -1   7    3.86    0.15
  -1   7 -27    3.42    0.23
 -27   7   1    3.43    0.15
  -7  -1 -27    3.49    0.22
  -1   7 -27    3.56    0.16
  -7   3 -27    2.01    0.11
 -27   7  -3    2.12    0.11
  -7   3 -27    2.12    0.18
 -27   3   7    2.16    0.13
 -27   3   7    2.00    0.11
   3   7 -27    2.09    0.11
 -27   7  -3    2.07    0.14
   3   7 -27    2.16    0.17
 -27   3  -7    2.01    0.13
  -3   7 -27    2.09    0.11
  -7  -3 -27    2.03    0.17
  -7  27  -3    1.80    0.19
  -3   7 -27    2.06    0.18
  -7   3  27    1.80    0.13
   7   3 -27    2.18    0.11
 -27   7   3    1.91    0.11
 -27   7   3    2.33    0.14
 -27   3  -7    2.17    0.12
 -27   5   7    2.73    0.15
 -27   7  -5    2.64    0.15
   5   7 -27    2.70    0.13
  -7   5 -27    2.68    0.20
 -27   7  -5    2.87    0.13
  -7   5 -27    2.80    0.13
 -27   5   7    2.73    0.13
  -7   5  27    2.91    0.15
  -5   7 -27    2.85    0.20
 -27   5  -7    2.93    0.16
  -7  27  -5    2.57    0.21
   7   5 -27    2.61    0.12
 -27   5  -7    2.93    0.13
 -27   7   5    2.77    0.15
 -27   7   5    2.73    0.13
  -5   7 -27    2.71    0.13
  -7   7  27    3.16    0.16
 -27   7   7    3.30    0.16
 -27   7  -7    3.41    0.17
 -27   7  -7    3.33    0.14
   7   7 -27    3.19    0.14
 -27   7   7    3.23    0.14
  -7   7 -27    3.33    0.14
 -27   9  -1    3.12    0.14
 -27   1   9    3.26    0.15
 -27   1   9    3.23    0.13
  -9  -1  27    3.05    0.16
  -9  27   1    3.11    0.22
   9  -1 -27    3.02    0.13
   1   9 -27    3.26    0.14
 -27   9  -1    2.94    0.16
  -1   9 -27    2.98    0.14
 -27   9   1    3.07    0.14
  -9  27  -1    2.91    0.22
 -27  -1   9    3.21    0.15
 -27  -1   9    3.11    0.13
 -27   9   1    3.23    0.16
  -9   1  27    3.01    0.16
   9   1 -27    3.16    0.13
 -27   9  -3    3.47    0.16
 -27   3   9    3.16    0.13
 -27   9  -3    3.20    0.14
 -27   3   9    2.97    0.15
   3   9 -27    3.21    0.14
  -9  -3  27    3.19    0.16
  -9   3 -27    3.07    0.13
 -27   9   3    3.08    0.16
  -3   9 -27    3.27    0.14
  -9   3  27    3.25    0.16
 -27   9   3    3.35    0.14
   9   3 -27    3.10    0.13
  -9   5 -27    3.10    0.14
 -27   5   9    2.95    0.15
   5   9 -27    3.13    0.13
 -27   9  -5    3.29    0.16
 -27   9  -5    3.38    0.14
  -9  -5  27    3.24    0.16
 -27   5   9    3.12    0.13
  -5   9 -27    3.18    0.14
 -27   5  -9    3.40    0.14
 -27   9   5    2.97    0.15
   9   5 -27    3.10    0.13
  -9   5  27    3.17    0.16
 -27   9   5    3.22    0.13
 -27   5  -9    3.37    0.16
 -27   7   9    2.55    0.13
 -27   9  -7    2.66    0.12
 -27   9  -7    2.61    0.14
  -9   7 -27    2.44    0.12
 -27   7   9    2.44    0.11
   7   9 -27    2.44    0.11
 -27   7  -9    2.50    0.12
   9   7 -27    2.42    0.11
 -27   9   7    2.59    0.11
 -27   7  -9    2.84    0.14
  -7   9 -27    2.63    0.12
 -27   9   7    2.68    0.13
 -27   9   9    2.96    0.12
 -27   9  -9    3.19    0.13
  -9   9 -27    3.04    0.13
   9   9 -27    3.07    0.12
  11  -1 -27    1.88    0.09
 -27  11  -1    1.91    0.10
 -27  11  -1    2.00    0.12
 -27   1  11    1.95    0.10
   1  11 -27    2.01    0.10
 -27   1  11    2.18    0.12
 -11  -1  27    2.04    0.12
 -27  -1  11    2.18    0.12
  11   1 -27    1.93    0.09
  -1  11 -27    1.96    0.10
 -11   1  27    2.17    0.13
 -27  11   1    1.96    0.10
 -27  11   1    2.12    0.12
 -27  -1  11    2.08    0.10
 -27  11  -3    2.84    0.14
 -27   3  11    2.81    0.14
   3  11 -27    2.75    0.12
  11  -3 -27    2.84    0.11
 -27   3  11    2.75    0.12
 -27  11  -3    2.71    0.12
 -27  11   3    2.73    0.12
  11   3 -27    2.78    0.12
  -3  11 -27    2.70    0.12
 -27  11   3    2.69    0.14
 -27   5  11    2.62    0.13
 -27   5  11    2.48    0.11
 -27  11  -5    2.68    0.12
   5  11 -27    2.61    0.11
 -27  11  -5    2.74    0.14
  11   5 -27    2.52    0.11
 -27  11   5    2.63    0.13
  -5  11 -27    2.63    0.12
 -27  11   5    2.67    0.11
 -27  11  -7    1.46    0.08
 -27   7  11    1.36    0.08
  -7  11 -27    1.42    0.08
   0   0 -28   26.01    0.88
 -28   0   2    0.74    0.09
 -28   0   2    0.84    0.07
   0   2 -28    0.72    0.13
   0   2 -28    0.73    0.07
   2   0 -28    0.64    0.06
  -2   0 -28    0.68    0.12
   2   0 -28    0.75    0.13
 -28   2   0    0.74    0.07
 -28   2   0    0.67    0.09
   2   2 -28    1.12    0.08
 -28   2   2    1.39    0.11
 -28   2   2    1.26    0.09
 -28   2  -2    1.33    0.09
 -28   2  -2    1.21    0.11
   2   2 -28    1.08    0.13
  -2   2  28    1.11    0.10
  -2   2 -28    1.08    0.14
  -2   2 -28    1.20    0.08
  -2  -2 -28    1.31    0.15
   4   0 -28   15.33    0.51
  -4   0  28   16.38    0.54
 -28   0   4   16.43    0.51
   0   4 -28   15.60    0.52
 -28   0   4   16.40    0.53
 -28   4   0   16.49    0.52
 -28   4   0   16.12    0.54
 -28   2   4    0.98    0.09
 -28   2   4    0.96    0.07
 -28   4  -2    0.97    0.10
   2   4 -28    1.03    0.08
 -28   4  -2    0.99    0.08
   2   4 -28    1.09    0.13
  -4   2 -28    0.90    0.13
  -4   2 -28    1.02    0.07
  -2   4 -28    1.07    0.08
 -28   4   2    1.00    0.08
 -28   4   2    0.94    0.09
 -28   2  -4    0.92    0.09
  -4  -2 -28    0.97    0.13
  -2   4 -28    1.21    0.15
  -4   2  28    0.98    0.09
   4   2 -28    1.01    0.08
 -28   2  -4    0.88    0.07
 -28   4  -4   22.90    0.73
   4   4 -28   22.12    0.70
  -4   4 -28   21.13    0.70
  -4   4 -28   23.08    0.78
 -28   4   4   21.97    0.70
 -28   4  -4   22.74    0.71
  -4   4  28   23.33    0.72
 -28   4   4   22.29    0.72
  -6   0  28    1.36    0.11
   0   6 -28    1.31    0.09
 -28   0   6    1.50    0.09
 -28   6   0    1.19    0.10
 -28   0   6    1.38    0.10
   6   0 -28    1.27    0.08
 -28   6   0    1.24    0.09
 -28   2   6    0.97    0.09
 -28   2   6    0.96    0.07
 -28   6  -2    0.86    0.09
 -28   6  -2    1.00    0.08
  -6  -2  28    0.82    0.09
   2   6 -28    1.01    0.07
 -28   6   2    0.79    0.09
  -6   2  28    0.83    0.09
   6   2 -28    0.77    0.06
 -28   6   2    0.97    0.07
  -2   6 -28    0.74    0.07
 -28   4   6    0.44    0.06
  -6   4 -28    0.42    0.06
 -28   4   6    0.45    0.07
   4   6 -28    0.43    0.05
 -28   6  -4    0.39    0.06
 -28   6  -4    0.44    0.08
 -28   6   4    0.40    0.07
 -28   4  -6    0.51    0.06
 -28   6   4    0.49    0.06
 -28   4  -6    0.39    0.08
  -6   4  28    0.55    0.08
   6   4 -28    0.43    0.05
  -4   6 -28    0.41    0.06
 -28   6  -6    1.30    0.10
 -28   6  -6    1.34    0.09
   6   6 -28    1.25    0.08
 -28   6   6    1.14    0.09
  -6   6 -28    1.16    0.08
 -28   6   6    1.19    0.08
  -8   0  28   19.62    0.64
   0   8 -28   19.36    0.62
 -28   0   8   19.69    0.63
 -28   0   8   20.43    0.62
   8   0 -28   18.97    0.61
 -28   8   0   20.12    0.62
 -28   8   0   20.11    0.64
 -28   8  -2    0.59    0.08
  -8  -2  28    0.70    0.08
 -28   2   8    0.72    0.08
 -28   2   8    0.71    0.06
 -28   8  -2    0.58    0.06
   2   8 -28    0.66    0.06
  -2   8 -28    0.67    0.06
 -28   8   2    0.66    0.06
  -8   2  28    0.65    0.08
   8   2 -28    0.70    0.06
 -28   8   2    0.67    0.08
 -28   8  -4   15.14    0.49
 -28   4   8   14.45    0.47
  -8   4 -28   14.11    0.47
 -28   4   8   15.06    0.48
 -28   8  -4   14.79    0.47
   4   8 -28   14.30    0.47
  -4   8 -28   14.48    0.47
   8   4 -28   14.45    0.46
 -28   8   4   14.24    0.48
 -28   4  -8   15.70    0.47
 -28   8   4   14.56    0.47
 -28   8  -6    0.97    0.09
   6   8 -28    0.96    0.07
 -28   6   8    0.97    0.08
 -28   8  -6    1.16    0.08
 -28   6   8    0.93    0.07
  -6   8 -28    1.09    0.08
 -28   8   6    0.92    0.08
   8   6 -28    1.00    0.07
 -28   8   6    1.02    0.07
   0  10 -28    0.31    0.05
 -28  10   0    0.26    0.06
 -28  10   0    0.33    0.05
   2  10 -28    1.02    0.07
 -28   2  10    1.04    0.07
 -28  10  -2    1.04    0.07
 -28  10  -2    0.96    0.09
  -2  10 -28    0.93    0.07
 -28  10   2    0.88    0.08
 -28  10   2    1.06    0.07
  10   2 -28    1.03    0.06
 -28  10  -4    1.33    0.08
 -29   1   1    3.09    0.14
 -29   1   1    3.10    0.13
   1   1 -29    2.87    0.12
 -29   1   3    2.26    0.12
 -29   1   3    2.23    0.10
  -3  -1  29    2.28    0.13
   1   3 -29    2.06    0.10
 -29   3  -1    2.18    0.10
 -29   3  -1    2.20    0.12
   3   1 -29    2.17    0.10
 -29   3   1    2.15    0.12
 -29   3   1    2.29    0.11
  -1   3 -29    2.10    0.10
 -29   3  -3    3.89    0.15
 -29   3  -3    3.97    0.16
 -29   3   3    3.69    0.14
  -3   3 -29    3.37    0.14
   3   3 -29    3.17    0.14
 -29   3   3    3.63    0.16
 -29   5  -1    2.26    0.11
 -29   5  -1    2.28    0.12
 -29   1   5    2.22    0.10
   1   5 -29    2.11    0.10
  -1   5 -29    2.24    0.10
 -29   5   1    2.38    0.11
   5   1 -29    2.18    0.10
 -29   5   1    2.34    0.12
 -29   5  -3    2.77    0.14
 -29   3   5    2.58    0.13
 -29   5  -3    2.92    0.12
 -29   3   5    2.73    0.11
   3   5 -29    2.56    0.11
  -3   5 -29    2.41    0.11
 -29   5   3    2.62    0.13
   5   3 -29    2.66    0.11
 -29   5   3    2.74    0.12
   5   5 -29    2.10    0.09
 -29   5   5    2.16    0.10
 -29   7  -1    3.39    0.13
   1   7 -29    2.99    0.13
 -29   7   1    3.11    0.14
  -1   7 -29    3.13    0.13
 -29   7   1    3.29    0.13
   3   7 -29    1.91    0.09
 -29   7   3    2.09    0.09
   0   0   0    0.00    0.00
;
_shelx_hkl_checksum              88661
#END Tags that were not found in dictionaries
loop_
_space_group_symop_operation_xyz
'x, y, z'
'-x, -y, z'
'-x, y, -z'
'x, -y, -z'
'z, x, y'
'z, -x, -y'
'-z, -x, y'
'-z, x, -y'
'y, z, x'
'-y, z, -x'
'y, -z, -x'
'-y, -z, x'
'y, x, -z'
'-y, -x, -z'
'y, -x, z'
'-y, x, z'
'x, z, -y'
'-x, z, y'
'-x, -z, -y'
'x, -z, y'
'z, y, -x'
'z, -y, x'
'-z, y, x'
'-z, -y, -x'
'x, y+1/2, z+1/2'
'-x, -y+1/2, z+1/2'
'-x, y+1/2, -z+1/2'
'x, -y+1/2, -z+1/2'
'z, x+1/2, y+1/2'
'z, -x+1/2, -y+1/2'
'-z, -x+1/2, y+1/2'
'-z, x+1/2, -y+1/2'
'y, z+1/2, x+1/2'
'-y, z+1/2, -x+1/2'
'y, -z+1/2, -x+1/2'
'-y, -z+1/2, x+1/2'
'y, x+1/2, -z+1/2'
'-y, -x+1/2, -z+1/2'
'y, -x+1/2, z+1/2'
'-y, x+1/2, z+1/2'
'x, z+1/2, -y+1/2'
'-x, z+1/2, y+1/2'
'-x, -z+1/2, -y+1/2'
'x, -z+1/2, y+1/2'
'z, y+1/2, -x+1/2'
'z, -y+1/2, x+1/2'
'-z, y+1/2, x+1/2'
'-z, -y+1/2, -x+1/2'
'x+1/2, y, z+1/2'
'-x+1/2, -y, z+1/2'
'-x+1/2, y, -z+1/2'
'x+1/2, -y, -z+1/2'
'z+1/2, x, y+1/2'
'z+1/2, -x, -y+1/2'
'-z+1/2, -x, y+1/2'
'-z+1/2, x, -y+1/2'
'y+1/2, z, x+1/2'
'-y+1/2, z, -x+1/2'
'y+1/2, -z, -x+1/2'
'-y+1/2, -z, x+1/2'
'y+1/2, x, -z+1/2'
'-y+1/2, -x, -z+1/2'
'y+1/2, -x, z+1/2'
'-y+1/2, x, z+1/2'
'x+1/2, z, -y+1/2'
'-x+1/2, z, y+1/2'
'-x+1/2, -z, -y+1/2'
'x+1/2, -z, y+1/2'
'z+1/2, y, -x+1/2'
'z+1/2, -y, x+1/2'
'-z+1/2, y, x+1/2'
'-z+1/2, -y, -x+1/2'
'x+1/2, y+1/2, z'
'-x+1/2, -y+1/2, z'
'-x+1/2, y+1/2, -z'
'x+1/2, -y+1/2, -z'
'z+1/2, x+1/2, y'
'z+1/2, -x+1/2, -y'
'-z+1/2, -x+1/2, y'
'-z+1/2, x+1/2, -y'
'y+1/2, z+1/2, x'
'-y+1/2, z+1/2, -x'
'y+1/2, -z+1/2, -x'
'-y+1/2, -z+1/2, x'
'y+1/2, x+1/2, -z'
'-y+1/2, -x+1/2, -z'
'y+1/2, -x+1/2, z'
'-y+1/2, x+1/2, z'
'x+1/2, z+1/2, -y'
'-x+1/2, z+1/2, y'
'-x+1/2, -z+1/2, -y'
'x+1/2, -z+1/2, y'
'z+1/2, y+1/2, -x'
'z+1/2, -y+1/2, x'
'-z+1/2, y+1/2, x'
'-z+1/2, -y+1/2, -x'
'-x, -y, -z'
'x, y, -z'
'x, -y, z'
'-x, y, z'
'-z, -x, -y'
'-z, x, y'
'z, x, -y'
'z, -x, y'
'-y, -z, -x'
'y, -z, x'
'-y, z, x'
'y, z, -x'
'-y, -x, z'
'y, x, z'
'-y, x, -z'
'y, -x, -z'
'-x, -z, y'
'x, -z, -y'
'x, z, y'
'-x, z, -y'
'-z, -y, x'
'-z, y, -x'
'z, -y, -x'
'z, y, x'
'-x, -y+1/2, -z+1/2'
'x, y+1/2, -z+1/2'
'x, -y+1/2, z+1/2'
'-x, y+1/2, z+1/2'
'-z, -x+1/2, -y+1/2'
'-z, x+1/2, y+1/2'
'z, x+1/2, -y+1/2'
'z, -x+1/2, y+1/2'
'-y, -z+1/2, -x+1/2'
'y, -z+1/2, x+1/2'
'-y, z+1/2, x+1/2'
'y, z+1/2, -x+1/2'
'-y, -x+1/2, z+1/2'
'y, x+1/2, z+1/2'
'-y, x+1/2, -z+1/2'
'y, -x+1/2, -z+1/2'
'-x, -z+1/2, y+1/2'
'x, -z+1/2, -y+1/2'
'x, z+1/2, y+1/2'
'-x, z+1/2, -y+1/2'
'-z, -y+1/2, x+1/2'
'-z, y+1/2, -x+1/2'
'z, -y+1/2, -x+1/2'
'z, y+1/2, x+1/2'
'-x+1/2, -y, -z+1/2'
'x+1/2, y, -z+1/2'
'x+1/2, -y, z+1/2'
'-x+1/2, y, z+1/2'
'-z+1/2, -x, -y+1/2'
'-z+1/2, x, y+1/2'
'z+1/2, x, -y+1/2'
'z+1/2, -x, y+1/2'
'-y+1/2, -z, -x+1/2'
'y+1/2, -z, x+1/2'
'-y+1/2, z, x+1/2'
'y+1/2, z, -x+1/2'
'-y+1/2, -x, z+1/2'
'y+1/2, x, z+1/2'
'-y+1/2, x, -z+1/2'
'y+1/2, -x, -z+1/2'
'-x+1/2, -z, y+1/2'
'x+1/2, -z, -y+1/2'
'x+1/2, z, y+1/2'
'-x+1/2, z, -y+1/2'
'-z+1/2, -y, x+1/2'
'-z+1/2, y, -x+1/2'
'z+1/2, -y, -x+1/2'
'z+1/2, y, x+1/2'
'-x+1/2, -y+1/2, -z'
'x+1/2, y+1/2, -z'
'x+1/2, -y+1/2, z'
'-x+1/2, y+1/2, z'
'-z+1/2, -x+1/2, -y'
'-z+1/2, x+1/2, y'
'z+1/2, x+1/2, -y'
'z+1/2, -x+1/2, y'
'-y+1/2, -z+1/2, -x'
'y+1/2, -z+1/2, x'
'-y+1/2, z+1/2, x'
'y+1/2, z+1/2, -x'
'-y+1/2, -x+1/2, z'
'y+1/2, x+1/2, z'
'-y+1/2, x+1/2, -z'
'y+1/2, -x+1/2, -z'
'-x+1/2, -z+1/2, y'
'x+1/2, -z+1/2, -y'
'x+1/2, z+1/2, y'
'-x+1/2, z+1/2, -y'
'-z+1/2, -y+1/2, x'
'-z+1/2, y+1/2, -x'
'z+1/2, -y+1/2, -x'
'z+1/2, y+1/2, x'
loop_
_atom_site_label
_atom_site_type_symbol
_atom_site_fract_x
_atom_site_fract_y
_atom_site_fract_z
_atom_site_U_iso_or_equiv
_atom_site_adp_type
_atom_site_occupancy
_atom_site_site_symmetry_order
_atom_site_calc_flag
_atom_site_refinement_flags_posn
_atom_site_refinement_flags_adp
_atom_site_refinement_flags_occupancy
Pb1 Pb 0.0000 0.0000 0.0000 0.00270(2) Uani 1 48 d S T P
Cu1 Cu 0.2500 0.2500 0.0000 0.00337(2) Uani 1 8 d S T P
O1 O 0.14257(5) 0.14257(5) 0.14257(5) 0.00422(6) Uani 1 6 d S T P
Cl1 Cl 0.0000 0.5000 0.0000 0.0142(3) Uani 0.911(12) 48 d S T P
Br1 Br 0.0000 0.5000 0.0000 0.0142(3) Uani 0.089(12) 48 d S T P
loop_
_atom_site_aniso_label
_atom_site_aniso_U_11
_atom_site_aniso_U_22
_atom_site_aniso_U_33
_atom_site_aniso_U_23
_atom_site_aniso_U_13
_atom_site_aniso_U_12
Pb1 0.00270(2) 0.00270(2) 0.00270(2) 0.000 0.000 0.000
Cu1 0.00351(3) 0.00351(3) 0.00308(3) 0.000 0.000 -0.00080(2)
O1 0.00422(6) 0.00422(6) 0.00422(6) 0.00014(6) 0.00014(6) 0.00014(6)
Cl1 0.0142(3) 0.0142(3) 0.0142(3) 0.000 0.000 0.000
Br1 0.0142(3) 0.0142(3) 0.0142(3) 0.000 0.000 0.000
loop_
_atom_type_symbol
_atom_type_description
_atom_type_scat_dispersion_real
_atom_type_scat_dispersion_imag
_atom_type_scat_source
O O 0.0056 0.0036 'International Tables Vol C Tables 4.2.6.8 and 6.1.1.4'
Cl Cl 0.0998 0.0984 'International Tables Vol C Tables 4.2.6.8 and 6.1.1.4'
Cu Cu 0.3240 0.8257 'International Tables Vol C Tables 4.2.6.8 and 6.1.1.4'
Br Br 0.1811 1.6452 'International Tables Vol C Tables 4.2.6.8 and 6.1.1.4'
Pb Pb -1.1676 6.9287 'International Tables Vol C Tables 4.2.6.8 and 6.1.1.4'
loop_
_geom_angle_atom_site_label_1
_geom_angle_atom_site_label_2
_geom_angle_atom_site_label_3
_geom_angle
_geom_angle_site_symmetry_1
_geom_angle_site_symmetry_3
O1 Pb1 O1 180.00(4) . 97
O1 Pb1 O1 70.5 . 100
O1 Pb1 O1 109.5 97 100
O1 Pb1 O1 109.5 . 4
O1 Pb1 O1 70.5 97 4
O1 Pb1 O1 180.000(18) 100 4
O1 Pb1 O1 70.5 . 99
O1 Pb1 O1 109.5 97 99
O1 Pb1 O1 109.5 100 99
O1 Pb1 O1 70.5 4 99
O1 Pb1 O1 109.5 . 3
O1 Pb1 O1 70.5 97 3
O1 Pb1 O1 70.5 100 3
O1 Pb1 O1 109.5 4 3
O1 Pb1 O1 180.000(18) 99 3
O1 Pb1 O1 70.5 . 98
O1 Pb1 O1 109.5 97 98
O1 Pb1 O1 109.5 100 98
O1 Pb1 O1 70.5 4 98
O1 Pb1 O1 109.5 99 98
O1 Pb1 O1 70.5 3 98
O1 Pb1 O1 109.5 . 2
O1 Pb1 O1 70.529(1) 97 2
O1 Pb1 O1 70.5 100 2
O1 Pb1 O1 109.5 4 2
O1 Pb1 O1 70.5 99 2
O1 Pb1 O1 109.5 3 2
O1 Pb1 O1 180.00(4) 98 2
O1 Pb1 Cu1 144.7 . 73_445
O1 Pb1 Cu1 35.3 97 73_445
O1 Pb1 Cu1 90.0 100 73_445
O1 Pb1 Cu1 90.0 4 73_445
O1 Pb1 Cu1 90.0 99 73_445
O1 Pb1 Cu1 90.0 3 73_445
O1 Pb1 Cu1 144.7 98 73_445
O1 Pb1 Cu1 35.3 2 73_445
O1 Pb1 Cu1 35.3 . 5
O1 Pb1 Cu1 144.7 97 5
O1 Pb1 Cu1 35.3 100 5
O1 Pb1 Cu1 144.7 4 5
O1 Pb1 Cu1 90.0 99 5
O1 Pb1 Cu1 90.0 3 5
O1 Pb1 Cu1 90.0 98 5
O1 Pb1 Cu1 90.0 2 5
Cu1 Pb1 Cu1 120.0 73_445 5
O1 Pb1 Cu1 35.3 . 9
O1 Pb1 Cu1 144.7 97 9
O1 Pb1 Cu1 90.0 100 9
O1 Pb1 Cu1 90.0 4 9
O1 Pb1 Cu1 35.3 99 9
O1 Pb1 Cu1 144.7 3 9
O1 Pb1 Cu1 90.0 98 9
O1 Pb1 Cu1 90.0 2 9
Cu1 Pb1 Cu1 120.0 73_445 9
Cu1 Pb1 Cu1 60.0 5 9
O1 Pb1 Cu1 144.7 . 57_454
O1 Pb1 Cu1 35.3 97 57_454
O1 Pb1 Cu1 90.0 100 57_454
O1 Pb1 Cu1 90.0 4 57_454
O1 Pb1 Cu1 144.7 99 57_454
O1 Pb1 Cu1 35.3 3 57_454
O1 Pb1 Cu1 90.0 98 57_454
O1 Pb1 Cu1 90.0 2 57_454
Cu1 Pb1 Cu1 60.0 73_445 57_454
Cu1 Pb1 Cu1 120.0 5 57_454
Cu1 Pb1 Cu1 180.0 9 57_454
O1 Cu1 O1 180.0 98 74
O1 Cu1 O1 93.64(4) 98 169
O1 Cu1 O1 86.36(4) 74 169
O1 Cu1 O1 86.36(4) 98 .
O1 Cu1 O1 93.64(4) 74 .
O1 Cu1 O1 180.0 169 .
O1 Cu1 Pb1 43.18(2) 98 .
O1 Cu1 Pb1 136.82(2) 74 .
O1 Cu1 Pb1 136.82(2) 169 .
O1 Cu1 Pb1 43.18(2) . .
O1 Cu1 Pb1 136.82(2) 98 73
O1 Cu1 Pb1 43.18(2) 74 73
O1 Cu1 Pb1 43.18(2) 169 73
O1 Cu1 Pb1 136.82(2) . 73
Pb1 Cu1 Pb1 180.0 . 73
Cu1 O1 Cu1 116.091(14) 9 .
Cu1 O1 Cu1 116.091(14) 9 5
Cu1 O1 Cu1 116.091(14) . 5
Cu1 O1 Pb1 101.56(2) 9 .
Cu1 O1 Pb1 101.56(2) . .
Cu1 O1 Pb1 101.56(2) 5 .
loop_
_geom_bond_atom_site_label_1
_geom_bond_atom_site_label_2
_geom_bond_distance
_geom_bond_site_symmetry_2
Pb1 O1 2.2758(9) .
Pb1 O1 2.2758(9) 97
Pb1 O1 2.2758(9) 100
Pb1 O1 2.2758(9) 4
Pb1 O1 2.2758(9) 99
Pb1 O1 2.2758(9) 3
Pb1 O1 2.2758(9) 98
Pb1 O1 2.2758(9) 2
Pb1 Cu1 3.2583(7) 73_445
Pb1 Cu1 3.2583(7) 5
Pb1 Cu1 3.2583(7) 9
Pb1 Cu1 3.2583(7) 57_454
Cu1 O1 1.9201(4) 98
Cu1 O1 1.9201(4) 74
Cu1 O1 1.9201(4) 169
Cu1 O1 1.9201(4) .
Cu1 Pb1 3.2583(7) 73
O1 Cu1 1.9201(4) 9
O1 Cu1 1.9201(4) 5
