#------------------------------------------------------------------------------
#$Date: 2019-12-26 20:23:44 +0200 (Thu, 26 Dec 2019) $
#$Revision: 246054 $
#$URL: file:///home/coder/svn-repositories/cod/cif/2/30/06/2300662.cif $
#------------------------------------------------------------------------------
#
# This file is available in the Crystallography Open Database (COD),
# http://www.crystallography.net/. The original data for this entry
# were provided by IUCr Journals, http://journals.iucr.org/.
#
# The file may be used within the scientific community so long as
# proper attribution is given to the journal article from which the
# data were obtained.
#
data_2300662
loop_
_publ_author_name
'Gromilov, Sergey'
'Chepurov, Anatoly'
'Sonin, Valeri'
'Zhimulev, Egor'
'Sukhikh, Aleksandr'
'Chepurov, Aleksei'
'Shcheglov, Dmitry'
_publ_section_title
;
 Formation of two crystal modifications of Fe7C3&#x2212;x&#x000D; at
 5.5&#x2005;GPa
;
_journal_coeditor_code           GJ5230
_journal_issue                   6
_journal_name_full               'Journal of Applied Crystallography'
_journal_page_first              1378
_journal_paper_doi               10.1107/S1600576719013347
_journal_volume                  52
_journal_year                    2019
_chemical_formula_moiety         'C6 Fe14'
_chemical_formula_sum            'C6 Fe14'
_chemical_formula_weight         853.96
_chemical_name_common            'iron carbide'
_chemical_name_systematic        'iron carbide'
_space_group_crystal_system      orthorhombic
_space_group_IT_number           61
_space_group_name_Hall           '-P 2ac 2ab'
_space_group_name_H-M_alt        'P b c a'
_atom_sites_solution_primary     dual
_cell_angle_alpha                90
_cell_angle_beta                 90
_cell_angle_gamma                90
_cell_formula_units_Z            4
_cell_length_a                   11.9698(6)
_cell_length_b                   4.5240(2)
_cell_length_c                   13.7658(6)
_cell_measurement_reflns_used    4135
_cell_measurement_temperature    298
_cell_measurement_theta_max      33.19
_cell_measurement_theta_min      3.40
_cell_volume                     745.44(6)
_computing_cell_refinement       'Bruker SAINT V8.32B'
_computing_data_collection       'Bruker APEX2 V2013.6-2'
_computing_data_reduction        'Bruker SAINT V8.32B'
_computing_molecular_graphics    'Olex2 (Dolomanov et al., 2009)'
_computing_publication_material  'Olex2 (Dolomanov et al., 2009)'
_computing_structure_refinement  'SHELXL 2018/3'
_computing_structure_solution    'SHELXT 2014/5'
_diffrn_ambient_temperature      298
_diffrn_detector_area_resol_mean 25
_diffrn_measured_fraction_theta_full 1.000
_diffrn_measured_fraction_theta_max 1.000
_diffrn_measurement_device_type  'Bruker APEX-II CCD'
_diffrn_measurement_method       '\f and \w scans'
_diffrn_radiation_type           MoK\a
_diffrn_radiation_wavelength     0.71073
_diffrn_reflns_av_R_equivalents  0.0290
_diffrn_reflns_av_unetI/netI     0.0210
_diffrn_reflns_limit_h_max       18
_diffrn_reflns_limit_h_min       -16
_diffrn_reflns_limit_k_max       6
_diffrn_reflns_limit_k_min       -6
_diffrn_reflns_limit_l_max       10
_diffrn_reflns_limit_l_min       -21
_diffrn_reflns_number            6522
_diffrn_reflns_theta_full        25.242
_diffrn_reflns_theta_max         33.239
_diffrn_reflns_theta_min         2.960
_diffrn_standards_number         0
_exptl_absorpt_coefficient_mu    26.255
_exptl_absorpt_correction_T_max  0.7465
_exptl_absorpt_correction_T_min  0.4357
_exptl_absorpt_correction_type   multi-scan
_exptl_absorpt_process_details
;
 SADABS-2012/1 (Bruker,2012) was used for absorption correction. wR2(int)
 was 0.1120 before and 0.0329 after correction. The Ratio of minimum to
 maximum transmission is 0.5837. The \l/2 correction factor is 0.0015.
;
_exptl_crystal_colour            'metallic light gray'
_exptl_crystal_density_diffrn    7.609
_exptl_crystal_description       block
_exptl_crystal_F_000             1600
_exptl_crystal_size_max          0.12
_exptl_crystal_size_mid          0.08
_exptl_crystal_size_min          0.04
_refine_diff_density_max         1.829
_refine_diff_density_min         -0.845
_refine_ls_extinction_coef       0.0031(2)
_refine_ls_extinction_expression Fc^*^=kFc[1+0.001xFc^2^\l^3^/sin(2\q)]^-1/4^
_refine_ls_extinction_method     'SHELXL-2018/3 (Sheldrick 2018)'
_refine_ls_goodness_of_fit_ref   1.093
_refine_ls_hydrogen_treatment    undef
_refine_ls_matrix_type           full
_refine_ls_number_parameters     92
_refine_ls_number_reflns         1428
_refine_ls_number_restraints     0
_refine_ls_restrained_S_all      1.093
_refine_ls_R_factor_all          0.0278
_refine_ls_R_factor_gt           0.0245
_refine_ls_shift/su_max          0.001
_refine_ls_shift/su_mean         0.000
_refine_ls_structure_factor_coef Fsqd
_refine_ls_weighting_details
'w=1/[\s^2^(Fo^2^)+(0.0360P)^2^+1.3650P] where P=(Fo^2^+2Fc^2^)/3'
_refine_ls_weighting_scheme      calc
_refine_ls_wR_factor_gt          0.0642
_refine_ls_wR_factor_ref         0.0663
_reflns_number_gt                1268
_reflns_number_total             1428
_reflns_threshold_expression     'I > 2\s(I)'
_cod_data_source_file            gj5230sup1.cif
_cod_data_source_block           I
_cod_database_code               2300662
_shelx_space_group_comment
;
The symmetry employed for this shelxl refinement is uniquely defined
by the following loop, which should always be used as a source of
symmetry information in preference to the above space-group names.
They are only intended as comments.
;
_shelx_estimated_absorpt_t_min   0.145
_shelx_estimated_absorpt_t_max   0.420
_shelx_hkl_file
;
   0   1   0    0.10    0.30
   0  -1   0    1.20    0.40
   0  -2   0 1507.15   44.50
   0   2   0 1594.14   45.10
   0   3   0   -0.40    0.70
   0  -3   0   -2.60    0.60
   0   4   0 3550.44   95.79
   0  -4   0 3146.19   93.99
   0   5   0    0.40    0.70
   0  -5   0   -0.20    0.70
   0   6   0 3938.01  111.19
   1   0   0    0.20    0.10
  -1   0   0    0.00    0.10
   1   0   0   -0.10    0.10
  -1  -1   0    1.20    0.50
   1   1   0    0.50    0.40
  -1   1   0   -0.90    0.40
   1   2   0   -0.80    0.30
   1  -2   0   -0.50    0.40
  -1  -2   0    0.00    0.40
  -1   2   0   -0.20    0.30
   1   3   0   -0.10    0.40
  -1   3   0    0.10    0.40
  -1  -3   0    0.20    0.50
   1  -3   0    0.60    0.50
  -1   4   0   -0.50    0.50
  -1  -4   0   -0.80    0.60
   1  -4   0   -0.70    0.60
   1   4   0    0.10    0.50
  -1  -4   0    0.80    0.70
  -1  -5   0    0.90    0.80
   1   5   0    0.40    0.60
   1  -5   0   -0.20    0.70
  -1   5   0   -0.60    0.60
  -1   6   0    0.90    0.90
   1   6   0   -0.40    0.80
   2   0   0   11.10    0.60
   2   0   0   14.00    0.70
  -2   0   0   12.20    0.60
  -2  -1   0    0.30    0.50
   2   1   0    0.60    0.50
  -2   1   0    0.20    0.50
   2  -2   0 3182.28   92.99
  -2  -2   0 3129.79   92.09
  -2   2   0 3323.37   92.69
   2   2   0 3361.56   92.99
   2   3   0  238.88    7.30
  -2   3   0  238.68    7.30
  -2  -3   0  240.88    7.40
  -2  -4   0  709.23   20.70
   2  -4   0  686.63   20.80
  -2   4   0  709.73   20.50
   2   4   0  716.33   20.60
  -2   5   0    5.40    1.10
   2   5   0    4.50    0.90
   2  -5   0    5.00    1.20
  -2  -5   0    3.60    1.00
  -2   6   0    1.50    1.00
   2   6   0   -0.70    0.80
  -3   0   0    1.10    0.60
  -3  -1   0   -0.10    0.30
   3   1   0   -0.30    0.30
  -3   1   0   -0.10    0.30
   3  -1   0    0.10    0.40
   3   2   0   -0.10    0.30
   3  -2   0   -0.30    0.40
  -3   2   0    0.50    0.40
  -3  -2   0    0.10    0.40
   3  -3   0   -0.10    0.60
  -3   3   0   -0.10    0.40
   3   3   0    0.30    0.40
  -3  -3   0    0.20    0.50
  -3   4   0   -0.10    0.50
   3   4   0   -0.10    0.50
  -3  -4   0   -0.40    0.60
   3  -4   0   -0.10    0.70
   3  -5   0    0.00    0.90
  -3   5   0   -0.30    0.70
   3   5   0    0.70    0.70
   3   6   0   -0.20    0.80
  -3   6   0    1.40    1.00
  -4   0   0  172.08    5.40
   4   0   0  177.48    5.40
   4  -1   0   54.99    2.30
   4   1   0   69.99    2.20
  -4   1   0   57.39    2.20
  -4  -1   0   59.19    2.10
   4  -2   0 2761.22   82.59
   4   2   0 2988.50   83.29
  -4  -2   0 2946.71   83.59
  -4   2   0 2918.71   83.19
  -4   3   0 2531.55   73.29
   4   3   0 2535.15   74.19
  -4  -3   0 2597.24   73.59
   4  -3   0 2704.73   74.29
   4   4   0  524.45   16.00
  -4   4   0  556.14   16.00
  -4  -4   0  550.34   16.10
   4  -4   0  525.25   16.30
  -4   5   0  202.88    7.50
   4   5   0  213.48    7.50
   4  -5   0  260.17    8.20
  -4   6   0   74.29    3.80
   4   6   0   78.79    3.70
  -5   0   0   -1.10    0.50
   5   0   0    0.30    0.60
   5  -1   0    0.80    0.60
  -5  -1   0    0.50    0.40
   5   1   0   -0.10    0.40
  -5   1   0    0.30    0.40
  -5   2   0    0.10    0.40
  -5  -2   0   -0.10    0.40
   5  -2   0    0.40    0.60
   5   2   0    0.10    0.40
  -5  -3   0    0.60    0.60
   5   3   0    0.00    0.50
  -5   3   0    0.80    0.50
   5  -3   0    0.30    0.70
   5   4   0    0.20    0.50
   5  -4   0   -1.00    0.80
  -5  -4   0    0.30    0.60
  -5   4   0    0.90    0.70
   5   5   0    1.20    0.80
   5  -5   0    0.40    1.10
  -5   5   0    0.10    0.70
  -5   6   0    0.00    0.90
   5   6   0    0.30    0.90
  -6   0   0 1812.52   53.39
   6   0   0 1936.91   54.59
   6   1   0 1349.47   39.00
  -6  -1   0 1365.96   38.20
  -6   1   0 1337.27   38.30
   6  -1   0 1350.96   38.40
  -6   2   0  347.47   10.60
   6   2   0  358.66   10.50
   6  -2   0  353.96   10.80
  -6  -2   0  350.26   10.50
  -6  -3   0 5565.24  156.98
  -6   3   0 5678.63  158.58
   6   3   0 5479.25  157.98
   6  -3   0 5303.37  156.28
  -6   4   0    2.80    0.70
  -6  -4   0    4.10    0.90
   6  -4   0    4.50    1.20
   6   4   0    4.90    1.00
  -6   5   0   33.90    2.30
   6  -5   0   34.10    2.80
   6   5   0   33.70    2.20
  -6   6   0  162.48    6.30
   6   6   0  158.28    6.20
  -7   0   0   -0.20    0.50
   7   0   0    1.40    0.60
   7  -2   0   -0.40    0.70
   7   2   0    0.20    0.50
  -7   2   0    0.20    0.50
  -7  -2   0    0.40    0.50
   7  -3   0   15.80    1.70
   7  -4   0    0.80    1.00
   7   4   0    0.20    0.60
  -7   4   0    0.50    0.70
  -7   5   0    1.20    1.00
   7  -5   0    1.10    1.20
   7   5   0    0.30    0.80
   7   6   0    0.00    0.90
  -7   6   0   -0.80    1.00
  -8   0   0  991.10   28.50
   8   0   0  993.20   28.60
   8   1   0 1422.86   40.20
  -8   1   0 1399.76   40.20
  -8  -1   0 1439.36   40.10
   8  -1   0 1373.46   40.30
  -8   2   0   44.20    2.30
  -8  -2   0   48.50    2.20
   8   2   0   47.60    2.30
   8  -2   0   49.20    2.50
   8  -3   0  753.32   23.00
  -8  -3   0  764.12   22.50
  -8   3   0  796.12   22.70
   8   3   0  780.02   22.60
   8   4   0   14.50    1.60
   8  -4   0   15.10    2.00
  -8   4   0   14.90    1.60
  -8   5   0  316.77   10.30
   8  -5   0  307.57   10.90
   8   5   0  302.57   10.20
   8   6   0  172.68    6.70
   9   0   0   -2.40    0.70
  -9   0   0   -1.50    0.60
  -9  -1   0    0.30    0.60
   9  -1   0    1.20    0.70
  -9   1   0    0.50    0.60
   9   1   0    0.50    0.70
   9  -2   0   -0.60    0.70
  -9  -2   0    0.30    0.60
   9   2   0    0.80    0.60
  -9   2   0    0.60    0.70
   9  -3   0    0.70    1.00
  -9   3   0    0.10    0.70
   9   3   0    0.90    0.70
  -9   4   0   -0.10    0.80
   9  -4   0   -0.20    0.90
   9   4   0   -0.80    0.80
  -9   5   0   -0.30    0.90
   9   5   0    1.20    1.00
   9  -5   0    1.50    1.30
   9   6   0   -0.50    1.00
  10   0   0 1966.70   55.79
 -10   0   0 1951.00   55.59
 -10  -1   0 4584.64  128.09
  10   1   0 4335.47  127.49
  10  -1   0 4731.73  129.69
 -10   1   0 4405.46  127.29
 -10   2   0  218.88    7.40
 -10  -2   0  218.28    7.10
  10  -2   0  215.98    7.50
  10   2   0  217.28    7.30
  10   3   0  203.18    7.00
 -10   3   0  209.88    7.10
  10  -3   0  197.98    7.30
  10   4   0  167.58    6.30
  10  -4   0  177.38    6.90
 -10   4   0  169.88    6.40
  10   5   0 2847.71   82.69
  10  -5   0 2965.90   83.49
 -11   0   0    0.60    0.70
  11   0   0   -0.20    0.80
  11   1   0    0.40    0.80
  11  -1   0    1.50    0.90
 -11   1   0    0.40    0.70
 -11  -1   0    0.30    0.70
  11   2   0    0.10    0.80
  11  -2   0   -0.50    0.80
 -11   2   0    0.30    0.80
 -11   3   0    0.50    0.90
  11  -3   0   -0.40    1.00
  11   3   0    0.50    0.80
  11  -4   0   -1.50    1.10
 -11   4   0    0.80    0.90
  11   4   0    1.10    1.10
  11   5   0    0.40    1.20
  11  -5   0   -0.60    1.30
  12   0   0  423.16   13.60
 -12   0   0  447.66   13.40
  12  -1   0  310.57   10.00
  12   1   0  289.17    9.90
 -12   1   0  304.77    9.70
  12   2   0    3.10    1.10
 -12   2   0    5.60    1.20
  12  -2   0    4.80    1.20
  12   3   0 2425.26   69.29
 -12   3   0 2358.96   69.29
  12  -3   0 2506.35   69.49
  12  -4   0   12.50    2.20
  12   4   0    7.20    1.60
  12  -5   0    2.10    1.40
  12   5   0    0.60    1.20
  13   0   0    0.40    0.90
  13  -1   0    0.20    0.80
  13   1   0   -0.20    0.90
  13   2   0   -1.20    0.90
  13  -2   0   -0.60    0.90
  13  -3   0   -0.20    1.10
  13   3   0   -1.30    0.90
  13   4   0    0.20    1.10
  13  -4   0    0.20    1.20
  14   0   0   62.19    3.40
  14  -1   0   28.80    2.30
  14   1   0   28.50    2.50
  14   2   0  175.68    7.00
  14  -2   0  193.48    7.10
  14  -3   0    2.10    1.30
  14   3   0    1.50    1.10
  14   4   0   70.19    4.00
  14  -4   0   65.29    4.10
  15   0   0    1.50    1.20
  15  -1   0   -1.50    0.90
  15   1   0   -0.20    1.10
  15  -2   0    0.30    1.00
  15   2   0   -1.50    1.00
  15   3   0   -0.20    1.00
  15  -3   0   -0.40    1.00
  15  -4   0    1.90    1.40
  15   4   0    1.50    1.40
  16   0   0   64.49    3.80
  16  -1   0  215.48    8.00
  16   1   0  214.98    8.10
  16   2   0 1883.31   55.39
  16  -2   0 1930.61   55.19
  16  -3   0  124.69    5.60
  16   3   0  117.49    5.60
  17   0   0   -1.20    1.10
  17  -1   0   -0.60    1.00
  17   1   0   -0.70    1.10
  17   2   0    0.40    1.20
  17  -2   0    0.20    1.10
  18   0   0 1992.50   57.89
  18   1   0   24.60    2.70
  18  -1   0   21.30    2.70
   0   1  -1    0.10    0.20
   0   1  -1    0.10    0.20
   0   1   1    0.60    0.20
   0  -1   1    0.20    0.20
   0  -1  -1    0.30    0.30
   0  -2   1 1684.13   47.30
   0   2  -1 1655.23   47.50
   0   2   1 1622.54   46.80
   0  -2  -1 1644.44   47.20
   0  -3   1    0.00    0.50
   0   3   1    0.20    0.40
   0  -3  -1    0.30    0.50
   0   3  -1    0.10    0.40
   0  -4   1  253.97    8.10
   0   4  -1  248.78    7.90
   0   4   1  246.58    7.90
   0  -4  -1  259.27    8.10
   0   5  -1   -0.10    0.70
   0  -5  -1    0.80    0.90
   0   5   1    0.40    0.60
   0   6  -1  454.65   14.20
   0   6   1  443.16   14.10
  -1   0  -1    1.80    0.30
   1   0  -1    1.20    0.10
   1   0  -1    1.30    0.20
   1   0   1    0.90    0.20
  -1   1  -1    0.70    0.20
   1   1   1    0.50    0.20
   1  -1  -1    0.20    0.20
  -1  -1   1    0.20    0.20
  -1  -1  -1    0.50    0.30
   1   1  -1    0.30    0.20
   1   1  -1    0.30    0.20
  -1   1   1    0.70    0.20
   1   2   1  763.02   21.60
  -1   2  -1  768.32   22.10
   1  -2  -1  744.43   21.70
  -1  -2   1  778.72   21.70
  -1  -2  -1  775.52   21.50
   1   2  -1  752.02   21.40
  -1   2   1  743.33   21.40
   1  -2   1  750.92   21.50
  -1  -3   1    2.40    0.60
  -1   3  -1    3.30    0.60
   1   3   1    2.60    0.60
   1  -3  -1    1.50    0.60
  -1  -3  -1    2.90    0.70
   1  -3   1    1.70    0.60
  -1   3   1    1.70    0.40
   1   3  -1    3.00    0.50
   1  -4  -1  674.83   19.70
  -1  -4   1  674.63   19.70
  -1   4  -1  652.73   19.40
   1   4   1  666.43   19.50
   1   4  -1  687.83   19.80
  -1  -4  -1  682.53   20.00
  -1   4   1  673.23   19.80
   1  -4   1  669.83   20.00
   1   5   1    0.90    0.70
   1  -5  -1    1.20    0.90
  -1   5  -1    1.70    0.80
   1  -5   1    1.40    0.90
  -1  -5  -1    1.10    0.80
   1   5  -1    0.50    0.70
  -1   5   1    0.90    0.70
   1   6   1   26.40    2.20
  -1   6  -1   26.30    2.20
   1   6  -1   27.70    2.20
  -1   6   1   30.20    2.30
   2   0   1    0.50    0.20
  -2   0   1    0.10    0.20
  -2   0  -1    0.00    0.20
   2   0  -1    2.40    0.40
   2   0  -1    0.70    0.30
   2   1   1    1.90    0.30
  -2  -1   1    2.10    0.30
  -2   1  -1    1.80    0.30
   2  -1   1    2.50    0.50
  -2  -1  -1    2.70    0.40
  -2   1   1    2.80    0.40
   2   1  -1    1.60    0.30
   2   1  -1    2.40    0.30
   2   2   1   67.39    2.30
   2  -2  -1   67.79    2.50
  -2  -2   1   69.89    2.40
  -2   2  -1   65.49    2.30
  -2   2   1   67.49    2.40
   2  -2   1   72.29    2.60
  -2  -2  -1   70.19    2.50
   2   2  -1   69.19    2.40
   2  -3  -1    0.70    0.50
   2   3   1    0.30    0.40
  -2   3  -1    0.60    0.50
  -2  -3   1    3.30    0.70
   2  -3   1    0.00    0.50
  -2  -3  -1    0.60    0.50
  -2   3   1    2.60    0.50
   2   3  -1    0.30    0.40
  -2  -4   1  493.65   15.20
   2   4   1  516.95   15.10
  -2  -4   1  513.65   15.20
  -2   4  -1  515.95   15.10
   2  -4  -1  498.75   15.30
  -2   4   1  509.25   15.30
  -2  -4  -1  538.85   15.50
   2   4  -1  506.65   15.30
   2  -4   1  516.35   15.60
   2   5   1    2.00    0.80
   2  -5  -1    2.60    1.00
  -2   5  -1    3.00    0.90
   2   5  -1    2.70    0.80
  -2  -5  -1    3.50    1.00
   2  -5   1    5.80    1.30
  -2   5   1    4.30    1.00
  -2  -5  -1    3.30    1.00
  -2   6  -1    5.10    1.20
   2   6   1    8.80    1.50
  -2   6   1    6.10    1.20
   2   6  -1    8.80    1.50
   3   0  -1    0.00    0.30
   3   0  -1    0.10    0.30
  -3   0  -1    0.00    0.40
  -3   0   1    0.10    0.30
   3   0   1    0.10    0.40
  -3  -1   1   60.39    1.90
   3   1   1   57.59    2.00
  -3   1  -1   55.29    2.00
   3  -1  -1   55.89    2.00
  -3  -1  -1   60.79    2.10
  -3   1   1   58.79    2.00
   3   1  -1   59.19    2.00
   3  -1   1   60.29    2.30
   3   1  -1   61.29    2.00
  -3  -2   1   20.10    1.10
  -3   2  -1   22.20    1.10
   3   2   1   21.70    1.10
   3  -2  -1   20.20    1.20
   3   2  -1   21.40    1.10
   3  -2   1   19.60    1.30
  -3  -2  -1   27.30    1.20
  -3   2   1   21.10    1.10
  -3  -3   1   -0.30    0.50
  -3   3  -1    0.10    0.40
   3   3   1    0.70    0.40
   3  -3  -1    0.00    0.50
   3  -3   1    0.50    0.60
  -3  -3  -1    0.90    0.60
  -3   3   1    0.50    0.40
   3   3  -1    0.80    0.50
  -3   4  -1    5.60    1.00
   3   4   1    4.40    0.80
   3  -4  -1    3.80    0.90
  -3  -4   1    2.80    0.80
   3   4  -1    6.70    1.00
  -3  -4  -1    3.50    0.90
   3  -4   1    4.70    1.00
   3   5   1   62.69    3.00
  -3   5  -1   65.99    3.10
   3  -5  -1   65.79    3.40
   3   5  -1   63.89    3.00
  -3  -5  -1   68.19    3.20
   3  -5   1   65.29    3.50
  -3   5   1   67.39    3.10
   3   6   1    9.10    1.60
  -3   6  -1    8.90    1.50
   3   6  -1    8.10    1.50
  -3   6   1    9.60    1.70
  -4   0   1    0.50    0.40
   4   0  -1    0.40    0.40
  -4   0  -1    0.10    0.40
   4   0   1    0.10    0.40
   4  -1  -1  519.15   14.80
  -4   1  -1  502.15   14.80
   4   1   1  510.75   14.70
  -4  -1   1  523.95   14.70
  -4   1   1  520.85   15.40
   4  -1   1  519.05   15.70
  -4  -1  -1  559.74   15.50
   4   1  -1  555.94   15.40
  -4   2  -1   41.10    1.70
   4   2   1   41.60    1.70
   4  -2  -1   40.10    1.90
  -4  -2   1   42.70    1.70
   4   2  -1   41.80    1.70
  -4   2   1   43.40    1.70
  -4  -2  -1   40.40    1.70
   4  -2   1   38.20    1.90
   4  -3  -1   10.00    1.20
  -4  -3   1    8.40    1.00
  -4   3  -1    6.90    0.90
   4   3   1    9.80    1.00
  -4  -3  -1   10.10    1.10
   4  -3   1    9.60    1.30
  -4   3   1   10.50    1.00
   4   3  -1   10.00    0.90
  -4  -4   1  244.78    8.00
   4  -4  -1  251.47    8.20
   4   4   1  251.77    7.90
  -4   4  -1  247.18    7.90
  -4   4   1  256.57    8.10
   4   4  -1  240.18    8.10
  -4  -4  -1  259.07    8.20
   4  -4   1  269.27    8.60
  -4   5  -1   32.10    2.10
   4  -5  -1   31.20    2.50
   4   5   1   28.90    2.00
   4  -5   1   29.20    2.50
  -4   5   1   31.40    2.10
   4   5  -1   33.20    2.10
   4   6   1    2.60    1.10
  -4   6  -1    1.10    1.00
  -4   6   1    3.10    1.10
   4   6  -1    5.00    1.20
  -5   0   1    0.20    0.40
  -5   0  -1    0.30    0.40
   5   0   1    0.10    0.50
   5   0  -1    0.00    0.40
  -5   1  -1 1284.17   36.60
  -5  -1   1 1283.17   35.60
   5  -1  -1 1268.47   35.90
   5   1   1 1226.28   35.70
  -5  -1  -1 1410.56   37.70
   5  -1   1 1287.47   37.20
  -5   1   1 1243.98   36.90
   5   1  -1 1295.77   37.40
  -5  -2   1  300.97    8.90
  -5   2  -1  312.27    9.00
   5   2   1  294.17    8.90
   5  -2  -1  286.67    9.10
  -5   2   1  308.27    9.10
   5   2  -1  310.27    9.10
   5  -2   1  296.37    9.40
  -5  -2  -1  301.37    9.10
  -5   3  -1   12.50    1.10
   5  -3  -1    9.90    1.30
  -5  -3   1   10.30    1.10
   5   3   1   10.70    1.10
   5   3  -1   10.90    1.10
  -5   3   1    9.60    1.00
   5  -3   1   13.80    1.50
  -5  -3  -1   13.10    1.20
   5  -4  -1  118.19    4.60
  -5  -4   1  117.19    4.30
  -5   4  -1  114.99    4.30
   5   4   1  117.09    4.30
  -5   4   1  116.19    4.30
  -5  -4  -1  113.59    4.30
   5  -4   1  119.99    4.80
   5   4  -1  117.69    4.30
  -5   5  -1   52.19    2.80
   5   5   1   52.59    2.70
   5  -5  -1   52.79    3.20
   5  -5   1   50.89    3.20
  -5   5   1   48.80    2.60
   5   5  -1   47.30    2.60
   5   6   1   63.49    3.40
  -5   6  -1   62.49    3.50
   5   6  -1   64.19    3.40
  -5   6   1   64.49    3.50
  -6   0  -1    0.20    0.50
   6   0   1    0.10    0.50
   6   0  -1    0.30    0.50
  -6   0   1    0.40    0.40
  -6   1  -1 1049.40   29.90
  -6  -1   1 1061.79   29.60
   6  -1  -1 1044.20   29.90
   6   1   1 1028.10   29.70
   6  -1   1 1066.49   30.50
   6   1  -1 1066.79   30.20
  -6  -1  -1 1054.39   30.20
  -6   1   1 1060.49   30.30
   6   2   1  228.18    6.90
  -6   2  -1  221.78    6.90
   6  -2  -1  205.68    7.00
  -6  -2   1  220.48    6.80
   6   2  -1  230.98    7.10
  -6  -2  -1  229.58    7.10
  -6   2   1  230.98    7.10
   6  -2   1  220.38    7.40
   6  -3  -1  276.07    8.70
   6   3   1  271.67    8.50
  -6   3  -1  267.77    8.50
  -6  -3   1  267.27    8.40
  -6   3   1  273.57    8.30
   6  -3   1  265.97    8.70
   6   3  -1  262.97    8.30
  -6  -3  -1  261.17    8.30
  -6   4  -1   88.89    3.70
   6   4   1   96.49    3.80
   6  -4  -1  101.49    4.20
   6  -4   1  102.59    4.30
  -6   4   1   92.79    3.70
  -6  -4  -1   91.99    3.80
   6   4  -1   93.19    3.70
   6   5   1  182.18    6.50
   6  -5  -1  185.28    7.10
  -6   5  -1  185.58    6.60
   6   5  -1  172.98    6.20
   6  -5   1  177.98    6.90
  -6   5   1  174.68    6.30
   6   6   1   48.30    3.00
  -6   6  -1   53.49    3.20
  -6   6   1   52.99    3.20
   6   6  -1   51.99    3.10
  -7   0   1    1.10    0.50
   7   0  -1    0.50    0.60
  -7   0  -1    1.30    0.60
   7   0   1    0.20    0.50
   7  -1  -1  572.54   17.20
   7   1   1  605.84   17.10
  -7   1  -1  550.44   17.10
  -7  -1   1  603.74   16.90
  -7  -1  -1  619.64   17.60
  -7   1   1  606.34   17.60
   7   1  -1  589.04   17.50
   7  -1   1  592.34   17.80
  -7  -2   1   72.09    2.80
   7  -2  -1   75.49    3.20
   7   2   1   73.49    2.90
  -7   2  -1   76.29    3.00
  -7  -2  -1   73.69    2.90
   7  -2   1   75.89    3.30
  -7   2   1   78.09    3.00
   7   2  -1   75.59    2.90
  -7  -3   1   96.79    3.50
  -7   3  -1   92.09    3.60
   7  -3  -1   93.69    3.90
   7   3   1   91.79    3.60
  -7   3   1   92.29    3.60
  -7  -3  -1   93.69    3.60
   7   3  -1   95.79    3.60
   7  -3   1   91.89    4.00
  -7   4  -1   63.79    3.00
   7  -4  -1   65.39    3.30
   7   4   1   59.89    2.90
  -7   4   1   70.59    3.00
  -7  -4  -1   60.89    3.00
   7  -4   1   63.29    3.40
   7   4  -1   64.19    2.90
  -7   5  -1   58.99    3.10
   7   5   1   56.29    3.00
   7  -5  -1   65.39    3.70
  -7   5   1   52.49    2.90
   7  -5   1   59.79    3.60
   7   5  -1   50.09    2.80
  -7   6  -1    0.40    1.10
   7   6   1    0.30    1.00
   7   6  -1    0.30    0.90
   8   0   1    1.10    0.60
   8   0  -1    0.00    0.60
  -8   0  -1    0.10    0.60
  -8   0   1    0.70    0.50
   8   1   1   39.50    2.10
  -8   1  -1   40.40    2.10
   8  -1  -1   41.10    2.20
  -8  -1   1   42.20    1.90
  -8  -1  -1   44.00    2.10
   8  -1   1   41.40    2.30
  -8   1   1   41.20    2.10
   8   1  -1   40.20    2.10
   8  -2  -1   23.00    1.80
   8   2   1   25.10    1.60
  -8  -2   1   24.60    1.50
   8   2  -1   24.40    1.50
  -8  -2  -1   19.30    1.50
  -8   2   1   23.10    1.60
   8   3   1   31.40    1.90
  -8   3  -1   33.80    2.00
   8  -3  -1   32.30    2.30
  -8  -3  -1   33.50    2.00
  -8   3   1   32.10    1.90
   8  -3   1   29.50    2.20
   8   3  -1   30.40    1.90
   8   4   1   33.60    2.20
  -8   4  -1   37.80    2.30
   8  -4  -1   38.50    2.70
   8  -4   1   35.90    2.70
   8   4  -1   36.20    2.20
  -8   4   1   36.00    2.20
   8  -5  -1   71.39    4.00
   8   5   1   67.69    3.40
  -8   5  -1   64.19    3.40
   8  -5   1   72.89    4.20
   8   5  -1   66.29    3.40
  -8   5   1   69.29    3.50
  -8   6  -1   -0.80    1.00
   8   6   1   -0.20    0.90
   8   6  -1   -0.40    0.90
   9   0  -1   -0.50    0.60
   9   0   1   -0.30    0.60
  -9   0   1   -0.10    0.50
  -9   0  -1   -0.10    0.60
  -9   1  -1  189.68    6.30
  -9  -1   1  180.08    6.00
   9   1   1  183.08    6.20
   9  -1  -1  184.18    6.30
   9   1  -1  189.68    6.30
  -9  -1  -1  187.18    6.20
  -9   1   1  183.48    6.20
   9  -1   1  180.08    6.40
  -9  -2   1   64.09    2.70
  -9   2  -1   64.29    2.90
   9  -2  -1   64.19    3.00
   9   2   1   57.39    2.80
  -9   2   1   59.99    2.80
   9   2  -1   61.79    2.80
  -9  -2  -1   63.89    2.80
   9  -2   1   62.49    3.10
   9  -3  -1   19.60    1.90
  -9   3  -1   17.60    1.70
   9   3   1   25.00    1.80
   9  -3   1   17.00    2.00
  -9   3   1   18.60    1.60
  -9  -3  -1   18.60    1.60
   9   3  -1   17.30    1.50
  -9   4  -1   61.59    3.10
   9   4   1   55.09    3.00
   9  -4  -1   59.39    3.50
  -9   4   1   60.19    3.10
   9  -4   1   60.09    3.60
   9   4  -1   62.19    3.10
  -9   5  -1   29.10    2.40
   9  -5  -1   23.30    2.80
   9   5   1   24.10    2.20
   9   5  -1   31.30    2.40
   9  -5   1   26.50    2.80
  -9   5   1   27.70    2.30
   9   6   1    0.30    1.00
   9   6  -1    1.40    1.10
 -10   0  -1    0.60    0.70
 -10   0   1    0.00    0.60
  10   0  -1    0.50    0.70
  10   0   1   -0.10    0.70
 -10  -1   1  716.13   21.80
 -10   1  -1  771.62   22.10
  10   1   1  762.42   22.20
  10  -1  -1  755.42   22.20
  10  -1   1  773.72   22.90
  10   1  -1  751.32   22.70
 -10   1   1  792.02   22.60
 -10  -1  -1  770.02   22.60
 -10   2  -1  112.79    4.40
  10   2   1  101.09    4.20
  10  -2  -1  109.39    4.40
  10   2  -1  107.29    4.20
  10  -2   1  106.59    4.40
 -10  -2  -1  108.19    4.20
 -10   2   1  112.49    4.30
  10   3   1    0.30    0.70
  10  -3  -1    0.90    1.00
 -10   3  -1    0.20    0.80
  10  -3   1   -0.80    0.90
 -10   3   1   -0.40    0.70
  10   3  -1    0.30    0.70
  10  -4  -1   76.69    4.00
 -10   4  -1   75.59    3.70
  10   4   1   69.79    3.60
  10  -4   1   72.09    4.00
 -10   4   1   72.99    3.60
  10   4  -1   75.99    3.60
  10  -5  -1    5.40    1.70
 -10   5  -1    5.60    1.40
  10   5   1    4.30    1.30
  10  -5   1    5.10    1.80
  10   5  -1    5.10    1.30
 -11   0   1    0.00    0.60
  11   0   1    0.20    0.80
 -11   0  -1    2.40    0.90
  11   0  -1   -0.20    0.70
 -11   1  -1  508.65   15.20
 -11  -1   1  492.65   15.00
  11   1   1  503.95   15.30
  11  -1  -1  488.25   15.20
 -11  -1  -1  492.45   15.60
  11  -1   1  512.75   15.90
  11   1  -1  536.85   15.90
 -11   1   1  532.75   15.70
  11   2   1  134.49    5.10
 -11   2  -1  130.09    5.10
  11  -2  -1  129.79    5.10
  11   2  -1  129.69    5.00
 -11  -2  -1  124.39    4.80
 -11   2   1  132.19    5.00
  11  -2   1  130.89    5.20
  11  -3  -1   51.19    3.10
 -11   3  -1   56.89    3.00
  11   3   1   50.49    2.90
  11   3  -1   48.40    2.80
 -11   3   1   54.19    2.90
  11  -3   1   50.99    3.10
  11  -4  -1  182.48    7.20
 -11   4  -1  182.18    6.90
  11   4   1  185.98    6.90
  11   4  -1  184.38    6.90
  11  -4   1  186.28    7.30
  11   5   1  118.29    5.30
  11  -5  -1  121.99    5.90
  11   5  -1  115.69    5.20
  12   0   1   -0.50    0.80
  12   0  -1   -0.30    0.70
 -12   0  -1   -0.20    0.70
  12  -1  -1  220.78    7.80
  12   1   1  231.68    7.90
 -12   1  -1  226.78    7.70
 -12   1   1  234.98    7.70
  12  -1   1  234.18    8.00
  12   1  -1  214.68    7.80
 -12  -1  -1  229.38    7.70
  12  -2  -1   45.10    2.80
 -12   2  -1   47.30    2.70
  12   2   1   48.60    2.80
  12   2  -1   52.49    2.90
  12  -2   1   51.79    3.00
 -12   3  -1   99.69    4.50
  12  -3  -1  104.59    4.60
  12   3   1   99.89    4.50
  12   3  -1   99.09    4.40
  12  -3   1  100.69    4.60
  12   4   1   65.29    3.70
  12  -4  -1   69.49    4.00
 -12   4  -1   66.79    3.80
  12   4  -1   67.79    3.70
  12  -4   1   68.89    4.00
  12   5   1  142.29    6.10
  12  -5  -1  141.59    6.50
  12   5  -1  141.29    6.00
  13   0   1   -0.10    0.90
 -13   0  -1    0.60    0.80
  13   0  -1    1.80    1.00
 -13   1  -1  125.39    5.00
  13  -1  -1  142.59    5.30
  13   1   1  114.89    5.10
  13  -1   1  115.99    5.00
  13   1  -1  125.99    5.00
  13   2   1    6.70    1.40
  13  -2  -1    6.70    1.40
 -13   2  -1    8.20    1.40
  13   2  -1    5.50    1.30
  13  -2   1    8.40    1.50
  13  -3  -1    0.40    1.00
  13   3   1    1.30    1.10
  13   3  -1   -0.10    0.90
  13  -3   1    1.00    1.10
  13   4   1   -0.30    1.10
  13  -4  -1    2.80    1.40
  13   4  -1    1.30    1.20
  14   0   1    0.40    1.00
  14   0  -1    1.20    1.00
  14   1   1   22.40    2.30
  14  -1  -1   20.60    2.10
  14   1  -1   23.20    2.30
  14  -1   1   23.70    2.20
  14  -2  -1   56.89    3.20
  14   2   1   51.09    3.30
  14  -2   1   52.09    3.20
  14   2  -1   58.19    3.40
  14  -3  -1   -0.60    1.00
  14   3   1   -0.40    1.00
  14  -3   1    1.60    1.10
  14   3  -1    0.60    1.10
  14  -4  -1   43.20    3.30
  14   4   1   39.10    3.20
  14  -4   1   41.90    3.30
  14   4  -1   36.30    3.00
  15   0  -1    0.80    1.10
  15   0   1    1.00    1.10
  15   1   1    0.20    1.10
  15  -1  -1    1.90    1.10
  15  -1   1    1.80    1.10
  15   1  -1    0.50    1.10
  15  -2  -1  194.68    7.40
  15   2   1  200.68    7.70
  15   2  -1  191.28    7.30
  15  -2   1  186.18    7.20
  15  -3  -1    0.80    1.20
  15   3   1    1.50    1.20
  15   3  -1    1.50    1.20
  15  -3   1    0.90    1.20
  15  -4  -1  123.09    5.80
  15   4   1  111.99    5.60
  15   4  -1  110.39    5.50
  15  -4   1  122.89    5.70
  16   0   1   -1.40    1.00
  16   0  -1   -0.80    1.00
  16  -1  -1    5.60    1.40
  16   1   1    4.70    1.60
  16   1  -1    6.90    1.60
  16  -1   1    6.50    1.60
  16   2   1  143.49    6.20
  16  -2  -1  138.99    5.90
  16  -2   1  148.29    6.10
  16   2  -1  141.19    6.20
  16  -3  -1    1.80    1.30
  16   3   1    2.50    1.40
  16  -3   1    1.90    1.30
  16   3  -1    2.80    1.30
  17   0   1    0.00    1.10
  17   0  -1   -0.50    1.20
  17  -1  -1    0.90    1.20
  17   1   1    1.30    1.30
  17   1  -1    0.10    1.30
  17  -1   1    0.60    1.20
  17  -2  -1  163.98    6.70
  17   2   1  162.28    6.90
  17  -2   1  162.98    6.70
  17   2  -1  164.58    6.90
  18   0   1    0.50    1.30
  18   0  -1    2.40    1.40
  18   1   1    7.90    1.90
  18  -1  -1    7.00    1.60
  18  -1   1    7.20    1.80
  18   1  -1    6.70    1.70
   0   0  -2    0.50    0.10
   0   0   2    0.40    0.10
   0   0  -2    0.40    0.10
   0   1  -2   -0.20    0.20
   0  -1  -2   -0.30    0.30
   0   1   2    0.00    0.20
   0   1  -2    0.50    0.30
   0  -1   2    0.20    0.30
   0  -2  -2    4.90    0.70
   0   2   2    5.80    0.60
   0  -2   2    6.50    0.70
   0   2  -2    6.00    0.60
   0   3  -2   -0.10    0.40
   0   3   2    0.40    0.40
   0  -3   2   -0.70    0.40
   0  -3  -2    0.10    0.50
   0   4   2    1.10    0.60
   0  -4  -2    1.30    0.70
   0   4  -2    0.40    0.50
   0  -4  -2    0.40    0.60
   0  -4   2    0.20    0.70
   0  -5  -2    0.30    0.80
   0   5   2    0.00    0.60
   0   5  -2    0.20    0.70
   0   6   2   22.10    2.00
   0   6  -2   29.10    2.20
  -1   0  -2   18.30    0.80
  -1   0  -2   18.10    0.70
   1   0   2   17.00    0.70
  -1   1  -2    1.20    0.40
   1   1   2   -0.70    0.40
   1  -1  -2    1.60    0.50
  -1   1  -2    1.60    0.60
  -1  -1  -2    0.20    0.50
  -1   1   2   -0.50    0.40
   1  -1   2    2.60    0.70
   1   1  -2    1.00    0.40
   1   1  -2   -0.10    0.40
  -1  -2   2 3612.74  106.29
   1   2   2 3808.52  106.49
  -1  -2   2 3720.73  106.19
  -1   2  -2 3812.02  106.49
   1   2  -2 3793.32  105.29
  -1  -2  -2 3653.53  105.69
   1  -2   2 3559.44  105.79
  -1   2   2 3803.02  105.49
  -1   3  -2  169.68    5.40
   1  -3  -2  170.18    5.50
  -1  -3   2  164.18    5.50
   1   3   2  175.68    5.40
   1  -3   2  173.08    5.70
  -1  -3  -2  171.28    5.60
   1   3  -2  176.18    5.50
  -1   3   2  176.28    5.50
  -1  -4   2  786.02   23.10
   1  -4  -2  780.42   23.10
  -1   4  -2  799.52   22.90
   1   4   2  796.02   22.90
  -1   4   2  785.42   23.20
   1  -4   2  793.82   23.50
   1   4  -2  826.22   23.20
  -1  -4  -2  801.42   23.40
   1  -5  -2   26.50    2.10
   1   5   2   24.70    1.70
  -1   5  -2   26.20    1.80
  -1  -5  -2   36.30    2.20
  -1   5   2   23.20    1.80
   1   5  -2   25.80    1.80
   1   6   2   25.00    2.10
  -1   6  -2   23.10    2.10
   1   6  -2   28.40    2.20
  -1   6   2   27.30    2.20
  -2   0   2    1.50    0.30
   2   0  -2    1.20    0.40
  -2   0  -2    1.20    0.60
   2   0  -2    1.80    0.40
   2   0   2    0.80    0.50
  -2   1  -2    0.30    0.30
   2   1   2    0.10    0.30
   2  -1  -2    0.10    0.30
  -2  -1   2    0.30    0.20
   2   1  -2    0.20    0.20
  -2  -1  -2    0.50    0.40
   2   1  -2    0.00    0.20
  -2   1   2   -0.20    0.20
   2  -1   2   -0.10    0.50
   2   2   2   -0.20    0.30
  -2  -2   2   -0.20    0.40
  -2   2  -2   -0.10    0.30
   2  -2  -2    0.70    0.40
   2   2  -2    1.40    0.40
   2  -2   2    0.20    0.50
  -2  -2  -2   -0.20    0.40
  -2   2   2    0.20    0.30
   2   3   2    1.10    0.50
  -2   3  -2    3.10    0.60
  -2  -3   2    2.40    0.70
   2  -3  -2    2.40    0.70
   2  -3   2    2.90    0.80
  -2  -3  -2    2.20    0.70
   2   3  -2    2.20    0.50
  -2   3   2    2.50    0.60
   2   4   2   22.40    1.50
   2  -4  -2   23.00    1.70
  -2  -4   2   23.80    1.70
  -2   4  -2   23.10    1.50
  -2  -4  -2   22.90    1.70
  -2   4   2   23.60    1.50
   2   4  -2   26.30    1.60
   2  -4   2   24.00    1.90
   2   5   2    7.70    1.20
  -2   5  -2    7.40    1.30
   2  -5  -2    5.40    1.20
   2   5  -2    7.90    1.30
  -2  -5  -2    6.90    1.20
  -2   5   2    7.20    1.20
  -2   6  -2    3.00    1.10
   2   6   2    2.00    0.90
  -2   6   2    5.70    1.30
   2   6  -2    3.70    1.10
  -3   0  -2   22.20    1.30
   3   0   2   22.90    1.20
  -3   0   2   22.80    1.10
   3   0  -2   22.50    1.20
   3   0  -2   27.80    1.20
   3  -1  -2    1.60    0.40
  -3   1  -2    1.60    0.40
  -3  -1   2    1.60    0.30
   3   1   2    2.70    0.60
  -3  -1  -2    3.30    0.60
  -3   1   2    2.30    0.50
   3   1  -2    1.80    0.40
   3  -1   2    2.20    0.60
   3  -2  -2  609.94   18.30
  -3  -2   2  641.64   18.20
   3   2   2  651.83   18.20
  -3   2  -2  639.94   18.20
  -3   2   2  658.33   18.70
   3  -2   2  649.64   19.00
   3   2  -2  655.83   18.70
  -3  -2  -2  656.73   18.80
   3   3   2    1.20    0.60
  -3   3  -2    1.50    0.60
   3  -3  -2    0.30    0.60
  -3  -3   2    0.80    0.60
   3   3  -2    2.00    0.60
  -3  -3  -2    1.20    0.60
   3  -3   2    0.10    0.70
  -3   3   2    5.40    0.80
  -3  -4   2   67.49    2.90
   3  -4  -2   68.89    3.00
  -3   4  -2   59.79    2.70
  -3  -4   2   66.69    2.80
   3   4   2   64.89    2.80
   3   4  -2   67.39    2.80
  -3  -4  -2   73.79    3.00
   3  -4   2   63.09    3.20
  -3   4   2   69.09    2.80
   3   5   2    1.00    0.70
   3  -5  -2    0.60    0.90
  -3   5  -2    1.00    0.80
  -3  -5  -2    3.00    1.10
  -3   5   2    6.80    1.20
   3   5  -2    1.20    0.80
   3   6   2   12.70    1.70
  -3   6  -2   11.50    1.80
   3  -6  -2    9.40    1.80
   3   6  -2   12.40    1.70
  -3   6   2   14.70    1.80
  -4   0   2    2.90    0.50
   4   0  -2    2.80    0.50
  -4   0  -2    3.20    0.60
   4   0  -2    2.40    0.50
   4   0   2    2.00    0.50
   4  -1  -2    8.00    0.80
  -4   1  -2    8.70    0.90
  -4  -1   2    8.50    0.70
   4   1   2    8.40    0.80
  -4   1   2    8.60    0.80
   4  -1   2   10.50    1.20
  -4  -1  -2    9.10    0.90
   4   1  -2    9.40    0.80
   4   1  -2   11.50    0.80
   4  -2  -2   -0.50    0.40
   4   2   2   -0.20    0.40
  -4   2  -2   -0.20    0.40
  -4  -2   2   -0.10    0.40
   4  -2   2   -0.10    0.60
  -4   2   2   -0.20    0.40
   4   2  -2   -0.30    0.40
  -4  -2  -2   -0.10    0.40
  -4   3  -2    0.90    0.60
   4   3   2    0.90    0.50
   4  -3  -2    0.90    0.60
  -4  -3   2    0.90    0.60
   4  -3   2   -0.10    0.70
   4   3  -2    0.90    0.50
  -4  -3  -2    1.80    0.70
  -4   3   2    1.30    0.50
   4  -4  -2    3.20    0.90
  -4   4  -2    3.70    0.80
   4   4   2    3.50    0.80
   4  -4   2    4.10    1.10
  -4   4   2    2.40    0.70
  -4  -4  -2    2.70    0.80
   4   4  -2    3.20    0.70
  -4   5  -2    0.40    0.80
   4   5   2    0.70    0.70
   4  -5  -2    0.30    0.90
  -4  -5  -2    0.20    0.70
  -4   5   2    0.40    0.70
   4   5  -2    0.00    0.70
   4  -5   2    0.30    1.10
  -4   6  -2   11.80    1.80
   4   6   2   12.30    1.70
   4  -6  -2   14.30    2.30
  -4   6   2   13.20    1.80
   4   6  -2   12.50    1.80
  -5   0   2 2491.65   69.59
   5   0   2 2437.96   70.19
   5   0  -2 2414.16   69.79
  -5   0  -2 2377.66   69.69
   5  -1  -2 4338.07  122.99
  -5   1  -2 4147.19  122.79
   5   1   2 4194.08  122.69
  -5  -1   2 4494.55  121.79
  -5   1   2 4364.06  121.09
  -5  -1  -2 4200.58  120.89
   5   1  -2 4259.97  120.99
   5  -1   2 4176.38  121.89
   5  -2  -2  264.07    8.50
  -5  -2   2  282.17    8.30
   5   2   2  289.17    8.50
  -5   2  -2  282.67    8.50
   5   2  -2  294.07    8.70
   5  -2   2  278.77    9.10
  -5   2   2  297.37    8.70
  -5  -2  -2  287.77    8.80
  -5   3  -2  373.36   11.50
  -5  -3   2  386.46   11.40
   5  -3  -2  379.46   11.70
   5   3   2  388.46   11.50
  -5   3   2  406.06   12.00
  -5  -3  -2  394.66   12.10
   5   3  -2  409.26   12.00
   5  -3   2  395.96   12.40
   5  -4  -2  270.97    9.20
  -5   4  -2  291.37    9.00
   5   4   2  280.17    8.90
  -5   4   2  276.27    8.90
   5   4  -2  276.87    8.80
   5  -4   2  292.17    9.40
  -5  -4  -2  279.37    9.00
   5  -5  -2 1909.11   55.49
   5   5   2 1955.40   55.09
  -5   5  -2 1925.41   55.19
  -5   5   2 1901.21   55.29
   5   5  -2 1975.20   55.29
   5  -6  -2  438.46   14.80
  -5   6  -2  443.36   14.40
   5   6   2  466.35   14.30
  -5   6   2  447.96   14.30
   5   6  -2  450.75   14.30
   6   0  -2    1.30    0.60
  -6   0   2    2.20    0.50
   6   0   2    1.90    0.60
  -6   0  -2    1.50    0.60
   6  -1  -2    0.00    0.50
   6   1   2   -0.10    0.50
  -6  -1   2   -0.20    0.30
  -6   1  -2    0.00    0.60
   6   1  -2   -0.70    0.40
   6  -1   2   -0.60    0.60
  -6  -1  -2   -0.20    0.50
  -6   1   2   -0.20    0.40
  -6   2  -2    5.20    0.90
   6  -2  -2    3.50    0.70
   6   2   2    5.80    0.90
  -6  -2   2    5.70    0.80
  -6   2   2    5.70    0.80
   6   2  -2    5.70    0.80
  -6  -2  -2    6.30    0.90
   6  -2   2    6.70    1.30
  -6   3  -2   10.50    1.20
   6   3   2    9.00    1.10
   6  -3  -2   10.40    1.40
  -6  -3   2   10.20    1.10
   6   3  -2   10.00    1.10
  -6  -3  -2    8.90    1.20
  -6   3   2    8.00    1.00
   6  -3   2   11.10    1.60
  -6   4  -2    0.20    0.60
   6   4   2    0.50    0.70
   6  -4  -2    0.20    0.80
  -6  -4  -2   -0.50    0.70
  -6   4   2    0.30    0.50
   6   4  -2   -0.10    0.60
   6  -4   2    0.80    1.00
  -6   5  -2   11.80    1.60
   6  -5  -2   10.20    1.90
   6   5   2   11.70    1.50
  -6   5   2   12.90    1.50
   6  -5   2    9.50    1.80
   6   5  -2   11.80    1.50
   6   6   2    4.90    1.20
  -6   6  -2    6.30    1.40
   6  -6  -2    9.30    2.00
   6   6  -2    7.00    1.40
  -7   0   2   87.19    3.10
   7   0   2   86.29    3.40
   7   0  -2   83.19    3.30
  -7   0  -2   86.09    3.30
   7  -1  -2    5.40    0.90
  -7  -1   2    9.20    0.80
   7   1   2    6.30    1.00
  -7   1  -2    3.30    0.80
   7  -1   2    3.10    0.90
  -7   1   2    5.60    0.90
  -7  -1  -2    7.00    1.10
   7   1  -2    6.60    1.00
  -7   2  -2  135.99    4.80
  -7  -2   2  134.19    4.50
   7  -2  -2  137.99    4.90
   7   2   2  141.49    4.70
  -7  -2  -2  145.39    4.80
  -7   2   2  138.09    4.70
   7   2  -2  134.89    4.70
   7  -2   2  139.79    5.10
  -7   3  -2  489.55   14.60
   7   3   2  484.35   14.50
   7  -3  -2  480.35   14.80
   7   3  -2  504.05   14.80
  -7  -3  -2  485.45   14.90
   7  -3   2  503.85   15.40
  -7   3   2  500.45   14.90
   7  -4  -2   63.59    3.30
  -7   4  -2   63.99    3.10
   7   4   2   70.19    3.00
   7  -4   2   66.49    3.60
  -7   4   2   67.89    3.00
   7   4  -2   68.49    3.00
  -7  -4  -2   68.69    3.20
   7  -5  -2   68.29    3.80
  -7   5  -2   57.69    3.20
   7   5   2   61.29    3.10
  -7   5   2   63.99    3.20
   7   5  -2   59.39    3.10
   7  -6  -2   10.10    2.00
  -7   6  -2   10.70    1.90
   7   6   2    8.60    1.60
   7   6  -2    9.90    1.80
   8   0  -2    0.80    0.60
   8   0   2    0.80    0.60
  -8   0   2    0.60    0.50
  -8   0  -2    0.40    0.60
   8   1   2    2.20    0.80
   8  -1  -2    2.70    0.80
  -8   1  -2    1.80    0.80
  -8  -1   2    3.20    0.60
   8   1  -2    2.90    0.70
  -8  -1  -2    2.20    0.70
  -8   1   2    3.00    0.80
   8  -1   2    1.80    0.80
   8  -2  -2    3.30    0.90
   8   2   2    2.10    0.70
  -8   2  -2    2.40    0.70
  -8  -2   2    3.40    0.60
  -8  -2  -2    2.50    0.70
   8   2  -2    2.80    0.70
   8  -2   2    3.20    1.00
  -8   2   2    5.70    1.00
   8  -3  -2    0.30    0.80
   8   3   2   -0.80    0.50
  -8   3  -2    0.00    0.60
  -8   3   2    0.30    0.50
  -8  -3  -2    0.90    0.70
   8   3  -2    0.30    0.60
   8  -3   2    0.90    0.90
  -8   4  -2    8.70    1.40
   8  -4  -2    9.90    1.80
   8   4   2    9.00    1.50
   8   4  -2    9.80    1.40
  -8   4   2    9.20    1.30
  -8  -4  -2    9.80    1.60
   8  -4   2   11.70    1.90
   8  -5  -2   15.00    2.30
  -8   5  -2   13.10    1.80
   8   5   2   13.20    1.80
   8   5  -2   15.10    1.80
  -8   5   2   14.90    1.80
   8  -6  -2    2.70    1.60
  -8   6  -2    2.20    1.30
   8   6   2    1.40    1.10
   8   6  -2    2.20    1.20
  -9   0   2  349.37   10.50
   9   0   2  350.56   10.80
   9   0  -2  339.47   10.70
  -9   0  -2  339.47   10.70
   9   1   2  122.89    4.60
  -9  -1   2  122.99    4.30
   9  -1  -2  128.69    4.70
  -9   1  -2  132.99    4.70
  -9  -1  -2  133.79    4.90
   9   1  -2  137.69    4.80
   9  -1   2  133.19    5.10
  -9   1   2  135.99    4.70
   9  -2  -2  300.57    9.60
   9   2   2  298.37    9.50
  -9   2  -2  298.57    9.60
  -9   2   2  300.97    9.40
   9   2  -2  297.17    9.30
   9  -2   2  304.17    9.70
  -9  -2  -2  281.37    9.30
   9   3   2  609.94   18.70
  -9   3  -2  641.64   18.90
   9  -3  -2  629.24   19.10
   9  -3   2  646.24   19.50
  -9   3   2  645.34   19.10
   9   3  -2  628.04   19.00
  -9  -3  -2  637.44   19.10
   9  -4  -2  190.18    7.30
  -9   4  -2  193.48    7.00
   9   4   2  197.58    6.90
  -9   4   2  189.78    6.80
   9  -4   2  200.58    7.40
   9   4  -2  191.68    6.80
   9   5   2   10.40    1.70
   9  -5  -2   11.30    2.00
  -9   5  -2   15.50    2.00
   9   5  -2   11.20    1.70
  -9   6  -2   98.89    5.00
   9   6   2   98.79    4.70
   9   6  -2   96.29    4.60
 -10   0   2   -0.20    0.50
  10   0   2    0.00    0.70
 -10   0  -2    0.40    0.70
  10   0  -2   -0.60    0.60
  10  -1  -2    0.40    0.70
 -10   1  -2    0.60    0.80
  10   1   2    1.20    0.80
 -10   1   2   -0.10    0.60
 -10  -1  -2    0.70    0.80
  10   1  -2    0.60    0.80
  10  -1   2    0.20    0.80
  10  -2  -2    0.90    0.80
  10   2   2    0.80    0.70
 -10   2  -2    0.70    0.80
  10   2  -2    0.50    0.70
 -10  -2  -2    1.00    0.70
  10  -2   2    1.80    1.00
 -10   2   2    1.20    0.80
 -10   3  -2    5.70    1.20
  10  -3  -2    5.20    1.30
  10   3   2    3.50    1.00
  10   3  -2    3.60    0.90
 -10   3   2    3.90    1.00
 -10  -3  -2    4.40    1.00
  10  -3   2    6.10    1.40
  10  -4  -2   11.90    2.00
  10   4   2    7.80    1.40
 -10   4  -2    9.60    1.70
  10  -4   2    8.70    1.70
  10   4  -2   11.20    1.70
  10   5   2    0.00    1.00
 -10   5  -2    2.30    1.20
  10  -5  -2   -0.20    1.20
  10   5  -2    1.20    1.10
 -11   0  -2   31.90    2.10
  11   0  -2   27.50    2.00
  11   0   2   30.00    2.20
  11  -1  -2   54.99    2.80
  11   1   2   56.69    2.90
 -11   1  -2   50.99    2.70
  11   1  -2   58.39    2.90
  11  -1   2   56.79    3.00
 -11  -1  -2   60.69    2.90
 -11   1   2   56.59    2.70
  11  -2  -2  699.83   20.60
 -11   2  -2  686.73   20.60
  11   2   2  670.43   20.50
 -11  -2  -2  693.73   20.90
 -11   2   2  689.53   20.80
  11  -2   2  729.33   21.20
  11   2  -2  694.03   20.90
  11   3   2 1124.49   33.50
 -11   3  -2 1140.99   33.60
  11  -3  -2 1176.38   33.80
  11   3  -2 1178.28   34.90
  11  -3   2 1223.48   35.30
  11   4   2  245.08    8.40
 -11   4  -2  228.88    8.40
  11  -4  -2  226.58    8.60
  11  -4   2  225.78    8.40
  11   4  -2  225.78    8.00
 -11   5  -2   11.40    2.20
  11  -5  -2   17.00    2.70
  11   5   2   14.90    2.20
  11   5  -2   11.70    2.00
  12   0  -2   16.10    1.70
  12   0   2   14.30    1.90
 -12   0  -2   21.10    1.80
  12  -1  -2    0.20    0.80
 -12   1  -2    0.70    0.80
  12   1   2    0.90    0.90
  12  -1   2    1.30    0.90
  12   1  -2    0.20    0.80
 -12  -1  -2    1.60    0.90
  12  -2  -2    1.00    0.90
  12   2   2    0.80    0.90
 -12   2  -2    0.30    0.80
  12  -2   2   -0.20    0.90
  12   2  -2   -0.50    0.80
 -12  -2  -2    1.10    0.90
 -12   3  -2    2.20    1.10
  12   3   2    2.70    1.00
  12  -3  -2    0.80    1.10
  12   3  -2    4.10    1.20
  12  -3   2    5.80    1.50
  12  -4  -2    1.20    1.30
  12   4   2    1.20    1.20
 -12   4  -2    3.20    1.30
  12   4  -2    1.60    1.10
  12  -4   2    1.50    1.30
  12  -5  -2   10.60    2.20
  12   5   2   12.00    2.20
  12   5  -2   11.00    2.10
  13   0  -2  179.58    6.50
 -13   0  -2  181.38    6.50
  13   0   2  171.08    6.70
 -13   1  -2  510.65   16.00
  13   1   2  519.35   16.30
  13  -1  -2  535.85   16.20
 -13  -1  -2  523.75   16.20
  13  -1   2  524.75   16.40
  13   1  -2  527.45   16.30
  13  -2  -2   22.70    2.10
  13   2   2   24.20    2.20
 -13   2  -2   17.80    2.00
  13  -2   2   22.20    2.20
  13   2  -2   22.90    2.20
  13   3   2  222.38    8.20
 -13   3  -2  226.48    8.20
  13  -3  -2  232.08    8.30
  13  -3   2  228.18    8.40
  13   3  -2  227.48    8.10
  13  -4  -2    5.70    1.60
  13   4   2    7.00    1.60
  13   4  -2    5.90    1.50
  13  -4   2    7.00    1.80
  14   0  -2    1.30    1.00
  14   0   2    0.80    1.10
  14   1   2    1.40    1.10
  14  -1  -2    2.80    1.10
 -14   1  -2    0.50    1.00
  14   1  -2    1.10    1.10
  14  -1   2    2.00    1.10
  14  -2  -2   10.40    1.80
  14   2   2   12.50    2.00
  14  -2   2   12.10    2.00
  14   2  -2   11.00    1.90
  14   3   2    2.60    1.30
  14  -3  -2    2.70    1.30
  14   3  -2    1.80    1.10
  14  -3   2    0.50    1.00
  14  -4  -2    0.30    1.20
  14   4   2   -0.40    1.20
  14   4  -2   -0.40    1.20
  14  -4   2   -0.50    1.20
  15   0  -2 2102.99   58.49
  15   0   2 1961.80   58.59
  15   1   2    1.20    1.20
  15  -1  -2   -0.50    0.90
  15   1  -2    1.40    1.10
  15  -1   2    0.50    1.00
  15  -2  -2  220.68    8.10
  15   2   2  225.38    8.40
  15  -2   2  217.98    8.10
  15   2  -2  216.78    8.10
  15  -3  -2   55.39    3.60
  15   3   2   63.59    3.80
  15  -3   2   57.59    3.70
  15   3  -2   61.09    3.60
  15   4   2  439.86   15.00
  15  -4  -2  458.35   15.10
  15   4  -2  455.75   15.00
  16   0  -2    0.70    1.20
  16   0   2    3.00    1.30
  16   1   2    1.10    1.30
  16  -1  -2    1.50    1.10
  16   1  -2    3.50    1.40
  16  -1   2    3.00    1.30
  16   2   2   -0.40    1.10
  16  -2  -2   -0.10    1.00
  16   2  -2    0.30    1.20
  16  -2   2   -0.60    0.90
  16   3   2    4.30    1.50
  16  -3  -2    3.80    1.60
  16   3  -2    4.70    1.50
  16  -3   2    4.50    1.60
  17   0  -2   91.39    4.60
  17   0   2   87.89    4.70
  17  -1  -2   92.39    4.50
  17   1   2   92.19    4.80
  17   1  -2  100.59    4.80
  17  -1   2   91.89    4.80
  17   2   2  424.86   14.70
  17  -2  -2  449.95   14.50
  17  -2   2  445.26   14.40
  17   2  -2  416.86   14.30
  18   0  -2    5.40    1.60
  18   0   2    4.50    1.60
  18   1   2    0.40    1.30
  18  -1  -2    0.50    1.20
  18   1  -2    1.80    1.30
  18  -1   2    1.60    1.30
   0   0  -3    0.10    0.10
   0   0  -3    0.10    0.20
   0  -1   3    0.10    0.40
   0   1   3    0.20    0.20
   0  -1  -3    0.20    0.30
   0   1  -3    0.10    0.20
   0   1  -3    0.60    0.20
   0   2   3   49.30    1.80
   0  -2   3   52.89    2.00
   0  -2  -3   51.59    2.00
   0   2  -3   53.39    1.80
   0   3  -3    0.60    0.40
   0  -3  -3   -0.10    0.50
   0  -3   3   -0.10    0.50
   0   3   3   -0.30    0.30
   0   4  -3  136.09    4.70
   0   4   3  133.79    4.60
   0  -4   3  132.39    4.90
   0  -4  -3  138.39    4.90
   0   5   3   -0.10    0.60
   0  -5  -3   -0.20    0.70
   0   5  -3   -0.10    0.70
   0   6  -3    2.10    1.10
   0   6   3    0.90    0.90
  -1   1  -3   46.00    1.60
  -1   1  -3   52.49    1.80
   1   1   3   45.70    1.60
   1  -1  -3   47.30    1.60
  -1  -1   3   47.60    1.50
   1  -1  -3   46.10    1.60
   1   1  -3   46.30    1.50
   1   1  -3   45.10    1.50
   1  -1   3   47.10    1.80
  -1   1   3   46.80    1.50
  -1  -1  -3   46.90    1.70
   1   2   3    9.90    0.70
  -1  -2   3    9.50    0.80
   1  -2  -3   10.00    0.80
  -1   2  -3    8.80    0.70
  -1   2   3   10.70    0.70
  -1  -2  -3    9.10    0.80
   1   2  -3    9.00    0.70
   1  -2   3   10.00    0.90
   1   3   3   10.30    0.90
   1  -3  -3   10.00    1.10
  -1  -3   3   10.40    1.00
  -1   3  -3   10.20    0.90
   1   3  -3   11.50    0.90
  -1  -3  -3   10.60    1.10
  -1   3   3    9.90    0.90
   1  -3   3   11.10    1.20
  -1  -4   3   71.89    3.10
   1  -4  -3   72.29    3.10
   1  -4  -3   70.99    3.10
   1   4   3   74.79    2.90
  -1   4  -3   75.09    2.90
   1   4  -3   76.19    3.00
  -1  -4  -3   76.89    3.20
   1  -4   3   74.49    3.30
  -1   4   3   73.69    3.00
  -1   5  -3   57.49    2.80
   1   5   3   57.49    2.70
   1  -5  -3   61.89    3.10
  -1   5   3   60.79    2.80
   1   5  -3   58.19    2.80
  -1  -5  -3   63.49    3.10
  -1  -5  -3   58.29    3.00
  -1   6  -3   10.20    1.70
   1   6   3    9.20    1.60
   1  -6  -3    8.30    1.50
  -1   6   3   11.50    1.60
   1   6  -3    8.30    1.60
  -2   0  -3    0.30    0.20
   2   0  -3    0.20    0.20
   2   0  -3    1.10    0.20
   2   0   3    3.10    0.50
  -2   0  -3    0.30    0.40
  -2  -1   3  165.28    4.80
   2   1   3  167.28    5.00
   2  -1  -3  163.88    5.00
  -2   1  -3  166.58    5.00
   2  -1  -3  178.68    5.00
   2   1  -3  175.98    5.00
   2  -1   3  168.88    5.30
   2   1  -3  172.48    5.00
  -2   1   3  165.68    5.00
  -2  -1  -3  175.68    5.20
  -2  -2   3   23.10    1.10
  -2   2  -3   22.60    1.10
  -2  -2   3   21.50    1.10
   2   2   3   24.00    1.10
  -2  -2  -3   23.60    1.30
   2   2  -3   23.10    1.10
   2  -2   3   24.10    1.40
  -2   2   3   27.10    1.10
   2   2  -3   23.60    1.20
   2   3   3   59.69    2.30
  -2   3  -3   56.59    2.30
   2  -3  -3   58.39    2.50
  -2  -3   3   59.09    2.40
   2  -3  -3   58.29    2.50
   2  -3   3   59.59    2.70
  -2   3   3   61.99    2.30
   2   3  -3   61.69    2.30
  -2  -3  -3   60.19    2.50
   2   4   3   38.80    2.00
   2  -4  -3   33.90    2.10
  -2   4  -3   40.60    2.00
   2  -4   3   36.70    2.30
   2   4  -3   34.80    1.90
  -2  -4  -3   37.90    2.10
  -2   4   3   36.90    1.90
  -2   5  -3   60.59    3.00
   2   5   3   66.59    3.00
   2  -5  -3   65.39    3.30
   2   5  -3   64.19    3.00
  -2   5   3   63.79    2.90
  -2  -5  -3   65.29    3.20
   2   6   3   21.00    1.90
   2  -6  -3   20.60    2.30
  -2   6  -3   23.60    2.10
   2   6  -3   18.20    1.90
  -2   6   3   16.30    1.80
   3   0  -3    0.20    0.30
   3   0  -3    0.10    0.30
   3   0   3   -0.10    0.30
  -3   0  -3    0.30    0.40
  -3   1  -3  227.48    6.50
   3  -1  -3  202.28    6.40
  -3  -1   3  216.98    6.20
   3   1   3  220.48    6.40
  -3  -1  -3  228.88    6.70
   3   1  -3  229.38    6.50
  -3   1   3  214.88    6.50
   3   1  -3  223.18    6.50
   3  -1   3  222.28    6.90
   3   2   3   44.80    1.80
  -3   2  -3   45.60    1.80
   3  -2  -3   43.70    1.80
  -3  -2   3   46.10    1.70
   3  -2   3   43.70    2.10
  -3  -2  -3   45.50    1.90
   3   2  -3   44.50    1.70
  -3   2   3   45.30    1.70
  -3   3  -3   10.90    1.00
  -3  -3   3   12.30    1.10
   3  -3  -3   12.70    1.20
  -3   3   3   11.30    1.00
   3  -3   3   12.60    1.40
   3   3  -3   12.20    1.00
  -3  -3  -3   12.00    1.20
   3   4   3  151.28    5.20
  -3   4  -3  160.18    5.30
   3  -4  -3  150.48    5.50
  -3  -4  -3  161.18    5.60
  -3   4   3  161.38    5.50
   3  -4   3  166.78    6.00
   3   4  -3  161.88    5.40
   3  -5  -3    8.50    1.50
  -3   5  -3    8.40    1.40
   3   5   3   10.10    1.30
   3   5  -3    8.00    1.30
  -3   5   3    8.10    1.30
  -3  -5  -3    9.00    1.50
  -3   6  -3    3.00    1.10
   3  -6  -3    2.60    1.40
   3   6   3    4.80    1.20
  -3   6   3    2.60    1.10
   3   6  -3    1.80    0.90
   4   0   3    0.10    0.40
  -4   0  -3    0.50    0.50
   4   0  -3    0.40    0.40
  -4   0   3   -0.10    0.30
   4   0  -3    0.20    0.30
  -4  -1   3   74.99    2.30
   4   1   3   68.29    2.50
  -4   1  -3   71.59    2.60
   4  -1  -3   72.39    2.50
   4   1  -3   84.09    2.60
  -4  -1  -3   80.99    2.80
   4  -1   3   74.99    3.00
  -4   1   3   79.29    2.70
   4   1  -3   80.69    2.60
   4   2   3  260.27    7.90
  -4   2  -3  269.17    8.00
   4  -2  -3  264.37    8.00
  -4  -2   3  264.47    7.80
   4  -2   3  277.77    8.50
  -4  -2  -3  268.97    8.20
  -4   2   3  265.97    8.00
   4   2  -3  262.17    7.90
  -4   3  -3    5.40    0.90
  -4  -3   3    5.30    0.80
   4   3   3    5.40    0.90
   4  -3  -3    7.50    1.10
  -4  -3  -3    4.60    0.80
   4  -3   3   10.30    1.40
  -4   3   3    5.50    0.90
   4   3  -3    5.60    0.80
   4   4   3   27.00    1.70
   4  -4  -3   27.10    1.90
  -4   4  -3   26.70    1.70
   4  -4   3   25.50    2.10
   4   4  -3   25.00    1.60
  -4  -4  -3   29.30    1.90
  -4   4   3   26.80    1.70
   4   5   3   41.60    2.40
  -4   5  -3   39.50    2.40
   4  -5  -3   44.40    2.80
  -4   5   3   42.20    2.40
  -4  -5  -3   39.50    2.50
   4   5  -3   42.70    2.40
  -4   6  -3  134.59    5.50
   4   6   3  131.49    5.30
   4  -6  -3  133.49    5.90
   4   6  -3  125.49    5.10
  -4   6   3  125.89    5.10
   5   0  -3    0.00    0.40
  -5   0   3    0.50    0.30
   5   0   3    0.20    0.40
   5   0  -3    0.50    0.40
  -5   0  -3    0.50    0.50
   5  -1  -3   72.59    2.70
   5   1   3   75.69    2.70
  -5  -1   3   76.49    2.40
  -5   1  -3   74.59    2.90
   5  -1   3   75.69    3.20
  -5  -1  -3   81.79    3.00
   5   1  -3   84.69    2.80
   5   1  -3   85.99    2.80
  -5   1   3   82.79    2.80
   5  -2  -3  155.78    5.20
  -5   2  -3  160.08    5.20
  -5  -2   3  159.38    4.90
   5   2   3  159.08    5.10
  -5  -2  -3  163.28    5.30
   5  -2   3  166.58    5.70
   5   2  -3  163.88    5.10
  -5   2   3  162.48    5.20
  -5   3  -3    2.60    0.70
   5   3   3    3.20    0.70
  -5  -3   3    2.00    0.60
   5  -3  -3    2.20    0.80
  -5   3   3    1.80    0.60
   5   3  -3    2.30    0.60
  -5  -3  -3    5.50    0.90
   5  -3   3    5.10    1.10
   5  -4  -3   27.20    2.00
  -5   4  -3   29.40    1.90
   5   4   3   27.10    1.70
   5  -4   3   27.60    2.30
  -5  -4  -3   29.40    2.00
   5   4  -3   28.50    1.70
  -5   4   3   29.20    1.80
  -5   5  -3   52.69    2.80
   5  -5  -3   55.29    3.20
   5   5   3   50.19    2.70
  -5  -5  -3   50.69    2.90
   5   5  -3   58.29    2.80
  -5   5   3   52.89    2.80
   5   6   3  122.39    5.10
  -5   6  -3  126.59    5.30
   5  -6  -3  122.39    5.60
   5   6  -3  116.69    4.90
   6   0   3    0.60    0.50
  -6   0   3    0.00    0.30
   6   0  -3   -0.30    0.40
  -6   0  -3    0.50    0.60
  -6  -1   3  205.38    6.00
   6  -1  -3  196.18    6.30
   6   1   3  193.38    6.20
  -6   1  -3  204.58    6.50
   6   1  -3  220.18    6.70
  -6  -1  -3  213.98    6.90
   6   1  -3  241.88    6.90
  -6   1   3  222.48    6.80
   6  -1   3  200.38    7.10
  -6  -2   3   12.80    1.00
   6  -2  -3   14.60    1.30
  -6   2  -3   15.60    1.20
   6   2   3   17.10    1.20
  -6   2   3   13.40    1.00
   6   2  -3   13.90    1.10
  -6  -2  -3   15.20    1.20
   6  -2   3   15.20    1.60
  -6   3  -3    1.20    0.60
   6   3   3    2.10    0.70
   6  -3  -3    2.50    0.90
  -6   3   3    1.80    0.60
  -6  -3  -3    1.90    0.80
   6  -3   3    1.80    0.90
   6   3  -3    2.20    0.70
  -6   4  -3   37.40    2.20
   6  -4  -3   38.10    2.40
   6   4   3   37.30    2.10
   6   4  -3   37.40    2.00
  -6  -4  -3   36.60    2.20
   6  -4   3   38.30    2.70
  -6   5  -3    1.20    0.80
   6  -5  -3    0.60    1.10
   6   5   3    0.50    0.80
  -6   5   3    2.20    0.90
   6   5  -3    0.50    0.80
  -6   6  -3   30.00    2.50
   6   6   3   32.60    2.50
   6  -6  -3   29.80    3.00
   6   6  -3   31.30    2.40
  -7   0   3    0.20    0.40
   7   0  -3    0.00    0.50
  -7   0  -3    0.20    0.60
   7   0   3    5.50    1.00
   7  -1  -3   22.20    1.50
  -7   1  -3   26.70    1.70
   7   1   3   27.60    1.50
  -7  -1   3   24.70    1.20
  -7   1   3   27.70    1.50
   7  -1   3   23.80    1.80
   7   1  -3   28.10    1.50
  -7  -1  -3   29.30    1.70
   7   2   3  123.09    4.30
  -7   2  -3  122.19    4.40
  -7  -2   3  119.69    4.00
   7  -2  -3  123.49    4.40
  -7   2   3  127.89    4.30
   7  -2   3  125.39    4.80
  -7  -2  -3  123.99    4.50
   7   2  -3  125.79    4.30
   7  -3  -3   37.60    2.20
  -7   3  -3   38.10    2.10
   7   3   3   38.50    2.10
  -7   3   3   40.80    2.00
   7   3  -3   41.10    2.00
   7  -3   3   40.00    2.60
  -7  -3  -3   37.10    2.20
  -7   4  -3   25.10    1.90
   7  -4  -3   22.80    2.10
   7   4   3   23.70    1.80
  -7   4   3   24.00    1.70
   7   4  -3   24.20    1.70
  -7  -4  -3   22.20    1.90
   7  -4   3   26.10    2.30
   7   5   3   28.30    2.10
   7  -5  -3   25.20    2.50
  -7   5  -3   28.00    2.30
   7   5  -3   26.90    2.10
  -7   6  -3   19.80    2.30
   7   6   3   17.80    2.10
   7  -6  -3   16.50    2.70
   7   6  -3   16.40    2.00
  -8   0  -3    1.30    0.70
  -8   0   3    0.70    0.50
   8   0  -3    0.80    0.60
   8   0   3    0.40    0.60
   8  -1  -3    2.70    0.80
   8   1   3    3.70    0.80
  -8   1  -3    3.00    0.90
  -8  -1   3    5.30    0.70
   8   1  -3    3.40    0.80
   8  -1   3    2.70    0.90
  -8   1   3    3.60    0.80
  -8  -1  -3    2.80    0.80
   8  -2  -3   77.59    3.40
  -8   2  -3   83.39    3.40
   8   2   3   82.39    3.30
   8  -2   3   86.79    3.80
  -8   2   3   86.59    3.40
  -8  -2  -3   87.19    3.50
   8   2  -3   85.49    3.30
  -8   3  -3    3.80    1.00
   8   3   3    5.50    1.00
   8  -3  -3    3.40    0.90
  -8   3   3    6.00    1.10
  -8  -3  -3    3.80    0.90
   8   3  -3    3.30    0.80
   8  -3   3    4.50    1.20
   8  -4  -3  269.07    9.30
   8   4   3  276.87    9.00
  -8   4  -3  269.27    9.10
  -8  -4  -3  262.77    9.00
  -8   4   3  264.47    8.80
   8   4  -3  272.77    8.80
   8  -4   3  283.47    9.60
   8   5   3   31.60    2.40
  -8   5  -3   30.50    2.50
   8  -5  -3   33.80    2.90
   8   5  -3   29.60    2.20
   8   6   3   19.20    2.20
   8  -6  -3   22.40    2.90
  -8   6  -3   31.00    2.80
   8   6  -3   17.80    2.10
  -9   0  -3    3.60    0.90
   9   0  -3    0.10    0.60
   9   0   3   -0.20    0.60
  -9   0   3    0.40    0.50
  -9   1  -3  114.69    4.30
   9   1   3  115.09    4.20
   9  -1  -3  110.59    4.20
  -9  -1   3  109.39    3.80
  -9   1   3  123.29    4.20
   9  -1   3  117.39    4.70
  -9  -1  -3  118.79    4.50
   9   1  -3  113.69    4.30
  -9   2  -3  101.19    4.10
   9   2   3  106.29    4.00
   9  -2  -3  100.59    4.10
   9   2  -3  109.19    4.10
  -9   2   3  115.49    4.20
   9  -2   3  106.89    4.50
  -9  -2  -3  108.89    4.20
   9   3   3   47.50    2.50
  -9   3  -3   45.50    2.70
   9  -3  -3   49.80    2.80
  -9  -3  -3   48.50    2.60
  -9   3   3   52.49    2.60
   9  -3   3   47.80    2.90
   9   3  -3   47.20    2.40
   9  -4  -3  141.49    5.90
   9   4   3  140.99    5.50
  -9   4  -3  156.78    5.80
   9  -4   3  148.59    6.10
   9   4  -3  142.59    5.40
   9  -5  -3    3.20    1.60
   9   5   3    3.60    1.20
  -9   5  -3    2.00    1.20
   9   5  -3    1.70    1.00
   9  -6  -3    5.80    2.00
   9   6   3    6.40    1.60
  -9   6  -3    7.80    1.80
   9   6  -3    5.60    1.40
 -10   0  -3    0.00    0.70
  10   0  -3    0.20    0.70
  10   0   3    0.00    0.70
  10  -1  -3   68.59    3.10
  10   1   3   66.89    3.10
 -10   1  -3   65.09    3.10
  10  -1   3   69.39    3.40
 -10   1   3   71.79    2.90
  10   1  -3   69.99    3.10
 -10  -1  -3   69.89    3.20
  10   2   3    2.70    0.90
  10  -2  -3    2.40    0.90
 -10   2  -3    2.80    0.90
  10  -2   3    1.70    1.00
 -10   2   3    3.10    0.80
  10   2  -3    2.30    0.80
 -10  -2  -3    3.40    0.90
  10  -3  -3   38.20    2.60
 -10   3  -3   35.80    2.40
  10   3   3   36.40    2.30
  10  -3   3   36.80    2.60
 -10  -3  -3   33.30    2.30
  10   3  -3   33.50    2.10
  10  -4  -3   14.40    2.20
  10   4   3   14.10    1.90
 -10   4  -3   13.40    1.90
  10  -4   3   11.60    2.10
  10   4  -3   14.00    1.70
 -10   5  -3   27.10    2.60
  10   5   3   29.30    2.60
  10  -5  -3   27.40    3.00
  10   5  -3   24.80    2.20
  11   0   3   -0.10    0.90
 -11   0  -3    0.90    0.80
  11   0  -3    0.90    0.70
  11  -1  -3   24.90    1.90
  11   1   3   25.20    2.00
 -11   1  -3   23.70    1.90
 -11  -1  -3   25.10    2.00
  11  -1   3   22.70    2.10
  11   1  -3   25.80    1.90
  11  -2  -3    0.20    0.80
 -11   2  -3    0.50    0.90
  11   2   3    0.90    0.80
  11  -2   3    0.50    0.90
 -11  -2  -3    1.60    0.90
  11   2  -3   -0.20    0.70
 -11   3  -3   19.10    2.10
  11   3   3   19.80    1.90
  11  -3  -3   18.40    2.10
 -11  -3  -3   19.80    1.90
  11   3  -3   18.20    1.80
  11  -3   3   23.40    2.30
  11  -4  -3   24.30    2.60
 -11   4  -3   23.00    2.30
  11   4   3   21.90    2.20
  11   4  -3   24.10    2.20
  11  -4   3   23.00    2.60
  11   5   3    5.20    1.50
 -11   5  -3    6.20    1.60
  11  -5  -3    4.80    1.70
  11   5  -3    3.40    1.30
 -12   0  -3    1.10    0.90
  12   0   3   -0.50    0.80
  12   0  -3    0.60    0.70
  12   1   3    9.30    1.70
  12  -1  -3    8.50    1.50
 -12   1  -3   10.30    1.60
  12  -1   3    9.90    1.70
 -12  -1  -3   11.00    1.70
  12   1  -3    8.40    1.50
  12   2   3   32.20    2.30
  12  -2  -3   30.30    2.30
 -12   2  -3   32.90    2.40
  12   2  -3   36.20    2.40
  12  -2   3   34.80    2.60
 -12  -2  -3   32.50    2.30
  12   3   3   51.99    3.00
 -12   3  -3   51.99    3.10
  12  -3  -3   50.89    3.20
  12  -3   3   55.09    3.30
  12   3  -3   51.09    2.90
  12   4   3   89.69    4.50
 -12   4  -3   90.09    4.50
  12  -4  -3   97.29    4.80
  12  -4   3   90.69    4.70
  12   4  -3   87.39    4.20
  12  -5  -3    8.40    2.10
  12   5   3    9.50    1.90
 -12   5  -3    6.10    1.70
  12   5  -3    6.20    1.50
  13   0   3    0.30    0.90
  13   0  -3    0.10    0.80
 -13   0  -3   -1.70    0.80
 -13   1  -3   93.29    4.10
  13   1   3   85.69    4.20
  13  -1  -3   86.39    3.90
  13   1  -3   86.49    3.90
 -13  -1  -3   86.59    3.90
  13  -1   3   81.39    4.00
 -13   2  -3   41.20    2.70
  13  -2  -3   42.50    2.80
  13   2   3   44.00    2.80
  13  -2   3   40.70    2.80
  13   2  -3   42.10    2.70
  13   3   3   31.80    2.50
 -13   3  -3   28.10    2.50
  13  -3  -3   29.20    2.60
  13  -3   3   30.20    2.60
  13   3  -3   25.10    2.30
  13   4   3    3.20    1.40
 -13   4  -3    1.30    1.20
  13  -4  -3    0.30    1.20
  13   4  -3   -0.20    1.10
  14   0   3    1.50    1.10
 -14   0  -3    0.00    0.90
  14   0  -3   -0.90    0.80
  14  -1  -3  128.79    5.30
 -14   1  -3  134.89    5.40
  14   1   3  133.59    5.60
  14   1  -3  128.29    5.40
  14  -1   3  135.69    5.60
  14   2   3   23.30    2.40
  14  -2  -3   21.90    2.20
 -14   2  -3   23.90    2.20
  14   2  -3   18.40    2.10
  14  -2   3   18.80    2.20
 -14   3  -3    0.80    1.10
  14  -3  -3    0.30    1.10
  14   3   3    0.70    1.10
  14   3  -3   -0.30    0.90
  14  -3   3    0.70    1.20
  14  -4  -3    0.70    1.40
  14   4   3    0.00    1.20
  14   4  -3    2.70    1.30
  15   0  -3    0.20    1.00
  15   0   3    0.50    1.10
  15  -1  -3   96.59    4.40
  15   1   3   96.29    4.70
  15   1  -3   93.69    4.50
  15  -1   3   96.29    4.60
  15  -2  -3   10.70    1.80
  15   2   3    8.00    1.70
  15  -2   3    9.80    1.80
  15   2  -3    8.40    1.60
  15   3   3    0.40    1.10
  15  -3  -3    0.70    1.30
  15  -3   3    2.00    1.30
  15   3  -3    0.80    1.10
  16   0  -3   -0.70    1.00
  16   0   3    3.00    1.40
  16   1   3    0.20    1.20
  16  -1  -3    0.40    1.00
  16  -1   3    0.30    1.20
  16   1  -3    0.90    1.10
  16   2   3   16.90    2.40
  16  -2  -3   13.10    2.10
  16   2  -3   13.50    2.20
  16  -2   3   14.30    2.20
  16  -3  -3    9.80    1.90
  16   3   3   14.90    2.40
  16   3  -3   12.70    2.10
  16  -3   3   13.10    2.30
  17   0   3    0.60    1.30
  17   0  -3    0.30    1.20
  17  -1  -3    8.20    1.70
  17   1   3   13.60    2.50
  17   1  -3    9.20    1.80
  17  -1   3   12.80    2.30
  17   2   3   -0.60    1.10
  17  -2  -3   -0.50    1.10
  17  -2   3   -0.30    1.10
  17   2  -3    2.80    1.40
  18   0  -3    0.50    1.20
  18   0   3   -0.20    1.30
  18  -1  -3   84.09    4.40
  18   1   3   79.09    4.70
  18   1  -3   78.39    4.40
  18  -1   3   83.89    4.60
   0   0  -4   30.70    1.20
   0   0  -4   31.20    1.20
   0  -1  -4    2.00    0.40
   0   2   4  589.14   16.60
   0   2  -4  562.24   16.50
   0  -2  -4  569.34   16.70
   0  -2   4  573.34   16.70
   0   2  -4  610.44   16.70
   0  -3  -4   -0.20    0.50
   0   3  -4    1.60    0.50
   0  -3   4    0.80    0.60
   0   3   4   -0.80    0.40
   0   4  -4  178.28    5.80
   0   4   4  171.88    5.80
   0  -4  -4  178.38    6.00
   0  -5  -4    1.30    0.90
   0  -5  -4   -0.20    0.80
   0   5  -4    2.40    0.90
   0   5   4    0.40    0.60
   0   6   4   33.00    2.30
   0  -6  -4   32.00    2.60
   0   6  -4   32.80    2.40
   1   0  -4    0.50    0.10
   1   0  -4    0.40    0.10
  -1   0  -4    1.10    0.30
   1   0   4    0.50    0.20
  -1   0  -4    0.70    0.30
   1  -1  -4    0.70    0.30
  -1   1  -4    0.70    0.40
  -1   1  -4    0.30    0.20
   1  -1  -4    0.40    0.30
   1   1   4    0.50    0.30
  -1   1   4    0.70    0.20
  -1  -1  -4    0.20    0.30
   1  -1   4    0.60    0.40
   1   1  -4    0.50    0.20
   1   1  -4    0.40    0.20
  -1   2  -4    6.50    0.60
  -1  -2   4    6.30    0.70
   1  -2  -4    6.20    0.70
   1   2   4    6.70    0.60
  -1   2   4    6.90    0.60
   1  -2   4    6.10    0.90
   1   2  -4    6.50    0.60
  -1  -2  -4    5.90    0.80
   1   2  -4    6.90    0.60
   1   3   4    0.70    0.40
  -1   3  -4    0.90    0.50
   1  -3  -4    0.90    0.60
  -1  -3   4    0.70    0.50
  -1  -3  -4    0.70    0.60
   1  -3   4    0.80    0.60
  -1   3   4    0.60    0.40
   1   3  -4    1.80    0.50
   1  -4  -4    6.50    1.10
   1  -4  -4    4.90    1.00
   1   4   4    5.40    0.90
  -1   4  -4    4.50    0.80
  -1  -4  -4    3.70    0.90
   1   4  -4    5.40    0.90
   1  -4   4    6.60    1.20
  -1   4   4    4.60    0.80
   1  -5  -4    2.50    1.10
  -1   5  -4    0.40    0.80
   1   5   4    1.20    0.80
  -1   5   4    1.60    0.80
  -1  -5  -4    1.80    1.00
   1   5  -4    0.90    0.70
  -1   6  -4    3.00    1.10
   1   6   4    0.30    0.80
   1  -6  -4   -0.20    1.10
   1   6  -4    2.00    1.00
  -1  -6  -4    1.30    1.10
  -1   6   4    1.20    0.90
   2   0  -4  179.78    5.20
   2   0  -4  184.58    5.20
  -2   0  -4  175.28    5.50
  -2   0  -4  191.18    5.40
   2   0   4  182.28    5.40
   2   1   4   14.20    0.70
   2  -1  -4   13.00    0.70
  -2   1  -4   12.20    0.80
   2  -1  -4   13.70    0.70
  -2   1  -4   12.50    1.00
  -2   1   4   17.60    0.70
   2   1  -4   16.20    0.60
  -2  -1  -4   13.10    0.90
   2   1  -4   14.40    0.60
   2  -1   4   13.30    1.00
  -2   2  -4 2928.61   82.49
  -2  -2   4 2951.70   82.19
   2   2   4 2790.52   81.99
   2  -2  -4 2861.61   83.19
   2  -2   4 2941.11   88.09
   2   2  -4 3149.08   88.29
   2   2  -4 3236.58   88.09
  -2  -2  -4 3004.20   88.09
  -2   2   4 3135.09   88.39
  -2  -3   4 2476.55   71.39
  -2   3  -4 2535.35   72.79
   2   3   4 2616.74   73.49
  -2  -3  -4 2715.03   77.69
   2   3  -4 2707.73   77.29
   2  -3   4 2647.24   76.09
  -2   3   4 2736.43   77.79
   2   4   4  650.63   18.70
   2  -4  -4  635.74   18.90
  -2   4  -4  621.84   18.60
   2  -4   4  626.34   19.00
   2   4  -4  638.44   18.50
  -2  -4  -4  633.14   18.70
  -2   4   4  630.74   18.50
   2  -5  -4  257.67    9.00
   2   5   4  271.07    8.70
  -2   5  -4  272.07    8.70
  -2  -5  -4  266.07    9.00
  -2   5   4  275.47    8.70
   2   5  -4  267.47    8.70
  -2   6  -4   80.79    3.90
   2  -6  -4   83.29    4.20
   2   6   4   74.69    3.60
   2   6  -4   75.89    3.60
  -2   6   4   72.39    3.50
  -3   0  -4    1.50    0.50
   3   0   4    2.20    0.40
   3   0  -4    1.10    0.30
   3   0  -4    1.70    0.40
  -3   1  -4    4.70    0.70
   3  -1  -4    5.20    0.50
   3  -1  -4    4.10    0.50
   3   1   4    4.80    0.60
  -3   1   4    4.70    0.50
  -3  -1  -4    5.20    0.80
   3  -1   4    5.20    0.90
   3   1  -4    5.70    0.50
   3   1  -4    5.30    0.40
  -3   2  -4    0.30    0.40
   3  -2  -4   -0.10    0.40
   3   2   4   -0.20    0.40
  -3  -2   4    0.30    0.30
   3   2  -4    0.20    0.30
   3   2  -4   -0.10    0.30
  -3  -2  -4    0.20    0.40
   3  -2   4   -0.10    0.60
  -3   2   4   -0.10    0.30
  -3  -3   4   -0.10    0.40
   3  -3  -4    0.40    0.60
   3   3   4    0.20    0.40
  -3   3  -4    0.30    0.50
   3  -3   4    0.50    0.70
   3   3  -4    1.00    0.50
  -3   3   4    0.00    0.40
  -3  -3  -4    0.90    0.70
   3  -4  -4    2.00    0.80
   3   4   4    0.70    0.50
  -3   4  -4    1.20    0.60
   3   4  -4    0.50    0.50
   3  -4   4    0.70    0.80
  -3   4   4    0.80    0.50
  -3  -4  -4    1.50    0.80
  -3   5  -4    6.80    1.20
   3  -5  -4    9.00    1.50
   3   5   4    6.80    1.20
  -3   5   4    9.30    1.30
   3   5  -4    7.50    1.30
  -3  -5  -4    5.60    1.10
   3  -6  -4    3.90    1.40
   3   6   4    1.40    0.90
  -3   6  -4    2.30    1.10
   3   6  -4    2.50    1.10
   4   0   4 2200.38   64.69
   4   0  -4 2323.97   65.59
   4   0  -4 2363.86   65.39
  -4   1  -4 4498.55  133.99
   4  -1  -4 4887.91  133.09
   4   1   4 4674.53  133.19
  -4  -1  -4 4629.44  140.79
   4   1  -4 4927.71  140.19
   4   1  -4 5376.86  139.99
  -4   1   4 5101.09  140.49
   4  -1   4 4788.22  141.29
   4   2   4  136.19    4.40
  -4  -2   4  131.09    4.20
   4  -2  -4  136.89    4.50
  -4   2  -4  142.89    4.50
   4   2  -4  143.79    4.50
   4  -2   4  148.69    5.20
   4   2  -4  159.28    4.60
  -4   2   4  140.09    4.60
  -4  -2  -4  141.69    4.80
  -4  -3   4  444.46   13.30
   4  -3  -4  463.15   13.60
  -4   3  -4  449.46   13.50
  -4  -3   4  447.26   13.30
   4   3   4  464.75   13.40
  -4  -3  -4  466.65   14.10
  -4   3   4  473.25   13.90
   4  -3   4  481.35   14.50
   4   3  -4  467.85   13.80
   4  -4  -4  174.28    6.30
  -4   4  -4  189.98    6.20
   4   4   4  181.58    6.10
  -4  -4  -4  183.68    6.40
   4   4  -4  186.48    6.10
   4  -4   4  192.08    6.80
  -4   4   4  183.68    6.10
  -4   5  -4 1948.91   55.69
   4   5   4 1965.90   55.59
   4  -5  -4 1934.41   55.89
  -4  -5  -4 1953.80   56.49
   4   5  -4 1989.60   56.29
  -4   5   4 1986.50   56.29
   4   6   4  309.87   10.30
  -4   6  -4  303.67   10.40
   4  -6  -4  311.67   10.80
   4   6  -4  296.47    9.90
   5   0  -4   11.90    0.90
   5   0  -4   14.60    1.00
   5   0   4   12.70    1.00
  -5   0   4   13.60    0.80
  -5   0  -4   11.40    1.10
   5  -1  -4    2.10    0.50
  -5   1  -4    1.50    0.70
   5   1   4    3.80    0.70
   5  -1   4    6.10    1.10
  -5  -1  -4    4.00    0.90
   5   1  -4    3.50    0.60
   5   1  -4    3.80    0.60
  -5   1   4    3.90    0.70
  -5   2  -4    0.70    0.50
   5   2   4    1.10    0.50
   5  -2  -4    1.10    0.60
  -5  -2  -4    0.90    0.60
  -5   2   4    0.40    0.40
   5  -2   4    0.90    0.80
   5   2  -4    1.60    0.50
   5   3   4    4.40    0.80
  -5   3  -4    2.80    0.70
   5  -3  -4    3.40    0.80
  -5   3   4    3.30    0.70
   5  -3   4    3.20    1.00
  -5  -3  -4    2.30    0.80
   5   3  -4    2.70    0.60
   5  -4  -4   -0.30    0.80
   5   4   4    0.00    0.60
  -5   4  -4    0.70    0.60
   5  -4   4   -1.00    0.90
  -5   4   4    0.50    0.60
  -5  -4  -4    0.30    0.70
   5   4  -4    1.20    0.60
   5   5   4    0.50    0.70
  -5   5  -4    1.40    0.90
   5  -5  -4    0.60    1.00
  -5   5   4    0.40    0.70
   5   5  -4    0.60    0.70
  -5  -5  -4    1.10    1.00
  -5   6  -4    2.50    1.10
   5  -6  -4    3.30    1.50
   5   6   4    2.10    1.00
   5   6  -4    2.70    1.10
   6   0   4 3923.01  109.79
  -6   0   4 3753.12  107.49
   6   0  -4 3826.12  108.39
  -6   0  -4 3374.66  109.09
   6   0  -4 4104.49  108.49
  -6   1  -4    1.50    0.70
   6  -1  -4    1.90    0.50
   6   1   4    2.50    0.60
  -6  -1  -4    3.70    0.80
   6  -1   4    2.40    0.80
  -6   1   4    3.60    0.60
   6   1  -4    1.70    0.50
   6  -2  -4  373.86   11.30
  -6   2  -4  376.36   11.40
   6   2   4  380.06   11.30
  -6   2   4  400.16   11.80
  -6  -2  -4  406.26   12.10
   6   2  -4  389.76   11.70
   6  -2   4  405.96   12.40
  -6   3  -4    3.10    0.80
   6   3   4    1.10    0.60
   6  -3  -4    1.00    0.70
  -6   3   4    1.60    0.60
   6  -3   4    2.60    1.00
  -6  -3  -4    4.40    0.90
   6   3  -4    2.40    0.60
  -6   4  -4  671.53   19.90
   6   4   4  668.33   19.80
   6  -4  -4  666.83   20.10
   6   4  -4  677.13   20.00
  -6  -4  -4  658.13   20.30
  -6   4   4  689.83   20.10
   6  -4   4  706.33   20.90
   6   5   4    0.20    0.80
   6  -5  -4    1.20    1.10
  -6   5  -4    1.60    0.90
   6   5  -4    0.40    0.70
  -6  -5  -4    0.60    0.90
  -6   6  -4  476.75   15.50
   6   6   4  486.65   15.30
   6   6  -4  487.85   15.40
   7   0  -4    0.10    0.50
  -7   0  -4    0.30    0.70
   7   0   4   -0.10    0.60
  -7   0   4    0.30    0.40
   7  -1  -4    6.70    1.00
  -7   1  -4    7.80    1.20
   7   1   4    7.70    1.00
   7   1  -4    7.40    0.90
  -7  -1  -4    9.40    1.30
   7  -1   4    5.80    1.10
  -7   1   4    7.60    0.90
   7   2   4    4.00    0.80
  -7   2  -4    4.10    0.90
   7  -2  -4    2.50    0.70
   7  -2   4    3.60    1.10
   7   2  -4    2.90    0.60
  -7  -2  -4    4.80    0.90
  -7   2   4    2.80    0.70
   7  -3  -4    0.70    0.80
  -7   3  -4    0.50    0.70
   7   3   4    0.50    0.60
   7   3  -4    0.90    0.60
  -7   3   4    0.40    0.50
  -7  -3  -4    1.30    0.70
   7  -3   4    1.30    0.90
   7   4   4    9.90    1.40
   7  -4  -4   11.70    1.80
  -7   4  -4   11.60    1.50
   7  -4   4   12.50    2.00
  -7  -4  -4   11.90    1.60
  -7   4   4    9.80    1.30
   7   4  -4    9.30    1.30
   7  -5  -4    0.00    1.10
   7   5   4   -0.20    0.80
  -7   5  -4    1.00    1.00
   7   5  -4    0.00    0.80
   7   6   4    0.50    1.00
  -7   6  -4    1.00    1.20
   7  -6  -4    1.80    1.40
   7   6  -4    0.90    1.00
   8   0  -4  207.48    6.60
  -8   0   4  205.58    6.30
   8   0   4  207.58    6.80
  -8   0  -4  195.08    6.80
   8  -1  -4  514.15   15.10
   8   1   4  474.85   15.00
  -8   1  -4  526.75   15.30
  -8   1   4  530.65   15.80
   8   1  -4  547.85   15.90
  -8  -1  -4  545.05   16.20
   8  -1   4  536.25   16.40
  -8   2  -4 2510.95   73.79
   8   2   4 2683.03   75.69
   8  -2  -4 2642.84   73.79
   8  -2   4 2931.91   78.69
  -8   2   4 2754.92   77.99
   8   2  -4 2699.33   80.19
  -8  -2  -4 2701.83   78.19
  -8   3  -4  478.35   14.60
   8   3   4  467.25   14.40
   8  -3  -4  485.15   14.70
  -8   3   4  483.75   14.50
   8  -3   4  490.95   15.10
   8   3  -4  491.85   14.40
  -8  -3  -4  461.75   14.70
   8  -4  -4  557.74   17.40
  -8   4  -4  555.74   17.20
   8   4   4  570.44   17.00
   8  -4   4  619.14   18.30
  -8  -4  -4  557.24   17.70
   8   4  -4  569.84   17.40
  -8   5  -4  102.49    4.60
   8  -5  -4  101.09    4.90
   8   5   4  101.09    4.50
   8   5  -4   94.99    4.10
   8   6   4    9.90    1.90
  -8   6  -4   11.10    2.10
   8  -6  -4   11.90    2.20
   8   6  -4   10.40    1.70
   9   0   4    0.00    0.70
  -9   0   4    0.90    0.50
   9   0  -4    0.50    0.60
  -9   0  -4    0.80    0.70
   9   1   4    1.30    0.70
   9  -1  -4    0.30    0.70
  -9   1  -4    0.40    0.80
  -9  -1  -4    0.30    0.80
  -9   1   4    1.30    0.60
   9   1  -4    0.40    0.60
   9  -1   4    0.10    0.80
  -9   2  -4    1.00    0.90
   9   2   4    1.30    0.70
   9  -2  -4    1.50    0.90
  -9   2   4    1.70    0.80
  -9  -2  -4    0.90    0.80
   9   2  -4    0.40    0.60
   9  -2   4    0.60    0.90
  -9   3  -4    5.60    1.20
   9   3   4    5.30    1.10
   9  -3  -4    5.00    1.20
   9  -3   4    4.00    1.20
  -9  -3  -4    4.80    1.10
   9   3  -4    4.00    0.90
  -9   4  -4   -0.20    0.80
   9   4   4    0.40    0.90
   9  -4  -4    0.40    1.10
   9   4  -4    0.30    0.80
   9  -4   4    0.90    1.20
  -9  -4  -4    1.40    1.10
   9   5   4    1.70    1.10
  -9   5  -4    2.10    1.20
   9  -5  -4    0.80    1.40
   9   5  -4    0.60    0.90
  10   0   4   20.80    1.80
  10   0  -4   17.20    1.50
 -10   0  -4   19.20    1.80
  10  -1  -4    1.40    0.80
 -10   1  -4    4.70    1.00
  10   1   4    0.20    0.70
  10   1  -4    0.40    0.70
 -10  -1  -4    0.20    0.80
  10  -1   4    0.70    0.80
  10   2   4  858.71   25.30
 -10   2  -4  869.61   25.50
  10  -2  -4  859.41   25.40
  10   2  -4  879.91   26.50
 -10  -2  -4  913.51   26.80
  10  -2   4  939.31   27.10
 -10   3  -4    5.00    1.20
  10   3   4    5.90    1.10
  10  -3  -4    4.30    1.20
  10   3  -4    6.20    1.10
 -10  -3  -4   11.20    1.60
  10  -3   4    7.20    1.40
 -10   4  -4  330.07   11.20
  10  -4  -4  336.07   11.40
  10   4   4  339.37   11.00
  10   4  -4  344.87   11.10
  10   5   4    1.60    1.10
 -10   5  -4    3.50    1.30
  10  -5  -4    2.00    1.40
  10   5  -4    3.10    1.10
  11   0  -4    5.90    1.10
  11   0   4    6.70    1.30
 -11   0  -4    5.80    1.20
 -11   1  -4    0.50    0.80
  11  -1  -4    0.20    0.70
  11   1   4   -0.50    0.80
 -11  -1  -4   -0.20    0.80
  11  -1   4   -0.20    0.80
  11   1  -4    0.60    0.80
  11  -2  -4    0.40    0.90
 -11   2  -4   -0.20    0.80
  11   2   4    0.20    0.80
  11   2  -4    0.10    0.70
  11  -2   4    0.10    0.90
 -11  -2  -4   -0.40    0.80
 -11   3  -4    0.00    0.90
  11   3   4   -0.10    0.80
  11  -3  -4    0.90    1.00
 -11  -3  -4    0.50    0.90
  11  -3   4    1.30    1.00
  11   3  -4    0.10    0.70
 -11   4  -4    2.40    1.20
  11   4   4    4.80    1.40
  11  -4  -4    3.20    1.30
  11   4  -4    4.30    1.20
  11  -5  -4    6.50    1.90
  11   5   4    3.30    1.40
 -11   5  -4    3.10    1.50
  11   5  -4    2.80    1.20
  12   0  -4  141.39    5.50
 -12   0  -4  154.98    5.80
  12   0   4  151.38    5.90
  12   1   4   94.49    4.30
  12  -1  -4   90.39    4.00
 -12   1  -4  106.19    4.30
  12  -1   4  104.49    4.60
  12   1  -4  103.59    4.30
 -12  -1  -4   98.69    4.40
  12   2   4  248.18    8.60
  12  -2  -4  251.17    8.50
 -12   2  -4  250.17    8.60
  12  -2   4  260.77    9.00
 -12  -2  -4  251.07    8.80
  12   2  -4  259.37    8.60
  12  -3  -4  612.04   18.80
  12   3   4  596.94   18.60
 -12   3  -4  606.24   18.80
  12  -3   4  633.04   19.60
  12   3  -4  630.94   19.20
  12  -4  -4    2.40    1.40
  12   4   4    4.50    1.40
 -12   4  -4    3.80    1.40
  12   4  -4    2.90    1.20
 -12   5  -4    8.30    1.80
  12   5   4    9.30    1.90
  12  -5  -4    6.80    2.00
  12   5  -4   11.30    2.00
  13   0   4   -0.60    0.90
  13   0  -4    1.30    0.90
 -13   0  -4    0.10    0.90
 -13   1  -4    1.40    0.90
  13  -1  -4   -0.10    0.90
  13   1   4    0.40    0.90
  13   1  -4    0.10    0.90
  13  -1   4   -0.40    0.90
 -13  -1  -4    0.90    1.00
  13  -2  -4    5.90    1.40
 -13   2  -4    6.90    1.50
  13   2   4    9.20    1.60
  13   2  -4    5.10    1.20
 -13  -2  -4    7.30    1.50
  13  -2   4    4.60    1.30
  13  -3  -4    0.70    1.10
 -13   3  -4    0.20    0.90
  13   3   4    2.00    1.10
  13   3  -4    1.20    1.00
  13  -3   4    0.70    1.10
 -13   4  -4   -0.20    1.10
  13  -4  -4    0.90    1.40
  13   4   4    0.50    1.20
  13   4  -4    0.70    1.10
  14   0  -4 1736.03   49.70
 -14   0  -4 1750.02   49.90
  14   0   4 1691.53   50.09
  14   1   4 1625.04   47.60
 -14   1  -4 1641.84   47.40
  14  -1  -4 1647.14   47.30
  14  -1   4 1690.83   48.50
 -14  -1  -4 1618.34   48.10
  14   1  -4 1690.63   48.10
  14  -2  -4  237.88    8.60
  14   2   4  257.57    8.90
 -14   2  -4  238.88    8.60
  14   2  -4  242.18    8.60
  14  -2   4  250.97    9.00
  14  -3  -4   49.70    3.30
 -14   3  -4   48.90    3.30
  14   3   4   49.90    3.30
  14   3  -4   50.59    3.10
  14   4   4  379.56   12.90
  14  -4  -4  368.86   12.80
  14   4  -4  391.66   13.00
  15   0   4    9.20    1.70
  15   0  -4    7.70    1.50
  15  -1  -4    0.10    0.90
 -15   1  -4    0.30    1.00
  15   1   4   -0.40    1.10
  15  -1   4    0.70    1.10
  15   1  -4    1.00    1.10
  15  -2  -4   -1.00    0.90
  15   2   4    0.70    1.20
 -15   2  -4   -0.20    1.10
  15   2  -4   -0.70    0.90
  15  -2   4   -0.90    0.90
  15   3   4    2.60    1.30
  15  -3  -4    2.70    1.40
  15   3  -4    2.20    1.20
  16   0  -4    2.60    1.20
  16   0   4    4.10    1.50
  16   1   4   73.39    4.20
  16  -1  -4   70.89    3.80
  16   1  -4   82.19    4.10
  16  -1   4   72.99    4.20
  16   2   4    0.40    1.30
  16  -2  -4    0.30    1.10
  16  -2   4    2.30    1.30
  16   2  -4    0.50    1.10
  16  -3  -4  117.19    5.50
  16   3   4  117.09    5.60
  16   3  -4  115.29    5.30
  17   0   4    4.10    1.70
  17   0  -4    3.50    1.40
  17  -1  -4    0.90    1.10
  17   1   4   -0.20    1.30
  17  -1   4    0.30    1.20
  17   1  -4    0.50    1.20
  17   2   4    1.30    1.30
  17  -2  -4    3.00    1.30
  17   2  -4    4.20    1.40
  17  -2   4    3.50    1.50
  18   0   4   66.49    4.20
  18   0  -4   64.79    3.90
   0   0  -5    0.20    0.30
   0   0  -5    0.20    0.20
   0   1  -5    0.30    0.30
   0   1  -5    0.30    0.20
   0  -1  -5    0.20    0.30
   0  -1  -5    0.10    0.20
   0   1   5    0.40    0.20
   0   2  -5  159.48    4.70
   0   2   5  152.48    4.60
   0  -2  -5  158.98    4.80
   0   2  -5  142.79    4.60
   0  -2   5  143.29    4.80
   0  -3  -5    0.90    0.60
   0   3  -5    0.40    0.40
   0  -3   5    3.60    0.80
   0   3   5    0.00    0.40
   0   4   5   72.59    2.80
   0   4  -5   70.49    2.80
   0  -4  -5   64.99    3.00
   0   5   5    0.30    0.60
   0  -5  -5   -1.40    0.70
   0   5  -5   -0.40    0.70
   0  -5  -5    0.60    0.80
   0  -6  -5    6.20    1.50
   0   6   5    4.10    1.10
   0   6  -5    8.80    1.50
   1   0  -5    0.30    0.20
  -1   0  -5    0.30    0.30
   1   0   5    0.60    0.20
   1   0  -5    0.10    0.10
  -1   0  -5    0.60    0.30
   1  -1  -5  655.13   17.60
   1  -1  -5  604.54   17.70
  -1   1  -5  600.94   17.90
  -1   1  -5  633.44   17.80
   1   1   5  624.24   17.60
  -1  -1  -5  622.94   17.80
  -1   1   5  623.64   17.60
   1  -1   5  652.53   17.70
   1   1  -5  616.14   17.80
   1   1  -5  617.84   17.70
  -1   2  -5  195.08    5.90
   1  -2  -5  196.08    6.00
   1   2   5  198.28    5.90
  -1  -2  -5  204.28    6.30
   1  -2   5  198.38    6.40
  -1   2   5  202.88    6.10
   1   2  -5  198.48    6.00
   1   2  -5  211.78    6.10
  -1  -3   5   19.20    1.40
  -1   3  -5   18.10    1.20
   1   3   5   18.70    1.20
   1  -3  -5   19.10    1.40
  -1   3   5   18.90    1.10
   1   3  -5   18.90    1.10
  -1  -3  -5   17.00    1.30
   1  -3   5   15.70    1.50
  -1   4  -5  126.69    4.50
   1   4   5  121.79    4.40
   1  -4  -5  133.19    4.70
  -1  -4  -5  124.99    4.70
   1   4  -5  124.79    4.40
  -1   4   5  127.39    4.40
   1  -5  -5    8.30    1.40
   1   5   5    8.60    1.20
  -1   5  -5    8.80    1.40
   1   5  -5    7.10    1.30
  -1  -5  -5    7.60    1.30
  -1   5   5   14.00    1.50
   1  -6  -5   21.20    2.30
   1   6   5   19.70    1.90
  -1   6  -5   19.30    2.00
   1   6  -5   23.10    2.10
  -1  -6  -5   21.50    2.30
   2  -1  -5 1126.79   33.60
  -2   1  -5 1211.18   33.10
   2  -1  -5 1188.08   33.40
  -2   1  -5 1168.88   33.20
   2   1   5 1145.79   33.00
   2   1  -5 1214.08   34.30
   2   1  -5 1179.58   34.20
  -2  -1  -5 1217.28   34.70
  -2   1   5 1204.18   34.10
   2  -1   5 1258.17   34.50
   2   2   5  163.08    5.00
   2  -2  -5  159.28    5.10
  -2   2  -5  166.98    5.10
   2   2  -5  167.98    5.00
  -2   2   5  160.88    5.00
  -2  -2  -5  166.18    5.30
   2   2  -5  173.68    5.00
   2  -2   5  162.08    5.50
  -2   3  -5  114.09    4.00
   2   3   5  123.09    4.00
   2  -3  -5  114.09    4.10
   2  -3   5  115.89    4.40
  -2  -3  -5  119.49    4.20
   2   3  -5  120.19    3.90
  -2   3   5  119.59    4.00
   2   4   5  233.08    7.30
  -2   4  -5  229.38    7.30
   2  -4  -5  216.48    7.50
  -2  -4  -5  228.98    7.70
   2   4  -5  231.58    7.40
  -2   4   5  238.18    7.40
   2  -5  -5  179.58    6.40
   2   5   5  165.68    6.00
  -2   5  -5  172.18    6.10
   2   5  -5  164.08    5.90
  -2  -5  -5  169.78    6.20
  -2   5   5  168.28    5.90
   2  -6  -5    1.40    1.20
  -2   6  -5    1.40    1.00
   2   6   5    2.60    1.00
   2   6  -5    1.40    0.90
  -2  -6  -5    2.80    1.20
  -2  -6  -5    3.20    1.30
   3   0   5    1.20    0.30
   3   0  -5    3.00    0.40
   3   0  -5    0.50    0.20
  -3   0  -5    0.30    0.40
   3   1   5 1320.87   38.90
   3  -1  -5 1419.86   39.30
  -3   1  -5 1329.27   39.30
   3  -1  -5 1429.36   39.40
   3   1  -5 1469.65   42.40
  -3  -1  -5 1553.94   43.60
   3  -1   5 1492.95   42.30
   3   1  -5 1488.95   42.40
  -3   1   5 1495.75   42.70
   3   2   5  266.07    8.00
  -3   2  -5  270.77    8.00
   3  -2  -5  270.27    8.10
   3  -2  -5  262.77    8.00
  -3  -2  -5  283.77    8.40
   3   2  -5  285.17    8.10
  -3   2   5  273.07    8.10
   3   2  -5  285.77    8.10
   3  -2   5  248.98    8.60
   3  -3  -5  285.77    9.00
  -3   3  -5  296.97    8.90
  -3  -3  -5  285.97    9.00
   3   3  -5  294.17    8.70
  -3   3   5  293.17    8.80
   3  -3   5  288.67    9.40
   3  -4  -5  149.69    5.50
  -3   4  -5  149.09    5.20
   3   4   5  156.48    5.20
   3   4  -5  155.98    5.20
  -3   4   5  154.08    5.20
  -3  -4  -5  151.58    5.50
   3  -5  -5  298.17   10.00
   3   5   5  300.07    9.70
  -3   5  -5  304.17    9.80
  -3   5   5  305.87    9.70
   3   5  -5  308.17    9.70
  -3  -5  -5  295.37   10.00
   3   6   5   41.00    2.60
   3  -6  -5   43.90    3.10
  -3   6  -5   38.20    2.70
   3   6  -5   43.40    2.70
  -4   0  -5    0.10    0.50
   4   0   5    2.20    0.50
   4  -1  -5 1109.29   30.00
  -4   1  -5 1028.30   29.90
   4  -1  -5 1026.60   30.00
   4   1   5 1041.90   29.70
   4   1  -5 1130.79   31.80
   4  -1   5 1135.29   31.80
   4   1  -5 1125.19   31.90
  -4   1   5 1084.99   31.40
  -4  -1  -5 1107.69   31.80
  -4   2  -5  195.68    6.20
   4  -2  -5  200.88    6.20
   4   2   5  202.68    6.20
   4   2  -5  214.58    6.20
  -4   2   5  198.58    6.20
  -4  -2  -5  200.58    6.50
   4   2  -5  208.18    6.20
  -4   3  -5    9.20    1.10
   4   3   5    7.50    1.00
   4  -3  -5    6.70    1.10
  -4   3   5    8.70    1.00
  -4  -3  -5    7.60    1.20
   4  -3   5    9.70    1.60
   4   3  -5    7.80    0.90
   4   4   5   46.80    2.30
   4  -4  -5   49.80    2.60
  -4   4  -5   48.80    2.40
   4   4  -5   49.40    2.30
  -4   4   5   49.99    2.30
  -4  -4  -5   52.89    2.70
   4   5   5   15.60    1.60
  -4   5  -5   15.20    1.70
   4  -5  -5   13.90    1.90
   4   5  -5   16.30    1.60
  -4  -5  -5   17.90    1.80
   4   6   5   73.69    3.70
  -4   6  -5   81.89    4.00
   4  -6  -5   80.79    4.30
   4   6  -5   78.39    3.80
   5   0  -5    2.70    0.50
  -5   0  -5    0.40    0.50
   5   0   5    0.50    0.40
   5   0  -5    0.30    0.40
  -5   1  -5  365.86   11.20
   5  -1  -5  384.26   10.80
   5   1   5  362.56   10.90
   5  -1  -5  366.66   10.80
  -5   1   5  401.76   11.90
   5   1  -5  424.06   11.80
   5   1  -5  404.66   11.80
   5  -1   5  398.06   12.30
  -5  -1  -5  422.66   12.30
   5   2   5    4.20    0.80
  -5   2  -5    3.30    0.70
   5  -2  -5    3.40    0.70
   5   2  -5    4.50    0.60
   5  -2   5    4.00    1.00
   5   2  -5    3.80    0.60
  -5   2   5    3.30    0.50
  -5  -2  -5    4.30    0.80
  -5   3  -5    3.10    0.80
   5  -3  -5    2.10    0.70
   5   3   5    1.50    0.60
   5  -3   5    2.80    1.00
   5   3  -5    3.10    0.60
  -5   3   5    2.90    0.60
  -5  -3  -5    2.70    0.80
   5   4   5   25.10    1.70
  -5   4  -5   26.30    1.80
   5  -4  -5   24.70    1.90
  -5   4   5   27.70    1.70
  -5  -4  -5   26.70    2.00
   5   4  -5   26.40    1.60
   5   5   5    5.30    1.00
  -5   5  -5    6.30    1.30
   5  -5  -5    3.80    1.30
  -5  -5  -5    5.40    1.30
   5   5  -5    4.70    1.00
  -5   6  -5    1.70    1.10
   5   6   5    3.10    1.10
   5  -6  -5    1.00    1.30
   5   6  -5    4.20    1.20
  -6   0  -5    0.20    0.60
   6   0  -5    0.40    0.40
   6   0  -5    5.00    0.80
  -6   1  -5    8.20    1.20
   6   1   5    8.90    0.90
   6  -1  -5    7.00    0.90
  -6  -1  -5    9.50    1.20
   6   1  -5    8.80    0.70
  -6   1   5    8.80    0.80
   6   1  -5    8.30    0.80
   6  -1   5    6.30    1.20
   6  -2  -5  210.38    6.60
   6   2   5  212.88    6.60
  -6   2  -5  199.68    6.70
   6   2  -5  231.08    6.80
  -6  -2  -5  227.78    7.20
  -6   2   5  220.58    6.90
   6  -2   5  213.08    7.50
   6   2  -5  219.78    6.80
   6  -3  -5    3.90    1.00
  -6   3  -5    2.90    0.80
   6   3   5    2.50    0.70
   6  -3   5    1.00    0.90
   6   3  -5    1.60    0.60
  -6   3   5    3.90    0.70
  -6  -3  -5    1.80    0.80
   6  -4  -5   34.40    2.30
   6   4   5   35.00    2.00
  -6   4  -5   33.10    2.20
  -6   4   5   34.20    1.90
  -6  -4  -5   32.60    2.30
   6   4  -5   33.80    1.90
   6  -5  -5   30.50    2.60
   6   5   5   28.50    2.10
  -6   5  -5   31.10    2.40
   6   5  -5   28.30    2.00
  -6  -5  -5   32.20    2.40
   6  -6  -5   57.49    3.80
   6   6   5   54.29    3.20
  -6   6  -5   55.79    3.50
   6   6  -5   58.29    3.30
  -7   0  -5    0.00    0.60
   7   0  -5    0.50    0.50
   7   0   5    0.70    0.50
  -7   1  -5    2.90    0.80
   7  -1  -5    3.20    0.70
   7   1   5    3.80    0.70
  -7   1   5    6.50    0.80
   7  -1   5    3.40    0.90
   7   1  -5    3.20    0.60
  -7  -1  -5    2.60    0.90
   7   1  -5    3.70    0.60
  -7   2  -5  343.17   10.70
   7  -2  -5  347.97   10.50
   7   2   5  333.67   10.40
  -7   2   5  378.96   11.10
   7   2  -5  356.16   10.90
  -7  -2  -5  360.76   11.40
   7  -2   5  377.26   11.70
   7   3   5    1.10    0.70
  -7   3  -5    1.00    0.80
   7  -3  -5    0.30    0.70
  -7   3   5    1.30    0.60
  -7  -3  -5    0.20    0.70
   7  -3   5    2.30    1.10
   7   3  -5    0.80    0.60
  -7   4  -5  807.22   24.40
   7  -4  -5  833.92   24.50
   7   4   5  830.82   24.20
   7   4  -5  819.92   24.10
  -7  -4  -5  829.02   24.50
   7  -5  -5    7.70    1.60
  -7   5  -5    7.70    1.40
   7   5   5    8.00    1.50
  -7  -5  -5    9.40    1.60
   7   5  -5    6.40    1.20
   7   6   5    9.70    1.90
   7  -6  -5   13.90    2.40
  -7   6  -5   13.80    2.20
   7   6  -5   13.60    1.90
   8   0   5    0.30    0.60
  -8   0  -5    0.50    0.80
   8   0  -5    0.90    0.60
   8   1   5    0.50    0.60
  -8   1  -5    0.70    0.80
   8  -1  -5    0.70    0.60
  -8  -1  -5    0.40    0.80
   8  -1   5    0.70    0.80
  -8   1   5    0.90    0.50
   8   1  -5    0.70    0.60
   8   2   5  568.14   17.00
  -8   2  -5  579.34   17.30
   8  -2  -5  575.24   17.10
   8  -2   5  646.04   19.00
  -8  -2  -5  625.74   18.70
   8   2  -5  608.84   18.20
   8  -3  -5    1.00    0.80
  -8   3  -5    1.30    0.80
   8   3   5    2.40    0.90
   8  -3   5    1.80    1.10
   8   3  -5    1.10    0.60
  -8  -3  -5    0.30    0.80
  -8   4  -5  800.12   23.30
   8   4   5  756.12   23.00
   8  -4  -5  771.12   23.30
   8   4  -5  758.02   23.10
  -8  -4  -5  820.72   23.70
   8  -5  -5    0.80    1.20
   8   5   5    1.80    1.00
  -8   5  -5    1.60    1.10
   8   5  -5    6.10    1.20
   8   6   5   63.49    3.70
  -8   6  -5   66.29    4.00
   8  -6  -5   75.99    4.50
   8   6  -5   67.39    3.60
  -9   0  -5   -0.50    0.70
   9   0  -5    0.60    0.60
   9   0   5    0.80    0.70
   9   1   5    1.10    0.70
   9  -1  -5    1.50    0.70
  -9   1  -5    0.70    0.80
   9  -1   5    1.00    0.90
  -9  -1  -5    1.10    0.80
   9   1  -5    1.30    0.70
   9   2   5  728.53   21.60
  -9   2  -5  735.03   21.90
   9  -2  -5  736.33   21.70
   9  -2   5  791.12   23.50
   9   2  -5  779.32   22.80
  -9  -2  -5  784.72   23.20
   9  -3  -5    2.00    1.00
  -9   3  -5    0.30    0.80
   9   3   5   -0.60    0.60
   9  -3   5   -0.30    0.90
   9   3  -5    1.30    0.70
  -9  -3  -5    4.10    1.10
   9  -4  -5  212.58    7.80
   9   4   5  217.78    7.50
  -9   4  -5  213.68    7.70
   9   4  -5  225.78    7.50
  -9  -4  -5  216.38    7.90
  -9   5  -5    7.60    1.60
   9   5   5    6.50    1.40
   9  -5  -5    8.10    1.90
   9   5  -5    6.10    1.30
  10   0   5    1.80    0.80
  10   0  -5    0.20    0.70
 -10   0  -5    0.10    0.80
  10   1   5    2.70    0.80
  10  -1  -5    4.70    1.00
 -10   1  -5    3.50    1.00
  10  -1   5    5.00    1.20
 -10  -1  -5    2.50    1.00
  10   1  -5    3.00    0.80
  10  -2  -5  123.09    4.90
 -10   2  -5  132.49    5.10
  10   2   5  129.99    4.90
  10  -2   5  137.59    5.60
  10   2  -5  145.89    5.10
 -10  -2  -5  136.29    5.40
  10   3   5    3.30    1.00
  10  -3  -5    2.00    1.00
 -10   3  -5    4.70    1.20
  10  -3   5    4.50    1.40
 -10  -3  -5    5.00    1.30
  10   3  -5    5.20    1.00
  10  -4  -5  169.28    6.80
 -10   4  -5  171.78    6.70
  10   4   5  175.48    6.50
  10   4  -5  172.28    6.10
 -10  -4  -5  163.88    6.50
  10   5   5    2.70    1.20
 -10   5  -5    1.90    1.20
  10  -5  -5    3.70    1.70
  10   5  -5    2.60    1.10
  11   0  -5   -0.20    0.60
 -11   0  -5    0.00    0.90
  11   0   5   -0.10    0.90
  11   1   5  125.49    4.80
 -11   1  -5  117.89    4.80
  11  -1  -5  120.19    4.70
 -11  -1  -5  131.69    5.10
  11  -1   5  124.59    5.20
  11   1  -5  121.39    4.70
  11  -2  -5    6.70    1.20
  11   2   5    6.10    1.10
 -11   2  -5    8.50    1.50
 -11  -2  -5    8.50    1.60
  11  -2   5    5.80    1.30
  11   2  -5    7.70    1.20
  11  -3  -5    4.20    1.30
 -11   3  -5    4.50    1.30
  11   3   5    4.60    1.10
  11  -3   5    4.10    1.30
  11   3  -5    4.00    1.00
 -11  -3  -5    4.60    1.30
  11   4   5   48.10    3.10
 -11   4  -5   53.29    3.40
  11  -4  -5   50.49    3.40
  11   4  -5   48.80    2.80
  11  -5  -5    5.70    1.80
 -11   5  -5    5.80    1.70
  11   5   5    4.60    1.50
  11   5  -5    6.00    1.40
  12   0  -5    0.90    0.80
  12   0   5   -0.20    0.90
 -12   0  -5    0.30    0.90
  12  -1  -5  241.48    8.30
  12   1   5  248.18    8.50
 -12   1  -5  251.57    8.50
 -12  -1  -5  242.28    8.40
  12  -1   5  231.98    8.50
  12   1  -5  247.48    8.10
  12  -2  -5   13.80    1.80
 -12   2  -5   16.00    1.90
  12   2   5   11.40    1.70
 -12  -2  -5   19.70    2.00
  12  -2   5   17.60    2.10
  12   2  -5   15.00    1.70
  12   3   5   42.80    2.80
  12  -3  -5   37.20    2.80
 -12   3  -5   37.00    2.80
 -12  -3  -5   37.70    2.80
  12   3  -5   42.30    2.60
  12  -3   5   40.20    3.00
 -12   4  -5   66.89    4.00
  12  -4  -5   71.59    4.10
  12   4   5   70.09    3.80
  12   4  -5   68.09    3.50
  12  -5  -5   75.89    4.60
  12   5   5   70.49    4.20
 -12   5  -5   70.39    4.30
  12   5  -5   68.79    3.70
  13   0  -5    0.20    0.80
 -13   0  -5    0.20    1.00
  13   0   5    2.50    1.30
  13  -1  -5  441.16   14.10
 -13   1  -5  457.35   14.30
  13   1   5  452.75   14.40
  13   1  -5  460.95   14.60
  13  -1   5  479.25   15.10
 -13  -1  -5  466.25   14.90
 -13   2  -5   41.20    2.80
  13  -2  -5   37.30    2.60
  13   2   5   42.50    2.80
  13  -2   5   41.40    3.00
 -13  -2  -5   37.80    2.70
  13   2  -5   42.20    2.60
  13   3   5   41.60    3.00
 -13   3  -5   47.80    3.20
  13  -3  -5   44.50    3.10
  13   3  -5   40.70    2.70
  13  -3   5   44.20    3.40
  13  -4  -5  209.88    8.10
  13   4   5  204.78    7.90
 -13   4  -5  203.48    8.10
  13   4  -5  214.58    7.80
  14   0   5    3.50    1.40
 -14   0  -5   -0.50    0.90
  14   0  -5   -0.10    0.90
  14   1   5  389.76   12.90
  14  -1  -5  386.76   12.50
 -14   1  -5  384.76   12.60
 -14  -1  -5  402.06   13.10
  14  -1   5  405.96   13.40
  14   1  -5  393.36   12.80
 -14   2  -5  102.59    4.60
  14   2   5   95.39    4.60
  14  -2  -5   95.69    4.50
  14  -2   5   99.39    4.80
  14   2  -5  101.39    4.50
 -14   3  -5    4.80    1.50
  14  -3  -5    7.20    1.70
  14   3   5    5.40    1.50
  14   3  -5    5.00    1.30
 -14   4  -5   38.40    3.20
  14  -4  -5   43.80    3.40
  14   4   5   37.10    3.20
  14   4  -5   41.30    3.00
  15   0   5   -1.10    1.10
 -15   0  -5    0.70    1.10
  15   0  -5    0.10    1.00
  15  -1  -5  104.19    4.60
  15   1   5  104.29    5.10
 -15   1  -5  108.19    4.90
  15   1  -5  107.19    4.70
  15  -1   5  103.99    5.10
  15   2   5   79.19    4.30
 -15   2  -5   78.39    4.10
  15  -2  -5   78.69    4.00
  15   2  -5   73.59    3.90
  15  -2   5   81.99    4.30
  15  -3  -5   27.80    2.80
 -15   3  -5   30.50    2.80
  15   3   5   33.80    2.90
  15   3  -5   29.00    2.50
  16   0   5   -0.40    1.20
  16   0  -5    1.20    1.10
  16  -1  -5    5.60    1.40
  16   1   5    8.90    2.00
  16  -1   5    3.10    1.40
  16   1  -5    6.40    1.50
  16  -2  -5   32.40    2.70
  16   2   5   24.90    2.80
  16   2  -5   28.30    2.50
  16   3   5   16.00    2.50
  16  -3  -5   11.90    2.30
  16   3  -5    9.00    1.70
  17   0  -5   -0.20    1.10
  17   0   5    0.30    1.20
  17   1   5   41.60    3.50
  17  -1  -5   35.40    2.80
  17  -1   5   40.90    3.30
  17   1  -5   36.40    2.90
  17  -2  -5   19.50    2.40
  17   2   5   16.80    2.60
  17   2  -5   19.00    2.30
   0   0  -6   53.59    2.10
   0   0  -6   56.79    2.20
   0   2  -6   28.90    1.30
   0   2   6   27.40    1.30
   0   2  -6   27.70    1.20
   0  -2  -6   25.70    1.50
   0  -3  -6    2.10    0.70
   0   3   6    1.70    0.50
   0   3  -6    1.00    0.50
   0   4   6    7.30    1.00
   0   4  -6    6.30    1.00
   0  -4  -6    7.30    1.20
   0   6  -6   18.00    2.00
   0  -6  -6   13.10    2.10
   1   0  -6 2700.43   75.59
   1   0  -6 2682.03   75.69
  -1   0  -6 2851.91   76.69
  -1   0  -6 2549.15   76.89
  -1   1  -6 4389.16  135.09
   1  -1  -6 5263.27  134.59
   1   1   6 4857.51  134.39
  -1   1  -6 4650.63  134.49
   1  -1  -6 4678.33  134.59
  -1  -1  -6 4880.91  141.09
   1   1  -6 4867.51  139.79
   1   1  -6 4992.20  146.99
  -1   1   6 5192.98  139.99
   1  -2  -6  249.68    7.80
   1   2   6  263.47    7.70
  -1   2  -6  257.27    7.60
  -1   2  -6  264.37    7.80
   1   2  -6  258.37    7.60
  -1   2   6  260.87    7.70
  -1  -2  -6  250.17    7.90
   1   2  -6  264.67    7.60
   1  -2   6  260.87    7.90
   1  -3  -6  373.56   11.40
  -1   3  -6  384.16   11.20
   1   3   6  377.66   11.20
   1   3  -6  380.56   11.10
   1  -3   6  355.26   11.50
  -1  -3  -6  375.96   11.40
  -1   3   6  392.56   11.20
   1  -4  -6  170.28    5.90
  -1   4  -6  163.68    5.60
   1   4   6  166.18    5.60
  -1  -4  -6  165.08    5.80
  -1   4   6  166.88    5.50
   1   4  -6  162.18    5.50
  -1   5  -6 1805.72   50.89
   1  -5  -6 1798.42   51.19
   1   5   6 1741.93   50.79
  -1   5   6 1737.93   50.89
  -1  -5  -6 1823.62   51.39
   1   5  -6 1803.22   50.99
  -1   6  -6  498.75   15.50
   1  -6  -6  490.85   15.90
   1   6  -6  492.15   15.60
  -1  -6  -6  509.95   16.00
   2   0  -6    7.00    0.30
  -2   0  -6    7.10    0.60
  -2   0  -6    8.40    0.80
   2   0  -6    7.50    0.40
   2   0   6    7.50    0.50
  -2   1  -6    0.20    0.50
   2   1   6   -0.30    0.30
   2  -1  -6   -0.60    0.30
  -2   1  -6    0.30    0.40
   2  -1  -6   -0.30    0.30
   2  -1   6   -0.10    0.30
   2   1  -6   -0.50    0.20
  -2   1   6   -0.20    0.30
  -2  -1  -6   -0.40    0.40
  -2   2  -6   16.40    1.00
   2   2   6   16.50    1.00
   2  -2  -6   17.50    1.10
   2   2  -6   17.90    0.90
   2   2  -6   17.70    0.90
   2  -2   6   18.20    1.30
  -2   2   6   17.60    0.90
  -2  -2  -6   16.30    1.20
   2   3   6    0.70    0.50
  -2   3  -6    0.10    0.50
   2  -3  -6    0.10    0.60
  -2  -3  -6    1.10    0.70
   2  -3   6    1.50    0.80
   2   3  -6    1.10    0.50
  -2   3   6    0.00    0.40
   2   4   6   12.10    1.20
  -2   4  -6   12.70    1.30
   2  -4  -6   12.30    1.40
   2  -4  -6   12.40    1.40
  -2   4   6   13.00    1.20
   2   4  -6   12.70    1.20
  -2  -4  -6   12.70    1.40
   2  -5  -6    0.00    0.90
  -2   5  -6   -0.10    0.70
   2   5   6   -0.20    0.60
   2   5  -6    0.10    0.70
  -2  -5  -6    0.40    0.90
   2  -6  -6    5.00    1.50
  -2   6  -6    4.20    1.20
  -2  -6  -6    3.40    1.20
  -2  -6  -6    1.00    1.10
   2   6  -6    2.80    1.10
   3   0  -6 2611.14   71.59
  -3   0  -6 2400.66   72.39
   3   0  -6 2599.44   71.79
   3   0   6 2573.54   72.29
   3  -1  -6 1244.28   35.30
  -3   1  -6 1172.18   34.60
   3   1   6 1216.78   34.40
   3  -1  -6 1251.07   35.30
   3   1  -6 1376.06   36.80
  -3  -1  -6 1264.07   36.80
   3   1  -6 1301.67   36.80
   3  -1   6 1268.27   36.70
   3   2   6  160.88    5.00
  -3   2  -6  161.68    5.00
   3  -2  -6  149.79    5.00
   3   2  -6  185.18    5.20
   3  -2   6  172.68    5.80
  -3  -2  -6  159.38    5.50
  -3   2   6  168.88    5.30
   3   2  -6  176.48    5.20
   3  -3  -6 5804.82  163.68
   3  -3  -6 5785.22  163.18
  -3   3  -6 5551.34  161.68
   3   3   6 5645.14  162.28
  -3  -3  -6 5603.74  167.18
  -3   3   6 6113.29  166.18
   3  -3   6 5588.34  163.38
   3   3  -6 6030.60  166.18
   3  -4  -6   44.50    2.40
  -3   4  -6   45.60    2.30
   3   4   6   43.60    2.20
   3   4  -6   47.10    2.20
  -3  -4  -6   50.79    2.60
  -3   4   6   49.99    2.30
   3   5   6   18.60    1.70
   3  -5  -6   17.50    1.90
  -3   5  -6   23.90    1.90
   3   5  -6   20.70    1.70
  -3  -5  -6   22.30    2.10
  -3   6  -6  230.68    8.40
   3  -6  -6  240.68    8.70
   3   6  -6  231.08    7.90
  -3  -6  -6  214.78    8.20
   4   0  -6    4.80    0.50
  -4   0  -6    5.40    0.90
   4   0  -6    5.90    0.60
   4   0   6    5.50    0.70
  -4   1  -6    1.80    0.60
   4  -1  -6    1.70    0.40
   4   1   6    2.10    0.50
   4  -1  -6    2.10    0.40
   4  -1   6    1.80    0.50
  -4  -1  -6    1.80    0.60
   4   1  -6    2.00    0.30
   4   1  -6    2.00    0.30
  -4   2  -6    4.60    0.80
   4  -2  -6    4.90    0.80
   4   2   6    4.60    0.80
  -4   2   6    4.40    0.60
   4  -2   6    4.00    0.90
  -4  -2  -6    5.20    1.00
   4   2  -6    5.40    0.60
   4   2  -6    4.90    0.50
  -4   3  -6    0.10    0.50
   4  -3  -6    1.20    0.70
   4   3   6   -0.10    0.50
  -4  -3  -6    1.60    0.70
  -4   3   6   -0.20    0.40
   4  -3   6    0.70    0.90
   4   3  -6   -0.20    0.40
  -4   4  -6    3.10    0.80
   4  -4  -6    3.30    0.90
   4   4   6    2.50    0.70
   4   4  -6    2.50    0.70
  -4  -4  -6    1.30    0.90
  -4   4   6    0.70    0.60
  -4   5  -6    0.30    0.80
   4  -5  -6   -0.40    0.90
   4   5   6    0.40    0.70
   4   5  -6    0.70    0.70
  -4  -5  -6    0.90    0.80
   4  -6  -6    3.10    1.50
  -4   6  -6    2.90    1.20
   4   6  -6    3.10    1.10
   5   0  -6  110.59    3.40
  -5   0  -6  101.99    3.80
   5   0  -6   95.79    3.30
   5   0   6  101.29    3.50
  -5   1  -6    5.20    0.90
   5  -1  -6    0.70    0.40
   5   1   6    0.40    0.50
   5  -1  -6    1.10    0.40
   5  -1   6    1.00    0.60
  -5  -1  -6    1.80    0.70
   5   1  -6    0.90    0.40
   5   1  -6    1.00    0.30
  -5   2  -6  134.29    4.80
   5   2   6  139.89    4.70
   5  -2  -6  148.09    4.70
   5   2  -6  149.19    4.80
  -5  -2  -6  146.39    5.20
   5  -2   6  153.38    5.50
   5   2  -6  164.18    4.80
  -5   2   6  156.88    4.90
   5  -3  -6  635.64   18.90
   5   3   6  659.43   18.80
  -5   3  -6  639.14   19.00
   5   3  -6  667.63   19.50
  -5  -3  -6  667.03   20.00
   5  -3   6  680.83   20.30
  -5   3   6  695.33   19.70
  -5   4  -6   24.40    1.80
   5  -4  -6   25.00    1.90
   5   4   6   22.20    1.60
  -5  -4  -6   24.70    2.00
   5   4  -6   23.80    1.60
  -5   5  -6    4.90    1.20
   5   5   6    5.70    1.10
   5  -5  -6    5.00    1.40
   5   5  -6    7.60    1.30
  -5  -5  -6    5.90    1.30
   5  -6  -6   14.60    2.30
  -5   6  -6   16.00    2.10
   5   6  -6   15.40    1.90
   6   0  -6    1.60    0.50
   6   0  -6    1.80    0.50
   6   0   6    1.80    0.60
  -6   0  -6    0.90    0.70
   6   1   6    2.70    0.60
   6  -1  -6    2.80    0.60
  -6   1  -6    2.90    0.80
   6  -1   6    3.90    0.80
   6   1  -6    4.20    0.60
  -6  -1  -6    3.10    0.80
   6   1  -6    4.30    0.70
   6  -2  -6    0.70    0.60
  -6   2  -6    0.50    0.60
   6   2   6   -0.60    0.50
  -6   2   6    1.00    0.40
   6  -2   6    0.40    0.80
   6   2  -6    0.10    0.40
  -6  -2  -6    1.20    0.70
   6   2  -6    0.50    0.40
   6   3   6   13.70    1.30
  -6   3  -6   14.20    1.40
   6  -3  -6   12.10    1.40
  -6   3   6   15.90    1.20
   6  -3   6   14.50    1.80
  -6  -3  -6   14.70    1.50
   6   3  -6   11.20    1.10
   6  -4  -6   -0.10    0.80
   6   4   6    0.60    0.70
  -6   4  -6   -0.40    0.70
   6   4  -6    0.00    0.60
  -6  -4  -6    0.00    0.80
   6   5   6    3.20    1.10
  -6   5  -6    1.80    1.00
   6  -5  -6    3.90    1.40
   6   5  -6    3.20    1.00
  -6  -5  -6    2.60    1.10
  -6   6  -6    1.20    1.20
   6  -6  -6   -0.30    1.20
   6   6  -6    0.80    0.90
   7   0   6   82.69    3.30
   7   0  -6   84.69    3.10
  -7   0  -6   79.49    3.50
   7   0  -6   96.59    3.20
   7   1   6  334.47   10.00
   7  -1  -6  320.17    9.90
  -7   1  -6  324.07   10.30
  -7  -1  -6  351.36   11.30
   7   1  -6  380.26   10.80
   7   1  -6  349.07   10.80
   7  -1   6  372.56   11.30
   7  -2  -6 2847.22   81.19
   7   2   6 2940.11   81.39
  -7   2  -6 2782.62   81.99
  -7  -2  -6 3033.20   87.39
   7  -2   6 2991.90   86.49
   7   2  -6 3152.58   87.89
   7   3   6  306.07    9.50
   7  -3  -6  301.57    9.60
  -7   3  -6  291.17    9.60
   7   3  -6  313.77    9.90
  -7  -3  -6  329.07   10.50
   7  -3   6  338.77   10.80
   7   4   6  721.93   21.10
  -7   4  -6  695.73   21.20
   7  -4  -6  707.63   21.30
   7   4  -6  703.33   20.80
  -7  -4  -6  715.43   21.40
   7  -5  -6   80.39    4.10
   7   5   6   73.59    3.60
  -7   5  -6   81.69    4.00
  -7  -5  -6   78.69    4.00
   7   5  -6   79.19    3.60
   7  -6  -6   10.70    1.90
  -7   6  -6   18.10    2.40
   7   6  -6   15.80    2.00
   8   0  -6    0.50    0.60
   8   0   6    5.80    1.00
  -8   0  -6    0.30    0.80
  -8   1  -6   13.90    1.60
   8  -1  -6   14.30    1.30
   8   1   6   15.20    1.40
   8  -1   6   15.50    1.70
  -8  -1  -6   14.90    1.70
   8   1  -6   15.20    1.20
   8  -2  -6    0.70    0.60
   8   2   6    0.70    0.70
  -8   2  -6    1.30    0.80
   8   2  -6    1.80    0.60
   8  -2   6    0.70    0.90
  -8  -2  -6    1.00    0.80
   8  -3  -6    5.50    1.10
   8   3   6    5.60    1.00
  -8   3  -6    5.80    1.20
   8   3  -6    5.70    1.00
   8  -3   6    5.20    1.30
  -8  -3  -6    8.00    1.50
  -8   4  -6    0.90    1.00
   8  -4  -6    3.50    1.20
   8   4   6    1.80    0.90
  -8  -4  -6    3.10    1.20
   8   4  -6    2.40    0.80
   8   5   6    9.30    1.60
  -8   5  -6    8.10    1.50
   8  -5  -6   11.20    1.90
   8   5  -6   10.30    1.50
  -8  -5  -6    8.20    1.70
  -9   0  -6 7705.93  236.78
   9   0  -6 8746.52  237.98
   9   0   6 8583.64  239.38
  -9   1  -6   36.20    2.30
   9   1   6   37.70    2.20
   9  -1  -6   43.30    2.20
  -9  -1  -6   40.90    2.50
   9  -1   6   40.70    2.50
   9   1  -6   41.90    2.10
   9   2   6  770.52   22.80
   9  -2  -6  777.32   22.90
  -9   2  -6  780.92   23.10
   9   2  -6  819.12   23.60
   9  -2   6  801.82   24.30
  -9  -2  -6  818.32   24.10
  -9   3  -6   15.50    1.90
   9  -3  -6   15.40    1.70
   9   3   6   12.60    1.50
  -9  -3  -6   14.80    1.80
   9  -3   6   18.80    2.10
   9   3  -6   16.90    1.40
   9   4   6 1409.26   41.70
   9  -4  -6 1483.15   42.10
  -9   4  -6 1444.86   42.10
   9   4  -6 1425.66   41.10
  -9  -4  -6 1437.46   41.70
  -9   5  -6   18.50    2.30
   9  -5  -6   17.30    2.40
   9   5   6   14.50    1.90
   9   5  -6   16.50    1.80
 -10   0  -6    3.70    1.10
  10   0  -6    3.80    0.90
  10   0   6    5.10    1.10
  10   1   6   12.30    1.50
  10  -1  -6   12.00    1.40
 -10   1  -6   13.20    1.70
  10   1  -6   12.60    1.30
 -10  -1  -6   11.70    1.70
  10  -1   6   12.50    1.80
 -10   2  -6    0.40    0.90
  10  -2  -6   -0.40    0.70
  10   2   6    0.50    0.80
 -10  -2  -6   -0.20    0.80
  10   2  -6    0.60    0.70
  10  -2   6   -0.50    0.90
  10   3   6    7.90    1.40
 -10   3  -6   10.40    1.70
  10  -3  -6    6.20    1.30
 -10  -3  -6    6.00    1.30
  10  -3   6    8.00    1.60
  10   3  -6    7.70    1.20
  10   4   6    1.30    1.00
  10  -4  -6    0.50    1.20
 -10   4  -6    1.60    1.20
 -10  -4  -6    0.20    1.10
  10   4  -6   -0.50    0.80
  10   5   6    4.80    1.30
 -10   5  -6    8.00    1.70
  10  -5  -6    7.20    1.80
  10   5  -6    6.10    1.30
  11   0  -6  234.88    7.80
 -11   0  -6  222.58    8.20
  11   0   6  258.57    8.40
  11  -1  -6  381.16   11.70
  11   1   6  364.86   11.90
 -11   1  -6  373.26   12.00
 -11  -1  -6  377.36   12.20
  11  -1   6  384.36   12.40
  11   1  -6  372.76   11.70
  11   2   6  604.54   18.00
 -11   2  -6  585.24   18.20
  11  -2  -6  587.44   18.00
  11   2  -6  622.14   18.00
  11  -2   6  609.04   18.70
 -11  -2  -6  570.94   18.40
  11   3   6    1.00    1.00
  11  -3  -6    1.10    1.10
 -11   3  -6    0.40    1.00
 -11  -3  -6    1.20    1.00
  11   3  -6    0.20    0.70
  11   4   6  187.98    7.00
  11  -4  -6  177.98    7.30
 -11   4  -6  186.48    7.30
  11   4  -6  180.08    6.50
  11  -5  -6  234.68    8.90
  11   5   6  211.98    8.20
 -11   5  -6  218.08    8.60
  11   5  -6  225.08    8.00
  12   0   6    0.00    1.00
 -12   0  -6    0.60    1.00
  12   0  -6    1.80    0.80
  12  -1  -6    3.00    1.00
 -12   1  -6    2.80    1.10
  12   1   6    2.50    1.10
 -12  -1  -6    4.80    1.40
  12  -1   6    2.00    1.10
  12   1  -6    2.10    0.90
  12  -2  -6    0.40    0.90
 -12   2  -6   -1.10    0.80
  12   2   6    0.80    0.90
 -12  -2  -6    1.10    1.10
  12   2  -6    0.70    0.80
  12  -2   6    1.50    1.10
  12  -3  -6    4.80    1.40
 -12   3  -6    5.80    1.50
  12   3   6    4.30    1.30
  12   3  -6    5.00    1.10
 -12  -3  -6    5.40    1.40
  12   4   6    0.40    1.10
 -12   4  -6   -0.40    1.20
  12  -4  -6   -0.40    1.20
  12   4  -6    1.00    0.90
  13   0  -6   79.19    3.60
  13   0   6   80.09    4.10
 -13   0  -6   77.19    3.90
  13  -1  -6   30.60    2.30
  13   1   6   32.60    2.60
 -13   1  -6   30.40    2.50
 -13  -1  -6   31.50    2.60
  13   1  -6   29.20    2.20
  13  -1   6   30.80    2.70
 -13   2  -6 1526.35   44.00
  13  -2  -6 1492.35   43.80
  13   2   6 1516.95   44.00
  13  -2   6 1656.23   45.90
  13   2  -6 1530.85   45.00
 -13  -2  -6 1511.95   45.50
 -13   3  -6 1037.20   31.40
  13  -3  -6 1063.09   31.30
  13   3   6 1050.19   31.30
  13   3  -6 1040.80   30.60
  13   4   6  476.45   15.60
  13  -4  -6  497.15   15.80
 -13   4  -6  462.95   15.70
  13   4  -6  480.55   15.20
 -14   0  -6   -0.20    1.00
  14   0  -6    0.60    0.90
  14   0   6   -0.80    1.10
 -14   1  -6    1.90    1.10
  14   1   6    2.70    1.30
  14  -1  -6    1.50    1.00
 -14  -1  -6    2.20    1.30
  14   1  -6    3.00    1.10
  14  -1   6    1.90    1.20
  14  -2  -6    1.50    1.10
 -14   2  -6    2.30    1.30
  14   2   6   -0.10    1.00
  14  -2   6    2.00    1.20
  14   2  -6    1.20    1.00
 -14  -2  -6    1.40    1.20
 -14   3  -6   -0.20    1.10
  14   3   6    2.50    1.30
  14  -3  -6    0.20    1.10
  14   3  -6    0.40    0.90
 -14   4  -6    1.00    1.30
  14  -4  -6    0.00    1.30
  14   4   6   -0.80    1.20
  14   4  -6    0.00    1.00
  15   0  -6  126.49    5.30
 -15   0  -6  139.99    5.80
  15   0   6  129.39    5.90
 -15   1  -6  150.48    6.10
  15   1   6  145.09    6.30
  15  -1  -6  142.79    5.80
 -15  -1  -6  143.79    6.20
  15   1  -6  161.48    6.00
  15  -1   6  152.88    6.60
  15   2   6  134.39    6.00
  15  -2  -6  141.19    5.80
 -15   2  -6  142.49    6.00
  15   2  -6  145.59    5.80
  15  -3  -6 1250.87   36.20
 -15   3  -6 1181.98   36.20
  15   3   6 1215.98   36.30
  15   3  -6 1149.39   33.90
  16   0   6    2.10    1.40
  16   0  -6    1.10    1.10
 -16   1  -6    0.30    1.30
  16  -1  -6    0.80    1.10
  16   1   6    0.40    1.30
  16   1  -6    0.20    1.00
  16  -1   6    0.20    1.20
  16   2   6    2.50    1.40
  16  -2  -6    2.40    1.20
  16   2  -6    2.70    1.20
  17   0   6   28.60    3.10
  17   0  -6   32.50    2.70
  17  -1  -6   69.89    3.80
  17   1   6   70.99    4.50
  17   1  -6   74.59    3.90
   0   0  -7    0.20    0.30
   0   0  -7    0.50    0.20
   0  -1  -7    0.30    0.30
   0   1   7    0.70    0.20
   0   1  -7    0.60    0.20
   0  -1  -7    0.50    0.30
   0   1  -7    1.10    0.40
   0   2  -7   34.30    1.40
   0  -2  -7   35.70    1.60
   0   2   7   30.70    1.40
   0   2  -7   33.60    1.40
   0   3   7   -0.10    0.40
   0  -3  -7    0.80    0.60
   0   3  -7   -0.10    0.40
   0  -4  -7   63.89    3.00
   0   4   7   62.59    2.70
   0   4  -7   64.29    2.70
   0   5  -7    0.10    0.70
   0  -5  -7   -0.10    0.80
   0   6  -7    2.00    1.10
   0  -6  -7    0.70    1.10
  -1   0  -7   -0.10    0.30
  -1   0  -7   -0.10    0.20
   1   0  -7    0.00    0.20
   1   0  -7    0.80    0.20
   1   1   7  532.55   14.80
  -1   1  -7  515.45   14.90
  -1   1  -7  521.15   15.00
   1  -1  -7  535.25   14.80
   1  -1  -7  500.45   14.90
  -1  -1  -7  533.45   15.00
   1   1  -7  490.95   14.60
   1   1  -7  535.85   14.70
  -1   2  -7   32.10    1.40
   1  -2  -7   29.10    1.50
   1   2   7   31.00    1.30
  -1   2  -7   31.50    1.50
  -1   2   7   31.10    1.30
   1   2  -7   29.10    1.20
   1   2  -7   31.80    1.30
  -1  -2  -7   30.90    1.60
  -1   3  -7    8.40    0.90
   1   3   7    8.40    0.90
   1  -3  -7    7.90    1.10
  -1   3   7    7.10    0.90
  -1  -3  -7    8.80    1.20
   1   3  -7    8.90    0.80
  -1   4  -7   26.40    1.60
   1   4   7   24.10    1.50
   1  -4  -7   26.10    1.80
  -1   4   7   26.00    1.60
   1   4  -7   25.70    1.60
  -1  -4  -7   27.30    1.90
   1  -5  -7   37.10    2.50
  -1   5  -7   37.40    2.30
   1   5   7   33.80    2.10
   1  -5  -7   33.40    2.40
   1   5  -7   35.10    2.20
  -1  -5  -7   37.90    2.50
   1  -6  -7   18.40    2.30
  -1   6  -7   18.40    2.00
   1   6  -7   22.10    2.10
  -1  -6  -7   19.40    2.30
  -1  -6  -7   21.60    2.30
   2   0   7    1.20    0.30
  -2   0  -7    0.30    0.40
   2   0  -7    1.10    0.20
   2   0  -7    0.40    0.20
  -2   0  -7    0.30    0.30
  -2   1  -7  883.31   24.80
  -2   1  -7  840.62   24.70
   2  -1  -7  856.81   24.50
   2   1   7  851.91   24.50
   2  -1  -7  905.61   24.50
   2   1  -7  855.31   24.40
  -2  -1  -7  877.31   24.70
   2   1  -7  870.51   24.40
   2  -2  -7  109.29    3.80
  -2   2  -7  115.59    3.70
   2   2   7  113.99    3.70
   2   2  -7  111.79    3.60
  -2   2   7  118.49    3.70
   2   2  -7  119.49    3.60
  -2  -2  -7  117.29    4.00
   2  -3  -7   75.39    3.10
   2   3   7   79.49    2.90
  -2   3  -7   80.19    3.00
  -2   3   7   81.29    2.90
  -2  -3  -7   84.89    3.30
   2   3  -7   73.99    2.80
   2  -4  -7   67.49    3.10
  -2   4  -7   66.09    2.80
   2   4   7   64.59    2.80
  -2   4   7   65.19    2.70
  -2  -4  -7   67.89    3.10
   2   4  -7   67.09    2.70
   2  -5  -7   82.29    3.90
   2   5   7   82.09    3.50
  -2   5  -7   87.29    3.70
  -2  -5  -7   86.69    3.90
   2   5  -7   80.99    3.50
   2  -6  -7    6.20    1.50
  -2   6  -7   10.70    1.80
  -2  -6  -7   13.20    2.10
   2   6  -7    6.90    1.40
   3   0  -7    0.10    0.20
  -3   0  -7   -0.50    0.40
   3   0  -7    0.30    0.20
   3   0   7    0.20    0.30
  -3   1  -7  860.81   24.00
   3  -1  -7  850.31   23.50
   3  -1  -7  816.22   23.50
   3   1   7  819.12   23.50
  -3   1  -7  807.92   23.80
   3  -1   7  880.21   24.40
  -3  -1  -7  852.21   24.60
   3   1  -7  846.82   24.20
   3   1  -7  863.21   24.20
  -3   2  -7  120.39    4.10
   3  -2  -7  122.69    4.00
   3   2   7  120.29    3.90
   3   2  -7  131.79    4.00
   3   2  -7  124.59    4.00
  -3  -2  -7  126.19    4.40
  -3   2   7  133.89    4.10
   3  -2   7  135.99    4.50
  -3   3  -7  300.47    9.10
   3  -3  -7  286.07    9.20
   3   3   7  302.47    9.00
  -3  -3  -7  308.27    9.70
   3   3  -7  301.57    9.20
  -3   3   7  320.37    9.40
   3   4   7   81.29    3.20
   3  -4  -7   79.39    3.50
  -3   4  -7   82.59    3.40
   3   4  -7   82.79    3.20
  -3  -4  -7   80.59    3.60
   3   5   7  129.69    4.80
  -3   5  -7  127.39    5.00
   3  -5  -7  123.19    5.20
  -3  -5  -7  123.19    5.00
   3   5  -7  122.89    4.70
  -3   6  -7   30.10    2.50
   3  -6  -7   24.90    2.60
  -3  -6  -7   26.80    2.60
   3   6  -7   25.40    2.20
   4   0  -7    0.00    0.20
   4   0  -7    0.10    0.20
   4   0   7    0.90    0.40
  -4   0  -7    1.40    0.60
   4  -1  -7  608.24   16.80
   4  -1  -7  583.74   16.80
  -4   1  -7  591.24   17.30
   4   1   7  576.54   16.90
  -4  -1  -7  606.24   18.10
   4  -1   7  588.74   17.80
   4   1  -7  655.53   17.50
   4   1  -7  627.74   17.40
   4  -2  -7   99.29    3.40
   4   2   7   98.79    3.40
  -4   2  -7   97.79    3.60
   4   2  -7  105.99    3.30
  -4  -2  -7  100.19    3.80
   4  -2   7  108.49    3.90
  -4   2   7  104.69    3.40
   4   2  -7  103.59    3.30
   4   3   7   15.80    1.20
   4  -3  -7   15.80    1.40
  -4   3  -7   17.20    1.40
  -4  -3  -7   16.30    1.50
  -4   3   7   17.90    1.20
   4   3  -7   15.60    1.10
   4   4   7   59.59    2.70
  -4   4  -7   62.39    2.90
   4  -4  -7   65.79    3.10
   4   4  -7   62.89    2.70
  -4  -4  -7   66.89    3.20
   4   5   7   11.40    1.50
  -4   5  -7   10.80    1.60
   4  -5  -7   14.60    1.90
   4   5  -7   11.60    1.50
  -4  -5  -7    6.20    1.30
   4  -6  -7   22.20    2.50
  -4   6  -7   18.10    2.20
  -4  -6  -7   19.90    2.30
   4   6  -7   17.10    1.90
   5   0  -7    0.60    0.40
   5   0   7    0.20    0.40
  -5   0  -7   -0.20    0.60
   5   0  -7   -0.20    0.30
   5  -1  -7   70.49    2.40
   5  -1  -7   67.19    2.40
   5   1   7   70.49    2.60
  -5   1  -7   72.39    3.00
   5  -1   7   75.19    2.90
   5   1  -7   77.59    2.50
   5   1  -7   79.79    2.50
  -5  -1  -7   74.39    3.10
   5   2   7    1.50    0.60
   5  -2  -7    0.60    0.50
  -5   2  -7    0.20    0.50
  -5   2   7    0.90    0.40
   5   2  -7    0.80    0.40
   5  -2   7    0.70    0.80
   5   2  -7    1.10    0.40
  -5  -2  -7    0.20    0.60
  -5   3  -7   -0.50    0.60
   5  -3  -7    0.30    0.70
   5   3   7   -0.10    0.50
  -5  -3  -7    0.40    0.70
   5   3  -7    0.10    0.40
   5  -4  -7   22.50    1.90
  -5   4  -7   24.30    1.90
   5   4   7   24.30    1.70
   5   4  -7   24.40    1.60
  -5  -4  -7   21.00    2.00
   5   5   7    5.50    1.10
  -5   5  -7    5.10    1.20
   5  -5  -7    7.00    1.40
  -5  -5  -7    6.40    1.30
   5   5  -7    5.80    1.10
  -5   6  -7    9.60    1.80
   5  -6  -7   10.00    1.80
   5   6  -7    9.50    1.70
  -6   0  -7    0.60    0.80
   6   0  -7    0.20    0.40
   6   0  -7    0.60    0.40
   6   0   7    0.30    0.50
   6  -1  -7    8.20    0.90
   6   1   7   10.60    1.00
   6  -1  -7    9.20    0.80
  -6   1  -7    8.30    1.30
   6  -1   7    8.40    1.10
   6   1  -7    9.70    0.80
  -6  -1  -7    9.80    1.30
   6   1  -7   11.80    0.80
   6  -2  -7   89.79    3.50
  -6   2  -7  109.09    3.90
   6   2   7   90.99    3.50
   6   2  -7  102.09    3.30
   6  -2   7   96.19    4.10
  -6  -2  -7   97.49    3.90
   6   2  -7  101.39    3.30
   6   3   7   15.40    1.30
   6  -3  -7   14.60    1.40
  -6   3  -7   15.20    1.50
  -6  -3  -7   18.20    1.70
   6   3  -7   15.50    1.20
   6  -4  -7   31.80    2.30
   6   4   7   32.80    2.00
  -6   4  -7   31.90    2.20
   6   4  -7   33.40    1.90
  -6  -4  -7   32.30    2.40
   6  -5  -7    7.20    1.50
   6   5   7    8.00    1.40
  -6   5  -7    7.90    1.50
  -6  -5  -7    6.90    1.40
   6   5  -7    6.40    1.20
   6  -6  -7   23.10    2.70
  -6   6  -7   22.00    2.50
   6   6  -7   20.70    2.10
   7   0  -7    0.00    0.40
  -7   0  -7    0.00    0.70
   7   0   7    2.00    0.60
   7   0  -7    0.20    0.50
   7  -1  -7   66.99    2.70
  -7   1  -7   69.69    3.20
   7   1   7   71.89    2.80
   7  -1   7   74.29    3.20
  -7  -1  -7   76.39    3.40
   7   1  -7   76.09    2.80
   7   1  -7   80.29    2.80
   7  -2  -7  121.69    4.40
  -7   2  -7  121.79    4.70
   7   2   7  127.69    4.40
  -7  -2  -7  130.79    4.90
   7   2  -7  129.39    4.20
   7  -2   7  126.39    5.00
   7  -3  -7    3.10    0.90
   7   3   7    4.40    0.90
  -7   3  -7    3.80    1.00
   7   3  -7    4.60    0.80
  -7  -3  -7    5.10    1.20
   7  -4  -7  534.45   16.30
   7   4   7  511.65   16.00
  -7   4  -7  540.25   16.40
   7   4  -7  549.35   16.40
  -7  -4  -7  555.04   17.10
  -7   5  -7    3.60    1.20
   7  -5  -7    2.60    1.30
   7   5   7    2.10    0.90
  -7  -5  -7    2.10    1.30
   7   5  -7    4.90    1.10
   7  -6  -7    5.50    1.60
  -7   6  -7    6.50    1.60
   7   6  -7    9.50    1.80
   8   0  -7    0.00    0.50
   8   0   7    0.40    0.60
  -8   0  -7    0.80    0.90
   8   1   7   11.30    1.20
   8  -1  -7    9.70    1.20
  -8   1  -7   10.00    1.50
   8  -1   7   10.60    1.40
  -8  -1  -7    8.50    1.50
   8   1  -7    8.20    1.00
   8   2   7  397.46   11.60
  -8   2  -7  368.16   11.90
   8  -2  -7  361.36   11.50
   8  -2   7  383.56   12.30
   8   2  -7  384.46   11.50
  -8  -2  -7  384.56   12.10
   8  -3  -7    2.90    0.90
  -8   3  -7    2.20    0.90
   8   3   7    4.10    1.00
  -8  -3  -7    2.60    1.00
   8   3  -7    1.30    0.60
  -8   4  -7  432.16   14.00
   8   4   7  430.96   13.70
   8  -4  -7  455.55   14.00
   8   4  -7  444.56   13.60
  -8  -4  -7  446.56   14.30
  -8   5  -7    4.60    1.40
   8   5   7    5.70    1.30
   8  -5  -7    6.60    1.60
  -8  -5  -7    7.00    1.60
   8   5  -7    4.40    1.10
   9   0  -7    0.00    0.60
  -9   0  -7   -0.40    0.80
   9   0   7    0.70    0.70
   9   1   7    1.30    0.70
   9  -1  -7   -0.30    0.60
  -9   1  -7    0.30    0.80
  -9  -1  -7   -0.30    0.90
   9  -1   7    0.60    0.80
   9   1  -7    0.10    0.50
  -9   2  -7  356.16   11.50
   9  -2  -7  352.06   11.10
   9   2   7  358.76   11.10
  -9  -2  -7  379.36   12.00
   9  -2   7  363.56   12.10
   9   2  -7  374.66   11.30
   9   3   7    3.10    0.90
   9  -3  -7    1.90    0.90
  -9   3  -7    1.70    1.00
   9   3  -7    1.90    0.70
  -9  -3  -7    4.30    1.10
   9  -4  -7   49.20    3.00
   9   4   7   39.50    2.60
  -9   4  -7   44.00    3.00
  -9  -4  -7   45.40    3.00
   9   4  -7   43.80    2.40
   9  -5  -7   -1.00    1.10
  -9   5  -7    0.30    1.10
   9   5   7   -0.10    0.90
   9   5  -7    0.30    0.80
 -10   0  -7   -0.40    0.80
  10   0   7    0.30    0.80
  10   0  -7   -0.30    0.60
  10   1   7    4.30    1.00
  10  -1  -7    4.40    1.00
 -10   1  -7    5.80    1.30
  10   1  -7    6.00    1.10
 -10  -1  -7    5.70    1.30
  10  -1   7    5.70    1.30
  10  -2  -7   48.60    2.70
 -10   2  -7   51.99    3.00
  10   2   7   48.70    2.70
  10  -2   7   46.60    3.10
 -10  -2  -7   53.59    3.10
  10   2  -7   53.69    2.50
  10   3   7    0.30    0.80
 -10   3  -7    0.30    1.00
  10  -3  -7    1.00    0.90
 -10  -3  -7    0.90    1.00
  10   3  -7    0.70    0.70
  10   4   7   60.69    3.30
  10  -4  -7   61.19    3.60
 -10   4  -7   61.89    3.60
  10   4  -7   57.69    2.90
 -10  -4  -7   58.99    3.60
 -10   5  -7    6.10    1.70
  10  -5  -7    7.90    1.90
  10   5   7    5.50    1.40
  10   5  -7    8.70    1.40
 -11   0  -7    0.30    0.90
  11   0   7    0.40    0.90
  11   0  -7   -0.10    0.60
  11  -1  -7   13.20    1.50
 -11   1  -7   14.90    1.90
  11   1   7   15.10    1.80
  11   1  -7   14.50    1.50
 -11  -1  -7   17.20    2.00
  11  -1   7   14.70    2.00
  11   2   7   46.80    2.70
  11  -2  -7   43.90    2.70
 -11   2  -7   49.90    3.00
  11  -2   7   47.70    3.20
  11   2  -7   47.90    2.50
 -11  -2  -7   51.49    3.10
 -11   3  -7    1.70    1.10
  11   3   7   -0.10    0.90
  11  -3  -7    0.30    1.00
 -11  -3  -7    0.80    1.00
  11   3  -7    1.70    0.80
  11  -4  -7    7.50    1.70
 -11   4  -7    7.00    1.60
  11   4   7    6.30    1.40
  11   4  -7    7.70    1.30
 -11  -4  -7    8.30    1.70
  11  -5  -7    0.90    1.40
 -11   5  -7    0.40    1.20
  11   5  -7    1.10    1.00
 -12   0  -7   -0.90    0.90
  12   0  -7    0.50    0.70
  12   0   7   -1.10    0.90
  12  -1  -7   93.19    4.00
  12   1   7   91.39    4.20
 -12   1  -7   97.09    4.40
  12  -1   7   94.29    4.50
  12   1  -7   88.79    3.80
 -12  -1  -7   90.69    4.30
 -12   2  -7   23.90    2.30
  12   2   7   21.80    2.10
  12  -2  -7   24.50    2.10
 -12  -2  -7   25.40    2.40
  12   2  -7   24.50    1.90
  12  -3  -7    1.70    1.20
  12   3   7    1.30    1.00
 -12   3  -7    1.50    1.10
  12   3  -7    0.50    0.80
 -12  -3  -7    0.90    1.10
  12  -4  -7   63.89    4.00
 -12   4  -7   70.29    4.10
  12   4   7   61.19    3.70
  12   4  -7   65.19    3.30
  13   0   7    0.80    1.10
  13   0  -7    0.50    0.80
 -13   0  -7    0.30    1.10
  13  -1  -7  136.49    5.30
  13   1   7  139.19    5.80
 -13   1  -7  138.29    5.70
  13   1  -7  134.09    5.20
 -13  -1  -7  141.79    5.80
  13  -1   7  131.99    5.90
  13   2   7   29.30    2.50
  13  -2  -7   27.70    2.30
 -13   2  -7   31.00    2.60
  13   2  -7   28.80    2.10
 -13  -2  -7   30.50    2.70
  13  -3  -7   14.50    2.20
  13   3   7   12.90    2.00
 -13   3  -7   14.00    2.10
  13   3  -7   11.80    1.60
 -13  -3  -7   11.80    2.10
 -13   4  -7  189.38    7.70
  13  -4  -7  187.98    7.60
  13   4   7  188.68    7.50
  13   4  -7  189.68    7.00
  14   0   7    0.10    1.10
 -14   0  -7    0.90    1.20
  14   0  -7    3.60    1.10
  14  -1  -7  156.08    6.00
 -14   1  -7  162.38    6.40
  14   1   7  158.88    6.60
  14   1  -7  154.08    5.90
 -14  -1  -7  160.88    6.50
  14  -1   7  151.48    6.60
  14  -2  -7   39.70    2.80
  14   2   7   36.50    2.90
 -14   2  -7   38.20    3.00
  14   2  -7   39.70    2.60
 -14  -2  -7   40.40    3.00
  14  -3  -7    7.50    1.60
 -14   3  -7   -0.20    1.10
  14   3   7    1.10    1.30
  14   3  -7    0.30    0.90
 -15   0  -7    0.20    1.20
  15   0  -7   -0.20    0.90
  15   0   7   -0.10    1.30
  15   1   7   35.70    3.10
 -15   1  -7   34.40    2.90
  15  -1  -7   30.80    2.50
  15   1  -7   34.00    2.50
 -15  -1  -7   34.30    2.80
 -15   2  -7   17.40    2.40
  15   2   7   15.20    2.30
  15  -2  -7   16.70    2.10
  15   2  -7   16.50    1.90
 -15   3  -7   17.50    2.50
  15  -3  -7   15.20    2.30
  15   3   7   13.00    2.40
  15   3  -7   16.60    2.00
 -16   0  -7    0.50    1.20
  16   0  -7    0.30    1.10
  16   1   7    8.80    2.10
  16  -1  -7    8.40    1.50
 -16   1  -7   11.20    2.00
  16   1  -7    7.20    1.50
  16  -2  -7    4.20    1.40
  16   2   7    4.20    1.60
 -16   2  -7    7.50    1.70
  16   2  -7    7.20    1.40
  17   0  -7    0.40    1.10
  17  -1  -7   20.70    2.30
  17   1  -7   17.90    2.20
   0   0  -8 4212.88  121.79
   0   0  -8 4412.16  121.49
   0  -1  -8    0.60    0.30
   0   1  -8    0.60    0.30
   0  -1  -8    0.50    0.40
   0   1  -8    0.90    0.40
   0   2  -8  386.36   11.90
   0   2  -8  428.56   12.00
   0   2   8  428.06   11.90
   0  -2  -8  405.86   12.20
   0   3  -8    1.30    0.50
   0   3   8    0.20    0.40
   0  -3  -8    0.10    0.60
   0   4   8  843.32   23.80
   0  -4  -8  810.92   24.10
   0   4  -8  808.52   23.80
   0   5  -8    0.00    0.70
   0  -5  -8   -0.20    0.90
   0  -6  -8  540.25   16.90
   0   6  -8  513.55   16.40
  -1   0  -8    2.30    0.50
   1   0  -8    2.30    0.40
  -1   0  -8    5.10    0.50
   1   0  -8    2.30    0.30
  -1   1  -8   -0.60    0.40
   1   1   8   -0.80    0.30
   1  -1  -8   -0.50    0.40
   1  -1  -8   -1.20    0.30
  -1   1  -8    0.40    0.50
  -1  -1  -8   -0.40    0.40
   1   1  -8   -0.70    0.20
   1   1  -8    0.60    0.50
  -1  -1  -8   -0.40    0.50
  -1   2  -8   -0.40    0.40
   1  -2  -8   -0.30    0.50
  -1   2  -8   -0.20    0.40
   1   2   8   -0.20    0.30
  -1   2   8   -0.20    0.30
   1   2  -8   -0.40    0.30
  -1  -2  -8   -0.20    0.50
   1   2  -8   -0.30    0.30
   1  -3  -8   -0.10    0.60
  -1   3  -8    0.50    0.50
   1   3   8    0.20    0.40
   1   3  -8    0.00    0.40
  -1   3   8   -0.30    0.40
  -1  -3  -8    0.50    0.60
   1   4   8   18.20    1.40
  -1   4  -8   20.10    1.50
   1  -4  -8   18.30    1.60
  -1  -4  -8   19.20    1.70
   1   4  -8   18.80    1.40
  -1   5  -8    2.60    0.90
   1  -5  -8    2.60    1.10
   1  -5  -8    1.10    1.00
   1   5  -8    2.90    0.90
  -1  -5  -8    1.90    1.10
   1  -6  -8    1.90    1.30
  -1   6  -8   -0.30    0.90
   1   6  -8    1.50    1.00
  -1  -6  -8    0.10    1.10
  -1  -6  -8    1.40    1.20
  -2   0  -8   85.79    3.10
   2   0  -8   85.29    2.60
   2   0  -8   88.09    2.60
  -2   0  -8   90.49    3.00
   2   1   8    2.50    0.40
  -2   1  -8    1.20    0.60
  -2   1  -8    1.50    0.50
   2  -1  -8    1.30    0.30
   2  -1  -8    0.70    0.40
   2   1  -8    1.90    0.20
   2   1  -8    2.00    0.30
  -2  -1  -8    1.60    0.50
   2  -2  -8  150.78    4.90
  -2   2  -8  150.68    4.90
   2   2   8  157.68    4.80
   2   2  -8  158.58    4.80
  -2   2   8  161.98    4.90
  -2  -2  -8  155.58    5.30
   2   2  -8  164.88    4.80
   2   3   8  583.04   16.50
   2  -3  -8  556.44   16.70
  -2   3  -8  559.44   16.60
   2   3  -8  571.94   16.30
  -2  -3  -8  556.24   16.70
   2  -4  -8   51.59    2.70
   2   4   8   52.19    2.40
  -2   4  -8   52.69    2.50
  -2  -4  -8   52.79    2.70
   2   4  -8   49.30    2.30
  -2   5  -8   50.99    2.90
   2  -5  -8   65.79    3.30
  -2  -5  -8   55.69    3.10
   2   5  -8   48.60    2.60
   2  -6  -8   16.30    2.20
  -2   6  -8   14.60    2.00
  -2  -6  -8   15.60    2.20
   2   6  -8   16.90    1.90
  -3   0  -8   15.40    1.20
   3   0   8   12.50    0.80
   3   0  -8   12.70    0.60
   3   0  -8   12.20    0.60
   3   1   8    0.30    0.30
   3  -1  -8    1.00    0.30
  -3   1  -8    0.50    0.60
   3  -1  -8    0.50    0.30
  -3  -1  -8    1.00    0.60
   3   2   8    5.10    0.70
   3  -2  -8    4.60    0.80
  -3   2  -8    4.90    0.90
  -3  -2  -8    4.70    0.80
   3   2  -8    4.70    0.50
   3   2  -8    3.90    0.50
  -3   3  -8    2.00    0.60
   3  -3  -8    2.70    0.80
   3   3   8    3.10    0.60
   3   3  -8    3.00    0.60
  -3  -3  -8    2.60    0.80
   3   4   8    1.20    0.60
   3  -4  -8    1.10    0.80
  -3   4  -8    1.40    0.70
  -3  -4  -8    1.80    0.90
   3   4  -8    2.00    0.70
  -3   5  -8   21.80    1.90
   3  -5  -8   17.50    2.00
  -3  -5  -8   21.10    2.00
   3   5  -8   17.60    1.60
  -3   6  -8    9.70    1.80
   3  -6  -8   12.50    2.20
   3   6  -8   11.50    1.80
  -3  -6  -8   11.60    2.00
  -4   0  -8  762.42   22.60
   4   0  -8  810.52   22.20
   4   0   8  799.82   22.30
   4   0  -8  757.82   22.10
   4   1   8 1539.75   42.50
   4  -1  -8 1463.85   42.20
  -4   1  -8 1417.36   42.40
   4  -1  -8 1530.85   42.90
  -4  -1  -8 1573.64   46.30
   4  -1   8 1564.44   44.90
   4   1  -8 1589.04   44.80
   4   1  -8 1638.64   44.90
   4  -2  -8  160.38    4.90
  -4   2  -8  141.39    5.00
   4  -2  -8  146.39    4.80
   4   2   8  143.99    4.80
  -4  -2  -8  150.38    5.20
   4   2  -8  156.88    4.60
   4  -2   8  148.39    5.10
   4   2  -8  152.48    4.60
   4  -3  -8  745.63   21.90
  -4   3  -8  738.43   21.90
   4   3   8  772.32   21.80
   4   3  -8  800.82   22.40
  -4  -3  -8  762.02   22.90
  -4   4  -8    6.70    1.20
   4  -4  -8    6.70    1.20
   4   4   8    5.70    1.10
  -4  -4  -8    5.90    1.20
   4   4  -8    5.40    1.00
  -4   5  -8  406.96   12.90
   4  -5  -8  400.56   13.00
   4   5  -8  414.56   13.00
  -4  -5  -8  425.36   13.50
   4  -6  -8   52.69    3.50
  -4   6  -8   51.79    3.30
   4   6  -8   49.99    3.00
  -4  -6  -8   51.79    3.40
  -5   0  -8    1.60    0.70
   5   0   8    1.70    0.50
   5   0  -8    3.10    0.50
   5   0  -8    2.10    0.40
   5  -1  -8    9.40    0.80
   5  -1  -8    8.50    0.80
   5   1   8    9.80    1.00
  -5   1  -8    7.90    1.30
  -5  -1  -8    8.70    1.20
   5   1  -8    9.70    0.70
   5   1  -8   11.00    0.70
   5  -1   8    8.50    1.00
   5  -2  -8    9.10    1.00
  -5   2  -8    8.60    1.20
   5   2   8    8.60    1.00
   5  -2   8    9.80    1.40
  -5  -2  -8    8.40    1.30
   5   2  -8    9.00    0.70
   5   2  -8    8.80    0.70
  -5   3  -8    0.70    0.60
   5  -3  -8    0.30    0.60
   5   3   8    0.30    0.60
   5   3  -8    0.20    0.40
  -5  -3  -8    0.50    0.80
   5  -4  -8    3.40    1.10
  -5   4  -8    3.00    0.90
   5   4   8    4.20    0.90
   5   4  -8    2.20    0.70
  -5  -4  -8    4.30    1.20
  -5   5  -8    3.30    1.10
   5  -5  -8    1.90    1.20
  -5  -5  -8    1.90    1.10
   5   5  -8    3.50    1.00
  -5   6  -8   12.40    2.10
   5  -6  -8   15.20    2.30
  -5  -6  -8   11.80    2.10
   5   6  -8   12.50    1.80
   6   0  -8  478.85   13.90
   6   0  -8  502.95   13.90
  -6   0  -8  472.75   14.50
   6   0   8  463.65   14.10
  -6   1  -8   98.39    4.00
   6  -1  -8   99.39    3.30
   6  -1  -8   95.79    3.30
   6   1   8   98.09    3.50
   6   1  -8  109.29    3.40
  -6  -1  -8   99.59    4.00
   6   1  -8  104.89    3.30
   6  -1   8   98.99    3.80
   6   2   8  388.56   11.40
  -6   2  -8  365.56   11.70
   6  -2  -8  371.16   11.30
  -6  -2  -8  387.96   12.10
   6   2  -8  394.66   11.40
   6   3   8  522.25   15.50
  -6   3  -8  529.35   15.80
   6  -3  -8  507.15   15.60
  -6  -3  -8  566.24   16.90
   6   3  -8  542.15   16.10
  -6   4  -8  167.18    6.30
   6   4   8  171.38    6.10
   6  -4  -8  188.98    6.50
  -6  -4  -8  172.18    6.40
   6   4  -8  162.68    5.60
  -6   5  -8    6.80    1.40
   6  -5  -8    7.90    1.60
   6   5  -8    7.80    1.40
  -6  -5  -8    7.70    1.60
   6  -6  -8  103.69    5.20
  -6   6  -8  106.19    5.10
   6   6  -8   99.99    4.50
   7   0  -8    2.70    0.60
   7   0   8    1.80    0.60
   7   0  -8    1.50    0.60
  -7   0  -8    2.20    0.90
  -7   1  -8    0.30    0.80
   7  -1  -8   -0.10    0.50
   7   1   8    0.10    0.60
   7   1  -8    0.80    0.40
   7   1  -8    1.00    0.50
   7  -1   8    0.50    0.60
  -7  -1  -8    0.60    0.80
  -7   2  -8    3.20    1.00
   7   2   8    2.20    0.70
   7  -2  -8    2.30    0.70
   7  -2   8    2.30    1.00
   7   2  -8    2.20    0.50
  -7  -2  -8    1.20    0.80
   7  -3  -8    9.60    1.40
  -7   3  -8    9.70    1.50
   7   3   8   10.60    1.30
   7   3  -8    9.70    1.00
  -7  -3  -8   10.80    1.60
   7  -4  -8   20.00    2.00
   7   4   8   19.50    1.70
  -7   4  -8   19.50    2.00
  -7  -4  -8   21.20    2.20
   7   4  -8   18.60    1.50
   7  -5  -8    1.00    1.30
  -7   5  -8    0.10    1.10
   7   5  -8    0.30    0.80
  -7  -5  -8    0.20    1.20
   8   0  -8    3.60    0.70
  -8   0  -8    4.70    1.10
   8   0   8    6.40    1.00
   8  -1  -8    7.40    1.10
   8   1   8    7.10    1.10
  -8   1  -8    4.70    1.10
   8   1  -8    6.90    0.90
  -8  -1  -8    6.00    1.20
   8  -1   8    6.90    1.30
   8   2   8  825.12   23.90
   8  -2  -8  815.32   23.80
  -8   2  -8  813.92   24.30
   8   2  -8  883.91   25.40
   8  -2   8  906.91   26.50
  -8  -2  -8  877.61   26.20
   8   3   8    4.50    1.00
  -8   3  -8    4.60    1.20
   8  -3  -8    8.10    1.50
  -8  -3  -8    5.20    1.30
   8   3  -8    5.40    1.00
  -8   4  -8  242.68    8.70
   8   4   8  243.78    8.30
   8  -4  -8  253.07    8.60
   8   4  -8  238.48    7.90
  -8  -4  -8  250.97    8.80
   8  -5  -8    6.70    1.60
  -8   5  -8    6.90    1.60
   8   5  -8   11.70    1.60
  -8  -5  -8    5.40    1.60
  -9   0  -8    0.40    0.90
   9   0  -8    0.80    0.60
   9   0   8    0.70    0.70
   9   1   8    0.30    0.60
   9  -1  -8    0.30    0.60
  -9   1  -8    1.00    0.90
   9   1  -8    0.30    0.60
   9  -1   8    0.80    0.80
  -9  -1  -8   -1.00    0.80
   9   2   8   -0.20    0.60
   9  -2  -8    0.60    0.70
  -9   2  -8   -0.20    0.90
   9   2  -8    0.10    0.50
  -9  -2  -8   -0.30    0.90
   9   3   8    1.50    0.80
  -9   3  -8    1.70    1.10
   9  -3  -8    1.80    0.90
   9   3  -8    1.40    0.70
  -9  -3  -8    1.60    1.10
   9   4   8    2.30    1.00
   9  -4  -8    1.90    1.10
  -9   4  -8    1.90    1.10
   9   4  -8    2.10    0.80
  -9  -4  -8    5.00    1.50
   9  -5  -8    1.90    1.30
  -9   5  -8    0.70    1.20
  -9  -5  -8    2.20    1.40
   9   5  -8    1.60    0.90
  10   0   8  141.29    5.30
 -10   0  -8  142.99    5.60
  10   0  -8  139.19    4.90
  10   1   8  510.45   15.30
  10  -1  -8  501.55   15.10
 -10   1  -8  487.55   15.60
  10   1  -8  493.75   15.30
  10  -1   8  538.75   16.20
 -10  -1  -8  518.85   16.10
  10  -2  -8  570.44   16.60
 -10   2  -8  514.85   16.80
 -10  -2  -8  534.65   17.20
  10   2  -8  575.34   16.50
  10   3   8   26.80    2.10
 -10   3  -8   24.50    2.40
  10  -3  -8   23.50    2.20
  10   3  -8   27.20    1.80
 -10  -3  -8   26.50    2.40
 -10   4  -8  170.08    6.70
  10  -4  -8  158.88    6.50
  10   4   8  160.08    6.20
  10   4  -8  161.18    5.80
 -10  -4  -8  165.58    6.70
 -10   5  -8  371.16   13.00
  10  -5  -8  382.36   13.00
  10   5  -8  368.86   11.90
 -11   0  -8   10.30    1.80
  11   0  -8    9.90    1.30
  11   0   8    8.50    1.60
 -11   1  -8    3.60    1.20
  11  -1  -8    2.20    0.90
  11   1   8    2.00    0.90
  11  -1   8    3.80    1.30
 -11  -1  -8    3.40    1.20
  11   1  -8    2.80    0.90
  11  -2  -8    2.20    1.00
 -11   2  -8    3.70    1.30
  11   2   8    3.10    1.00
 -11  -2  -8    1.90    1.10
  11   2  -8    2.10    0.80
 -11   3  -8    3.80    1.30
  11  -3  -8    4.20    1.40
  11   3   8    4.20    1.20
 -11  -3  -8    3.70    1.30
  11   3  -8    2.40    0.90
 -11   4  -8    4.20    1.50
  11  -4  -8    6.90    1.70
  11   4  -8    6.30    1.20
 -11  -4  -8    6.10    1.60
  12   0   8  136.79    5.70
 -12   0  -8  139.19    5.80
  12   0  -8  137.69    5.10
 -12   1  -8    0.60    1.00
  12  -1  -8    0.00    0.80
  12   1   8   -0.10    0.90
 -12  -1  -8    5.20    1.50
 -12   2  -8   58.69    3.40
  12   2   8   59.09    3.30
  12  -2  -8   58.19    3.10
 -12  -2  -8   61.39    3.50
  12   2  -8   56.89    2.80
  12   3   8    3.40    1.20
 -12   3  -8    4.70    1.50
  12  -3  -8    0.50    1.10
 -12  -3  -8    1.50    1.20
  12   3  -8    1.20    0.80
 -12   4  -8    3.40    1.50
  12  -4  -8    0.70    1.30
  12   4  -8    0.50    0.90
  13   0   8    2.00    1.30
 -13   0  -8    1.50    1.30
  13   0  -8    2.00    0.90
  13  -1  -8   10.80    1.60
 -13   1  -8   11.50    2.00
  13   1   8    9.60    1.70
 -13  -1  -8    8.00    1.70
  13   1  -8    8.00    1.40
 -13   2  -8    2.50    1.20
  13   2   8    0.60    1.10
  13  -2  -8    1.40    1.00
 -13  -2  -8    1.50    1.20
  13   2  -8    0.70    0.80
 -13   3  -8    0.10    1.10
  13  -3  -8    2.20    1.20
  13   3   8    1.80    1.20
 -13  -3  -8    1.90    1.30
  13   3  -8    1.10    0.90
 -13   4  -8    2.30    1.30
  13  -4  -8    3.30    1.60
  13   4  -8    3.50    1.20
  14   0  -8  531.35   16.70
 -14   0  -8  565.24   17.50
 -14   1  -8  597.74   18.50
  14  -1  -8  561.94   17.80
  14   1   8  593.74   18.60
 -14  -1  -8  583.64   18.60
  14   1  -8  594.04   17.90
  14  -2  -8  143.99    5.90
 -14   2  -8  150.08    6.20
  14   2   8  148.29    6.20
 -14  -2  -8  148.19    6.30
  14   2  -8  142.09    5.50
  14  -3  -8   11.90    2.10
 -14   3  -8    9.50    1.80
  14   3  -8   18.10    1.90
 -15   0  -8   -0.10    1.30
  15   0  -8    0.30    0.90
 -15   1  -8   -0.70    1.10
  15  -1  -8    0.30    0.90
 -15  -1  -8    0.40    1.10
  15   1  -8   -0.30    0.80
  15  -2  -8    4.30    1.30
 -15   2  -8    3.70    1.50
  15   2  -8    5.70    1.30
  15  -3  -8   13.00    2.20
 -15   3  -8   13.20    2.20
  15   3  -8    9.80    1.60
 -16   0  -8    1.50    1.40
  16   0  -8    1.20    1.10
 -16   1  -8    5.90    1.70
  16  -1  -8    2.70    1.20
  16   1  -8    2.90    1.10
  16  -2  -8  159.78    6.40
 -16   2  -8  158.88    6.80
  16   2  -8  161.58    6.20
  17   0  -8    2.60    1.20
   0   0  -9   -0.30    0.30
   0   0  -9    0.90    0.30
   0   1  -9    0.20    0.30
   0  -1  -9    0.10    0.40
   0   1  -9    1.00    0.40
   0  -1  -9    0.00    0.30
   0   2   9  348.07   10.10
   0   2  -9  356.56   10.10
   0   2  -9  338.47   10.10
   0  -2  -9  337.97   10.30
   0  -3  -9   -0.40    0.60
   0   3  -9    0.10    0.50
   0   4  -9  284.67    8.90
   0  -4  -9  280.27    9.20
   0  -5  -9    0.90    0.90
   0   5  -9    0.00    0.70
   0  -6  -9   29.80    2.70
   0   6  -9   32.20    2.50
  -1   0  -9    3.70    0.70
   1   0  -9    4.40    0.50
  -1   1  -9    0.70    0.50
   1  -1  -9    0.40    0.30
   1  -1  -9    0.20    0.40
  -1   1  -9   -0.10    0.40
   1   1  -9    0.60    0.30
   1   1  -9    0.40    0.30
  -1  -1  -9    2.40    0.50
   1   2   9  163.48    5.00
   1  -2  -9  152.98    5.20
  -1   2  -9  170.18    5.20
  -1   2  -9  156.38    5.00
  -1  -2  -9  167.38    5.40
   1   2  -9  158.68    5.00
   1   2  -9  169.08    5.00
   1   3   9   16.60    1.20
   1  -3  -9   18.20    1.40
  -1   3  -9   17.90    1.30
  -1  -3  -9   19.00    1.50
   1   3  -9   15.50    1.10
   1  -4  -9  277.57    9.10
  -1   4  -9  279.77    8.80
  -1  -4  -9  286.87    9.40
   1   4  -9  290.27    9.00
  -1   5  -9   47.20    2.70
   1  -5  -9   47.00    2.90
   1  -5  -9   47.60    2.90
   1   5  -9   45.30    2.50
  -1  -5  -9   45.30    2.80
   1  -6  -9   28.40    2.70
  -1   6  -9   28.00    2.40
  -1  -6  -9   25.70    2.60
   1   6  -9   28.90    2.40
  -1  -6  -9   30.30    2.70
  -2   0  -9    0.10    0.40
   2   0  -9    1.00    0.20
   2   0  -9    0.20    0.20
  -2   0  -9    0.20    0.30
   2   1   9   11.10    0.70
   2  -1  -9   10.70    0.80
  -2   1  -9   11.80    1.00
   2  -1  -9   11.40    0.70
  -2   1  -9   10.20    1.10
   2   1  -9   11.10    0.50
   2   1  -9   11.20    0.50
  -2  -1  -9   10.50    1.00
   2  -2  -9   75.79    2.80
  -2   2  -9   75.59    2.80
   2   2   9   75.19    2.70
  -2  -2  -9   78.99    3.00
   2   2  -9   78.99    2.50
   2   2  -9   71.99    2.50
   2  -3  -9   20.10    1.50
   2   3   9   23.60    1.40
  -2   3  -9   23.40    1.50
   2   3  -9   20.80    1.20
  -2  -3  -9   22.50    1.70
  -2   4  -9   22.60    1.70
   2  -4  -9   20.00    1.80
   2   4  -9   21.60    1.50
  -2  -4  -9   19.60    1.80
  -2   5  -9   10.30    1.60
   2  -5  -9    6.50    1.30
  -2  -5  -9   10.20    1.80
   2   5  -9    6.40    1.10
   2  -6  -9    9.70    1.80
  -2   6  -9   12.00    1.90
   2   6  -9   11.70    1.80
  -2  -6  -9    8.80    1.70
  -3   0  -9    0.60    0.60
   3   0  -9    0.40    0.20
   3   0  -9    1.80    0.30
  -3   1  -9    0.10    0.60
   3   1   9    0.20    0.30
   3  -1  -9    0.20    0.30
   3  -1  -9    0.30    0.30
  -3  -1  -9    0.20    0.60
   3   2   9    1.20    0.50
   3  -2  -9    0.30    0.40
  -3   2  -9    0.30    0.50
   3   2  -9    0.70    0.30
   3   2  -9    1.40    0.30
  -3  -2  -9    0.20    0.60
   3  -3  -9   37.10    2.00
   3   3   9   35.10    1.80
  -3   3  -9   39.10    2.00
   3   3  -9   39.00    1.70
  -3  -3  -9   36.10    2.10
  -3   4  -9   34.90    2.10
   3  -4  -9   34.30    2.20
   3  -4  -9   34.50    2.20
   3   4  -9   35.30    1.90
  -3  -4  -9   37.60    2.40
   3  -5  -9   30.10    2.50
  -3   5  -9   29.80    2.30
  -3  -5  -9   30.40    2.40
   3   5  -9   28.90    2.00
  -3   6  -9   16.10    2.10
   3  -6  -9   17.90    2.40
   3   6  -9   21.90    2.10
  -3  -6  -9   16.80    2.40
   4   0  -9    0.90    0.20
  -4   0  -9   -0.30    0.60
   4   0  -9    1.20    0.30
   4   0   9    0.20    0.40
  -4   1  -9   57.19    2.70
   4  -1  -9   61.79    2.10
   4  -1  -9   57.89    2.10
   4  -1  -9   57.99    2.10
   4   1   9   62.09    2.30
  -4  -1  -9   63.19    2.70
  -4   2  -9  105.29    4.00
   4   2   9  109.29    3.70
   4  -2  -9  109.69    3.70
   4  -2  -9  104.69    3.70
   4   2  -9  116.79    3.70
   4   2  -9  120.09    3.70
  -4  -2  -9  119.69    4.30
  -4   3  -9   15.10    1.40
   4   3   9   14.10    1.20
   4  -3  -9   12.60    1.30
   4   3  -9   15.40    1.00
  -4  -3  -9   15.80    1.60
   4  -4  -9   29.00    2.10
  -4   4  -9   28.80    2.00
   4   4  -9   28.50    1.70
  -4  -4  -9   29.70    2.20
  -4   5  -9   76.19    3.70
   4  -5  -9   79.89    3.90
  -4  -5  -9   81.09    4.00
   4   5  -9   78.69    3.50
   4  -6  -9   65.99    3.90
  -4   6  -9   57.79    3.60
  -4  -6  -9   59.79    3.70
   4   6  -9   61.99    3.30
  -5   0  -9    0.20    0.70
   5   0  -9    0.40    0.30
   5   0   9    0.10    0.40
   5   0  -9    0.80    0.30
   5  -1  -9  422.16   11.90
   5  -1  -9  407.86   11.90
  -5   1  -9  405.96   12.60
   5   1   9  404.86   12.10
   5   1  -9  459.25   12.50
   5   1  -9  459.55   12.50
  -5  -1  -9  438.96   13.30
   5  -1   9  404.96   12.90
   5   2   9  204.68    6.40
   5  -2  -9  196.48    6.40
  -5   2  -9  202.08    6.80
   5   2  -9  215.18    6.40
   5   2  -9  218.68    6.40
  -5  -2  -9  213.18    7.10
   5  -3  -9    0.90    0.70
   5   3   9    0.60    0.50
  -5   3  -9    0.40    0.70
   5   3  -9    0.40    0.40
  -5  -3  -9    0.60    0.80
  -5   4  -9   38.50    2.40
   5  -4  -9   37.00    2.40
   5   4  -9   40.10    2.00
  -5  -4  -9   40.20    2.70
  -5   5  -9    7.80    1.50
   5  -5  -9    7.10    1.50
   5   5  -9    9.60    1.40
  -5  -5  -9   11.10    2.00
  -5   6  -9  137.09    6.00
   5  -6  -9  139.79    6.20
   5   6  -9  139.09    5.60
  -5  -6  -9  140.29    6.20
   6   0  -9   -0.20    0.40
  -6   0  -9    0.40    0.70
   6   0  -9    0.40    0.40
   6   0   9    0.70    0.50
   6   1   9  410.16   12.00
   6  -1  -9  387.66   11.70
  -6   1  -9  403.86   12.50
   6   1  -9  449.16   12.50
   6   1  -9  435.26   12.50
  -6  -1  -9  417.26   13.30
   6  -2  -9   12.20    1.10
   6   2   9   15.50    1.20
  -6   2  -9   13.20    1.60
   6   2  -9   15.60    0.90
  -6  -2  -9   17.20    1.60
   6  -3  -9   10.90    1.30
   6   3   9   10.00    1.20
  -6   3  -9   11.30    1.50
   6   3  -9   10.40    0.90
  -6  -3  -9   10.20    1.60
  -6   4  -9   92.19    4.10
   6  -4  -9   93.79    4.10
  -6  -4  -9   96.39    4.40
   6   4  -9   93.79    3.60
   6  -5  -9   24.80    2.50
  -6   5  -9   24.30    2.40
  -6  -5  -9   24.00    2.50
   6   5  -9   24.10    1.90
   7   0  -9    0.40    0.40
  -7   0  -9    0.10    0.70
   7   0   9    0.50    0.50
   7   0  -9    1.30    0.50
  -7   1  -9  133.89    5.00
   7  -1  -9  123.49    4.30
   7   1   9  132.49    4.50
   7   1  -9  143.99    4.60
   7   1  -9  144.49    4.50
  -7  -1  -9  139.79    5.30
  -7   2  -9    2.20    1.00
   7   2   9    2.20    0.70
   7  -2  -9    0.70    0.60
  -7  -2  -9    1.30    0.90
   7   2  -9    2.10    0.50
   7  -3  -9   64.89    3.00
  -7   3  -9   69.29    3.40
   7   3   9   69.29    3.00
  -7  -3  -9   66.89    3.40
   7   3  -9   70.19    2.70
   7  -4  -9   45.60    2.80
  -7   4  -9   47.20    2.90
   7   4  -9   47.50    2.30
  -7  -4  -9   49.40    3.10
  -7   5  -9   40.00    3.00
   7  -5  -9   38.70    3.00
  -7  -5  -9   35.30    3.00
   7   5  -9   41.20    2.40
  -8   0  -9    0.00    0.80
   8   0  -9    0.00    0.50
   8   0   9    0.90    0.60
  -8   1  -9    3.20    1.10
   8   1   9    3.20    0.80
   8  -1  -9    2.00    0.70
   8   1  -9    2.40    0.60
  -8  -1  -9    1.20    0.90
   8  -1   9    1.60    0.80
  -8   2  -9    2.10    1.00
   8   2   9    0.60    0.70
   8  -2  -9    2.50    0.80
  -8  -2  -9    1.20    1.00
   8   2  -9    2.40    0.60
   8  -3  -9    1.20    0.80
  -8   3  -9    0.20    0.90
   8   3   9    0.70    0.70
  -8  -3  -9    0.90    1.00
   8   3  -9    1.60    0.60
  -8   4  -9   20.50    2.20
   8  -4  -9   18.90    2.10
  -8  -4  -9   19.60    2.30
   8   4  -9   18.20    1.50
   8  -5  -9    3.50    1.40
  -8   5  -9    2.40    1.20
   8   5  -9    3.30    1.00
  -8  -5  -9    4.60    1.60
   9   0  -9    0.10    0.50
  -9   0  -9    0.50    0.90
   9   0   9    0.90    0.70
   9  -1  -9  132.39    4.90
  -9   1  -9  139.59    5.50
   9   1   9  144.69    5.10
  -9  -1  -9  142.59    5.60
   9   1  -9  143.09    4.80
   9   2   9    4.80    1.00
  -9   2  -9    6.20    1.40
   9  -2  -9    7.70    1.30
  -9  -2  -9    5.30    1.30
   9   2  -9    4.90    0.90
   9  -3  -9   41.40    2.60
  -9   3  -9   41.00    2.80
   9   3   9   42.40    2.50
  -9  -3  -9   46.00    3.00
   9   3  -9   44.30    2.20
   9  -4  -9    9.80    1.80
  -9   4  -9   11.40    2.00
  -9  -4  -9   11.50    2.20
   9   4  -9   18.90    1.60
   9  -5  -9   12.90    2.30
  -9   5  -9   12.80    2.30
  -9  -5  -9   12.90    2.40
   9   5  -9   12.30    1.60
  10   0  -9    0.90    0.70
  10   0   9    1.50    0.80
 -10   0  -9    1.50    1.00
 -10   1  -9  196.88    7.20
  10   1   9  191.68    6.80
  10  -1  -9  195.68    6.60
 -10  -1  -9  208.98    7.50
  10   1  -9  198.78    6.60
  10   2   9   28.90    2.00
 -10   2  -9   29.40    2.40
  10  -2  -9   27.20    2.10
 -10  -2  -9   25.40    2.30
  10   2  -9   27.80    1.70
 -10   3  -9   20.30    2.30
  10  -3  -9   18.90    2.00
 -10  -3  -9   17.90    2.20
  10   3  -9   17.30    1.50
 -10   4  -9   14.10    2.20
  10  -4  -9   11.50    2.00
  10   4  -9   14.80    1.60
 -10  -4  -9   14.00    2.40
 -10   5  -9   23.70    2.80
  10  -5  -9   32.10    3.00
  10   5  -9   28.00    2.20
  11   0   9    0.70    0.90
 -11   0  -9    0.40    1.00
  11   0  -9    2.50    0.80
  11  -1  -9  188.58    6.60
 -11   1  -9  203.48    7.30
  11   1   9  194.78    7.00
  11   1  -9  192.98    6.50
 -11  -1  -9  201.48    7.40
 -11   2  -9    7.50    1.50
  11   2   9    6.80    1.30
  11  -2  -9    7.60    1.30
 -11  -2  -9    9.20    1.70
  11   2  -9    8.50    1.20
  11  -3  -9   39.90    2.80
 -11   3  -9   43.50    3.00
  11   3  -9   39.90    2.20
 -11  -3  -9   41.00    3.10
 -11   4  -9  115.89    5.60
  11  -4  -9  124.39    5.50
  11   4  -9  110.59    4.50
 -11  -4  -9  124.69    5.70
 -12   0  -9    0.40    1.10
  12   0  -9    0.60    0.70
 -12   1  -9   59.29    3.50
  12  -1  -9   53.69    2.90
  12   1  -9   59.09    2.80
 -12  -1  -9   59.29    3.60
 -12   2  -9   37.40    2.90
  12  -2  -9   32.80    2.40
 -12  -2  -9   38.80    3.00
  12   2  -9   34.60    2.10
 -12   3  -9    2.50    1.30
  12  -3  -9    2.20    1.20
  12   3  -9    2.20    0.90
 -12  -3  -9    2.10    1.40
  12  -4  -9   90.49    4.80
 -12   4  -9   94.89    4.90
 -12  -4  -9   90.19    5.00
  12   4  -9   91.49    3.90
 -13   0  -9    0.80    1.30
  13   0  -9   -0.60    0.70
  13  -1  -9    6.60    1.30
 -13   1  -9    9.10    1.80
  13   1  -9    6.80    1.20
 -13  -1  -9    8.60    1.80
  13  -2  -9   16.80    2.00
 -13   2  -9   12.90    2.20
 -13  -2  -9   12.30    2.20
  13   2  -9   15.40    1.60
  13  -3  -9    3.50    1.30
 -13   3  -9    4.80    1.50
  13   3  -9    3.30    1.00
 -13  -3  -9    4.50    1.70
  14   0  -9   -0.30    0.80
 -14   0  -9   -0.60    1.20
  14  -1  -9    6.50    1.30
 -14   1  -9    7.70    1.70
 -14  -1  -9    9.10    1.80
  14   1  -9    7.20    1.30
  14  -2  -9    1.30    1.10
 -14   2  -9    5.60    1.60
  14   2  -9    2.50    1.00
 -14  -2  -9    2.00    1.30
  14  -3  -9    0.70    1.20
 -14   3  -9    0.80    1.30
  14   3  -9    0.70    0.90
  15   0  -9    0.80    0.90
 -15   0  -9    0.60    1.40
 -15   1  -9   18.70    2.60
  15  -1  -9   17.60    2.00
  15   1  -9   20.40    1.90
 -15  -1  -9   17.50    2.40
 -15   2  -9  102.49    5.00
  15  -2  -9   96.19    4.50
 -15  -2  -9   84.49    4.60
  15   2  -9   82.89    3.80
  16   0  -9   -0.50    0.90
 -16   0  -9    1.40    1.40
  16  -1  -9    0.70    1.00
 -16   1  -9    2.70    1.50
 -16  -1  -9    1.50    1.40
  16   1  -9    1.70    1.00
   0   0 -10   15.70    0.90
   0   0 -10   13.70    1.00
   0   1 -10    0.50    0.40
   0   1 -10    0.30    0.50
   0  -1 -10    0.50    0.40
   0  -1 -10    0.30    0.40
   0  -2 -10    0.50    0.50
   0   2 -10    0.70    0.40
   0   2 -10    1.10    0.40
   0  -3 -10    0.60    0.70
   0   3 -10    1.10    0.50
   0  -4 -10    2.60    0.90
   0   4 -10    3.80    0.90
   0  -5 -10   -0.20    0.90
   0   5 -10    0.40    0.80
   0  -6 -10    3.20    1.30
   0   6 -10    3.50    1.20
  -1   0 -10  123.09    3.70
  -1   0 -10  107.49    3.70
   1   0 -10  108.69    3.50
   1   0 -10  120.99    3.50
   1  -1 -10  430.76   12.30
   1  -1 -10  439.66   12.30
  -1   1 -10  398.16   12.50
  -1   1 -10  428.46   12.50
   1   1 -10  398.86   11.70
   1   1 -10  394.76   11.70
  -1  -1 -10  426.06   11.90
   1  -2 -10 2788.22   78.49
  -1   2 -10 2664.13   76.89
   1   2 -10 2802.62   83.09
  -1  -2 -10 2851.01   83.59
   1   2 -10 3104.39   82.99
   1  -3 -10  330.67   10.20
  -1   3 -10  327.57   10.00
  -1  -3 -10  341.57   10.70
   1   3 -10  348.37   10.30
   1  -4 -10  683.13   20.60
  -1   4 -10  695.73   20.30
  -1  -4 -10  687.73   20.60
   1   4 -10  688.63   20.20
  -1   5 -10   67.39    3.20
   1  -5 -10   56.89    3.30
  -1  -5 -10   54.29    3.10
   1   5 -10   51.09    2.80
   1  -6 -10   18.50    2.50
   1   6 -10    4.10    1.20
  -1  -6 -10    2.60    1.40
  -1  -6 -10    6.30    1.70
   2   0 -10   10.80    0.60
  -2   0 -10   12.00    0.90
  -2   0 -10   10.20    1.00
   2   0 -10   11.40    0.60
   2  -1 -10    6.10    0.70
  -2   1 -10    6.10    0.90
   2  -1 -10    6.80    0.60
  -2   1 -10    7.80    1.00
  -2  -1 -10    7.70    0.90
   2  -2 -10   10.30    1.00
  -2   2 -10   12.30    1.10
   2   2 -10   11.10    0.70
  -2  -2 -10   10.80    1.20
   2   2 -10   11.70    0.70
  -2   3 -10    5.90    1.00
   2  -3 -10    6.60    1.10
   2   3 -10    6.20    0.80
  -2  -3 -10    5.50    1.00
  -2   4 -10    1.20    0.70
   2  -4 -10   -0.30    0.70
   2   4 -10    0.80    0.60
  -2  -4 -10    0.20    0.90
  -2   5 -10    0.70    0.90
   2  -5 -10    0.60    0.90
   2   5 -10    0.00    0.70
  -2  -5 -10   -0.50    0.90
  -2   6 -10   -1.20    0.90
   2  -6 -10    0.40    1.10
  -2  -6 -10    0.20    1.10
   2   6 -10   -0.60    0.90
   3   0 -10  407.96   11.60
  -3   0 -10  401.86   12.30
   3   0 -10  423.66   11.60
   3  -1 -10   81.59    2.70
   3  -1 -10   86.29    2.70
  -3   1 -10   73.89    3.20
  -3  -1 -10   80.39    3.10
   3  -2 -10  388.16   11.40
  -3   2 -10  376.66   11.60
  -3  -2 -10  402.06   12.30
   3   2 -10  402.16   11.70
   3   2 -10  419.76   11.70
  -3   3 -10  488.85   14.70
   3  -3 -10  492.85   14.70
   3   3 -10  499.75   14.20
  -3  -3 -10  478.35   14.80
   3  -4 -10  126.09    4.90
   3  -4 -10  127.29    4.90
  -3   4 -10  126.19    4.80
  -3  -4 -10  116.79    4.80
   3   4 -10  122.89    4.30
  -3   5 -10    3.90    1.20
   3  -5 -10    3.40    1.20
   3   5 -10    4.30    1.00
  -3  -5 -10    3.80    1.30
   3  -6 -10   85.09    4.50
  -3   6 -10   83.89    4.30
   3   6 -10   84.69    4.00
  -3  -6 -10   82.49    4.40
  -4   0 -10   19.70    1.50
   4   0 -10   18.00    0.70
   4   0 -10   18.20    0.80
   4  -1 -10   16.80    1.00
  -4   1 -10   20.00    1.70
   4  -1 -10   18.80    1.00
  -4  -1 -10   19.50    1.50
   4  -2 -10   12.80    1.10
  -4   2 -10   12.30    1.40
  -4  -2 -10   14.10    1.40
   4   2 -10   12.10    0.70
   4   2 -10   14.20    0.70
  -4   3 -10    3.00    0.90
   4  -3 -10    2.70    0.80
   4   3 -10    4.00    0.60
  -4  -3 -10    4.30    1.00
  -4   4 -10    3.50    1.00
   4  -4 -10    3.80    1.10
   4   4 -10    3.20    0.70
  -4  -4 -10    5.10    1.20
   4  -5 -10    8.80    1.70
  -4   5 -10   10.80    1.80
  -4  -5 -10   10.00    1.90
   4   5 -10   10.50    1.50
  -5   0 -10 2779.32   82.69
   5   0 -10 2878.91   80.29
   5   0 -10 2887.51   80.49
  -5   1 -10 3759.72  114.69
   5  -1 -10 4329.77  115.19
  -5  -1 -10 4403.06  128.39
   5   1 -10 4526.75  124.49
   5   1 -10 4391.66  124.59
   5   2  10  428.46   12.70
  -5   2 -10  412.66   13.00
   5  -2 -10  425.26   12.50
   5   2 -10  450.45   12.60
  -5  -2 -10  428.06   13.50
   5   2 -10  444.46   12.60
  -5   3 -10  147.19    5.40
   5  -3 -10  149.29    5.20
   5   3 -10  163.58    5.10
  -5  -3 -10  156.08    5.90
  -5   4 -10  352.46   11.40
   5  -4 -10  357.06   11.40
  -5  -4 -10  360.26   11.70
   5   4 -10  355.06   10.90
  -5   5 -10 2465.05   69.69
   5  -5 -10 2401.86   69.59
   5   5 -10 2527.55   69.59
  -5  -5 -10 2377.26   70.19
   6   0 -10   30.10    1.40
   6   0 -10   31.90    1.30
  -6   0 -10   31.90    2.10
   6  -1 -10    7.50    0.80
  -6   1 -10    7.00    1.30
  -6  -1 -10    7.60    1.30
   6   1 -10    8.30    0.70
   6   1 -10    8.40    0.70
   6   2  10    8.60    1.10
  -6   2 -10    8.50    1.40
   6  -2 -10    7.10    1.00
  -6  -2 -10    8.10    1.40
   6   2 -10    7.90    0.70
   6  -3 -10    1.00    0.70
  -6   3 -10    0.70    0.90
  -6  -3 -10    1.00    0.90
   6   3 -10    1.40    0.50
   6  -4 -10    8.80    1.50
  -6   4 -10    8.90    1.70
  -6  -4 -10   10.70    1.90
   6   4 -10    7.70    1.10
  -6   5 -10    0.10    1.10
   6  -5 -10    0.60    1.10
  -6  -5 -10    0.80    1.30
   6   5 -10    1.50    0.90
   7   0 -10   57.09    2.20
  -7   0 -10   55.39    2.90
  -7   1 -10   11.60    1.70
   7   1  10    8.60    1.10
   7  -1 -10   11.50    1.00
   7   1 -10    9.90    0.90
  -7  -1 -10   12.40    1.60
   7   1 -10   10.90    0.80
   7  -2 -10  710.53   20.60
  -7   2 -10  704.23   21.30
   7   2 -10  758.82   21.50
  -7  -2 -10  748.73   22.50
   7  -3 -10  805.92   23.80
  -7   3 -10  816.72   24.30
   7   3 -10  872.21   24.70
  -7  -3 -10  847.42   25.60
   7  -4 -10  307.97   10.10
  -7   4 -10  299.37   10.30
   7   4 -10  318.97    9.90
  -7  -4 -10  321.27   10.90
  -7   5 -10   45.40    3.20
   7  -5 -10   41.20    3.10
  -7  -5 -10   48.60    3.50
   7   5 -10   48.60    2.70
   8   0 -10    0.30    0.50
  -8   0 -10    0.50    0.90
  -8   1 -10    2.70    1.10
   8  -1 -10    2.60    0.70
   8   1 -10    2.80    0.60
  -8  -1 -10    0.60    0.90
  -8   2 -10   17.50    2.00
   8  -2 -10   17.30    1.50
   8   2 -10   19.90    1.20
  -8  -2 -10   15.90    1.90
  -8   3 -10    2.00    1.10
   8  -3 -10    2.50    0.90
   8   3 -10    2.00    0.60
  -8  -3 -10    2.60    1.10
  -8   4 -10    0.30    1.00
   8  -4 -10    0.20    0.90
   8   4 -10    0.10    0.60
  -8  -4 -10   -1.10    1.00
   8  -5 -10   -0.60    1.10
  -8   5 -10   -0.20    1.10
   8   5 -10    0.10    0.80
  -8  -5 -10   -0.90    1.30
  -9   0 -10  179.58    6.90
   9   0 -10  193.58    6.10
   9  -1 -10   89.19    3.60
  -9   1 -10   92.19    4.20
  -9  -1 -10   89.79    4.20
   9   1 -10   91.99    3.30
  -9   2 -10  104.49    4.60
   9  -2 -10  102.59    4.10
  -9  -2 -10  106.79    4.70
   9   2 -10  103.79    3.70
  -9   3 -10  590.44   18.40
   9  -3 -10  588.14   17.90
  -9  -3 -10  626.84   19.40
   9   3 -10  622.14   18.30
  -9   4 -10   12.30    2.10
   9  -4 -10    8.70    1.60
   9   4 -10    8.30    1.20
  -9  -4 -10    9.10    1.90
   9  -5 -10    8.10    1.90
  -9   5 -10    8.20    1.80
   9   5 -10    7.70    1.50
  -9  -5 -10    9.60    2.10
 -10   0 -10    1.00    1.10
  10   0 -10    0.40    0.60
 -10   1 -10    2.00    1.10
  10  -1 -10    3.40    0.90
  10   1 -10    2.80    0.70
 -10  -1 -10    2.20    1.20
  10  -2 -10   -0.30    0.80
 -10   2 -10   -0.50    0.90
 -10  -2 -10    1.00    1.10
  10   2 -10    0.20    0.50
  10  -3 -10   -0.10    0.90
 -10   3 -10    0.30    1.00
  10   3 -10   -0.20    0.60
 -10  -3 -10    0.70    1.00
 -10   4 -10    0.50    1.20
  10  -4 -10    0.00    1.10
 -10  -4 -10   -1.00    1.20
  10   4 -10    0.60    0.70
 -11   0 -10   63.89    3.70
  11   0 -10   67.09    2.90
 -11   1 -10    9.40    1.70
  11  -1 -10    9.70    1.40
 -11  -1 -10   10.20    1.80
  11   1 -10    9.40    1.20
  11  -2 -10 1321.27   38.20
 -11   2 -10 1311.47   38.70
 -11  -2 -10 1379.96   40.30
  11   2 -10 1361.96   39.10
 -11   3 -10 1405.36   42.80
  11  -3 -10 1515.85   42.60
  11   3 -10 1503.55   42.60
 -11  -3 -10 1475.35   43.80
 -11   4 -10  396.46   13.70
  11  -4 -10  408.76   13.50
 -11  -4 -10  431.96   14.60
  11   4 -10  425.26   13.30
 -12   0 -10   -0.60    1.10
  12   0 -10    0.30    0.70
  12  -1 -10    6.50    1.20
 -12   1 -10    8.30    1.70
  12   1 -10    4.70    1.00
 -12  -1 -10    5.90    1.60
 -12   2 -10    3.10    1.30
  12  -2 -10    2.20    1.10
  12   2 -10    2.00    0.80
 -12  -2 -10    1.90    1.30
 -12   3 -10    8.50    1.80
  12  -3 -10    5.10    1.40
  12   3 -10    6.20    1.10
 -12  -3 -10    6.20    1.70
 -12   4 -10    2.70    1.40
  12  -4 -10    0.90    1.30
  12   4 -10    1.00    0.80
 -12  -4 -10    0.00    1.30
 -13   0 -10  332.07   11.40
  13   0 -10  317.87   10.30
 -13   1 -10  776.52   24.20
  13  -1 -10  797.72   23.40
 -13  -1 -10  761.02   23.60
  13   1 -10  762.42   22.40
  13  -2 -10   49.40    2.90
 -13   2 -10   48.20    3.30
  13   2 -10   50.49    2.60
 -13  -2 -10   47.70    3.40
  13  -3 -10   43.60    3.00
 -13   3 -10   45.60    3.30
 -13  -3 -10   45.10    3.50
  13   3 -10   44.80    2.50
 -14   0 -10   12.60    2.40
  14   0 -10    6.50    1.20
 -14   1 -10   11.50    2.00
  14  -1 -10   12.30    1.80
  14   1 -10    9.20    1.50
 -14  -1 -10   11.90    2.00
 -14   2 -10    1.00    1.30
  14  -2 -10    0.50    1.00
 -14  -2 -10    1.40    1.30
  14   2 -10    0.60    0.80
 -14   3 -10    9.60    1.90
  14  -3 -10    7.20    1.60
  14   3 -10    6.70    1.20
 -14  -3 -10    8.90    2.00
 -15   0 -10 3097.59   87.59
  15   0 -10 3012.40   86.49
  15  -1 -10   21.20    2.10
 -15   1 -10   19.60    2.70
 -15  -1 -10   20.10    2.60
  15   1 -10   23.60    2.00
  15  -2 -10  156.38    6.10
 -15   2 -10  146.09    6.50
 -15  -2 -10  150.48    6.70
  15   2 -10  153.58    5.70
 -16   0 -10    1.10    1.30
  16   0 -10    0.70    1.00
 -16   1 -10   11.10    2.10
  16  -1 -10   11.00    1.90
 -16  -1 -10   10.00    2.10
  16   1 -10    8.90    1.70
   0  -1 -11    0.40    0.40
   0   1 -11    0.00    0.40
   0   1 -11    0.50    0.50
   0  -2 -11  992.90   28.40
   0   2 -11  988.20   28.20
   0   3 -11    0.70    0.50
   0  -3 -11    0.00    0.60
   0  -4 -11  347.67   11.00
   0   4 -11  342.87   10.70
   0  -5 -11    0.00    0.90
   0   5 -11    0.40    0.90
  -1   0 -11    0.50    0.40
   1   0 -11    0.50    0.30
  -1   0 -11    0.00    0.30
   1   0 -11    0.20    0.30
   1  -1 -11   10.10    0.80
  -1   1 -11    7.60    1.00
  -1   1 -11    8.10    0.90
   1  -1 -11    9.30    0.80
   1   1 -11    9.70    0.80
  -1  -1 -11    9.00    0.90
   1   1 -11    8.50    0.70
  -1   2 -11  417.36   12.00
   1  -2 -11  387.66   12.00
   1   2 -11  404.56   11.90
   1   2 -11  420.56   11.90
  -1  -2 -11  410.16   12.30
   1  -3 -11    1.70    0.70
  -1   3 -11    1.30    0.60
   1   3 -11    1.80    0.60
  -1  -3 -11    1.60    0.70
  -1   4 -11  537.15   16.30
   1  -4 -11  550.04   16.60
   1   4 -11  542.75   16.20
  -1  -4 -11  543.25   16.60
  -1   5 -11    6.70    1.30
   1  -5 -11    4.80    1.30
  -1  -5 -11    5.10    1.30
   1   5 -11    3.60    1.00
  -2   0 -11    0.10    0.50
   2   0 -11    0.30    0.20
   2   0 -11    0.30    0.30
  -2   1 -11   81.89    3.30
   2  -1 -11   85.79    2.90
   2  -1 -11   89.79    2.90
   2   1 -11   91.99    2.70
  -2  -1 -11   84.79    3.20
   2  -2 -11  102.19    3.60
  -2   2 -11  105.39    3.80
  -2  -2 -11  108.89    3.90
   2   2 -11  107.49    3.30
   2   2 -11  102.39    3.30
   2  -3 -11   13.10    1.30
  -2   3 -11   12.20    1.30
   2   3 -11   15.00    1.10
  -2  -3 -11   12.30    1.50
   2  -4 -11  362.36   11.70
  -2   4 -11  376.46   11.60
   2   4 -11  377.36   11.50
  -2  -4 -11  379.76   12.10
  -2   5 -11    2.90    1.10
   2  -5 -11    3.80    1.30
   2   5 -11    3.10    1.00
  -2  -5 -11    3.40    1.20
  -3   0 -11    0.00    0.50
   3   0 -11    0.40    0.20
   3   0 -11    0.40    0.20
  -3   1 -11  131.79    4.70
   3  -1 -11  132.49    4.20
  -3  -1 -11  132.69    4.60
  -3   2 -11   13.40    1.40
   3  -2 -11   10.30    1.00
   3   2 -11   11.50    0.70
   3   2 -11   11.50    0.70
  -3  -2 -11   11.70    1.30
   3  -3 -11   43.60    2.30
  -3   3 -11   45.90    2.40
   3   3 -11   41.20    1.80
  -3  -3 -11   45.10    2.40
  -3   4 -11   10.10    1.50
   3  -4 -11   11.00    1.60
   3  -4 -11    9.90    1.50
   3   4 -11   10.60    1.20
  -3  -4 -11   11.50    1.70
   3  -5 -11   43.40    3.00
  -3   5 -11   47.10    2.90
   3   5 -11   45.50    2.60
  -3  -5 -11   49.90    3.10
   4   0 -11    0.30    0.20
   4   0 -11    0.40    0.20
  -4   0 -11   -0.40    0.60
  -4   1 -11  492.65   15.20
   4  -1 -11  516.25   14.50
  -4  -1 -11  519.05   15.40
  -4   2 -11   33.00    2.10
   4  -2 -11   27.80    1.60
  -4  -2 -11   31.20    1.90
   4   2 -11   29.50    1.20
   4   2 -11   33.00    1.20
   4  -3 -11   19.60    1.60
  -4   3 -11   19.80    1.70
   4  -3 -11   21.40    1.60
  -4  -3 -11   21.70    1.90
   4   3 -11   22.60    1.20
  -4   4 -11  158.18    5.90
   4  -4 -11  155.48    5.80
  -4  -4 -11  161.68    6.10
   4   4 -11  155.58    5.40
  -4   5 -11   40.00    2.80
   4  -5 -11   42.10    2.90
   4   5 -11   43.60    2.50
  -4  -5 -11   41.10    3.00
  -5   0 -11    0.00    0.70
   5   0 -11    1.30    0.30
   5   0 -11    0.20    0.30
  -5   1 -11  684.13   20.80
   5  -1 -11  718.73   20.10
  -5  -1 -11  764.02   22.40
   5  -2 -11  212.88    6.70
  -5   2 -11  214.18    7.40
   5   2 -11  227.18    6.60
   5   2 -11  225.08    6.60
  -5  -2 -11  227.08    7.60
   5  -3 -11   10.00    1.30
  -5   3 -11    9.80    1.50
   5   3 -11    8.10    0.90
  -5  -3 -11    9.00    1.60
  -5   4 -11   86.89    4.00
   5  -4 -11   87.59    3.90
   5   4 -11   91.79    3.50
  -5  -4 -11   92.69    4.30
   5  -5 -11    9.40    1.60
  -5   5 -11    9.00    1.70
   5   5 -11    7.90    1.40
  -5  -5 -11    8.90    1.80
   6   0 -11    0.60    0.30
   6   0 -11   -0.20    0.40
  -6   0 -11    0.40    0.70
   6  -1 -11  556.24   15.70
  -6   1 -11  529.95   16.60
   6   1 -11  623.44   17.20
   6   1 -11  610.64   17.10
  -6  -1 -11  574.94   18.10
   6  -2 -11  195.68    6.40
  -6   2 -11  203.78    7.20
  -6  -2 -11  202.48    7.10
   6   2 -11  209.68    6.10
   6  -3 -11  112.69    4.30
  -6   3 -11  119.09    4.80
   6   3 -11  120.19    4.00
  -6  -3 -11  123.29    5.00
   6  -4 -11  151.28    5.80
  -6   4 -11  150.68    6.00
   6   4 -11  152.78    5.30
  -6  -4 -11  154.88    6.20
   6  -5 -11  158.08    6.30
  -6   5 -11  155.48    6.50
   6   5 -11  167.98    6.20
  -6  -5 -11  183.08    7.20
  -7   0 -11   -0.20    0.80
   7   0 -11    0.10    0.50
  -7   1 -11  156.88    6.00
   7  -1 -11  159.38    5.10
   7   1 -11  167.78    5.10
  -7  -1 -11  161.78    6.10
   7   1 -11  171.18    5.20
   7  -2 -11   43.40    2.20
  -7   2 -11   46.60    2.80
   7   2 -11   48.90    1.90
  -7  -2 -11   51.89    2.90
  -7   3 -11   41.00    2.80
   7  -3 -11   40.80    2.30
   7   3 -11   40.50    1.90
  -7  -3 -11   45.30    2.90
   7  -4 -11  109.59    4.60
  -7   4 -11  110.89    5.00
   7   4 -11  116.89    4.40
  -7  -4 -11  128.19    5.40
   7  -5 -11   78.59    4.20
  -7   5 -11   79.29    4.30
  -7  -5 -11   82.19    4.50
   7   5 -11   77.29    3.50
   8   0 -11    0.60    0.50
  -8   0 -11    0.20    0.90
  -8   1 -11   -0.20    0.80
   8  -1 -11    0.50    0.60
  -8  -1 -11    0.80    0.90
   8   1 -11    1.50    0.50
  -8   2 -11   52.09    3.10
   8  -2 -11   50.69    2.40
   8   2 -11   53.19    2.10
  -8  -2 -11   55.39    3.10
   8  -3 -11   33.00    2.20
  -8   3 -11   36.50    2.80
  -8  -3 -11   35.30    2.70
   8   3 -11   40.60    1.90
   8  -4 -11   60.09    3.30
  -8   4 -11   63.49    3.70
  -8  -4 -11   59.09    3.70
   8   4 -11   59.89    2.70
  -8   5 -11   15.70    2.40
   8  -5 -11   14.10    2.30
   8   5 -11   14.80    1.70
  -8  -5 -11   16.40    2.50
   9   0 -11   -0.20    0.50
  -9   0 -11    0.30    1.00
  -9   1 -11  179.58    6.80
   9  -1 -11  178.28    6.00
   9   1 -11  185.48    5.80
  -9  -1 -11  182.38    6.90
   9  -2 -11   47.50    2.50
  -9   2 -11   49.10    3.10
   9   2 -11   48.10    2.10
  -9  -2 -11   51.39    3.10
   9  -3 -11   36.10    2.40
  -9   3 -11   37.70    2.90
  -9  -3 -11   36.90    2.80
   9   3 -11   37.90    1.90
   9  -4 -11   20.00    2.20
  -9   4 -11   20.40    2.50
   9   4 -11   20.50    1.60
  -9  -4 -11   20.10    2.60
 -10   0 -11   -0.80    1.00
  10   0 -11    0.00    0.60
  10  -1 -11  541.05   16.40
 -10   1 -11  557.64   17.30
 -10  -1 -11  582.44   17.70
  10   1 -11  546.45   16.50
  10  -2 -11   98.09    4.00
 -10   2 -11   86.99    4.40
  10   2 -11   91.79    3.40
 -10  -2 -11  100.49    4.60
 -10   3 -11    7.00    1.60
  10  -3 -11    6.00    1.30
  10   3 -11    5.70    1.10
 -10  -3 -11    8.20    1.70
  10  -4 -11   56.79    3.50
 -10   4 -11   66.09    4.00
  10   4 -11   57.69    2.80
 -10  -4 -11   68.29    4.20
  11   0 -11    0.20    0.60
 -11   0 -11    1.10    1.20
 -11   1 -11  370.06   12.10
  11  -1 -11  341.07   11.10
  11   1 -11  333.47   10.60
 -11  -1 -11  369.76   12.00
  11  -2 -11   42.00    2.60
 -11   2 -11   37.50    3.00
 -11  -2 -11   46.00    3.20
  11   2 -11   40.40    2.10
 -11   3 -11   47.10    3.30
  11  -3 -11   49.80    3.10
 -11  -3 -11   50.39    3.50
  11   3 -11   51.99    2.50
 -11   4 -11  115.49    5.50
  11  -4 -11  108.09    5.20
 -11  -4 -11  118.19    5.80
  11   4 -11  108.59    4.30
  12   0 -11    0.00    0.70
 -12   0 -11   -0.30    1.20
  12  -1 -11  162.98    6.00
 -12   1 -11  171.48    6.90
 -12  -1 -11  164.08    6.70
  12   1 -11  158.68    5.50
 -12   2 -11   29.90    2.70
  12  -2 -11   27.30    2.20
 -12  -2 -11   29.20    2.80
  12   2 -11   27.20    1.80
 -12   3 -11   34.20    3.00
  12  -3 -11   35.00    2.80
 -12  -3 -11   37.70    3.10
  12   3 -11   32.70    2.10
 -13   0 -11    0.70    1.30
  13   0 -11    0.20    0.80
 -13   1 -11   58.39    3.80
  13  -1 -11   58.19    3.00
 -13  -1 -11   53.69    3.60
  13   1 -11   48.80    2.50
 -13   2 -11    8.20    1.80
  13  -2 -11    8.10    1.50
 -13  -2 -11    3.30    1.50
  13   2 -11    5.40    1.00
  13  -3 -11    3.00    1.30
 -13   3 -11    3.10    1.50
 -13  -3 -11    2.70    1.50
  13   3 -11    4.00    1.00
  14   0 -11    0.50    0.80
 -14   0 -11    0.30    1.40
  14  -1 -11   14.30    1.80
 -14   1 -11   18.40    2.70
 -14  -1 -11   16.90    2.50
  14   1 -11   16.90    1.70
  14  -2 -11   47.10    3.00
 -14   2 -11   51.29    3.60
 -14  -2 -11   51.99    3.70
  14   2 -11   47.90    2.60
  15   0 -11    1.10    0.90
 -15   0 -11   -0.30    1.30
 -15   1 -11    1.00    1.50
  15  -1 -11    3.00    1.10
 -15  -1 -11    2.40    1.40
  15   1 -11    3.30    1.00
   0   0 -12 9042.59  267.47
   0   0 -12 9999.00  267.67
   0   2 -12  704.73   20.10
   0  -2 -12  681.43   20.10
   0  -3 -12    0.10    0.60
   0   3 -12    0.70    0.60
   0  -4 -12 1393.26   40.30
   0   4 -12 1397.46   40.00
   0   5 -12    0.90    0.90
   0  -5 -12    2.30    1.10
   1   0 -12    6.40    0.60
   1   0 -12    6.00    0.60
  -1   0 -12    6.20    0.80
   1  -1 -12   40.50    1.70
  -1   1 -12   41.80    1.90
   1   1 -12   41.40    1.70
   1   1 -12   41.80    1.60
  -1  -1 -12   42.70    1.90
   1  -2 -12    0.00    0.50
  -1   2 -12    0.60    0.60
  -1  -2 -12    0.20    0.60
   1   2 -12    1.40    0.50
  -1   3 -12   21.50    1.50
   1  -3 -12   21.80    1.60
  -1  -3 -12   24.90    1.80
   1   3 -12   26.30    1.50
   1  -4 -12    0.70    0.80
  -1   4 -12    2.80    0.90
   1   4 -12    1.20    0.80
  -1  -4 -12    2.50    1.10
   1  -5 -12   17.40    2.10
  -1   5 -12   22.20    2.10
   1   5 -12   18.70    1.90
  -1  -5 -12   21.70    2.20
   2   0 -12    6.70    0.50
   2   0 -12    9.20    0.60
  -2   1 -12    0.40    0.60
   2  -1 -12    3.10    0.50
   2   1 -12    1.40    0.30
  -2  -1 -12    0.30    0.50
   2   1 -12    0.80    0.30
   2  -2 -12  750.52   21.90
  -2   2 -12  766.52   22.20
   2   2 -12  798.42   22.50
  -2  -2 -12  784.12   23.00
   2   2 -12  794.72   22.40
  -2   3 -12    4.00    0.90
   2  -3 -12    4.10    0.90
   2   3 -12    5.50    0.80
  -2  -3 -12    4.70    1.00
   2  -4 -12  213.28    7.50
  -2   4 -12  220.78    7.40
   2   4 -12  219.78    7.20
  -2  -4 -12  222.68    7.70
   2  -5 -12   25.30    2.40
   2   5 -12    4.30    1.10
  -2  -5 -12    4.60    1.30
   3   0 -12    0.70    0.30
  -3   0 -12    1.00    0.60
   3   0 -12    1.00    0.30
   3  -1 -12    8.50    0.80
  -3   1 -12    7.50    1.20
  -3  -1 -12    7.90    1.10
   3  -2 -12    0.10    0.50
  -3   2 -12   -0.20    0.70
  -3  -2 -12    0.40    0.60
   3   2 -12    0.10    0.30
   3   2 -12    0.10    0.20
  -3   3 -12   29.80    2.00
   3  -3 -12   30.00    1.90
   3   3 -12   30.60    1.50
  -3  -3 -12   29.70    2.10
   3  -4 -12   -1.00    0.70
  -3   4 -12    0.00    0.80
   3  -4 -12    0.50    0.80
  -3  -4 -12    0.00    0.90
   3   4 -12    0.20    0.60
   3  -5 -12   12.30    2.00
  -3   5 -12   10.30    1.80
  -3  -5 -12   10.40    1.90
   3   5 -12   10.30    1.50
  -4   0 -12   32.90    1.90
   4   0 -12   35.20    1.30
   4   0 -12   39.00    1.30
   4  -1 -12   12.90    0.90
  -4   1 -12    9.30    1.40
  -4  -1 -12   12.00    1.30
   4  -2 -12  791.02   22.50
  -4   2 -12  771.32   23.20
   4   2 -12  805.62   22.90
  -4  -2 -12  777.72   23.80
   4   2 -12  852.61   22.90
  -4   3 -12  982.80   29.10
   4  -3 -12 1014.30   28.80
   4  -3 -12  984.30   28.70
  -4  -3 -12  993.70   29.10
   4   3 -12  996.60   28.30
  -4   4 -12  205.18    7.40
   4  -4 -12  210.88    7.30
  -4  -4 -12  206.98    7.40
   4   4 -12  202.28    6.70
  -4   5 -12   14.90    2.10
   4  -5 -12   14.50    2.00
   4   5 -12   16.60    1.70
  -4  -5 -12   18.50    2.30
  -5   0 -12    0.40    0.70
   5   0 -12    0.60    0.30
   5   0 -12    0.50    0.30
   5  -1 -12    2.10    0.50
  -5   1 -12    2.90    1.00
  -5  -1 -12    3.10    0.90
   5  -2 -12    6.40    1.00
  -5   2 -12    9.10    1.70
   5   2 -12    8.80    0.60
   5   2 -12    8.30    0.60
  -5  -2 -12    8.40    1.40
  -5   3 -12    0.50    0.90
   5  -3 -12    0.10    0.70
  -5  -3 -12    0.40    0.90
   5   3 -12    1.40    0.50
  -5   4 -12    0.50    0.90
   5  -4 -12    1.30    0.90
   5   4 -12    0.80    0.60
  -5  -4 -12   -0.10    1.00
   5  -5 -12    2.90    1.20
  -5   5 -12    1.00    1.20
   5   5 -12    2.10    0.90
  -5  -5 -12    2.50    1.30
   6   0 -12  295.97    8.50
   6   0 -12  285.77    8.40
  -6   0 -12  286.87    9.40
  -6   1 -12  341.87   11.20
   6  -1 -12  356.26   10.30
  -6  -1 -12  386.06   12.10
  -6   2 -12   90.29    4.10
   6  -2 -12   90.59    3.40
   6   2 -12   98.49    3.00
  -6  -2 -12   91.89    4.10
  -6   3 -12 2305.37   67.79
   6  -3 -12 2445.16   67.29
   6   3 -12 2556.24   72.19
  -6  -3 -12 2565.94   72.99
  -6   4 -12    7.20    1.50
   6  -4 -12   11.60    1.70
   6   4 -12   13.30    1.30
  -6  -4 -12   11.50    2.00
  -6   5 -12    3.00    1.30
   6  -5 -12    4.70    1.40
   6   5 -12    4.40    1.00
  -6  -5 -12    3.00    1.60
   7   0 -12    6.60    0.80
  -7   0 -12    7.20    1.30
  -7   1 -12    0.70    0.90
   7  -1 -12    0.60    0.50
  -7  -1 -12    2.00    1.00
   7   1 -12    0.90    0.30
  -7   2 -12   19.80    2.10
   7  -2 -12   17.90    1.40
  -7  -2 -12   16.40    1.90
   7   2 -12   19.10    1.00
   7  -3 -12    2.40    0.90
  -7   3 -12    2.80    1.20
  -7  -3 -12    2.50    1.20
  -7   4 -12   24.60    2.50
   7  -4 -12   22.70    2.10
   7   4 -12   24.70    1.70
  -7  -4 -12   28.00    2.60
  -7   5 -12    0.80    1.30
   7  -5 -12    0.70    1.10
   7   5 -12    0.60    0.80
  -7  -5 -12   -2.10    1.10
  -8   0 -12  299.17   10.40
   8   0 -12  326.77    9.50
  -8   1 -12  421.16   13.80
   8  -1 -12  438.56   12.90
   8   1 -12  475.25   13.20
  -8  -1 -12  434.06   14.30
   8  -2 -12    1.60    0.70
  -8   2 -12    3.00    1.20
   8   2 -12    0.90    0.40
  -8  -2 -12    0.90    1.00
  -8   3 -12  186.18    7.30
   8  -3 -12  194.28    6.70
   8   3 -12  209.68    6.60
  -8  -3 -12  210.88    7.80
  -8   4 -12   17.80    2.40
   8  -4 -12   20.10    2.10
  -8  -4 -12   21.00    2.50
   8   4 -12   20.00    1.50
   9   0 -12   56.59    2.40
  -9   0 -12   55.89    3.30
  -9   1 -12   -0.90    1.00
   9  -1 -12    0.40    0.70
  -9  -1 -12    0.30    0.90
   9   1 -12    0.20    0.50
   9  -2 -12   16.00    1.60
  -9   2 -12   18.20    2.20
   9   2 -12   17.60    1.10
  -9  -2 -12   16.30    2.10
   9  -3 -12    0.40    0.80
  -9   3 -12    0.40    1.10
   9   3 -12    0.80    0.60
  -9  -3 -12   -0.10    1.10
  -9   4 -12   13.70    2.40
   9  -4 -12   10.30    1.90
  -9  -4 -12   13.90    2.40
   9   4 -12   12.00    1.30
 -10   0 -12  961.50   29.60
  10   0 -12 1012.80   28.40
 -10   1 -12 2138.39   60.49
  10  -1 -12 2056.59   59.39
  10   1 -12 2016.40   56.99
 -10  -1 -12 2035.20   58.39
 -10   2 -12   91.49    4.60
  10  -2 -12   90.59    3.90
 -10  -2 -12  106.09    4.80
  10   2 -12   92.19    3.40
  10  -3 -12   94.19    4.20
 -10   3 -12   93.89    4.70
  10   3 -12   93.09    3.50
 -10  -3 -12   93.49    4.80
 -10   4 -12  150.08    6.60
  10  -4 -12  153.88    6.20
  10   4 -12  146.49    5.30
 -10  -4 -12  158.78    6.80
 -11   0 -12    5.80    1.60
  11   0 -12    6.90    1.20
  11  -1 -12    2.00    0.90
 -11   1 -12    0.70    1.20
  11   1 -12    1.60    0.70
 -11  -1 -12    1.70    1.20
 -11   2 -12   13.30    2.20
  11  -2 -12   13.00    1.80
  11   2 -12   12.00    1.20
 -11  -2 -12   12.40    2.10
 -11   3 -12   -0.20    1.10
  11  -3 -12    0.70    1.10
 -11  -3 -12    1.20    1.20
  11   3 -12    0.70    0.70
 -12   0 -12  260.37    9.60
  12   0 -12  262.97    8.40
 -12   1 -12   97.59    5.00
  12  -1 -12  101.59    4.10
 -12  -1 -12   98.59    4.80
  12   1 -12   92.49    3.60
 -12   2 -12   28.80    2.80
  12  -2 -12   25.70    2.20
 -12  -2 -12   31.40    2.90
  12   2 -12   30.30    1.80
 -12   3 -12 1120.19   33.50
  12  -3 -12 1105.49   32.90
 -12  -3 -12 1183.18   35.20
  12   3 -12 1144.29   33.40
  13   0 -12    5.90    1.10
 -13   0 -12    7.30    1.80
  13  -1 -12    0.90    0.90
 -13   1 -12    2.30    1.50
 -13  -1 -12   -0.40    1.10
  13   1 -12    0.30    0.70
 -13   2 -12    1.30    1.30
  13  -2 -12    1.60    1.10
  13   2 -12    1.60    0.80
 -13  -2 -12    1.30    1.40
 -13  -3 -12    3.30    1.70
  14   0 -12    5.50    1.10
 -14   0 -12    6.50    1.80
 -14   1 -12   14.80    2.60
  14   1 -12    0.30    0.70
 -14  -1 -12    1.60    1.30
  14  -2 -12  146.49    5.80
 -14   2 -12  149.19    6.60
  14   2 -12  134.99    5.10
 -14  -2 -12  150.58    6.70
 -15   0 -12    1.60    1.50
  15   0 -12    0.40    0.90
 -15  -1 -12    1.50    1.30
   0  -1 -13    0.60    0.50
   0   1 -13    0.10    0.40
   0  -2 -13  236.78    7.50
   0   2 -13  238.18    7.50
   0  -3 -13    0.40    0.70
   0   3 -13    2.40    0.70
   0  -4 -13   13.50    1.70
   0   4 -13   17.60    1.60
   0   5 -13   -0.60    0.80
   0  -5 -13    0.90    1.00
   1   0 -13    0.70    0.30
   1   0 -13    4.10    0.60
  -1   0 -13    0.50    0.40
   1  -1 -13   19.90    1.20
  -1   1 -13   21.50    1.30
   1   1 -13   18.90    1.00
   1   1 -13   19.40    1.10
  -1  -1 -13   19.00    1.30
  -1   2 -13   87.09    3.50
   1  -2 -13   89.09    3.30
  -1  -2 -13   86.09    3.40
   1   2 -13   92.49    3.20
   1  -3 -13    0.40    0.70
  -1   3 -13    0.60    0.70
   1   3 -13    0.40    0.60
  -1  -3 -13    0.10    0.70
  -1   4 -13  103.39    4.20
   1  -4 -13   98.79    4.20
  -1  -4 -13   98.29    4.30
   1   4 -13  107.29    4.10
   1  -5 -13    4.20    1.30
  -1   5 -13    4.70    1.20
  -1  -5 -13    3.90    1.20
   1   5 -13    4.00    1.10
   2   0 -13   -0.20    0.30
   2   0 -13    0.80    0.30
  -2   0 -13    0.30    0.50
   2  -1 -13   37.90    1.70
  -2   1 -13   41.70    2.00
   2   1 -13   44.70    1.60
   2   1 -13   44.60    1.50
  -2  -1 -13   40.20    2.00
   2  -2 -13    1.10    0.60
  -2   2 -13    1.60    0.90
  -2  -2 -13    1.50    0.70
   2   2 -13    2.00    0.50
  -2   3 -13    3.50    1.00
   2  -3 -13    4.10    0.90
  -2  -3 -13    3.20    0.90
   2   3 -13    3.90    0.70
  -2   4 -13   98.29    4.10
   2  -4 -13   87.49    4.00
  -2  -4 -13  102.09    4.40
   2   4 -13   95.79    3.80
  -2   5 -13    4.40    1.30
   2  -5 -13    3.50    1.30
   2   5 -13    8.80    1.40
  -2  -5 -13    4.40    1.30
  -3   0 -13    0.40    0.60
   3   0 -13    0.10    0.20
   3   0 -13    0.70    0.30
  -3   1 -13    7.20    1.20
   3  -1 -13    6.20    0.70
  -3  -1 -13    7.20    1.10
   3  -2 -13    0.90    0.60
  -3   2 -13    1.30    0.90
  -3  -2 -13    3.10    0.90
   3  -3 -13   23.60    1.70
  -3   3 -13   24.60    2.00
  -3  -3 -13   24.90    2.00
   3   3 -13   24.30    1.40
   3  -4 -13    4.40    1.10
  -3   4 -13    5.20    1.30
   3  -4 -13    3.40    1.10
  -3  -4 -13    5.10    1.30
   3   4 -13    4.90    0.90
  -3   5 -13    0.80    1.10
   3  -5 -13    1.40    1.20
   3   5 -13    0.90    0.80
  -3  -5 -13    1.80    1.20
  -4   0 -13    0.10    0.60
   4   0 -13    0.40    0.30
   4   0 -13    0.10    0.20
   4  -1 -13   18.70    1.10
  -4   1 -13   18.50    1.70
  -4  -1 -13   19.60    1.60
  -4   2 -13   19.20    2.00
   4  -2 -13   19.50    1.30
   4   2 -13   21.40    0.90
  -4  -2 -13   22.10    1.80
  -4   3 -13    1.10    1.00
   4  -3 -13    0.10    0.70
   4  -3 -13    0.60    0.70
   4   3 -13    1.50    0.50
  -4  -3 -13    0.90    0.90
   4  -4 -13  116.79    4.80
  -4   4 -13  119.29    5.00
   4   4 -13  121.99    4.40
  -4  -4 -13  121.79    5.10
  -4   5 -13   -0.70    1.10
   4  -5 -13    0.60    1.00
   4   5 -13    0.50    0.80
  -4  -5 -13    1.90    1.20
  -5   0 -13    0.20    0.70
   5   0 -13    0.30    0.30
   5   0 -13    0.40    0.30
   5  -1 -13  124.89    4.10
  -5   1 -13  129.09    4.90
  -5  -1 -13  131.09    4.90
  -5   2 -13   43.60    2.80
   5  -2 -13   43.80    2.10
   5   2 -13   44.80    1.50
  -5  -2 -13   40.40    2.40
  -5   3 -13    1.40    1.10
   5  -3 -13    0.80    0.80
  -5  -3 -13    2.20    1.10
   5   3 -13    1.80    0.50
   5  -4 -13   48.40    2.80
  -5   4 -13   50.59    3.20
   5   4 -13   46.80    2.30
  -5  -4 -13   44.80    3.00
  -5   5 -13   28.30    2.70
   5  -5 -13   28.70    2.50
  -5  -5 -13   23.00    2.60
   5   5 -13   26.00    2.00
  -6   0 -13    0.20    0.80
   6   0 -13    0.80    0.40
  -6   1 -13  144.19    5.60
   6  -1 -13  145.39    4.70
  -6  -1 -13  155.18    5.70
   6  -2 -13   15.70    1.30
  -6   2 -13   18.10    2.10
   6   2 -13   19.40    0.90
  -6  -2 -13   14.30    1.80
  -6   3 -13   76.59    4.00
   6  -3 -13   78.59    3.40
   6   3 -13   81.49    2.90
  -6  -3 -13   82.79    4.00
  -6   4 -13    6.10    1.50
   6  -4 -13    5.50    1.20
  -6  -4 -13    4.70    1.50
   6   4 -13    6.20    1.10
  -6   5 -13   49.70    3.60
   6  -5 -13   50.29    3.30
   6   5 -13   46.60    2.60
  -6  -5 -13   47.80    3.50
  -7   0 -13   -0.30    0.80
   7   0 -13    0.30    0.40
  -7   1 -13  141.49    5.60
   7  -1 -13  139.99    4.70
   7   1 -13  159.58    4.60
  -7  -1 -13  146.99    5.80
   7  -2 -13    1.40    0.70
  -7   2 -13    0.90    1.10
   7   2 -13    1.90    0.40
  -7  -2 -13    1.30    1.00
  -7   3 -13   16.30    2.20
   7  -3 -13   19.40    1.70
  -7  -3 -13   20.40    2.30
   7   3 -13   22.30    1.30
   7  -4 -13    6.10    1.30
  -7   4 -13    8.40    1.80
   7   4 -13    7.90    1.20
  -7  -4 -13    7.90    1.70
   8   0 -13    0.00    0.50
  -8   0 -13   -0.50    0.90
  -8   1 -13   10.20    1.90
   8  -1 -13   14.90    1.30
  -8  -1 -13   13.80    1.90
   8   1 -13   14.70    0.90
  -8   2 -13   11.30    2.00
   8  -2 -13    9.90    1.30
   8   2 -13   13.50    0.90
  -8  -2 -13   13.80    2.00
  -8   3 -13   13.40    2.20
   8  -3 -13   16.60    1.70
  -8  -3 -13   17.20    2.30
   8   3 -13   15.50    1.10
  -8   4 -13    6.90    1.80
   8  -4 -13    3.30    1.20
  -8  -4 -13    4.30    1.50
   8   4 -13    4.30    0.90
   9   0 -13    0.20    0.50
  -9   0 -13   -0.50    1.10
  -9   1 -13   34.70    2.80
   9  -1 -13   34.10    2.00
  -9  -1 -13   39.00    2.80
   9   1 -13   33.30    1.50
  -9   2 -13    1.50    1.20
   9  -2 -13    0.90    0.80
  -9  -2 -13    3.50    1.30
   9   2 -13    1.50    0.50
   9  -3 -13    4.10    1.10
  -9   3 -13    4.90    1.50
   9   3 -13    2.70    0.70
  -9  -3 -13    1.70    1.20
   9  -4 -13    4.50    1.40
  -9   4 -13    5.60    1.70
   9   4 -13    5.00    1.00
  -9  -4 -13    4.60    1.70
  10   0 -13   -0.10    0.60
 -10   0 -13    1.40    1.20
 -10   1 -13  181.38    7.30
  10  -1 -13  190.78    6.30
  10   1 -13  186.48    5.90
 -10  -1 -13  190.68    7.30
 -10   2 -13    4.80    1.50
  10  -2 -13    6.10    1.20
  10   2 -13    7.20    0.90
 -10  -2 -13    7.10    1.70
  10  -3 -13    1.90    1.10
 -10   3 -13    0.30    1.20
 -10  -3 -13    0.40    1.20
  10   3 -13    0.70    0.60
 -10   4 -13    1.80    1.40
  10  -4 -13    1.60    1.20
  10   4 -13    3.20    0.90
 -10  -4 -13    2.00    1.50
 -11   0 -13   -0.80    1.20
  11   0 -13    0.40    0.60
 -11   1 -13   86.39    4.60
  11  -1 -13   81.29    3.50
 -11  -1 -13   85.99    4.40
  11   1 -13   77.79    3.00
  11  -2 -13   60.59    3.20
 -11   2 -13   65.69    3.90
  11   2 -13   59.09    2.40
 -11  -2 -13   57.29    3.70
  11  -3 -13    4.90    1.40
 -11   3 -13    6.40    1.70
  11   3 -13    5.20    0.90
 -11  -3 -13    6.40    1.70
  12   0 -13    0.50    0.70
 -12   0 -13   -0.40    1.30
 -12   1 -13   22.00    2.80
  12  -1 -13   25.30    1.90
 -12  -1 -13   24.20    2.60
  12   1 -13   21.30    1.50
 -12   2 -13   21.50    2.70
  12  -2 -13   19.90    2.00
  12   2 -13   18.60    1.40
 -12  -2 -13   17.20    2.50
 -12   3 -13   43.40    3.50
  12  -3 -13   43.40    3.00
  12   3 -13   42.90    2.20
 -12  -3 -13   48.70    3.70
  13   0 -13    0.70    0.70
 -13   0 -13    1.50    1.50
 -13   1 -13    9.10    2.00
  13  -1 -13    5.20    1.20
 -13  -1 -13    3.20    1.50
  13   1 -13    4.10    0.90
  13  -2 -13    8.20    1.50
 -13   2 -13    9.20    2.00
  13   2 -13    6.50    1.10
 -13  -2 -13    5.10    1.60
 -14   0 -13    0.00    1.40
  14   0 -13    1.00    0.80
  14  -1 -13    3.80    1.10
 -14   1 -13    3.20    1.60
  14   1 -13    4.90    1.00
 -14  -1 -13    2.50    1.40
   0   0 -14   13.30    0.90
   0   1 -14    0.50    0.40
   0  -1 -14    0.40    0.50
   0   2 -14    4.50    0.90
   0  -2 -14    4.30    0.80
   0  -3 -14   -0.10    0.70
   0   3 -14    0.30    0.70
   0  -4 -14   11.30    1.70
   0   4 -14    8.80    1.40
   0  -5 -14    0.70    1.10
   0   5 -14    0.60    0.90
   1   0 -14  144.39    4.40
  -1   0 -14  138.29    4.60
   1  -1 -14  499.15   13.50
  -1   1 -14  421.86   13.50
  -1  -1 -14  413.16   12.70
   1   1 -14  445.66   12.40
   1  -2 -14  606.84   17.80
  -1   2 -14  608.74   18.10
  -1  -2 -14  618.54   18.40
   1   2 -14  631.54   18.20
   1  -3 -14    9.30    1.30
  -1   3 -14    9.30    1.40
  -1  -3 -14   12.00    1.50
   1   3 -14    9.80    1.20
   1  -4 -14  143.69    5.60
  -1   4 -14  148.99    5.60
  -1  -4 -14  142.39    5.50
   1   4 -14  140.69    5.20
   1  -5 -14  289.57    9.90
  -1   5 -14  277.27    9.70
   1   5 -14  277.07    9.40
  -1  -5 -14  272.87    9.70
  -2   0 -14    3.50    0.70
   2   0 -14    2.00    0.40
  -2   1 -14    1.20    0.60
   2  -1 -14    1.50    0.50
   2   1 -14    2.00    0.40
   2   1 -14    1.70    0.30
  -2  -1 -14    0.90    0.60
  -2   2 -14    6.60    1.20
   2  -2 -14    6.80    1.00
   2   2 -14    6.60    0.90
  -2  -2 -14    5.90    1.00
   2  -3 -14    3.50    0.90
  -2   3 -14    2.90    1.00
  -2  -3 -14    3.40    1.00
   2   3 -14    2.90    0.70
   2  -4 -14    5.10    1.20
  -2   4 -14    6.20    1.40
   2   4 -14    4.90    1.00
  -2  -4 -14    5.70    1.30
  -2   5 -14   10.20    1.70
   2  -5 -14    8.70    1.70
  -2  -5 -14    9.40    1.80
   2   5 -14    8.70    1.50
   3   0 -14  188.08    5.30
  -3   0 -14  164.38    5.70
   3   0 -14  166.88    5.10
  -3   1 -14  101.29    3.80
   3  -1 -14   95.79    3.30
  -3  -1 -14   97.89    3.70
   3  -2 -14  128.29    4.40
  -3   2 -14  127.59    5.00
   3   2 -14  131.09    4.10
  -3  -2 -14  131.59    4.80
   3  -3 -14  555.44   16.70
  -3   3 -14  555.14   17.10
   3   3 -14  556.74   16.40
  -3  -3 -14  571.34   17.20
   3  -4 -14    0.30    0.90
   3  -4 -14    0.50    0.90
  -3   4 -14    0.00    0.90
  -3  -4 -14    5.20    1.40
  -3   5 -14   17.50    2.30
   3  -5 -14   18.00    2.20
  -3  -5 -14   17.40    2.20
   3   5 -14   17.70    1.80
   4   0 -14    0.70    0.30
   4   0 -14    0.60    0.30
  -4   0 -14    1.30    0.70
   4  -1 -14    7.30    0.80
  -4   1 -14    8.60    1.40
  -4  -1 -14    8.30    1.30
   4  -2 -14    0.30    0.50
  -4   2 -14   -0.10    0.90
  -4  -2 -14   -0.40    0.70
   4  -3 -14    1.70    0.80
  -4   3 -14    1.70    1.10
  -4  -3 -14    3.20    1.10
   4   3 -14    2.80    0.60
  -4   4 -14    0.80    1.10
   4  -4 -14    1.20    0.90
  -4  -4 -14    1.50    1.10
   4   4 -14    0.70    0.70
   4  -5 -14    1.60    1.20
  -4   5 -14    1.40    1.20
   4   5 -14    2.80    1.00
  -4  -5 -14    2.90    1.40
   5   0 -14  287.77    8.30
  -5   0 -14  282.97    9.20
  -5   1 -14  480.55   14.80
   5  -1 -14  474.45   13.80
  -5  -1 -14  468.45   14.30
   5  -2 -14    4.30    0.80
  -5   2 -14    2.60    1.20
  -5  -2 -14    2.20    0.90
   5  -3 -14  186.88    6.50
  -5   3 -14  194.18    7.30
  -5  -3 -14  202.18    7.10
   5   3 -14  187.48    6.00
   5  -4 -14   31.80    2.30
  -5   4 -14   29.90    2.70
   5   4 -14   31.90    1.80
  -5  -4 -14   30.40    2.70
  -6   0 -14   -0.30    0.80
   6   0 -14    0.60    0.40
  -6   1 -14    0.80    1.00
   6  -1 -14    1.50    0.50
  -6  -1 -14    0.30    0.80
  -6   2 -14    7.00    1.50
   6  -2 -14    7.50    1.10
  -6  -2 -14    6.40    1.20
  -6   3 -14    0.40    1.10
   6  -3 -14    0.20    0.70
   6   3 -14    0.20    0.50
  -6  -3 -14    1.00    1.00
   6  -4 -14    0.40    0.90
  -6   4 -14   -0.60    1.10
  -6  -4 -14    1.10    1.20
   6   4 -14    0.30    0.60
  -7   0 -14   15.20    1.90
   7   0 -14   17.10    1.00
   7  -1 -14   28.10    1.50
  -7   1 -14   21.80    2.30
  -7  -1 -14   22.40    2.10
   7  -2 -14  166.58    5.60
  -7   2 -14  166.68    6.60
  -7  -2 -14  166.48    6.30
  -7   3 -14    3.30    1.40
   7  -3 -14    3.20    0.90
  -7  -3 -14    4.00    1.40
   7   3 -14    7.60    0.90
   7  -4 -14   64.09    3.40
  -7   4 -14   61.99    4.00
   7   4 -14   61.59    2.70
  -7  -4 -14   66.79    3.90
  -8   0 -14    1.00    1.00
   8   0 -14    0.10    0.50
   8  -1 -14    1.50    0.70
  -8   1 -14    1.00    1.20
  -8  -1 -14    1.90    1.10
   8  -2 -14    0.80    0.70
  -8   2 -14   -0.30    1.10
   8   2 -14    0.20    0.30
  -8  -2 -14   -0.90    0.90
  -8   3 -14    2.60    1.40
   8  -3 -14    3.40    1.10
   8   3 -14    3.40    0.70
  -8  -3 -14    1.30    1.30
   8  -4 -14    6.30    1.40
  -8   4 -14    6.70    1.80
  -8  -4 -14    7.20    1.70
   8   4 -14    8.30    1.20
   9   0 -14 1775.22   49.90
  -9   0 -14 1766.72   51.39
   9  -1 -14   36.00    2.00
  -9   1 -14   34.70    2.90
   9   1 -14   32.70    1.40
  -9  -1 -14   31.70    2.70
   9  -2 -14  192.68    6.60
  -9   2 -14  184.98    7.50
  -9  -2 -14  193.28    7.40
   9   2 -14  194.28    5.80
   9  -3 -14  148.89    5.70
  -9   3 -14  153.68    6.50
  -9  -3 -14  149.39    6.40
   9   3 -14  147.79    4.80
 -10   0 -14    2.40    1.40
  10   0 -14    2.20    0.70
  10  -1 -14    7.70    1.30
 -10   1 -14    7.50    1.80
  10   1 -14    7.40    0.90
 -10  -1 -14    7.80    1.70
 -10   2 -14    2.60    1.40
  10  -2 -14    0.90    0.90
  10   2 -14    0.90    0.50
 -10  -2 -14    1.60    1.20
 -10   3 -14    0.10    1.20
  10  -3 -14    0.30    1.00
  10   3 -14    0.50    0.50
 -10  -3 -14    0.60    1.20
  11   0 -14    2.40    0.70
 -11   0 -14    4.10    1.60
 -11   1 -14   74.69    4.40
  11  -1 -14   74.89    3.30
  11   1 -14   71.59    2.70
 -11  -1 -14   72.29    4.10
  11  -2 -14    1.50    1.00
 -11   2 -14    0.50    1.30
  11   2 -14    2.10    0.60
 -11  -2 -14    1.00    1.30
 -11   3 -14  169.38    7.20
  11  -3 -14  167.88    6.60
 -11  -3 -14  165.18    7.10
  11   3 -14  163.88    5.40
  12   0 -14   11.70    1.30
 -12   0 -14   11.50    2.20
 -12   1 -14    2.90    1.60
  12  -1 -14    1.10    0.90
  12   1 -14    3.00    0.70
 -12  -1 -14    3.10    1.50
  12  -2 -14    0.30    0.90
 -12   2 -14    2.00    1.40
 -12  -2 -14    0.20    1.30
  12   2 -14    1.10    0.60
 -13   0 -14   10.50    2.10
 -13   1 -14   37.30    3.40
  13  -1 -14   32.20    2.20
 -13  -1 -14   31.80    3.00
  13   1 -14   31.60    1.80
   0   0 -15    0.40    0.40
   0  -1 -15    0.00    0.50
   0   1 -15    0.90    0.50
   0  -2 -15   55.49    2.50
   0   2 -15   53.29    2.40
   0  -3 -15    0.20    0.80
   0   3 -15    0.50    0.80
   0  -4 -15    4.90    1.20
   0   4 -15    6.20    1.30
   1   0 -15    0.20    0.40
  -1   0 -15    0.90    0.50
   1  -1 -15  113.29    3.90
  -1   1 -15  119.29    4.00
  -1  -1 -15  114.19    4.20
   1   1 -15  125.89    3.80
   1  -2 -15   28.00    1.70
  -1   2 -15   28.60    1.90
  -1  -2 -15   27.40    1.80
   1   2 -15   28.40    1.50
  -1   3 -15    5.40    1.20
   1  -3 -15    7.90    1.30
   1   3 -15    5.90    1.10
  -1  -3 -15    7.10    1.20
  -1   4 -15    7.00    1.40
   1  -4 -15    6.20    1.30
   1   4 -15    7.90    1.40
  -1  -4 -15    4.70    1.20
   2   0 -15    0.40    0.30
  -2   0 -15    0.10    0.50
   2  -1 -15  309.87    9.10
  -2   1 -15  300.57    9.40
  -2  -1 -15  307.27    9.60
   2   1 -15  315.67    8.90
  -2   2 -15   10.80    1.50
   2  -2 -15   10.30    1.20
  -2  -2 -15   10.90    1.40
   2   2 -15   11.70    0.90
  -2   3 -15   68.39    3.50
   2  -3 -15   70.09    3.10
  -2  -3 -15   69.69    3.30
   2   3 -15   69.39    2.90
  -2   4 -15  137.09    5.60
   2  -4 -15  137.49    5.40
   2   4 -15  137.49    5.10
  -2  -4 -15  137.69    5.50
   3   0 -15    0.50    0.30
  -3   0 -15    0.20    0.60
  -3   1 -15  317.57    9.90
   3  -1 -15  318.77    9.40
  -3  -1 -15  329.07   10.20
   3  -2 -15   38.20    1.90
  -3   2 -15   38.60    2.50
  -3  -2 -15   42.00    2.40
   3  -3 -15   17.50    1.60
  -3   3 -15   17.70    2.10
  -3  -3 -15   20.90    2.00
   3   3 -15   19.20    1.40
   3  -4 -15  103.29    4.40
  -3   4 -15  104.09    4.80
   3  -4 -15  102.89    4.40
  -3  -4 -15  105.09    4.60
   3   4 -15   96.99    3.90
  -4   0 -15    0.00    0.60
   4   0 -15    0.30    0.30
   4  -1 -15  300.87    9.10
  -4   1 -15  310.07    9.80
  -4  -1 -15  303.07    9.60
   4  -2 -15   68.59    2.80
   4  -2 -15   71.59    2.80
  -4   2 -15   71.39    3.50
  -4  -2 -15   71.89    3.30
  -4   3 -15    6.60    1.50
   4  -3 -15    9.20    1.40
  -4  -3 -15    9.90    1.60
   4   3 -15    7.20    0.90
  -4   4 -15    1.50    1.30
   4  -4 -15    1.50    1.00
  -4  -4 -15    1.30    1.10
   4   4 -15    2.20    0.80
  -5   0 -15    0.40    0.70
   5   0 -15    0.20    0.30
  -5   1 -15   18.20    1.90
   5  -1 -15   17.70    1.10
  -5  -1 -15   15.20    1.60
  -5   2 -15    6.90    1.50
   5  -2 -15    5.40    1.00
  -5  -2 -15    5.50    1.20
  -5   3 -15    5.50    1.50
   5  -3 -15    6.60    1.10
   5   3 -15    4.50    0.80
  -5  -3 -15    6.10    1.30
   5  -4 -15    0.20    0.90
  -5   4 -15   -0.20    1.20
  -5  -4 -15    0.30    1.10
   5   4 -15   -0.30    0.60
   6   0 -15    1.20    0.40
  -6   0 -15   -0.50    0.80
   6  -1 -15    5.10    0.80
  -6   1 -15    5.20    1.30
  -6  -1 -15    5.10    1.20
  -6   2 -15   73.89    3.90
   6  -2 -15   75.69    3.00
  -6  -2 -15   76.49    3.70
   6  -3 -15    4.40    1.00
  -6   3 -15    6.20    1.60
  -6  -3 -15    3.80    1.30
   6   3 -15    4.20    0.70
  -6   4 -15    5.40    1.60
   6  -4 -15    6.10    1.30
  -6  -4 -15    5.30    1.50
   6   4 -15    5.60    1.00
  -7   0 -15   -0.20    0.90
   7   0 -15    0.10    0.40
  -7   1 -15    3.30    1.30
   7  -1 -15    4.90    0.90
  -7  -1 -15    5.40    1.30
  -7   2 -15  127.19    5.60
   7  -2 -15  130.19    4.60
  -7  -2 -15  131.79    5.40
  -7   3 -15   15.70    2.40
   7  -3 -15   15.80    1.70
  -7  -3 -15   17.30    2.20
   7   3 -15   16.00    1.00
   7  -4 -15  153.68    6.10
  -7   4 -15  162.08    6.90
  -7  -4 -15  156.88    6.40
   7   4 -15  135.29    4.90
  -8   0 -15   -0.60    1.00
   8   0 -15    0.40    0.40
  -8   1 -15    0.70    1.20
   8  -1 -15    2.30    0.80
  -8  -1 -15    0.30    1.10
  -8   2 -15  154.68    6.50
   8  -2 -15  158.28    5.50
  -8  -2 -15  162.78    6.40
   8  -3 -15   24.40    2.00
  -8   3 -15   24.90    2.80
   8   3 -15   21.10    1.20
  -8  -3 -15   20.20    2.40
   9   0 -15    0.20    0.50
  -9   0 -15    0.80    1.10
  -9   1 -15    1.10    1.30
   9  -1 -15    1.10    0.70
  -9  -1 -15    0.20    1.10
  -9   2 -15  148.19    6.40
   9  -2 -15  146.89    5.40
  -9  -2 -15  152.78    6.30
  -9   3 -15    2.70    1.50
   9  -3 -15    1.50    1.00
   9   3 -15    2.50    0.60
  -9  -3 -15    0.60    1.30
  10   0 -15    0.10    0.50
 -10   0 -15    0.00    1.20
  10  -1 -15    4.00    0.90
 -10   1 -15    2.90    1.50
  10   1 -15    3.40    0.50
 -10  -1 -15    4.70    1.50
 -10   2 -15   25.80    2.90
  10  -2 -15   26.70    2.10
  10   2 -15   26.20    1.20
 -10  -2 -15   25.00    2.70
  10  -3 -15    7.20    1.40
 -10   3 -15    7.30    1.90
  10   3 -15    8.60    0.90
 -10  -3 -15    5.80    1.70
 -11   0 -15    0.40    1.30
  11   0 -15   -0.20    0.50
 -11   1 -15    6.50    1.80
  11  -1 -15    6.90    1.10
 -11  -1 -15    5.80    1.70
  11   1 -15    7.90    0.90
 -11   2 -15    0.90    1.40
  11  -2 -15    1.20    1.00
  11   2 -15    0.70    0.40
 -11  -2 -15    2.10    1.30
  12   0 -15   -0.40    0.60
 -12   0 -15   -0.70    1.30
 -12   1 -15   66.89    4.40
  12  -1 -15   63.79    3.00
 -12  -1 -15   57.69    3.90
  12   1 -15   61.39    2.40
 -13   0 -15   -0.50    1.40
  13   0 -15    0.70    0.70
   0   0 -16  134.59    4.40
   0   1 -16    0.40    0.40
   0  -1 -16    1.30    0.60
   0   2 -16   60.99    2.50
   0  -2 -16   61.39    2.70
   0  -3 -16    0.80    0.80
   0   3 -16    2.40    0.90
   0  -4 -16   17.30    2.00
   0   4 -16   19.20    2.00
  -1   0 -16    0.40    0.50
   1   0 -16    0.40    0.40
   1  -1 -16   12.50    1.10
  -1   1 -16   12.40    1.10
  -1  -1 -16   12.00    1.20
   1   1 -16   13.50    0.80
  -1   2 -16   11.80    1.30
   1  -2 -16   11.10    1.30
   1   2 -16   11.60    1.00
  -1  -2 -16    9.60    1.30
  -1   3 -16    1.90    1.10
   1  -3 -16    2.60    0.90
  -1  -3 -16    3.60    1.10
   1   3 -16    2.60    0.90
  -1   4 -16    3.70    1.30
   1  -4 -16    2.20    1.00
   1   4 -16    3.90    1.10
  -1  -4 -16    3.60    1.20
   2   0 -16   70.89    2.30
  -2   0 -16   64.09    2.70
  -2   1 -16    1.40    0.60
   2  -1 -16    0.70    0.50
  -2  -1 -16    0.60    0.60
   2  -2 -16 1316.97   37.80
  -2   2 -16 1335.17   38.10
  -2  -2 -16 1289.57   38.10
   2   2 -16 1366.06   37.30
   2  -3 -16 1217.68   34.20
  -2   3 -16 1147.09   34.60
  -2  -3 -16 1175.18   34.90
   2   3 -16 1226.18   34.40
  -2   4 -16  429.96   13.90
   2  -4 -16  424.26   13.50
   2   4 -16  395.26   12.70
  -2  -4 -16  423.46   13.30
  -3   0 -16   27.80    1.70
   3   0 -16   24.60    1.10
   3  -1 -16   14.80    1.10
  -3   1 -16   15.70    1.50
  -3  -1 -16   14.70    1.40
   3  -2 -16    7.70    1.10
  -3   2 -16    8.50    1.50
  -3  -2 -16    7.80    1.40
  -3   3 -16   15.50    2.10
   3  -3 -16   17.30    1.70
   3   3 -16   17.80    1.30
  -3  -3 -16   18.60    1.90
   3  -4 -16   10.10    1.70
  -3   4 -16    8.80    1.80
   3   4 -16    8.80    1.30
  -3  -4 -16   13.30    2.00
   4   0 -16 1026.50   28.00
  -4   0 -16  970.00   28.90
   4  -1 -16 1934.91   54.49
  -4   1 -16 1909.91   54.79
  -4  -1 -16 1883.41   53.59
   4  -2 -16  102.19    3.80
   4  -2 -16  101.29    3.80
  -4   2 -16  106.99    4.50
  -4  -2 -16  103.19    4.30
   4  -3 -16   77.29    3.40
  -4   3 -16   73.89    4.00
  -4  -3 -16   82.19    3.90
   4   3 -16   81.89    2.90
   4  -4 -16  176.08    6.60
  -4   4 -16  178.28    7.20
  -4  -4 -16  190.28    6.90
   4   4 -16  160.58    5.80
  -5   0 -16   37.00    2.30
  -5   1 -16   42.50    2.60
   5  -1 -16   37.20    1.70
  -5  -1 -16   37.80    2.30
   5  -2 -16    7.50    1.10
  -5   2 -16    5.70    1.40
  -5  -2 -16    5.50    1.20
   5  -3 -16   10.80    1.50
  -5   3 -16   11.70    2.20
  -5  -3 -16    9.50    1.80
   5  -4 -16   11.90    1.80
  -5   4 -16   12.90    2.40
  -5  -4 -16   13.20    2.20
   5   4 -16    9.30    1.20
  -6   0 -16 1648.24   47.40
  -6   1 -16   19.80    2.10
   6  -1 -16   19.30    1.30
  -6  -1 -16   14.70    1.70
   6  -2 -16  159.28    5.40
  -6   2 -16  159.48    6.40
  -6  -2 -16  159.28    6.10
  -6   3 -16  106.89    5.10
   6  -3 -16  104.89    4.20
  -6  -3 -16  104.39    4.80
  -7   0 -16    5.80    1.30
   7  -1 -16   11.60    1.10
  -7   1 -16   10.60    2.00
  -7  -1 -16   12.50    1.80
  -7   2 -16   13.60    2.20
   7  -2 -16   13.60    1.40
  -7  -2 -16   12.50    1.90
   7  -3 -16   17.80    1.80
  -7   3 -16   13.80    2.40
  -7  -3 -16   19.90    2.30
   8   0 -16  193.28    5.70
  -8   0 -16  183.08    7.10
  -8   1 -16  344.37   12.00
   8  -1 -16  361.46   10.80
  -8  -1 -16  328.07   11.00
  -8   2 -16 1369.86   41.40
   8  -2 -16 1431.66   40.20
  -8  -2 -16 1336.97   39.20
  -8   3 -16  306.57   11.00
   8  -3 -16  296.27    9.90
  -8  -3 -16  293.67   10.40
  -9   0 -16   11.10    1.90
   9   0 -16   11.20    0.90
  -9   1 -16   -0.10    1.20
   9  -1 -16    0.40    0.70
  -9  -1 -16    0.60    1.10
  -9   2 -16    1.90    1.40
   9  -2 -16    1.20    0.90
  -9  -2 -16    1.20    1.20
  -9   3 -16    6.20    1.80
   9  -3 -16    9.00    1.70
  -9  -3 -16    7.60    1.80
  10   0 -16   25.20    1.40
 -10   0 -16   22.60    2.70
 -10   1 -16   58.39    4.00
  10  -1 -16   58.69    2.70
 -10  -1 -16   50.69    3.40
 -10   2 -16  503.45   17.00
  10  -2 -16  526.65   15.80
 -10  -2 -16  478.95   15.70
 -11   0 -16    3.90    1.60
  11   0 -16    5.30    0.80
  11  -1 -16    1.90    0.80
 -11   1 -16    1.40    1.50
 -11  -1 -16    2.30    1.30
  12   0 -16   25.90    1.60
 -12   0 -16   24.20    3.10
   0   0 -17    1.00    0.50
   0  -1 -17   -0.20    0.50
   0   1 -17    0.50    0.40
   0   2 -17   20.50    1.30
   0  -2 -17   19.20    1.60
   0   3 -17    1.40    0.90
   0  -3 -17    0.30    0.80
   0  -4 -17    1.10    1.00
   0   4 -17    3.50    1.30
   1   0 -17    0.40    0.40
  -1   0 -17    0.10    0.50
   1  -1 -17   96.09    3.50
  -1   1 -17  101.69    3.50
   1   1 -17  100.19    3.20
  -1  -1 -17   97.49    3.70
   1  -2 -17   49.40    2.40
  -1   2 -17   48.10    2.30
   1   2 -17   53.89    2.00
  -1  -2 -17   50.39    2.60
   1  -3 -17    4.80    1.10
  -1   3 -17    4.10    1.10
   1   3 -17    4.90    1.00
  -1  -3 -17    3.50    1.10
  -1   4 -17   33.60    2.70
   1  -4 -17   37.80    2.60
   1   4 -17   33.50    2.40
  -1  -4 -17   39.30    2.70
  -2   0 -17   -0.20    0.50
   2   0 -17    0.40    0.40
  -2   1 -17  192.78    6.40
   2  -1 -17  198.38    6.20
  -2  -1 -17  196.28    6.50
   2  -2 -17   19.60    1.50
  -2   2 -17   22.30    1.70
  -2  -2 -17   20.20    1.70
  -2   3 -17   34.80    2.50
   2  -3 -17   37.30    2.20
  -2  -3 -17   39.20    2.50
   2   3 -17   38.70    1.90
  -2   4 -17   82.49    4.40
   2  -4 -17   92.79    4.10
  -2  -4 -17   85.69    4.10
   2   4 -17   80.89    3.60
  -3   0 -17    0.50    0.70
   3   0 -17    0.30    0.30
  -3   1 -17  272.47    8.70
   3  -1 -17  277.17    8.30
  -3  -1 -17  272.27    8.70
  -3   2 -17   74.69    3.40
   3  -2 -17   72.59    3.00
  -3  -2 -17   67.89    3.20
   3  -3 -17   47.40    2.50
  -3   3 -17   44.00    2.90
   3   3 -17   49.60    2.00
  -3  -3 -17   44.50    2.80
   3  -4 -17   59.89    3.30
  -3   4 -17   64.19    3.90
  -3  -4 -17   68.09    3.60
   3   4 -17   57.79    2.80
  -4   0 -17    1.30    0.80
   4  -1 -17  167.88    5.30
  -4   1 -17  168.48    6.00
  -4  -1 -17  159.48    5.70
  -4   2 -17   64.39    3.40
   4  -2 -17   70.49    2.90
  -4  -2 -17   65.99    3.30
  -4   3 -17    1.50    1.20
   4  -3 -17   -0.30    0.70
  -4  -3 -17    1.40    1.00
  -5   0 -17    1.00    0.80
  -5   1 -17   83.49    3.80
   5  -1 -17   87.39    3.00
  -5  -1 -17   82.49    3.70
   5  -2 -17   -0.30    0.60
  -5   2 -17    0.90    1.00
  -5  -2 -17    0.20    0.90
   5  -3 -17    0.50    0.80
  -5   3 -17    1.40    1.20
  -5  -3 -17    1.00    1.00
  -6   0 -17    2.70    1.00
  -6   1 -17    2.10    1.10
   6  -1 -17    0.30    0.50
  -6  -1 -17    0.30    0.80
  -6   2 -17   61.59    3.60
   6  -2 -17   57.89    2.60
  -6  -2 -17   55.29    3.10
  -6   3 -17    6.00    1.70
   6  -3 -17    8.10    1.40
  -6  -3 -17    8.70    1.60
  -7   0 -17    1.10    1.00
   7  -1 -17    0.40    0.60
  -7   1 -17    0.10    1.10
  -7  -1 -17    0.60    1.00
  -7   2 -17  123.99    5.60
   7  -2 -17  122.99    4.50
  -7  -2 -17  121.19    5.20
   7  -3 -17    1.60    0.90
  -7   3 -17    2.80    1.50
  -7  -3 -17    0.20    1.10
  -8   0 -17    0.40    1.10
  -8   1 -17    2.10    1.30
   8  -1 -17    2.50    0.80
  -8  -1 -17    2.50    1.20
  -8   2 -17  161.38    6.80
   8  -2 -17  158.78    5.60
  -8  -2 -17  150.38    6.10
  -9   0 -17   -0.70    1.10
   9  -1 -17    6.10    1.10
  -9   1 -17    5.30    1.70
  -9  -1 -17    6.50    1.60
   9  -2 -17  281.27    9.20
  -9   2 -17  278.77   10.40
  -9  -2 -17  269.67    9.70
 -10   0 -17    0.30    1.30
 -10   1 -17   -0.50    1.40
  10  -1 -17    1.00    0.70
 -10  -1 -17   -0.50    1.10
 -11   0 -17    4.50    1.70
   0   0 -18   44.90    2.00
   0   1 -18    0.80    0.50
   0  -1 -18    0.70    0.60
   0  -2 -18   34.30    2.10
   0   2 -18   34.40    1.70
   0   3 -18    0.60    0.70
   0  -3 -18   -0.20    0.80
   1   0 -18  415.76   12.10
  -1   0 -18  417.16   12.40
  -1   1 -18  623.94   18.10
   1  -1 -18  620.44   18.10
   1   1 -18  658.23   18.10
  -1  -1 -18  616.14   18.70
   1  -2 -18   89.89    3.50
  -1   2 -18   86.79    3.30
  -1  -2 -18   91.39    3.80
   1   2 -18   96.29    3.10
   1  -3 -18   17.40    1.80
  -1   3 -18   19.70    1.70
  -1  -3 -18   16.90    1.80
   1   3 -18   19.80    1.40
  -2   0 -18    4.70    0.90
   2   0 -18    4.70    0.70
  -2   1 -18    1.60    0.70
   2  -1 -18    2.20    0.60
  -2  -1 -18    1.70    0.80
   2  -2 -18   16.80    1.50
  -2   2 -18   17.00    1.50
  -2  -2 -18   15.70    1.70
   2  -3 -18   -0.60    0.70
  -2   3 -18   -0.20    0.80
  -2  -3 -18    0.30    0.90
   2   3 -18    0.00    0.50
  -3   0 -18  215.08    7.10
   3  -1 -18  107.89    3.60
  -3   1 -18  100.69    4.00
  -3  -1 -18  101.59    4.00
  -3   2 -18   60.59    2.90
   3  -2 -18   59.19    2.70
  -3  -2 -18   67.29    3.20
   3  -3 -18 1109.29   31.90
  -3   3 -18 1090.29   32.30
   3  -3 -18 1095.89   31.90
  -3  -3 -18 1135.89   33.40
  -4   0 -18    1.70    0.80
  -4   1 -18    0.80    0.80
   4  -1 -18    0.70    0.50
  -4  -1 -18    0.30    0.70
  -4   2 -18    2.90    1.00
   4  -2 -18    3.00    0.80
  -4  -2 -18    3.90    1.10
  -4   3 -18    1.10    1.10
   4  -3 -18    0.90    0.90
  -4  -3 -18    2.00    1.10
  -5   0 -18    0.50    0.80
  -5   1 -18   65.19    3.20
   5  -1 -18   66.89    2.50
  -5  -1 -18   63.59    3.20
   5  -2 -18    5.90    1.00
  -5   2 -18    5.00    1.30
  -5  -2 -18    1.20    0.90
  -5   3 -18  173.88    7.20
   5  -3 -18  193.08    6.50
  -5  -3 -18  178.68    6.90
  -6   0 -18    0.50    0.90
   6  -1 -18    3.00    0.70
  -6   1 -18    2.40    1.10
  -6  -1 -18    3.70    1.10
  -6   2 -18   -0.80    1.00
   6  -2 -18    0.20    0.70
  -6  -2 -18   -0.10    0.90
  -7   0 -18   54.19    3.10
   7  -1 -18   56.59    2.40
  -7   1 -18   57.39    3.40
  -7  -1 -18   47.30    2.90
   7  -2 -18  557.34   16.20
  -7   2 -18  524.45   17.30
  -7  -2 -18  499.95   15.90
  -8   0 -18    0.80    1.10
  -8   1 -18   21.20    2.50
   8  -1 -18   18.90    1.40
  -8  -1 -18   16.40    2.10
  -8   2 -18    3.40    1.60
   8  -2 -18    2.80    1.00
  -8  -2 -18    2.10    1.20
  -9   0 -18 1881.81   54.59
   9  -1 -18   18.70    1.40
  -9   1 -18   16.00    2.60
  -9  -1 -18   14.70    2.20
   0   0 -19    0.30    0.50
   0  -1 -19   -1.00    0.50
   0   1 -19    0.50    0.50
   0   2 -19   32.90    1.60
   0  -2 -19   29.60    2.00
   0   3 -19    0.40    0.60
   0  -3 -19    0.40    0.80
   1   0 -19    0.90    0.50
  -1   0 -19    0.90    0.60
   1  -1 -19   45.90    2.10
  -1   1 -19   45.30    2.00
   1   1 -19   46.40    1.70
  -1  -1 -19   42.20    2.20
   1  -2 -19   14.40    1.50
  -1   2 -19   14.30    1.20
  -1  -2 -19   17.60    1.70
  -1   3 -19    6.90    1.20
   1  -3 -19    5.30    1.20
   1   3 -19    5.50    0.90
  -1  -3 -19    8.10    1.40
  -2   0 -19   -0.10    0.60
   2   0 -19    0.10    0.40
  -2   1 -19   28.20    1.70
   2  -1 -19   29.10    1.60
  -2  -1 -19   31.00    2.00
   2  -2 -19    2.00    0.80
  -2   2 -19    3.30    0.90
  -2  -2 -19    2.00    0.90
  -2   3 -19    1.10    0.80
   2  -3 -19   -0.10    0.80
  -2  -3 -19    0.30    1.00
  -3   0 -19    0.30    0.70
  -3   1 -19   16.90    1.50
   3  -1 -19   21.40    1.30
  -3  -1 -19   18.60    1.70
  -3   2 -19   10.40    1.40
   3  -2 -19   11.20    1.30
  -3  -2 -19   11.90    1.60
  -4   0 -19    0.00    0.70
  -4   1 -19    3.00    0.90
   4  -1 -19    3.60    0.70
  -4  -1 -19    3.30    1.00
  -4   2 -19   17.70    1.80
   4  -2 -19   20.80    1.60
  -4  -2 -19   20.80    2.00
  -5   0 -19    0.20    0.80
  -5   1 -19   10.80    1.60
   5  -1 -19   14.20    1.10
  -5  -1 -19   12.80    1.70
   5  -2 -19    7.10    1.20
  -5   2 -19    6.50    1.40
  -5  -2 -19    7.50    1.40
  -6   0 -19    0.30    0.80
   6  -1 -19   31.90    1.60
  -6   1 -19   28.90    2.40
  -6  -1 -19   29.30    2.30
   6  -2 -19    2.40    0.90
  -6   2 -19   -1.10    1.00
  -6  -2 -19   -0.30    0.90
  -7   0 -19    0.00    0.90
  -7   1 -19   28.50    2.60
   7  -1 -19   31.40    1.70
  -7  -1 -19   27.90    2.40
  -8   0 -19   -0.10    1.00
   0   0 -20 2807.82   78.79
   0   1 -20    0.60    0.50
   0  -1 -20    1.50    0.70
   0  -2 -20  153.88    5.50
   0   2 -20  153.68    4.80
  -1   0 -20    4.50    0.80
   1   0 -20    5.20    0.80
   1  -1 -20   19.50    1.40
  -1   1 -20   18.40    1.30
  -1  -1 -20   23.00    1.70
   1  -2 -20    0.20    0.70
  -1   2 -20    0.40    0.60
  -1  -2 -20   -0.10    0.80
  -2   0 -20    3.40    0.90
   2   0 -20    3.50    0.60
  -2   1 -20    0.00    0.60
   2  -1 -20    1.20    0.60
  -2  -1 -20    1.10    0.70
  -2   2 -20  122.29    4.40
   2  -2 -20  126.59    4.60
  -2  -2 -20  124.79    4.90
  -3   0 -20    1.60    0.80
  -3   1 -20    5.40    1.00
   3  -1 -20    6.30    0.90
  -3  -1 -20    7.50    1.30
   3  -2 -20    1.30    0.80
  -3   2 -20    0.80    0.70
  -3  -2 -20    1.00    0.90
  -4   0 -20   11.50    1.50
  -4   1 -20   41.70    2.40
   4  -1 -20   44.00    1.90
  -4  -1 -20   42.00    2.50
  -5   0 -20    0.50    0.80
  -5   1 -20    0.70    0.80
   5  -1 -20    0.90    0.50
  -5  -1 -20   -0.30    0.80
  -6   0 -20   20.90    2.00
   0  -1 -21    1.10    0.70
   0   1 -21    1.30    0.50
   1   0 -21    0.20    0.50
  -1   0 -21    0.80    0.60
  -2   0 -21   -0.80    0.60
   0   0   0    0.00    0.00
_computing_structure_solution     'SHELXT 2014/5 (Sheldrick, 2014)'
;
_shelx_hkl_checksum              52404
_shelx_res_file
;
TITL mo_grom44_fe7c3_0m_a.res in Pbca
    mo_grom44_fe7c3_0m.res
    created by SHELXL-2018/3 at 14:51:47 on 08-Oct-2018
REM Old TITL mo_grom44_Fe7C3_0m in P2(1)2(1)2(1)
REM SHELXT solution in Pbca
REM R1 0.225, Rweak 0.001, Alpha 0.022, Orientation a'=b, b'=a, c'=-c
REM Formula found by SHELXT: Fe
CELL 0.71073 11.9698 4.524 13.7658 90 90 90
ZERR 4 0.0006 0.0002 0.0006 0 0 0
LATT 1
SYMM 0.5-X,-Y,0.5+Z
SYMM -X,0.5+Y,0.5-Z
SYMM 0.5+X,0.5-Y,-Z
SFAC C Fe
UNIT 24 56
L.S. 10
PLAN  20
SIZE 0.12 0.08 0.04
TEMP 24.85
LIST 4
fmap 2
acta
REM <olex2.extras>
REM <HklSrc "%.\\mo_grom44_Fe7C3_0m.hkl">
REM </olex2.extras>
WGHT    0.036000    1.365000
EXTI    0.003133
FVAR       0.17317
FE1   2    0.582155    0.241102    0.373292    11.00000    0.00189    0.00476 =
         0.00332    0.00030    0.00002    0.00025
FE2   2    0.310837    0.572761    0.467589    11.00000    0.00240    0.00623 =
         0.00373   -0.00011    0.00014    0.00019
FE3   2    0.313116    0.563221    0.283988    11.00000    0.00255    0.00655 =
         0.00381    0.00006   -0.00005    0.00010
FE4   2    0.127241    0.563398    0.374698    11.00000    0.00259    0.00629 =
         0.00389    0.00001    0.00026    0.00011
FE5   2    0.475447    0.250650    0.531092    11.00000    0.00433    0.00416 =
         0.00428   -0.00050    0.00074   -0.00033
FE6   2    0.292532    0.251774    0.625362    11.00000    0.00269    0.00385 =
         0.00577   -0.00047    0.00005   -0.00001
FE7   2    0.476658    0.227646    0.214693    11.00000    0.00374    0.00477 =
         0.00448    0.00063   -0.00079    0.00040
C3    1    0.341134    0.964756    0.232235    11.00000    0.00962    0.00948 =
         0.00895    0.00030    0.00220    0.00129
C1    1    0.439216    0.464643    0.380062    11.00000    0.00395    0.00954 =
         0.01177   -0.00033    0.00092   -0.00050
C2    1    0.343508    0.969657    0.518663    11.00000    0.00893    0.00895 =
         0.00709   -0.00090   -0.00370    0.00013
HKLF 4
REM  mo_grom44_fe7c3_0m_a.res in Pbca
REM wR2 = 0.0663, GooF = S = 1.093, Restrained GooF = 1.093 for all data
REM R1 = 0.0245 for 1268 Fo > 4sig(Fo) and 0.0278 for all 1428 data
REM 92 parameters refined using 0 restraints
END
WGHT      0.0360      1.3650
REM Highest difference peak  1.829,  deepest hole -0.845,  1-sigma level  0.262
Q1    1   0.3116  0.9257  0.2809  11.00000  0.05    1.83
Q2    1   0.3767  0.4291  0.3727  11.00000  0.05    1.80
Q3    1   0.3118  0.9257  0.4639  11.00000  0.05    1.80
Q4    1   0.5150  0.3894  0.3759  11.00000  0.05    0.97
Q5    1   0.3907  0.2482  0.6238  11.00000  0.05    0.88
Q6    1   0.6460  0.4001  0.3716  11.00000  0.05    0.88
Q7    1   0.5143  0.1367  0.3713  11.00000  0.05    0.80
Q8    1   0.6470  0.1071  0.3783  11.00000  0.05    0.79
Q9    1   0.1883  0.6405  0.3732  11.00000  0.05    0.75
Q10   1   0.3404  0.3688  0.6301  11.00000  0.05    0.73
Q11   1   0.2587  0.4263  0.2813  11.00000  0.05    0.72
Q12   1   0.4098  1.0895  0.2202  11.00000  0.05    0.72
Q13   1   0.4167  0.0935  0.5286  11.00000  0.05    0.70
Q14   1   0.2999  0.3690  0.3832  11.00000  0.05    0.69
Q15   1   0.4181  0.3732  0.5372  11.00000  0.05    0.68
Q16   1   0.3133  0.3826  0.2793  11.00000  0.05    0.68
Q17   1   0.5417  0.3810  0.5386  11.00000  0.05    0.66
Q18   1   0.3074  0.3881  0.4713  11.00000  0.05    0.66
Q19   1   0.5477  0.3872  0.2114  11.00000  0.05    0.64
Q20   1   0.2605  0.4259  0.4698  11.00000  0.05    0.63
;
_shelx_res_checksum              19271
loop_
_space_group_symop_operation_xyz
'x, y, z'
'-x+1/2, -y, z+1/2'
'-x, y+1/2, -z+1/2'
'x+1/2, -y+1/2, -z'
'-x, -y, -z'
'x-1/2, y, -z-1/2'
'x, -y-1/2, z-1/2'
'-x-1/2, y-1/2, z'
loop_
_atom_site_type_symbol
_atom_site_label
_atom_site_fract_x
_atom_site_fract_y
_atom_site_fract_z
_atom_site_U_iso_or_equiv
_atom_site_adp_type
_atom_site_calc_flag
_atom_site_occupancy
Fe Fe1 0.58215(3) 0.24110(7) 0.37329(2) 0.00332(10) Uani d 1
Fe Fe2 0.31084(3) 0.57276(7) 0.46759(2) 0.00412(10) Uani d 1
Fe Fe3 0.31312(3) 0.56322(7) 0.28399(2) 0.00430(9) Uani d 1
Fe Fe4 0.12724(3) 0.56340(8) 0.37470(2) 0.00425(10) Uani d 1
Fe Fe5 0.47545(3) 0.25065(7) 0.53109(2) 0.00425(10) Uani d 1
Fe Fe6 0.29253(3) 0.25177(7) 0.62536(2) 0.00410(10) Uani d 1
Fe Fe7 0.47666(3) 0.22765(7) 0.21469(2) 0.00433(10) Uani d 1
C C3 0.3411(2) 0.9648(5) 0.23224(17) 0.0093(4) Uani d 1
C C1 0.4392(2) 0.4646(6) 0.38006(16) 0.0084(4) Uani d 1
C C2 0.3435(2) 0.9697(5) 0.51866(17) 0.0083(4) Uani d 1
loop_
_atom_site_aniso_label
_atom_site_aniso_U_11
_atom_site_aniso_U_22
_atom_site_aniso_U_33
_atom_site_aniso_U_12
_atom_site_aniso_U_13
_atom_site_aniso_U_23
Fe1 0.00189(17) 0.00476(18) 0.00332(17) 0.00025(9) 0.00002(9) 0.00030(9)
Fe2 0.00240(16) 0.00623(16) 0.00373(15) 0.00019(10) 0.00014(10) -0.00011(10)
Fe3 0.00255(15) 0.00655(16) 0.00381(15) 0.00010(10) -0.00005(10) 0.00006(10)
Fe4 0.00259(16) 0.00629(17) 0.00389(16) 0.00011(11) 0.00026(9) 0.00001(9)
Fe5 0.00433(17) 0.00416(16) 0.00428(16) -0.00033(10) 0.00074(11) -0.00050(9)
Fe6 0.00269(17) 0.00385(17) 0.00577(18) -0.00001(9) 0.00005(9) -0.00047(9)
Fe7 0.00374(16) 0.00477(16) 0.00448(16) 0.00040(10) -0.00079(11) 0.00063(9)
C3 0.0096(10) 0.0095(9) 0.0089(10) 0.0013(8) 0.0022(8) 0.0003(7)
C1 0.0040(10) 0.0095(10) 0.0118(10) -0.0005(8) 0.0009(7) -0.0003(7)
C2 0.0089(10) 0.0089(9) 0.0071(9) 0.0001(8) -0.0037(8) -0.0009(7)
loop_
_atom_type_symbol
_atom_type_description
_atom_type_scat_dispersion_real
_atom_type_scat_dispersion_imag
_atom_type_scat_source
C C 0.0033 0.0016 'International Tables Vol C Tables 4.2.6.8 and 6.1.1.4'
Fe Fe 0.3463 0.8444 'International Tables Vol C Tables 4.2.6.8 and 6.1.1.4'
loop_
_geom_angle_atom_site_label_1
_geom_angle_atom_site_label_2
_geom_angle_atom_site_label_3
_geom_angle_site_symmetry_1
_geom_angle_site_symmetry_3
_geom_angle
Fe2 Fe1 Fe5 5_666 5_656 88.986(13)
Fe2 Fe1 Fe6 5_666 5_656 89.327(14)
Fe3 Fe1 Fe2 3_645 5_666 122.879(17)
Fe3 Fe1 Fe4 3_645 8_655 111.515(15)
Fe3 Fe1 Fe5 3_645 5_656 105.880(15)
Fe3 Fe1 Fe6 3_645 5_656 59.027(12)
Fe4 Fe1 Fe2 8_655 5_666 123.118(15)
Fe4 Fe1 Fe5 8_655 5_656 59.802(13)
Fe4 Fe1 Fe6 8_655 5_656 106.142(16)
Fe5 Fe1 Fe2 . 5_666 62.048(13)
Fe5 Fe1 Fe3 . 3_645 163.147(17)
Fe5 Fe1 Fe4 . 8_655 61.074(13)
Fe5 Fe1 Fe5 . 5_656 57.288(14)
Fe5 Fe1 Fe6 . 5_656 106.927(14)
Fe5 Fe1 Fe6 5_656 5_656 56.667(12)
Fe5 Fe1 Fe7 . . 119.51(2)
Fe5 Fe1 Fe7 . 3_655 104.413(15)
Fe6 Fe1 Fe2 4_556 5_666 60.717(12)
Fe6 Fe1 Fe3 4_556 3_645 62.162(12)
Fe6 Fe1 Fe4 4_556 8_655 162.929(17)
Fe6 Fe1 Fe5 4_556 . 120.011(16)
Fe6 Fe1 Fe5 4_556 5_656 105.350(15)
Fe6 Fe1 Fe6 4_556 5_656 56.802(11)
Fe6 Fe1 Fe7 4_556 3_655 105.213(15)
Fe6 Fe1 Fe7 4_556 . 120.475(16)
Fe7 Fe1 Fe2 . 5_666 163.021(16)
Fe7 Fe1 Fe2 3_655 5_666 104.116(14)
Fe7 Fe1 Fe3 . 3_645 61.213(13)
Fe7 Fe1 Fe3 3_655 3_645 90.264(13)
Fe7 Fe1 Fe4 . 8_655 61.471(13)
Fe7 Fe1 Fe4 3_655 8_655 90.238(15)
Fe7 Fe1 Fe5 3_655 5_656 149.361(19)
Fe7 Fe1 Fe5 . 5_656 106.064(15)
Fe7 Fe1 Fe6 . 5_656 105.386(14)
Fe7 Fe1 Fe6 3_655 5_656 148.624(16)
Fe7 Fe1 Fe7 . 3_655 58.908(9)
C3 Fe1 Fe2 3_645 5_666 102.50(7)
C3 Fe1 Fe3 3_645 3_645 48.37(7)
C3 Fe1 Fe4 3_645 8_655 126.78(7)
C3 Fe1 Fe5 3_645 5_656 154.02(7)
C3 Fe1 Fe5 3_645 . 148.48(7)
C3 Fe1 Fe6 3_645 4_556 62.52(7)
C3 Fe1 Fe6 3_645 5_656 99.73(7)
C3 Fe1 Fe7 3_645 . 67.19(7)
C3 Fe1 Fe7 3_645 3_655 50.06(7)
C1 Fe1 Fe2 . 5_666 102.33(7)
C1 Fe1 Fe3 . 3_645 127.19(6)
C1 Fe1 Fe4 . 8_655 48.40(7)
C1 Fe1 Fe5 . . 61.00(7)
C1 Fe1 Fe5 . 5_656 100.25(7)
C1 Fe1 Fe6 . 4_556 148.54(8)
C1 Fe1 Fe6 . 5_656 154.34(8)
C1 Fe1 Fe7 . . 67.81(7)
C1 Fe1 Fe7 . 3_655 50.28(7)
C1 Fe1 C3 . 3_645 99.91(10)
C2 Fe1 Fe2 5_666 5_666 47.18(7)
C2 Fe1 Fe3 5_666 3_645 104.91(7)
C2 Fe1 Fe4 5_666 8_655 106.00(7)
C2 Fe1 Fe5 5_666 . 65.68(7)
C2 Fe1 Fe5 5_666 5_656 49.09(7)
C2 Fe1 Fe6 5_666 5_656 48.99(7)
C2 Fe1 Fe6 5_666 4_556 63.31(7)
C2 Fe1 Fe7 5_666 . 149.79(7)
C2 Fe1 Fe7 5_666 3_655 151.29(7)
C2 Fe1 C3 5_666 3_645 125.81(11)
C2 Fe1 C1 5_666 . 126.63(10)
Fe1 Fe2 Fe2 5_666 8_655 121.614(9)
Fe1 Fe2 Fe5 5_666 5_666 56.169(12)
Fe3 Fe2 Fe1 . 5_666 145.019(16)
Fe3 Fe2 Fe2 . 8_655 89.512(9)
Fe3 Fe2 Fe4 . . 60.415(12)
Fe3 Fe2 Fe4 . 8_665 62.083(12)
Fe3 Fe2 Fe5 . 5_666 90.090(13)
Fe3 Fe2 Fe5 . . 108.552(15)
Fe3 Fe2 Fe6 . 8_665 146.800(16)
Fe3 Fe2 Fe6 . . 145.052(16)
Fe4 Fe2 Fe1 8_665 5_666 89.858(13)
Fe4 Fe2 Fe1 . 5_666 146.230(17)
Fe4 Fe2 Fe2 8_665 8_655 148.245(12)
Fe4 Fe2 Fe2 . 8_655 61.194(15)
Fe4 Fe2 Fe4 . 8_665 90.741(16)
Fe4 Fe2 Fe5 8_665 5_666 59.325(12)
Fe4 Fe2 Fe5 . . 144.494(17)
Fe4 Fe2 Fe5 . 5_666 146.437(16)
Fe4 Fe2 Fe6 . . 109.579(17)
Fe4 Fe2 Fe6 . 8_665 90.793(14)
Fe5 Fe2 Fe1 . 5_666 62.506(13)
Fe5 Fe2 Fe2 5_666 8_655 140.117(16)
Fe5 Fe2 Fe2 . 8_655 86.505(12)
Fe5 Fe2 Fe4 . 8_665 114.633(16)
Fe5 Fe2 Fe5 . 5_666 56.072(14)
Fe5 Fe2 Fe6 . . 58.316(14)
Fe5 Fe2 Fe6 . 8_665 104.567(16)
Fe6 Fe2 Fe1 . 5_666 62.341(12)
Fe6 Fe2 Fe1 8_665 5_666 56.721(14)
Fe6 Fe2 Fe2 8_665 8_655 90.243(14)
Fe6 Fe2 Fe2 . 8_655 59.273(9)
Fe6 Fe2 Fe4 8_665 8_665 105.705(14)
Fe6 Fe2 Fe4 . 8_665 151.821(16)
Fe6 Fe2 Fe5 . 5_666 103.843(16)
Fe6 Fe2 Fe5 8_665 5_666 110.609(15)
Fe6 Fe2 Fe6 . 8_665 56.401(11)
C1 Fe2 Fe1 . 5_666 101.61(7)
C1 Fe2 Fe2 . 8_655 102.06(7)
C1 Fe2 Fe3 . . 52.35(7)
C1 Fe2 Fe4 . 8_665 72.73(7)
C1 Fe2 Fe4 . . 110.77(7)
C1 Fe2 Fe5 . 5_666 49.30(7)
C1 Fe2 Fe5 . . 59.13(7)
C1 Fe2 Fe6 . . 115.15(7)
C1 Fe2 Fe6 . 8_665 158.29(7)
C1 Fe2 C2 . 8_655 147.75(10)
C2 Fe2 Fe1 8_655 5_666 102.97(7)
C2 Fe2 Fe1 . 5_666 47.51(7)
C2 Fe2 Fe2 . 8_655 151.03(7)
C2 Fe2 Fe2 8_655 8_655 46.72(7)
C2 Fe2 Fe3 . . 111.76(7)
C2 Fe2 Fe3 8_655 . 110.61(7)
C2 Fe2 Fe4 . . 111.51(7)
C2 Fe2 Fe4 . 8_665 49.95(7)
C2 Fe2 Fe4 8_655 . 51.99(7)
C2 Fe2 Fe4 8_655 8_665 127.59(7)
C2 Fe2 Fe5 8_655 . 116.35(7)
C2 Fe2 Fe5 8_655 5_666 159.13(7)
C2 Fe2 Fe5 . 5_666 62.34(7)
C2 Fe2 Fe5 . . 103.92(7)
C2 Fe2 Fe6 8_655 . 60.66(7)
C2 Fe2 Fe6 . . 103.06(7)
C2 Fe2 Fe6 8_655 8_665 49.93(7)
C2 Fe2 Fe6 . 8_665 61.11(7)
C2 Fe2 C1 . . 106.49(10)
C2 Fe2 C2 . 8_655 105.47(11)
Fe1 Fe3 Fe4 3_655 8_655 121.009(15)
Fe1 Fe3 Fe4 3_655 8_665 89.901(13)
Fe1 Fe3 Fe6 3_655 2_564 56.894(14)
Fe1 Fe3 Fe7 3_655 . 61.792(12)
Fe2 Fe3 Fe1 . 3_655 145.446(16)
Fe2 Fe3 Fe4 . 8_665 61.500(12)
Fe2 Fe3 Fe4 . . 60.083(12)
Fe2 Fe3 Fe4 . 8_655 63.347(12)
Fe2 Fe3 Fe6 . 2_564 144.164(16)
Fe2 Fe3 Fe6 . 7_565 147.334(16)
Fe2 Fe3 Fe7 . 3_655 89.919(14)
Fe2 Fe3 Fe7 . . 112.147(15)
Fe4 Fe3 Fe1 . 3_655 144.992(16)
Fe4 Fe3 Fe4 . 8_665 90.228(16)
Fe4 Fe3 Fe4 . 8_655 90.258(16)
Fe4 Fe3 Fe4 8_655 8_665 115.096(16)
Fe4 Fe3 Fe6 . 2_564 89.261(14)
Fe4 Fe3 Fe6 . 7_565 109.037(17)
Fe4 Fe3 Fe7 . . 144.997(17)
Fe4 Fe3 Fe7 . 3_655 146.385(16)
Fe6 Fe3 Fe1 7_565 3_655 61.616(13)
Fe6 Fe3 Fe4 2_564 8_655 140.810(16)
Fe6 Fe3 Fe4 7_565 8_665 150.752(16)
Fe6 Fe3 Fe4 2_564 8_665 104.092(14)
Fe6 Fe3 Fe4 7_565 8_655 87.390(13)
Fe6 Fe3 Fe6 7_565 2_564 56.064(11)
Fe6 Fe3 Fe7 7_565 3_655 104.491(16)
Fe6 Fe3 Fe7 7_565 . 57.223(14)
Fe7 Fe3 Fe1 3_655 3_655 57.417(12)
Fe7 Fe3 Fe4 . 8_665 116.978(16)
Fe7 Fe3 Fe4 . 8_655 59.233(12)
Fe7 Fe3 Fe4 3_655 8_655 88.884(14)
Fe7 Fe3 Fe4 3_655 8_665 60.147(13)
Fe7 Fe3 Fe6 3_655 2_564 111.874(16)
Fe7 Fe3 Fe6 . 2_564 103.630(16)
Fe7 Fe3 Fe7 3_655 . 57.142(9)
C3 Fe3 Fe1 . 3_655 48.84(7)
C3 Fe3 Fe1 8_655 3_655 102.24(7)
C3 Fe3 Fe2 . . 110.24(7)
C3 Fe3 Fe2 8_655 . 110.19(7)
C3 Fe3 Fe4 8_655 . 51.55(7)
C3 Fe3 Fe4 8_655 8_665 126.24(7)
C3 Fe3 Fe4 . 8_665 49.32(7)
C3 Fe3 Fe4 . . 108.88(7)
C3 Fe3 Fe4 . 8_655 153.73(8)
C3 Fe3 Fe4 8_655 8_655 102.76(7)
C3 Fe3 Fe6 8_655 2_564 49.29(7)
C3 Fe3 Fe6 . 7_565 102.42(7)
C3 Fe3 Fe6 8_655 7_565 60.14(7)
C3 Fe3 Fe6 . 2_564 59.75(7)
C3 Fe3 Fe7 8_655 . 114.80(7)
C3 Fe3 Fe7 8_655 3_655 159.64(7)
C3 Fe3 Fe7 . . 105.69(7)
C3 Fe3 Fe7 . 3_655 65.16(8)
C3 Fe3 C3 . 8_655 103.26(11)
C3 Fe3 C1 . . 107.83(10)
C3 Fe3 C1 8_655 . 147.84(10)
C1 Fe3 Fe1 . 3_655 104.25(7)
C1 Fe3 Fe2 . . 50.83(7)
C1 Fe3 Fe4 . 8_655 47.28(7)
C1 Fe3 Fe4 . 8_665 71.82(7)
C1 Fe3 Fe4 . . 108.99(7)
C1 Fe3 Fe6 . 7_565 119.17(7)
C1 Fe3 Fe6 . 2_564 161.07(7)
C1 Fe3 Fe7 . 3_655 49.68(7)
C1 Fe3 Fe7 . . 64.26(7)
Fe1 Fe4 Fe2 8_665 8_655 121.493(16)
Fe1 Fe4 Fe3 8_665 8_665 89.574(14)
Fe1 Fe4 Fe5 8_665 4_456 60.905(13)
Fe1 Fe4 Fe7 8_665 8_665 57.221(12)
Fe1 Fe4 Fe7 8_665 6_556 61.680(13)
Fe2 Fe4 Fe1 . 8_665 145.235(16)
Fe2 Fe4 Fe2 . 8_655 62.129(11)
Fe2 Fe4 Fe3 . 8_665 89.428(15)
Fe2 Fe4 Fe3 8_655 8_665 148.395(18)
Fe2 Fe4 Fe3 . . 59.502(14)
Fe2 Fe4 Fe5 . 8_665 89.246(14)
Fe2 Fe4 Fe5 . 4_456 110.849(15)
Fe2 Fe4 Fe7 . 6_556 145.899(18)
Fe2 Fe4 Fe7 . 8_665 145.397(17)
Fe3 Fe4 Fe1 . 8_665 145.777(16)
Fe3 Fe4 Fe2 . 8_655 89.544(15)
Fe3 Fe4 Fe3 . 8_665 62.606(11)
Fe3 Fe4 Fe5 . 4_456 146.983(18)
Fe3 Fe4 Fe5 . 8_665 144.237(17)
Fe3 Fe4 Fe7 . 6_556 111.374(15)
Fe3 Fe4 Fe7 . 8_665 90.147(13)
Fe5 Fe4 Fe1 8_665 8_665 57.353(12)
Fe5 Fe4 Fe2 8_665 8_655 90.315(13)
Fe5 Fe4 Fe2 4_456 8_655 60.590(12)
Fe5 Fe4 Fe3 4_456 8_665 149.806(18)
Fe5 Fe4 Fe3 8_665 8_665 103.596(15)
Fe5 Fe4 Fe5 8_665 4_456 56.543(14)
Fe5 Fe4 Fe7 4_456 6_556 56.951(14)
Fe5 Fe4 Fe7 8_665 8_665 111.969(17)
Fe5 Fe4 Fe7 8_665 6_556 104.299(16)
Fe7 Fe4 Fe2 6_556 8_655 86.265(15)
Fe7 Fe4 Fe2 8_665 8_655 140.027(17)
Fe7 Fe4 Fe3 8_665 8_665 59.905(12)
Fe7 Fe4 Fe3 6_556 8_665 116.547(15)
Fe7 Fe4 Fe5 8_665 4_456 103.703(16)
Fe7 Fe4 Fe7 8_665 6_556 56.947(9)
C3 Fe4 Fe1 8_655 8_665 103.63(7)
C3 Fe4 Fe2 8_655 . 109.01(7)
C3 Fe4 Fe2 8_655 8_655 103.10(7)
C3 Fe4 Fe3 8_655 . 50.92(7)
C3 Fe4 Fe3 8_655 8_665 71.83(7)
C3 Fe4 Fe5 8_655 8_665 160.87(7)
C3 Fe4 Fe5 8_655 4_456 118.66(7)
C3 Fe4 Fe7 8_655 8_665 49.32(7)
C3 Fe4 Fe7 8_655 6_556 63.73(7)
C3 Fe4 C2 8_655 8_655 147.88(10)
C1 Fe4 Fe1 8_665 8_665 48.61(7)
C1 Fe4 Fe2 8_665 . 108.22(7)
C1 Fe4 Fe2 8_665 8_655 148.81(7)
C1 Fe4 Fe3 8_665 8_665 49.60(7)
C1 Fe4 Fe3 8_665 . 111.61(7)
C1 Fe4 Fe5 8_665 4_456 101.41(7)
C1 Fe4 Fe5 8_665 8_665 59.02(7)
C1 Fe4 Fe7 8_665 6_556 105.56(7)
C1 Fe4 Fe7 8_665 8_665 65.41(7)
C1 Fe4 C3 8_665 8_655 108.02(10)
C1 Fe4 C2 8_665 8_655 102.78(9)
C2 Fe4 Fe1 8_655 8_665 103.42(7)
C2 Fe4 Fe2 8_655 . 51.08(7)
C2 Fe4 Fe2 8_655 8_655 47.08(7)
C2 Fe4 Fe3 8_655 . 108.85(7)
C2 Fe4 Fe3 8_655 8_665 125.28(7)
C2 Fe4 Fe5 8_655 4_456 62.22(7)
C2 Fe4 Fe5 8_655 8_665 49.81(7)
C2 Fe4 Fe7 8_655 6_556 116.33(7)
C2 Fe4 Fe7 8_655 8_665 160.64(7)
Fe1 Fe5 Fe2 . . 95.958(16)
Fe1 Fe5 Fe4 . 4_556 93.739(16)
Fe1 Fe5 Fe4 . 8_655 61.573(14)
Fe1 Fe5 Fe6 . . 151.100(19)
Fe1 Fe5 Fe7 . 7_566 149.203(18)
Fe2 Fe5 Fe4 . 4_556 170.185(18)
Fe2 Fe5 Fe4 . 8_655 63.237(13)
Fe4 Fe5 Fe4 8_655 4_556 123.457(14)
Fe5 Fe5 Fe1 5_656 . 64.481(16)
Fe5 Fe5 Fe1 5_666 . 66.332(16)
Fe5 Fe5 Fe2 5_666 . 63.555(16)
Fe5 Fe5 Fe2 5_656 . 124.92(2)
Fe5 Fe5 Fe4 5_666 8_655 96.98(2)
Fe5 Fe5 Fe4 5_656 4_556 61.196(15)
Fe5 Fe5 Fe4 5_666 4_556 119.61(2)
Fe5 Fe5 Fe4 5_656 8_655 62.260(16)
Fe5 Fe5 Fe5 5_666 5_656 130.68(3)
Fe5 Fe5 Fe6 5_656 . 112.30(2)
Fe5 Fe5 Fe6 5_666 . 112.18(2)
Fe5 Fe5 Fe7 5_666 7_566 107.93(2)
Fe5 Fe5 Fe7 5_656 7_566 112.14(2)
Fe6 Fe5 Fe2 . . 61.233(13)
Fe6 Fe5 Fe4 . 8_655 90.918(15)
Fe6 Fe5 Fe4 . 4_556 109.992(16)
Fe7 Fe5 Fe2 7_566 . 108.561(16)
Fe7 Fe5 Fe4 7_566 4_556 61.782(13)
Fe7 Fe5 Fe4 7_566 8_655 146.759(17)
Fe7 Fe5 Fe6 7_566 . 59.694(13)
C1 Fe5 Fe1 . . 48.21(6)
C1 Fe5 Fe1 5_666 . 105.82(7)
C1 Fe5 Fe2 . . 47.76(6)
C1 Fe5 Fe2 5_666 . 103.06(7)
C1 Fe5 Fe4 5_666 4_556 72.70(7)
C1 Fe5 Fe4 . 8_655 46.76(6)
C1 Fe5 Fe4 5_666 8_655 158.08(7)
C1 Fe5 Fe4 . 4_556 141.89(6)
C1 Fe5 Fe5 5_666 5_656 131.22(7)
C1 Fe5 Fe5 5_666 5_666 61.10(7)
C1 Fe5 Fe5 . 5_666 50.22(6)
C1 Fe5 Fe5 . 5_656 96.62(6)
C1 Fe5 Fe6 . . 107.07(6)
C1 Fe5 Fe6 5_666 . 97.08(7)
C1 Fe5 Fe7 5_666 7_566 51.41(7)
C1 Fe5 Fe7 . 7_566 151.05(6)
C1 Fe5 C1 5_666 . 111.32(7)
C1 Fe5 C2 5_666 5_666 88.96(9)
C1 Fe5 C2 . 5_666 94.76(8)
C2 Fe5 Fe1 5_666 . 46.58(5)
C2 Fe5 Fe1 1_545 . 108.07(7)
C2 Fe5 Fe2 5_666 . 142.51(6)
C2 Fe5 Fe2 1_545 . 74.57(7)
C2 Fe5 Fe4 5_666 4_556 47.16(5)
C2 Fe5 Fe4 5_666 8_655 93.04(5)
C2 Fe5 Fe4 1_545 8_655 50.55(7)
C2 Fe5 Fe4 1_545 4_556 103.81(7)
C2 Fe5 Fe5 1_545 5_656 65.54(7)
C2 Fe5 Fe5 1_545 5_666 136.25(7)
C2 Fe5 Fe5 5_666 5_666 93.61(6)
C2 Fe5 Fe5 5_666 5_656 48.27(6)
C2 Fe5 Fe6 1_545 . 51.42(7)
C2 Fe5 Fe6 5_666 . 153.22(6)
C2 Fe5 Fe7 5_666 7_566 106.64(5)
C2 Fe5 Fe7 1_545 7_566 96.47(7)
C2 Fe5 C1 1_545 5_666 146.09(10)
C2 Fe5 C1 1_545 . 92.29(9)
C2 Fe5 C2 1_545 5_666 113.81(7)
Fe1 Fe6 Fe2 4_456 8_655 62.560(13)
Fe1 Fe6 Fe2 4_456 . 94.736(15)
Fe1 Fe6 Fe3 4_456 7_566 95.445(15)
Fe1 Fe6 Fe5 4_456 . 149.760(16)
Fe1 Fe6 Fe7 4_456 7_566 150.288(16)
Fe2 Fe6 Fe2 . 8_655 61.662(12)
Fe3 Fe6 Fe2 7_566 8_655 124.454(16)
Fe3 Fe6 Fe2 7_566 . 169.79(2)
Fe5 Fe6 Fe2 . . 60.451(13)
Fe5 Fe6 Fe2 . 8_655 89.027(14)
Fe5 Fe6 Fe3 . 7_566 110.065(18)
Fe6 Fe6 Fe1 8_655 4_456 66.50(2)
Fe6 Fe6 Fe1 8_665 4_456 65.03(2)
Fe6 Fe6 Fe2 8_655 8_655 61.683(12)
Fe6 Fe6 Fe2 8_665 . 61.915(9)
Fe6 Fe6 Fe2 8_665 8_655 95.036(16)
Fe6 Fe6 Fe2 8_655 . 122.640(12)
Fe6 Fe6 Fe3 8_665 7_566 122.328(11)
Fe6 Fe6 Fe3 8_655 7_566 62.772(9)
Fe6 Fe6 Fe5 8_655 . 110.565(16)
Fe6 Fe6 Fe5 8_665 . 110.788(16)
Fe6 Fe6 Fe6 8_655 8_665 131.53(3)
Fe6 Fe6 Fe7 8_665 7_566 108.940(17)
Fe6 Fe6 Fe7 8_655 7_566 113.067(17)
Fe7 Fe6 Fe2 7_566 8_655 145.566(18)
Fe7 Fe6 Fe2 7_566 . 108.060(18)
Fe7 Fe6 Fe3 7_566 7_566 62.096(13)
Fe7 Fe6 Fe5 7_566 . 59.843(16)
C3 Fe6 Fe1 2_565 4_456 47.91(6)
C3 Fe6 Fe1 7_576 4_456 105.80(7)
C3 Fe6 Fe2 7_576 8_655 157.78(7)
C3 Fe6 Fe2 7_576 . 103.05(7)
C3 Fe6 Fe2 2_565 8_655 93.87(6)
C3 Fe6 Fe2 2_565 . 142.64(6)
C3 Fe6 Fe3 7_576 7_566 73.35(7)
C3 Fe6 Fe3 2_565 7_566 47.55(6)
C3 Fe6 Fe5 7_576 . 97.11(7)
C3 Fe6 Fe5 2_565 . 153.02(6)
C3 Fe6 Fe6 7_576 8_665 62.81(7)
C3 Fe6 Fe6 2_565 8_665 95.69(6)
C3 Fe6 Fe6 2_565 8_655 49.45(6)
C3 Fe6 Fe6 7_576 8_655 133.75(7)
C3 Fe6 Fe7 2_565 7_566 107.48(6)
C3 Fe6 Fe7 7_576 7_566 51.37(7)
C3 Fe6 C3 7_576 2_565 90.27(11)
C3 Fe6 C2 2_565 8_655 95.21(9)
C3 Fe6 C2 7_576 8_655 112.13(9)
C3 Fe6 C2 7_576 1_545 145.99(11)
C2 Fe6 Fe1 8_655 4_456 47.31(6)
C2 Fe6 Fe1 1_545 4_456 108.21(7)
C2 Fe6 Fe2 1_545 8_655 49.66(7)
C2 Fe6 Fe2 1_545 . 74.04(7)
C2 Fe6 Fe2 8_655 8_655 45.77(6)
C2 Fe6 Fe2 8_655 . 47.43(6)
C2 Fe6 Fe3 8_655 7_566 142.76(6)
C2 Fe6 Fe3 1_545 7_566 103.40(7)
C2 Fe6 Fe5 1_545 . 51.25(7)
C2 Fe6 Fe5 8_655 . 105.78(6)
C2 Fe6 Fe6 1_545 8_655 63.39(7)
C2 Fe6 Fe6 8_655 8_655 95.50(6)
C2 Fe6 Fe6 1_545 8_665 133.91(7)
C2 Fe6 Fe6 8_655 8_665 49.32(6)
C2 Fe6 Fe7 8_655 7_566 150.86(6)
C2 Fe6 Fe7 1_545 7_566 96.47(7)
C2 Fe6 C3 1_545 2_565 112.84(9)
C2 Fe6 C2 1_545 8_655 91.10(10)
Fe1 Fe7 Fe1 . 3_645 123.858(17)
Fe1 Fe7 Fe3 . 3_645 61.371(13)
Fe1 Fe7 Fe3 3_645 . 116.763(17)
Fe1 Fe7 Fe3 3_645 3_645 91.308(15)
Fe1 Fe7 Fe3 . . 92.541(15)
Fe1 Fe7 Fe4 . 8_655 61.309(13)
Fe1 Fe7 Fe4 3_645 6_656 116.743(16)
Fe1 Fe7 Fe4 . 6_656 92.718(15)
Fe1 Fe7 Fe4 3_645 8_655 91.305(14)
Fe1 Fe7 Fe5 . 7_565 150.072(18)
Fe1 Fe7 Fe6 . 7_565 149.012(19)
Fe1 Fe7 Fe7 . 3_645 65.016(17)
Fe1 Fe7 Fe7 . 3_655 62.251(17)
Fe3 Fe7 Fe3 3_645 . 150.088(16)
Fe3 Fe7 Fe4 3_645 6_656 60.994(13)
Fe3 Fe7 Fe4 . 6_656 109.846(16)
Fe3 Fe7 Fe4 3_645 8_655 111.512(15)
Fe4 Fe7 Fe3 8_655 . 60.862(13)
Fe4 Fe7 Fe4 8_655 6_656 150.162(17)
Fe5 Fe7 Fe1 7_565 3_645 64.364(12)
Fe5 Fe7 Fe3 7_565 . 109.428(15)
Fe5 Fe7 Fe3 7_565 3_645 91.343(14)
Fe5 Fe7 Fe4 7_565 8_655 147.466(17)
Fe5 Fe7 Fe4 7_565 6_656 61.268(12)
Fe6 Fe7 Fe1 7_565 3_645 64.507(13)
Fe6 Fe7 Fe3 7_565 3_645 148.285(17)
Fe6 Fe7 Fe3 7_565 . 60.682(13)
Fe6 Fe7 Fe4 7_565 6_656 110.192(16)
Fe6 Fe7 Fe4 7_565 8_655 90.316(15)
Fe6 Fe7 Fe5 7_565 7_565 60.464(13)
Fe7 Fe7 Fe1 3_655 3_645 173.89(2)
Fe7 Fe7 Fe1 3_645 3_645 58.842(11)
Fe7 Fe7 Fe3 3_655 3_645 92.24(2)
Fe7 Fe7 Fe3 3_645 3_645 62.037(16)
Fe7 Fe7 Fe3 3_655 . 60.821(14)
Fe7 Fe7 Fe3 3_645 . 122.50(2)
Fe7 Fe7 Fe4 3_645 6_656 122.68(2)
Fe7 Fe7 Fe4 3_655 8_655 92.02(2)
Fe7 Fe7 Fe4 3_655 6_656 61.075(14)
Fe7 Fe7 Fe4 3_645 8_655 61.979(16)
Fe7 Fe7 Fe5 3_645 7_565 114.884(18)
Fe7 Fe7 Fe5 3_655 7_565 110.562(17)
Fe7 Fe7 Fe6 3_645 7_565 114.435(18)
Fe7 Fe7 Fe6 3_655 7_565 110.340(17)
Fe7 Fe7 Fe7 3_645 3_655 127.27(3)
C3 Fe7 Fe1 1_545 . 108.17(7)
C3 Fe7 Fe1 1_545 3_645 49.01(7)
C3 Fe7 Fe3 1_545 3_645 126.91(7)
C3 Fe7 Fe3 1_545 . 72.69(7)
C3 Fe7 Fe4 1_545 8_655 50.00(7)
C3 Fe7 Fe4 1_545 6_656 158.96(7)
C3 Fe7 Fe5 1_545 7_565 97.89(7)
C3 Fe7 Fe6 1_545 7_565 51.75(7)
C3 Fe7 Fe7 1_545 3_655 131.10(7)
C3 Fe7 Fe7 1_545 3_645 66.76(7)
C3 Fe7 C1 1_545 3_645 97.44(10)
C1 Fe7 Fe1 3_645 . 108.75(7)
C1 Fe7 Fe1 3_645 3_645 48.85(7)
C1 Fe7 Fe3 3_645 3_645 50.46(7)
C1 Fe7 Fe3 3_645 . 158.55(7)
C1 Fe7 Fe4 3_645 8_655 127.22(7)
C1 Fe7 Fe4 3_645 6_656 72.64(7)
C1 Fe7 Fe5 3_645 7_565 52.00(7)
C1 Fe7 Fe6 3_645 7_565 98.13(7)
C1 Fe7 Fe7 3_645 3_655 131.45(7)
C1 Fe7 Fe7 3_645 3_645 67.23(7)
Fe1 C3 Fe3 3_655 8_665 141.84(14)
Fe1 C3 Fe4 3_655 8_665 136.34(13)
Fe1 C3 Fe6 3_655 2_564 69.57(8)
Fe1 C3 Fe6 3_655 7_575 85.69(9)
Fe1 C3 Fe7 3_655 1_565 80.93(9)
Fe3 C3 Fe1 . 3_655 82.80(9)
Fe3 C3 Fe3 . 8_665 85.46(10)
Fe3 C3 Fe4 8_665 8_665 77.52(8)
Fe3 C3 Fe4 . 8_665 83.49(9)
Fe3 C3 Fe6 . 7_575 142.12(14)
Fe3 C3 Fe6 8_665 2_564 72.31(8)
Fe3 C3 Fe6 8_665 7_575 81.69(9)
Fe3 C3 Fe6 . 2_564 74.42(8)
Fe3 C3 Fe7 . 1_565 135.82(13)
Fe4 C3 Fe6 8_665 2_564 143.61(12)
Fe6 C3 Fe4 7_575 8_665 127.43(12)
Fe6 C3 Fe6 7_575 2_564 67.74(7)
Fe7 C3 Fe3 1_565 8_665 129.92(12)
Fe7 C3 Fe4 1_565 8_665 80.68(9)
Fe7 C3 Fe6 1_565 7_575 76.88(9)
Fe7 C3 Fe6 1_565 2_564 134.83(12)
Fe1 C1 Fe2 . . 143.90(12)
Fe1 C1 Fe3 . . 135.36(12)
Fe1 C1 Fe5 . . 70.80(8)
Fe1 C1 Fe5 . 5_666 85.34(10)
Fe1 C1 Fe7 . 3_655 80.88(9)
Fe2 C1 Fe3 . . 76.81(9)
Fe2 C1 Fe5 . . 73.11(7)
Fe2 C1 Fe5 . 5_666 82.56(9)
Fe2 C1 Fe7 . 3_655 128.32(13)
Fe3 C1 Fe5 . . 143.08(12)
Fe4 C1 Fe1 8_655 . 82.99(10)
Fe4 C1 Fe2 8_655 . 86.47(10)
Fe4 C1 Fe3 8_655 . 83.11(9)
Fe4 C1 Fe5 8_655 5_666 142.90(12)
Fe4 C1 Fe5 8_655 . 74.22(8)
Fe4 C1 Fe7 8_655 3_655 135.29(12)
Fe5 C1 Fe3 5_666 . 127.86(13)
Fe5 C1 Fe5 5_666 . 68.68(7)
Fe7 C1 Fe3 3_655 . 79.86(8)
Fe7 C1 Fe5 3_655 . 136.25(12)
Fe7 C1 Fe5 3_655 5_666 76.59(9)
Fe1 C2 Fe2 5_666 8_665 141.27(13)
Fe1 C2 Fe4 5_666 8_665 138.36(13)
Fe1 C2 Fe5 5_666 1_565 83.61(9)
Fe1 C2 Fe5 5_666 5_666 67.74(7)
Fe1 C2 Fe6 5_666 8_665 69.37(7)
Fe1 C2 Fe6 5_666 1_565 83.96(9)
Fe2 C2 Fe1 . 5_666 85.31(10)
Fe2 C2 Fe2 . 8_665 84.55(9)
Fe2 C2 Fe4 . 8_665 82.97(9)
Fe2 C2 Fe4 8_665 8_665 76.93(8)
Fe2 C2 Fe5 8_665 5_666 142.28(11)
Fe2 C2 Fe5 . 5_666 73.05(8)
Fe2 C2 Fe5 . 1_565 138.98(13)
Fe2 C2 Fe5 8_665 1_565 126.28(12)
Fe2 C2 Fe6 8_665 8_665 71.91(8)
Fe2 C2 Fe6 . 8_665 73.11(8)
Fe2 C2 Fe6 . 1_565 140.27(13)
Fe2 C2 Fe6 8_665 1_565 80.41(9)
Fe4 C2 Fe5 8_665 5_666 70.62(7)
Fe4 C2 Fe6 8_665 8_665 142.05(12)
Fe5 C2 Fe4 1_565 8_665 79.63(9)
Fe5 C2 Fe5 1_565 5_666 66.19(7)
Fe5 C2 Fe6 1_565 1_565 77.33(8)
Fe5 C2 Fe6 1_565 8_665 136.93(11)
Fe6 C2 Fe4 1_565 8_665 128.02(12)
Fe6 C2 Fe5 1_565 5_666 135.35(11)
Fe6 C2 Fe5 8_665 5_666 126.54(10)
Fe6 C2 Fe6 1_565 8_665 67.29(7)
loop_
_geom_bond_atom_site_label_1
_geom_bond_atom_site_label_2
_geom_bond_site_symmetry_2
_geom_bond_distance
Fe1 Fe2 5_666 2.6735(4)
Fe1 Fe3 3_645 2.6281(4)
Fe1 Fe4 8_655 2.6323(5)
Fe1 Fe5 . 2.5203(5)
Fe1 Fe5 5_656 2.6753(4)
Fe1 Fe6 5_656 2.6874(5)
Fe1 Fe6 4_556 2.5184(6)
Fe1 Fe7 . 2.5229(5)
Fe1 Fe7 3_655 2.6091(4)
Fe1 C3 3_645 1.994(2)
Fe1 C1 . 1.990(3)
Fe1 C2 5_666 1.978(2)
Fe2 Fe2 8_655 2.6903(4)
Fe2 Fe3 . 2.5279(5)
Fe2 Fe4 8_665 2.6667(5)
Fe2 Fe4 . 2.5429(5)
Fe2 Fe5 5_666 2.6801(5)
Fe2 Fe5 . 2.6019(5)
Fe2 Fe6 . 2.6218(4)
Fe2 Fe6 8_665 2.6275(4)
Fe2 C1 . 2.013(2)
Fe2 C2 . 1.968(2)
Fe2 C2 8_655 2.031(2)
Fe3 Fe4 . 2.5513(5)
Fe3 Fe4 8_665 2.6813(4)
Fe3 Fe4 8_655 2.6799(4)
Fe3 Fe6 2_564 2.6585(4)
Fe3 Fe6 7_565 2.6191(4)
Fe3 Fe7 3_655 2.6241(5)
Fe3 Fe7 . 2.6546(5)
Fe3 C3 . 1.980(2)
Fe3 C3 8_655 2.029(3)
Fe3 C1 . 2.056(2)
Fe4 Fe5 4_456 2.6461(5)
Fe4 Fe5 8_665 2.6198(4)
Fe4 Fe7 8_665 2.6363(5)
Fe4 Fe7 6_556 2.6590(5)
Fe4 C3 8_655 2.047(2)
Fe4 C1 8_665 1.983(3)
Fe4 C2 8_655 2.057(2)
Fe5 Fe5 5_656 2.4943(6)
Fe5 Fe5 5_666 2.4836(6)
Fe5 Fe6 . 2.5451(5)
Fe5 Fe7 7_566 2.5294(6)
Fe5 C1 . 2.334(2)
Fe5 C1 5_666 2.049(2)
Fe5 C2 1_545 2.035(2)
Fe5 C2 5_666 2.482(3)
Fe6 Fe6 8_665 2.4806(3)
Fe6 Fe6 8_655 2.4806(3)
Fe6 Fe7 7_566 2.5255(5)
Fe6 C3 7_576 2.037(2)
Fe6 C3 2_565 2.384(3)
Fe6 C2 1_545 2.039(2)
Fe6 C2 8_655 2.404(3)
Fe7 Fe7 3_655 2.5246(3)
Fe7 Fe7 3_645 2.5246(3)
Fe7 C3 1_545 2.026(3)
Fe7 C1 3_645 2.033(2)
