#------------------------------------------------------------------------------
#$Date: 2015-11-29 04:44:17 +0200 (Sun, 29 Nov 2015) $
#$Revision: 170611 $
#$URL: svn://www.crystallography.net/cod/cif/2/30/05/2300564.cif $
#------------------------------------------------------------------------------
#
# This file is available in the Crystallography Open Database (COD),
# http://www.crystallography.net/. The original data for this entry
# were provided by IUCr Journals, http://journals.iucr.org/.
#
# The file may be used within the scientific community so long as
# proper attribution is given to the journal article from which the
# data were obtained.
#
data_2300564
loop_
_publ_author_name
'Krause, Lennard'
'Herbst-Irmer, Regine'
'Stalke, Dietmar'
_publ_section_title
;
 An empirical correction for the influence of low-energy contamination
;
_journal_coeditor_code           KS5494
_journal_issue                   6
_journal_name_full               'Journal of Applied Crystallography'
_journal_page_first              1907
_journal_page_last               1913
_journal_paper_doi               10.1107/S1600576715020440
_journal_volume                  48
_journal_year                    2015
_chemical_formula_moiety         'C12 H4 N4'
_chemical_formula_sum            'C12 H4 N4'
_chemical_formula_weight         204.19
_space_group_crystal_system      monoclinic
_space_group_IT_number           15
_space_group_name_Hall           '-C 2yc'
_space_group_name_H-M_alt        'C 1 2/c 1'
_symmetry_space_group_name_Hall  '-C 2yc'
_symmetry_space_group_name_H-M   'C 1 2/c 1'
_atom_sites_solution_hydrogens   geom
_audit_creation_method           SHELXL-2014/7
_cell_angle_alpha                90
_cell_angle_beta                 98.290(3)
_cell_angle_gamma                90
_cell_formula_units_Z            4
_cell_length_a                   8.896(2)
_cell_length_b                   6.9130(19)
_cell_length_c                   16.439(5)
_cell_measurement_reflns_used    6323
_cell_measurement_temperature    100(2)
_cell_measurement_theta_max      30.6735
_cell_measurement_theta_min      2.504
_cell_volume                     1000.4(5)
_computing_cell_refinement       'SAINT V8.30C'
_computing_data_collection       'APEX2 v2012.2'
_computing_data_reduction        'SAINT V8.30C'
_computing_molecular_graphics    'Mercury CSD 3.3 (Build RC5)'
_computing_publication_material  'Mercury CSD 3.3 (Build RC5)'
_computing_structure_refinement  'SHELXL-2014/7 (Sheldrick, 2014)'
_computing_structure_solution
'SHELXT (G.M.Sheldrick,Acta Cryst.(2015)A71,3-8)'
_diffrn_ambient_temperature      100(2)
_diffrn_measured_fraction_theta_full 0.999
_diffrn_measured_fraction_theta_max 0.999
_diffrn_measurement_device_type  'Bruker Smart APEX II Quazar'
_diffrn_measurement_method       'omega scans'
_diffrn_radiation_type           MoK\a
_diffrn_radiation_wavelength     0.71073
_diffrn_reflns_av_R_equivalents  0.0153
_diffrn_reflns_av_unetI/netI     0.0090
_diffrn_reflns_laue_measured_fraction_full 0.999
_diffrn_reflns_laue_measured_fraction_max 0.999
_diffrn_reflns_limit_h_max       12
_diffrn_reflns_limit_h_min       -12
_diffrn_reflns_limit_k_max       9
_diffrn_reflns_limit_k_min       -9
_diffrn_reflns_limit_l_max       23
_diffrn_reflns_limit_l_min       -23
_diffrn_reflns_number            10353
_diffrn_reflns_point_group_measured_fraction_full 0.999
_diffrn_reflns_point_group_measured_fraction_max 0.999
_diffrn_reflns_theta_full        25.242
_diffrn_reflns_theta_max         30.680
_diffrn_reflns_theta_min         2.504
_diffrn_source                   'INCOATEC Microsource'
_exptl_absorpt_coefficient_mu    0.088
_exptl_absorpt_correction_T_max  0.7461
_exptl_absorpt_correction_T_min  0.7182
_exptl_absorpt_correction_type   multi-scan
_exptl_absorpt_process_details   SADABS-2015/1
_exptl_crystal_density_diffrn    1.356
_exptl_crystal_description       plate
_exptl_crystal_F_000             416
_exptl_crystal_size_max          0.180
_exptl_crystal_size_mid          0.130
_exptl_crystal_size_min          0.060
_refine_diff_density_max         0.469
_refine_diff_density_min         -0.164
_refine_diff_density_rms         0.049
_refine_ls_extinction_method     none
_refine_ls_goodness_of_fit_ref   1.090
_refine_ls_hydrogen_treatment    constr
_refine_ls_matrix_type           full
_refine_ls_number_parameters     73
_refine_ls_number_reflns         1543
_refine_ls_number_restraints     0
_refine_ls_restrained_S_all      1.090
_refine_ls_R_factor_all          0.0377
_refine_ls_R_factor_gt           0.0360
_refine_ls_shift/su_max          0.000
_refine_ls_shift/su_mean         0.000
_refine_ls_structure_factor_coef Fsqd
_refine_ls_weighting_details
'w=1/[\s^2^(Fo^2^)+(0.0523P)^2^+0.8725P] where P=(Fo^2^+2Fc^2^)/3'
_refine_ls_weighting_scheme      calc
_refine_ls_wR_factor_gt          0.1059
_refine_ls_wR_factor_ref         0.1075
_reflns_Friedel_coverage         0.000
_reflns_number_gt                1447
_reflns_number_total             1543
_reflns_threshold_expression     'I > 2\s(I)'
_cod_data_source_file            ks5494sup1.cif
_cod_data_source_block           2_uncorr
_cod_original_cell_volume        1000.5(5)
_cod_database_code               2300564
_shelx_shelxl_version_number     2014/7
_shelx_space_group_comment
;
The symmetry employed for this shelxl refinement is uniquely defined
by the following loop, which should always be used as a source of
symmetry information in preference to the above space-group names.
They are only intended as comments.
;
_shelx_estimated_absorpt_t_min   0.984
_shelx_estimated_absorpt_t_max   0.995
_shelx_res_file
;

    uncorr.res created by SHELXL-2014/7


TITL NoFilter_05_a.res in C2/c
REM Old TITL NoFilter_05 in C2/c
REM SHELXT solution in C2/c
REM R1 0.068,  Rweak 0.001,  Alpha 0.017,  Orientation as input
REM Formula found by SHELXT:  C6 N2
CELL  0.71073   8.8965    6.9130   16.4390   90.0000   98.2895   90.0000
ZERR   4.000    0.0024    0.0019    0.0045    0.0000    0.0031    0.0000
LATT  7
SYMM -X, Y, 1/2-Z
SFAC C H N
UNIT 48 16 16
TEMP -173.150
L.S. 10
BOND $H
LIST 4
SIZE 0.06 0.13 0.18
ACTA
FMAP 2
PLAN 20
WGHT    0.052300    0.872500
FVAR       0.22841
N1    3    0.306863    0.756408    0.239878    11.00000    0.02253    0.02401 =
         0.01838    0.00312    0.00301    0.00103
C1    1    0.651295    0.525997    0.484032    11.00000    0.01257    0.01444 =
         0.01391   -0.00044    0.00393   -0.00118
AFIX  43
H1    2    0.753273    0.542267    0.474373    11.00000   -1.20000
AFIX   0
N2    3   -0.020334    0.565742    0.400117    11.00000    0.01673    0.02623 =
         0.02105   -0.00018    0.00287   -0.00008
C2    1    0.535547    0.579912    0.425578    11.00000    0.01339    0.01440 =
         0.01346    0.00047    0.00407   -0.00118
AFIX  43
H2    2    0.557241    0.633763    0.375388    11.00000   -1.20000
AFIX   0
C4    1    0.260813    0.610201    0.379287    11.00000    0.01374    0.01401 =
         0.01355   -0.00091    0.00246   -0.00045
C3    1    0.379032    0.556269    0.438842    11.00000    0.01287    0.01202 =
         0.01266   -0.00106    0.00306   -0.00049
C6    1    0.104763    0.585201    0.390436    11.00000    0.01558    0.01629 =
         0.01408   -0.00038    0.00087    0.00025
C5    1    0.286575    0.691321    0.301893    11.00000    0.01475    0.01658 =
         0.01596   -0.00042    0.00102    0.00062
HKLF 4

REM  NoFilter_05_a.res in C2/c
REM R1 =  0.0360 for    1447 Fo > 4sig(Fo)  and  0.0377 for all    1543 data
REM     73 parameters refined using      0 restraints

END

WGHT      0.0523      0.8725

REM Highest difference peak  0.469,  deepest hole -0.164,  1-sigma level  0.049
Q1    1   0.3198  0.5736  0.4096  11.00000  0.05    0.47
Q2    1   0.4597  0.5634  0.4319  11.00000  0.05    0.46
Q3    1   0.5913  0.5602  0.4562  11.00000  0.05    0.41
Q4    1   0.3676  0.5126  0.4750  11.00000  0.05    0.41
Q5    1   0.2776  0.6439  0.3439  11.00000  0.05    0.31
Q6    1   0.1914  0.6026  0.3886  11.00000  0.05    0.28
Q7    1   0.0605  0.5583  0.4215  11.00000  0.05    0.25
Q8    1   0.0399  0.6029  0.3705  11.00000  0.05    0.22
Q9    1   0.2419  0.7444  0.2700  11.00000  0.05    0.20
Q10   1   0.3425  0.7521  0.2866  11.00000  0.05    0.19
Q11   1   0.2549  0.6634  0.2635  11.00000  0.05    0.18
Q12   1   0.3292  0.6631  0.2681  11.00000  0.05    0.17
Q13   1  -0.1191  0.5615  0.4002  11.00000  0.05    0.14
Q14   1   0.3439  0.7604  0.1866  11.00000  0.05    0.12
Q15   1   0.3177  0.8310  0.1976  11.00000  0.05    0.11
Q16   1   0.8639  0.3824  0.4321  11.00000  0.05    0.09
Q17   1   0.7823  0.7034  0.3927  11.00000  0.05    0.08
Q18   1   0.5075  0.7893  0.3575  11.00000  0.05    0.08
Q19   1   0.7207  0.5425  0.4373  11.00000  0.05    0.08
Q20   1   0.5797  0.3724  0.4399  11.00000  0.05    0.08
;
_shelx_res_checksum              83156
_shelx_hkl_file
;
   2   0   0   46.82    0.63
  -2   0   0   47.37    0.62
  -2   0   0   47.82    0.64
  -2   0   0   47.63    0.63
   4   0   0   30.85    0.48
  -4   0   0   31.06    0.46
  -4   0   0   31.30    0.48
   6   0   0    3.18    0.13
  -6   0   0    3.07    0.14
  -6   0   0    3.05    0.12
  -6   0   0    3.22    0.14
   8   0   0   16.32    0.38
  -8   0   0   17.39    0.35
  -8   0   0   16.87    0.41
  -8   0   0   16.59    0.39
 -10   0   0    0.54    0.11
 -10   0   0    0.63    0.11
 -12   0   0   11.44    0.42
 -12   0   0   10.96    0.38
  -1  -1   0   25.95    0.35
  -1  -1   0   26.06    0.34
  -1   1   0   25.39    0.35
  -1   1   0   25.57    0.34
  -1   1   0   25.23    0.35
  -1   1   0   25.23    0.36
  -3  -1   0  168.48    2.09
  -3  -1   0  163.77    2.12
  -3  -1   0  164.33    2.10
   3  -1   0  167.64    2.09
  -3   1   0  167.15    2.09
  -3   1   0  164.54    2.11
  -3   1   0  166.13    2.12
   3   1   0  164.18    2.13
  -5  -1   0    0.13    0.04
  -5  -1   0    0.13    0.04
  -5  -1   0    0.16    0.05
   5  -1   0    0.09    0.03
  -5   1   0    0.15    0.05
   5   1   0    0.10    0.04
  -5   1   0    0.15    0.04
  -5   1   0    0.13    0.04
  -7  -1   0    0.19    0.07
  -7  -1   0    0.25    0.05
   7  -1   0    0.32    0.06
  -7  -1   0    0.26    0.06
  -7   1   0    0.35    0.06
   7   1   0    0.19    0.06
  -7   1   0    0.31    0.06
  -7   1   0    0.23    0.07
  -9  -1   0    1.90    0.15
  -9  -1   0    2.36    0.18
   9   1   0    2.19    0.16
  -9   1   0    2.03    0.18
  -9   1   0    2.05    0.13
  -9   1   0    2.14    0.15
 -11  -1   0   31.86    0.72
 -11  -1   0   31.99    0.67
 -11   1   0   31.66    0.72
 -11   1   0   31.93    0.68
   0  -2   0  226.86    2.85
   0  -2   0  228.35    2.83
   0   2   0  227.09    2.84
   0   2   0  227.60    2.84
   2  -2   0  273.23    3.41
  -2  -2   0  276.63    3.37
  -2  -2   0  267.33    3.39
  -2  -2   0  270.14    3.40
   2   2   0  275.09    3.43
  -2   2   0  268.64    3.40
  -2   2   0  274.77    3.39
  -2   2   0  272.11    3.37
  -2   2   0  270.76    3.41
  -4  -2   0   35.31    0.53
  -4  -2   0   35.61    0.53
   4  -2   0   35.01    0.52
  -4  -2   0   34.32    0.56
  -4   2   0   35.17    0.56
   4   2   0   33.68    0.58
  -4   2   0   34.87    0.54
  -4   2   0   35.86    0.54
   6  -2   0    1.03    0.07
  -6  -2   0    1.08    0.11
  -6  -2   0    1.02    0.08
  -6  -2   0    1.15    0.09
  -6   2   0    1.15    0.09
  -6   2   0    0.87    0.09
  -6   2   0    1.05    0.10
   6   2   0    0.93    0.10
   8  -2   0   47.45    0.77
  -8  -2   0   48.43    0.75
  -8  -2   0   46.98    0.84
  -8  -2   0   46.86    0.79
  -8   2   0   47.45    0.81
  -8   2   0   48.66    0.77
  -8   2   0   47.14    0.83
   8   2   0   47.22    0.84
 -10  -2   0   13.46    0.42
 -10  -2   0   13.71    0.38
 -10   2   0   13.61    0.42
  10   2   0   13.81    0.42
 -10   2   0   13.51    0.39
 -12  -2   0    0.11    0.10
 -12  -2   0    0.21    0.13
 -12   2   0    0.09    0.09
 -12   2   0    0.10    0.11
  -1  -3   0    2.75    0.07
  -1  -3   0    2.68    0.11
   1  -3   0    2.68    0.10
  -1  -3   0    2.83    0.10
   1  -3   0    2.82    0.08
   1   3   0    2.82    0.11
  -1   3   0    2.71    0.11
  -1   3   0    2.80    0.09
   3  -3   0   22.95    0.40
  -3  -3   0   22.66    0.39
  -3  -3   0   23.12    0.36
  -3  -3   0   22.64    0.40
  -3   3   0   22.99    0.38
  -3   3   0   22.94    0.40
  -3   3   0   22.61    0.41
  -3   3   0   23.36    0.36
  -5  -3   0   27.27    0.47
  -5  -3   0   28.20    0.52
  -5  -3   0   27.76    0.47
   5  -3   0   28.50    0.46
  -5   3   0   28.31    0.44
  -5   3   0   28.17    0.49
  -5   3   0   28.16    0.51
   5   3   0   28.61    0.54
  -5   3   0   28.02    0.49
  -7  -3   0   27.34    0.50
  -7  -3   0   27.85    0.51
  -7  -3   0   27.52    0.57
   7  -3   0   27.32    0.49
  -7   3   0   27.72    0.56
  -7   3   0   28.17    0.54
  -7   3   0   28.37    0.52
   7   3   0   28.39    0.59
  -9  -3   0    9.44    0.34
  -9  -3   0    9.47    0.29
  -9   3   0    9.31    0.28
   9   3   0    9.83    0.35
  -9   3   0    9.58    0.34
  -9   3   0    9.37    0.31
  11  -3   0    0.06    0.10
 -11  -3   0   -0.11    0.07
 -11  -3   0   -0.01    0.10
  11   3   0    0.03    0.10
 -11   3   0   -0.01    0.10
 -11   3   0   -0.09    0.09
   0  -4   0    0.51    0.06
   0  -4   0    0.62    0.05
   0  -4   0    0.67    0.08
   0   4   0    0.50    0.07
   0   4   0    0.54    0.07
  -2  -4   0   17.84    0.35
  -2  -4   0   18.14    0.34
   2  -4   0   17.68    0.34
   2  -4   0   17.68    0.32
  -2  -4   0   17.74    0.29
   2   4   0   18.21    0.37
  -2   4   0   17.40    0.35
   2   4   0   17.98    0.25
  -2   4   0   18.35    0.32
  -4  -4   0   21.05    0.40
   4  -4   0   21.49    0.41
  -4  -4   0   20.86    0.42
  -4  -4   0   21.55    0.37
  -4   4   0   20.44    0.41
  -4   4   0   21.68    0.36
   4   4   0   21.48    0.46
  -4   4   0   20.87    0.43
  -6  -4   0   34.34    0.59
   6  -4   0   33.57    0.63
  -6  -4   0   34.63    0.64
  -6  -4   0   33.72    0.57
   6  -4   0   33.10    0.56
  -6   4   0   34.43    0.60
  -6   4   0   33.09    0.64
  -6   4   0   34.43    0.61
   6   4   0   33.11    0.66
  -8  -4   0   10.85    0.30
  -8  -4   0   10.46    0.29
  -8  -4   0   10.35    0.35
   8  -4   0   10.35    0.34
   8   4   0   10.47    0.36
  -8   4   0   10.75    0.31
  -8   4   0   10.59    0.34
  -8   4   0   10.54    0.32
 -10  -4   0    0.66    0.14
  10  -4   0    0.86    0.14
  10   4   0    0.84    0.15
 -10   4   0    1.05    0.14
 -10   4   0    0.39    0.12
   1  -5   0    5.86    0.21
   1  -5   0    5.61    0.15
   1  -5   0    5.48    0.18
  -1  -5   0    5.88    0.14
  -1  -5   0    5.78    0.20
  -1  -5   0    5.37    0.18
  -1   5   0    5.99    0.18
   1   5   0    5.87    0.20
  -1   5   0    5.77    0.20
  -3  -5   0   15.26    0.35
  -3  -5   0   15.79    0.29
   3  -5   0   16.03    0.34
  -3  -5   0   15.76    0.35
   3  -5   0   16.07    0.32
  -3   5   0   15.68    0.30
   3   5   0   15.27    0.38
  -3   5   0   15.86    0.36
  -5  -5   0    0.85    0.10
   5  -5   0    0.82    0.10
  -5  -5   0    0.87    0.08
  -5  -5   0    0.82    0.10
   5  -5   0    0.86    0.10
   5   5   0    1.07    0.13
  -5   5   0    1.02    0.12
  -5   5   0    1.01    0.11
  -7  -5   0    0.58    0.10
   7  -5   0    0.34    0.09
  -7  -5   0    0.57    0.11
  -7   5   0    0.79    0.11
  -7   5   0    0.58    0.11
   7   5   0    0.48    0.12
  -9  -5   0    3.21    0.24
   9  -5   0    2.65    0.21
   9   5   0    3.02    0.24
  -9   5   0    3.00    0.23
  -9   5   0    3.05    0.20
   0  -6   0  102.51    1.45
   0  -6   0  104.70    1.50
   0  -6   0  100.15    1.37
   0   6   0  103.27    1.46
   0   6   0  103.93    1.49
   2  -6   0   12.61    0.35
   2  -6   0   13.50    0.28
  -2  -6   0   13.00    0.32
   2  -6   0   12.59    0.31
  -2  -6   0   12.81    0.33
  -2   6   0   12.55    0.34
   2   6   0   13.41    0.35
  -2   6   0   12.83    0.29
   4  -6   0    2.32    0.13
   4  -6   0    2.30    0.15
  -4  -6   0    2.44    0.15
  -4  -6   0    2.34    0.16
  -4   6   0    2.25    0.15
   4   6   0    2.23    0.17
   8  -6   0    2.82    0.20
  -8  -6   0    2.92    0.22
   8  -6   0    2.93    0.21
  -8   6   0    2.41    0.22
  -8   6   0    2.76    0.21
   8   6   0    2.98    0.24
 -10  -6   0    2.60    0.26
  10  -6   0    2.41    0.23
 -10   6   0    2.15    0.24
   1  -7   0    0.37    0.09
   1  -7   0    0.35    0.08
  -1  -7   0    0.30    0.08
  -1  -7   0    0.30    0.08
  -1   7   0    0.44    0.10
   1   7   0    0.17    0.07
  -1   7   0    0.23    0.07
   3  -7   0    0.08    0.06
  -3  -7   0    0.04    0.06
  -3  -7   0   -0.02    0.06
   3  -7   0   -0.06    0.07
  -3   7   0   -0.06    0.06
   3   7   0    0.00    0.07
  -5  -7   0   -0.06    0.07
   5  -7   0   -0.02    0.06
  -5  -7   0   -0.01    0.07
  -5   7   0    0.04    0.08
   5   7   0   -0.02    0.08
   7  -7   0    2.48    0.19
  -7  -7   0    2.63    0.21
  -7  -7   0    1.88    0.18
   7   7   0    2.15    0.23
  -7   7   0    1.83    0.18
   0  -8   0   13.68    0.42
   0  -8   0   13.93    0.38
   0   8   0   13.42    0.38
  -2  -8   0   15.80    0.42
   2  -8   0   15.98    0.41
   2  -8   0   15.60    0.45
  -2  -8   0   15.63    0.44
  -2   8   0   15.43    0.45
   2   8   0   15.75    0.44
   4  -8   0    0.26    0.09
   4  -8   0    0.69    0.14
  -4  -8   0    0.48    0.11
  -4  -8   0    0.67    0.13
  -4   8   0    0.55    0.13
   4   8   0    0.29    0.11
  -6  -8   0    0.06    0.10
  -6  -8   0    0.02    0.09
   6  -8   0    0.13    0.08
  -6   8   0    0.08    0.10
   6   8   0    0.16    0.11
  -1  -9   0    0.67    0.13
  -1  -9   0    0.69    0.14
   1  -9   0    0.49    0.11
   1  -9   0    0.55    0.15
   1   9   0    0.67    0.13
   3  -9   0    3.77    0.26
  -3  -9   0    3.81    0.24
  -3  -9   0    3.98    0.26
   3  -9   0    3.77    0.23
  -3   9   0    3.64    0.26
   3   9   0    3.03    0.24
  -5  -9   0    3.48    0.26
   5  -9   0    3.52    0.27
   5  -9   0    3.81    0.23
  -5  -9   0    3.42    0.26
   5   9   0    3.74    0.29
  -5   9   0    4.30    0.28
 -12   0   1    0.01    0.10
 -12   0   1    0.07    0.10
 -10   0   1   -0.12    0.07
  10   0  -1   -0.02    0.06
 -10   0   1   -0.09    0.06
  -8   0   1   -0.02    0.05
   8   0  -1   -0.01    0.05
  -8   0   1    0.00    0.04
  -8   0   1   -0.04    0.05
  -6   0   1    0.02    0.05
   6   0  -1    0.03    0.04
  -6   0   1   -0.02    0.04
  -6   0   1    0.03    0.03
  -4   0   1    0.00    0.03
  -4   0   1   -0.01    0.02
   4   0  -1    0.02    0.03
   4   0  -1   -0.02    0.01
  -4   0   1    0.02    0.03
   2   0  -1    0.03    0.02
  -2   0   1   -0.01    0.02
  -2   0   1    0.02    0.02
  -2   0   1   -0.01    0.02
   2   0  -1    0.00    0.01
   0   0   1    0.02    0.01
   0   0  -1    0.01    0.01
   0   0   1    0.00    0.00
   0   0  -1    0.01    0.01
   0   0   1    0.01    0.01
  -2   0  -1    0.03    0.02
  -2   0  -1    0.00    0.02
  -2   0  -1    0.01    0.02
   2   0   1    0.02    0.02
  -4   0  -1    0.00    0.03
  -4   0  -1    0.01    0.03
   4   0   1    0.01    0.03
  -4   0  -1    0.02    0.03
  -6   0  -1   -0.01    0.03
   6   0   1    0.00    0.03
  -6   0  -1    0.05    0.05
  -6   0  -1   -0.03    0.03
  -8   0  -1   -0.02    0.05
  -8   0  -1   -0.04    0.06
   8   0   1    0.11    0.06
  -8   0  -1    0.02    0.05
 -10   0  -1    0.12    0.09
 -10   0  -1   -0.01    0.07
 -12   0  -1    0.11    0.11
 -12   0  -1   -0.03    0.09
 -11  -1   1    1.54    0.19
 -11  -1   1    1.61    0.17
 -11   1   1    1.46    0.17
  11   1  -1    1.44    0.17
 -11   1   1    1.14    0.15
  -9  -1   1    5.31    0.25
  -9  -1   1    5.71    0.23
   9  -1  -1    5.95    0.23
  -9   1   1    6.07    0.25
   9   1  -1    5.97    0.25
  -9   1   1    5.82    0.23
  -7  -1   1    0.05    0.05
  -7  -1   1    0.04    0.05
  -7  -1   1    0.08    0.04
   7  -1  -1    0.14    0.05
  -7   1   1    0.03    0.06
  -7   1   1    0.04    0.04
   7   1  -1    0.07    0.05
  -7   1   1    0.05    0.05
  -5  -1   1  113.72    1.52
   5  -1  -1  113.03    1.51
  -5  -1   1  113.41    1.47
  -5  -1   1  115.58    1.54
   5   1  -1  114.43    1.55
  -5   1   1  111.46    1.48
  -5   1   1  111.58    1.52
  -5   1   1  112.21    1.53
   3  -1  -1   70.34    0.94
  -3  -1   1   70.02    0.94
  -3  -1   1   70.05    0.95
  -3  -1   1   71.02    0.91
  -3   1   1   71.14    0.95
   3   1  -1   70.00    0.90
  -3   1   1   70.48    0.94
  -3   1   1   70.44    0.92
   3   1  -1   68.99    0.96
  -1  -1   1    6.69    0.11
  -1  -1   1    6.46    0.10
  -1  -1   1    6.54    0.11
  -1  -1   1    6.55    0.12
  -1   1   1    6.60    0.11
  -1   1   1    6.44    0.12
  -1   1   1    6.42    0.11
   1   1  -1    6.39    0.12
  -1   1   1    6.53    0.12
   1   1  -1    6.64    0.13
  -1   1   1    6.47    0.11
   1  -1   1  149.11    1.83
  -1  -1  -1  148.11    1.82
  -1  -1  -1  144.42    1.83
  -1  -1  -1  146.84    1.81
  -1   1  -1  143.81    1.83
   1   1   1  145.18    1.84
  -1   1  -1  146.64    1.83
  -1   1  -1  146.55    1.83
  -1   1  -1  145.11    1.83
  -3  -1  -1  236.11    3.02
  -3  -1  -1  242.52    3.04
   3  -1   1  242.98    3.00
  -3  -1  -1  242.17    3.02
  -3   1  -1  238.28    3.04
  -3   1  -1  245.32    3.02
   5  -1   1   69.60    0.97
  -5  -1  -1   70.60    1.02
  -5  -1  -1   70.30    0.99
  -5  -1  -1   71.17    0.98
  -5   1  -1   71.62    0.98
  -5   1  -1   68.78    1.00
  -5   1  -1   69.09    1.01
   5   1   1   69.91    1.01
  -7  -1  -1  112.19    1.54
  -7  -1  -1  111.64    1.61
   7  -1   1  112.04    1.54
  -7  -1  -1  113.40    1.57
  -7   1  -1  111.05    1.60
   7   1   1  111.92    1.59
  -7   1  -1  112.63    1.58
  -7   1  -1  113.49    1.54
  -9  -1  -1   -0.05    0.05
  -9  -1  -1    0.10    0.08
  -9  -1  -1    0.02    0.06
  -9   1  -1    0.06    0.07
   9   1   1    0.05    0.07
  -9   1  -1    0.08    0.06
  -9   1  -1    0.08    0.08
 -11  -1  -1    1.61    0.19
 -11  -1  -1    1.68    0.17
 -11   1  -1    1.36    0.16
 -11   1  -1    1.75    0.19
 -12  -2   1   -0.07    0.12
 -12  -2   1    0.13    0.10
 -12   2   1    0.07    0.10
 -12   2   1   -0.06    0.09
 -10  -2   1    2.68    0.18
 -10  -2   1    2.50    0.20
 -10   2   1    2.81    0.21
 -10   2   1    2.78    0.19
  10   2  -1    2.84    0.21
  -8  -2   1   18.96    0.42
   8  -2  -1   18.68    0.40
  -8  -2   1   19.00    0.37
  -8  -2   1   18.45    0.45
  -8   2   1   18.35    0.42
  -8   2   1   18.76    0.38
   8   2  -1   19.06    0.46
  -8   2   1   19.20    0.44
  -6  -2   1   11.71    0.25
   6  -2  -1   11.63    0.27
  -6  -2   1   11.59    0.30
  -6  -2   1   12.13    0.28
  -6   2   1   12.01    0.26
   6   2  -1   11.54    0.31
  -6   2   1   11.76    0.29
  -6   2   1   12.02    0.28
   4  -2  -1   79.09    1.06
  -4  -2   1   77.45    1.06
  -4  -2   1   78.58    1.05
  -4  -2   1   78.02    1.10
  -4   2   1   78.21    1.09
  -4   2   1   77.51    1.04
  -4   2   1   78.84    1.06
  -4   2   1   77.76    1.07
  -2  -2   1    2.92    0.08
  -2  -2   1    2.88    0.09
   2   2  -1    2.89    0.11
   2   2  -1    2.86    0.10
  -2   2   1    2.88    0.10
  -2   2   1    2.83    0.09
  -2   2   1    2.76    0.08
  -2   2   1    2.84    0.09
   0  -2   1  584.16    7.44
   0  -2  -1  581.72    7.41
   0  -2  -1  581.82    7.27
   0  -2   1  586.34    7.38
   0  -2  -1  590.30    7.43
   0   2   1  620.27    7.26
   0   2   1  581.20    7.40
   0   2  -1  592.13    7.41
   0   2   1  574.85    7.34
   0   2  -1  577.75    7.36
  -2  -2  -1    8.95    0.18
   2  -2   1    8.28    0.18
  -2  -2  -1    8.69    0.15
  -2  -2  -1    8.40    0.18
  -2   2  -1    8.79    0.15
  -2   2  -1    8.73    0.17
  -2   2  -1    8.34    0.19
   2   2   1    8.69    0.20
  -2   2  -1    8.45    0.18
   4  -2   1    1.17    0.06
  -4  -2  -1    1.01    0.07
  -4  -2  -1    1.10    0.08
  -4  -2  -1    1.19    0.07
  -4   2  -1    1.02    0.08
  -4   2  -1    1.24    0.08
   4   2   1    1.17    0.09
  -4   2  -1    1.05    0.08
   6  -2   1    2.53    0.10
  -6  -2  -1    2.32    0.13
  -6  -2  -1    2.24    0.11
  -6  -2  -1    2.42    0.12
  -6   2  -1    2.44    0.14
  -6   2  -1    2.18    0.12
  -6   2  -1    2.40    0.12
   6   2   1    2.45    0.14
  -8  -2  -1    1.30    0.12
  -8  -2  -1    1.36    0.14
  -8  -2  -1    1.64    0.12
   8   2   1    1.26    0.13
  -8   2  -1    1.43    0.12
  -8   2  -1    1.34    0.13
  -8   2  -1    1.39    0.13
 -10  -2  -1    6.11    0.28
 -10  -2  -1    5.92    0.24
 -10   2  -1    5.89    0.28
 -10   2  -1    5.70    0.25
  10   2   1    5.67    0.27
  12  -2   1    2.91    0.27
 -12  -2  -1    3.93    0.24
 -12  -2  -1    3.38    0.26
 -12   2  -1    3.37    0.26
 -12   2  -1    3.64    0.24
 -11  -3   1    7.77    0.31
 -11  -3   1    7.24    0.34
 -11   3   1    7.70    0.32
 -11   3   1    7.67    0.34
  11   3  -1    7.65    0.35
  -9  -3   1    1.16    0.13
  -9  -3   1    1.23    0.15
  -9   3   1    1.32    0.14
  -9   3   1    0.80    0.12
  -9   3   1    1.20    0.12
   9   3  -1    1.49    0.17
  -7  -3   1  116.47    1.63
  -7  -3   1  116.69    1.69
  -7  -3   1  117.86    1.59
   7  -3  -1  118.43    1.61
  -7   3   1  118.28    1.65
  -7   3   1  117.95    1.62
   7   3  -1  114.05    1.71
  -7   3   1  115.46    1.67
  -5  -3   1    0.75    0.09
  -5  -3   1    0.64    0.07
  -5  -3   1    0.63    0.07
   5  -3  -1    0.64    0.07
  -5   3   1    0.63    0.08
  -5   3   1    0.52    0.07
  -5   3   1    0.63    0.06
  -5   3   1    0.60    0.08
   5   3  -1    0.68    0.09
   3  -3  -1   28.93    0.47
  -3  -3   1   28.57    0.46
  -3  -3   1   29.00    0.44
  -3  -3   1   29.20    0.48
  -3   3   1   28.69    0.45
  -3   3   1   28.61    0.47
   3   3  -1   28.64    0.51
  -3   3   1   28.39    0.48
  -3   3   1   29.36    0.44
   1  -3  -1   93.94    1.21
  -1  -3   1   93.68    1.26
   1  -3  -1   94.17    1.23
  -1  -3   1   93.65    1.25
  -1  -3   1   94.01    1.21
   1   3  -1   92.42    1.27
  -1   3   1   95.68    1.25
   1   3  -1   94.57    1.25
  -1   3   1   93.47    1.26
  -1  -3  -1    0.23    0.04
  -1  -3  -1    0.30    0.05
   1  -3   1    0.21    0.03
  -1  -3  -1    0.20    0.02
   1  -3   1    0.29    0.04
   1   3   1    0.26    0.02
  -1   3  -1    0.24    0.05
  -1   3  -1    0.20    0.03
   1   3   1    0.15    0.04
   3  -3   1   11.38    0.25
  -3  -3  -1   11.29    0.24
  -3  -3  -1   11.04    0.20
  -3  -3  -1   11.15    0.25
  -3   3  -1   10.90    0.25
  -3   3  -1   11.35    0.26
   3   3   1   11.01    0.27
  -3   3  -1   11.41    0.20
  -5  -3  -1   61.83    0.94
  -5  -3  -1   61.03    0.88
   5  -3   1   62.15    0.86
   5  -3   1   63.05    0.95
  -5  -3  -1   62.10    0.91
  -5   3  -1   61.56    0.92
  -5   3  -1   62.38    0.94
   5   3   1   60.95    0.96
  -5   3  -1   59.67    0.91
   7  -3   1   51.66    0.89
  -7  -3  -1   52.56    0.82
  -7  -3  -1   51.93    0.82
  -7  -3  -1   52.74    0.89
  -7   3  -1   53.83    0.89
  -7   3  -1   52.55    0.86
   7   3   1   52.10    0.90
  -7   3  -1   52.22    0.84
   9  -3   1   14.18    0.43
  -9  -3  -1   15.15    0.38
  -9  -3  -1   15.02    0.44
  -9   3  -1   15.69    0.41
  -9   3  -1   15.33    0.39
  -9   3  -1   15.60    0.44
   9   3   1   15.47    0.44
 -11  -3  -1    9.46    0.38
  11  -3   1    9.25    0.38
  11   3   1    9.03    0.37
 -11   3  -1    8.96    0.35
 -11   3  -1    9.23    0.38
  10  -4  -1    3.58    0.25
 -10  -4   1    3.75    0.25
 -10   4   1    3.33    0.22
 -10   4   1    3.73    0.24
  10   4  -1    3.75    0.26
  -8  -4   1    8.13    0.31
   8  -4  -1    8.17    0.30
  -8  -4   1    7.91    0.26
   8   4  -1    8.15    0.32
  -8   4   1    7.76    0.27
  -8   4   1    8.09    0.30
  -8   4   1    8.09    0.27
   6  -4  -1    3.78    0.18
   6  -4  -1    3.87    0.15
  -6  -4   1    3.97    0.16
  -6  -4   1    3.79    0.15
  -6  -4   1    3.78    0.19
  -6   4   1    3.86    0.16
  -6   4   1    4.01    0.19
   6   4  -1    3.75    0.20
  -6   4   1    4.02    0.14
  -6   4   1    4.11    0.18
  -4  -4   1    3.04    0.12
  -4  -4   1    2.56    0.14
  -4  -4   1    3.19    0.13
   4  -4  -1    2.82    0.13
  -4   4   1    2.97    0.11
   4   4  -1    2.76    0.16
  -4   4   1    3.07    0.15
  -4   4   1    3.06    0.12
  -4   4   1    3.13    0.14
  -2  -4   1   68.67    0.99
  -2  -4   1   68.65    0.98
   2  -4  -1   68.68    0.94
  -2  -4   1   70.37    0.93
   2  -4  -1   68.48    0.97
   2   4  -1   67.28    1.01
  -2   4   1   69.86    1.00
  -2   4   1   69.90    0.96
   0  -4  -1   46.50    0.73
   0  -4   1   48.25    0.70
   0  -4   1   48.24    0.66
   0  -4  -1   47.90    0.64
   0  -4  -1   48.49    0.70
   0   4   1   47.06    0.72
   0   4  -1   47.76    0.71
   0   4   1   46.22    0.72
  -2  -4  -1   21.48    0.39
   2  -4   1   21.43    0.39
  -2  -4  -1   21.07    0.40
   2  -4   1   20.80    0.36
  -2  -4  -1   20.83    0.32
   2   4   1   21.45    0.30
  -2   4  -1   21.54    0.40
  -2   4  -1   21.03    0.35
   2   4   1   21.02    0.42
  -4  -4  -1    0.63    0.08
  -4  -4  -1    0.59    0.06
   4  -4   1    0.64    0.08
  -4  -4  -1    0.65    0.08
   4   4   1    0.48    0.08
  -4   4  -1    0.63    0.05
  -4   4  -1    0.69    0.09
  -4   4  -1    0.67    0.09
  -6  -4  -1    0.39    0.08
  -6  -4  -1    0.47    0.06
   6  -4   1    0.51    0.09
  -6  -4  -1    0.41    0.08
  -6   4  -1    0.47    0.08
  -6   4  -1    0.54    0.09
  -6   4  -1    0.49    0.09
   6   4   1    0.49    0.09
   8  -4   1    4.91    0.24
  -8  -4  -1    4.99    0.24
  -8  -4  -1    4.95    0.21
  -8   4  -1    5.02    0.22
   8   4   1    4.53    0.25
  -8   4  -1    4.67    0.24
  -8   4  -1    5.15    0.22
 -10  -4  -1    1.28    0.18
  10  -4   1    0.93    0.15
  10   4   1    1.20    0.17
 -10   4  -1    0.99    0.14
 -10   4  -1    1.17    0.15
 -10   4  -1    0.80    0.15
  -9  -5   1    1.57    0.18
   9  -5  -1    1.62    0.18
  -9   5   1    1.61    0.16
  -9   5   1    1.35    0.18
   9   5  -1    1.59    0.19
  -9   5   1    1.64    0.16
  -7  -5   1   18.78    0.47
  -7  -5   1   18.81    0.42
   7  -5  -1   19.04    0.46
   7   5  -1   19.32    0.51
  -7   5   1   18.12    0.47
  -7   5   1   19.25    0.43
  -7   5   1   18.46    0.44
  -5  -5   1   13.71    0.35
  -5  -5   1   12.74    0.32
  -5  -5   1   13.36    0.29
   5  -5  -1   13.17    0.32
   5  -5  -1   12.83    0.33
  -5   5   1   13.24    0.28
  -5   5   1   12.54    0.33
   5   5  -1   13.00    0.37
  -5   5   1   12.43    0.35
  -3  -5   1   34.47    0.60
  -3  -5   1   33.67    0.59
   3  -5  -1   33.80    0.55
  -3  -5   1   34.67    0.53
   3  -5  -1   33.75    0.57
  -3   5   1   32.66    0.60
  -3   5   1   34.33    0.55
   3   5  -1   34.07    0.63
  -1  -5   1    2.24    0.13
   1  -5  -1    2.41    0.11
   1  -5  -1    2.41    0.14
   1  -5  -1    2.33    0.09
  -1  -5   1    2.29    0.12
  -1  -5   1    2.25    0.09
   1   5  -1    2.32    0.13
  -1   5   1    2.40    0.13
   1   5  -1    2.54    0.13
  -1   5   1    2.36    0.12
  -1  -5  -1    1.29    0.10
   1  -5   1    1.38    0.08
  -1  -5  -1    1.17    0.09
  -1  -5  -1    1.36    0.06
   1  -5   1    1.45    0.10
  -1   5  -1    1.44    0.11
  -1   5  -1    1.30    0.09
   1   5   1    1.09    0.10
  -3  -5  -1    2.98    0.15
  -3  -5  -1    3.08    0.10
   3  -5   1    3.17    0.14
   3  -5   1    3.17    0.13
  -3  -5  -1    2.95    0.15
  -3   5  -1    2.93    0.15
  -3   5  -1    3.15    0.11
   3   5   1    3.12    0.17
   5  -5   1    3.47    0.16
  -5  -5  -1    3.39    0.18
  -5  -5  -1    3.34    0.16
   5  -5   1    3.49    0.17
  -5   5  -1    3.41    0.19
  -5   5  -1    3.57    0.18
   5   5   1    3.22    0.19
  -7  -5  -1   24.04    0.51
   7  -5   1   22.68    0.53
  -7  -5  -1   24.16    0.55
   7   5   1   25.08    0.59
  -7   5  -1   23.69    0.56
  -7   5  -1   24.05    0.53
  -9  -5  -1   13.56    0.44
   9  -5   1   13.30    0.42
  -9   5  -1   14.13    0.41
   9   5   1   14.00    0.46
  -9   5  -1   14.20    0.45
  10  -6  -1    0.05    0.11
 -10  -6   1    0.19    0.12
 -10   6   1   -0.07    0.11
   8  -6  -1    1.14    0.14
  -8  -6   1    1.34    0.18
   8  -6  -1    1.01    0.14
  -8   6   1    1.32    0.16
  -8   6   1    1.27    0.17
   8   6  -1    1.28    0.17
   6  -6  -1    2.24    0.15
   6  -6  -1    2.22    0.15
  -6  -6   1    2.33    0.18
  -6  -6   1    2.14    0.15
   6   6  -1    2.49    0.20
  -6   6   1    2.40    0.21
  -6   6   1    2.15    0.17
   4  -6  -1    4.78    0.17
   4  -6  -1    4.58    0.19
  -4  -6   1    4.79    0.21
  -4  -6   1    4.58    0.20
   4   6  -1    5.00    0.23
  -4   6   1    4.76    0.17
  -4   6   1    4.74    0.21
   2  -6  -1    0.23    0.06
  -2  -6   1    0.31    0.07
   2  -6  -1    0.26    0.07
  -2  -6   1    0.33    0.08
   2  -6  -1    0.45    0.06
  -2   6   1    0.17    0.07
   2   6  -1    0.36    0.08
  -2   6   1    0.39    0.07
   0  -6   1    3.22    0.15
   0  -6  -1    3.10    0.17
   0  -6   1    3.04    0.17
   0  -6  -1    4.23    0.16
   0  -6   1    3.33    0.12
   0   6   1    3.27    0.16
   0   6  -1    2.94    0.15
   0   6  -1    3.01    0.16
  -2  -6  -1    3.23    0.17
   2  -6   1    2.87    0.15
   2  -6   1    2.90    0.12
  -2  -6  -1    3.11    0.16
  -2   6  -1    3.18    0.17
  -2   6  -1    3.01    0.13
   2   6   1    2.98    0.17
  -4  -6  -1    1.78    0.14
   4  -6   1    1.68    0.10
  -4  -6  -1    2.01    0.15
   4  -6   1    1.72    0.13
  -4   6  -1    1.99    0.15
   4   6   1    2.02    0.18
  -6  -6  -1    0.85    0.12
   6  -6   1    0.78    0.11
   6  -6   1    0.75    0.11
  -6  -6  -1    0.61    0.11
  -6   6  -1    0.66    0.11
  -6   6  -1    0.55    0.11
   6   6   1    0.80    0.14
  -8  -6  -1    1.17    0.16
  -8  -6  -1    1.35    0.16
   8  -6   1    1.29    0.15
   8  -6   1    1.56    0.17
   8   6   1    1.31    0.18
  -8   6  -1    1.28    0.18
  -8   6  -1    1.29    0.16
  -9  -7   1    5.47    0.32
   9  -7  -1    5.75    0.28
  -9   7   1    5.48    0.29
  -9   7   1    6.21    0.34
   7  -7  -1    0.57    0.11
  -7  -7   1    0.23    0.12
  -7   7   1    0.52    0.12
   7   7  -1    0.62    0.15
   5  -7  -1    6.12    0.24
  -5  -7   1    6.21    0.26
  -5  -7   1    6.45    0.27
   5   7  -1    6.00    0.29
  -5   7   1    5.76    0.26
   3  -7  -1    2.43    0.15
   3  -7  -1    2.40    0.17
  -3  -7   1    2.20    0.16
  -3  -7   1    2.29    0.16
  -3   7   1    2.08    0.17
   3   7  -1    2.04    0.17
  -3   7   1    2.40    0.14
   1  -7  -1    4.98    0.23
   1  -7  -1    5.31    0.20
  -1  -7   1    5.40    0.23
  -1  -7   1    5.35    0.21
  -1   7   1    5.28    0.21
   1   7  -1    5.15    0.22
  -1  -7  -1    5.00    0.22
   1  -7   1    4.77    0.20
   1  -7   1    4.76    0.23
  -1  -7  -1    4.89    0.20
  -1   7  -1    4.97    0.20
   1   7   1    4.38    0.21
  -1   7  -1    4.67    0.22
   3  -7   1    0.36    0.09
  -3  -7  -1    0.19    0.08
  -3  -7  -1    0.23    0.08
  -3   7  -1    0.30    0.10
   3   7   1    0.33    0.09
  -5  -7  -1    2.28    0.19
  -5  -7  -1    2.65    0.18
   5  -7   1    3.04    0.18
   5  -7   1    2.40    0.15
   5   7   1    2.64    0.21
  -5   7  -1    2.80    0.20
  -7  -7  -1    0.95    0.15
   7  -7   1    1.64    0.16
   7  -7   1    1.30    0.16
  -7  -7  -1    1.01    0.15
   7   7   1    1.08    0.17
  -7   7  -1    1.38    0.17
   6  -8  -1    1.45    0.19
  -6  -8   1    1.50    0.18
   6  -8  -1    1.97    0.18
  -6  -8   1    1.76    0.19
   6   8  -1    1.99    0.22
  -6   8   1    1.65    0.19
  -4  -8   1   14.25    0.43
  -4  -8   1   14.61    0.42
   4  -8  -1   14.18    0.44
   4  -8  -1   13.64    0.39
   4   8  -1   14.06    0.44
  -4   8   1   14.09    0.43
  -2  -8   1    0.22    0.09
   2  -8  -1    0.46    0.12
   2  -8  -1    0.33    0.09
  -2  -8   1    0.43    0.11
  -2   8   1    0.45    0.09
   2   8  -1    0.37    0.10
   0  -8  -1    4.84    0.24
   0  -8   1    4.85    0.23
   0  -8   1    4.86    0.26
   0  -8  -1    3.99    0.20
   0   8  -1    4.59    0.22
   0   8   1    4.51    0.22
  -2  -8  -1   -0.07    0.07
   2  -8   1    0.02    0.07
   2  -8   1   -0.11    0.08
  -2  -8  -1   -0.03    0.09
  -2   8  -1    0.09    0.08
   2   8   1    0.01    0.07
  -4  -8  -1    3.41    0.21
   4  -8   1    3.79    0.21
   4  -8   1    3.52    0.25
  -4  -8  -1    3.22    0.22
  -4   8  -1    3.67    0.23
   4   8   1    3.24    0.23
  -6  -8  -1    2.39    0.21
   6  -8   1    2.11    0.19
  -6  -8  -1    1.97    0.20
   6   8   1    1.98    0.21
  -6   8  -1    2.18    0.22
   5  -9  -1   16.27    0.51
   5  -9  -1   15.73    0.45
  -5  -9   1   15.25    0.48
  -5  -9   1   15.34    0.48
   5   9  -1   16.08    0.52
  -5   9   1   15.04    0.50
   3  -9  -1    0.73    0.16
  -3  -9   1    0.57    0.13
  -3  -9   1    0.54    0.13
   3  -9  -1    0.81    0.13
   3   9  -1    0.58    0.13
   1  -9  -1    8.47    0.31
  -1  -9   1    8.40    0.32
  -1  -9   1    7.70    0.33
   1  -9  -1    8.12    0.35
   1   9  -1    8.62    0.32
   1  -9   1    2.82    0.21
  -1  -9  -1    2.48    0.22
  -1  -9  -1    2.97    0.22
   1  -9   1    2.82    0.25
   1   9   1    2.97    0.22
   3  -9   1    0.81    0.14
  -3  -9  -1    0.71    0.14
   3  -9   1    0.89    0.16
  -3  -9  -1    0.81    0.15
   3   9   1    0.64    0.13
  -3   9  -1    0.97    0.17
   5  -9   1    3.65    0.28
  -5  -9  -1    3.63    0.26
   5  -9   1    3.75    0.24
  -5  -9  -1    3.61    0.26
  -5   9  -1    3.68    0.27
 -12   0   2    2.04    0.21
 -12   0   2    2.08    0.22
 -10   0   2    0.67    0.12
  10   0  -2    0.52    0.11
 -10   0   2    0.90    0.13
  -8   0   2   24.95    0.43
  -8   0   2   23.82    0.50
  -8   0   2   24.50    0.52
   8   0  -2   25.11    0.51
   6   0  -2   19.72    0.29
   6   0  -2   20.73    0.41
  -6   0   2   20.27    0.34
  -6   0   2   20.67    0.40
  -6   0   2   20.42    0.40
  -4   0   2  226.48    2.77
   4   0  -2  222.66    2.76
  -4   0   2  220.35    2.83
   4   0  -2  220.80    2.84
  -2   0   2  253.31    3.14
   2   0  -2  254.87    3.15
  -2   0   2  252.23    3.15
  -2   0   2  261.82    3.15
  -2   0   2  243.01    3.11
   2   0  -2  254.41    3.16
   0   0  -2  121.08    1.50
   0   0   2  122.79    1.52
   0   0  -2  124.61    1.50
   0   0   2  122.09    1.52
   0   0   2  117.43    1.51
   2   0   2  384.93    4.76
  -2   0  -2  385.30    4.74
  -2   0  -2  381.87    4.77
  -2   0  -2  373.93    4.75
  -2   0  -2  381.98    4.77
  -4   0  -2    2.88    0.11
  -4   0  -2    3.09    0.11
   4   0   2    3.09    0.10
  -4   0  -2    3.01    0.12
  -6   0  -2    4.49    0.16
  -6   0  -2    4.35    0.15
   6   0   2    4.28    0.15
  -6   0  -2    4.56    0.17
  -8   0  -2   50.70    0.81
  -8   0  -2   50.57    0.84
   8   0   2   51.43    0.83
  -8   0  -2   51.29    0.88
 -10   0  -2   66.29    1.09
 -10   0  -2   68.53    1.17
 -10   0  -2   67.85    1.11
 -12   0  -2    3.43    0.24
 -12   0  -2    3.07    0.25
 -11  -1   2    7.42    0.33
 -11  -1   2    8.65    0.32
 -11   1   2    7.92    0.34
  11   1  -2    8.19    0.34
 -11   1   2    8.51    0.33
  -9  -1   2   17.66    0.45
   9  -1  -2   17.71    0.42
  -9  -1   2   17.87    0.43
   9   1  -2   18.11    0.45
  -9   1   2   17.48    0.43
  -9   1   2   18.21    0.45
  -7  -1   2   36.74    0.65
  -7  -1   2   35.36    0.63
  -7  -1   2   37.20    0.56
   7  -1  -2   36.11    0.62
  -7   1   2   36.60    0.64
  -7   1   2   36.91    0.57
  -7   1   2   36.57    0.63
   7   1  -2   36.32    0.66
  -5  -1   2   44.57    0.62
  -5  -1   2   44.07    0.69
  -5  -1   2   44.06    0.67
   5  -1  -2   44.30    0.68
   5  -1  -2   44.44    0.60
  -5   1   2   44.03    0.68
  -5   1   2   45.05    0.68
  -5   1   2   43.98    0.63
   5   1  -2   44.72    0.60
   5   1  -2   43.22    0.70
  -3  -1   2  130.53    1.73
   3  -1  -2  129.77    1.73
  -3  -1   2  134.93    1.68
  -3  -1   2  136.27    1.72
  -3   1   2  135.15    1.71
  -3   1   2  131.13    1.72
  -3   1   2  135.59    1.73
  -3   1   2  135.00    1.69
   3   1  -2  135.97    1.70
  -3   1   2  136.41    1.73
   3   1  -2  134.42    1.75
   1  -1  -2  468.73    6.02
  -1  -1   2  473.51    6.00
  -1  -1   2  485.64    6.00
  -1  -1   2  487.23    6.04
  -1   1   2  484.91    5.98
  -1   1   2  488.13    5.98
  -1   1   2  470.82    6.04
   1   1  -2  489.91    5.99
   1   1  -2  476.85    6.10
  -1   1   2  468.39    6.06
   1   1  -2  487.24    6.12
  -1   1   2  478.52    5.99
  -1  -1  -2   10.66    0.18
   1  -1   2   10.49    0.18
  -1  -1  -2   10.66    0.15
  -1  -1  -2   10.35    0.17
   1   1   2   10.66    0.19
  -1   1  -2   10.38    0.18
  -1   1  -2   10.76    0.18
   3  -1   2    8.70    0.15
  -3  -1  -2    8.79    0.17
  -3  -1  -2    8.45    0.18
  -3   1  -2    8.64    0.18
  -3   1  -2    8.68    0.19
   3   1   2    8.52    0.19
  -5  -1  -2    0.84    0.07
   5  -1   2    0.83    0.06
  -5  -1  -2    0.70    0.08
  -5  -1  -2    0.79    0.07
  -5   1  -2    1.04    0.09
  -5   1  -2    0.77    0.07
   5   1   2    0.95    0.08
  -5   1  -2    0.88    0.08
   7  -1   2  186.14    2.45
  -7  -1  -2  191.92    2.48
  -7  -1  -2  186.44    2.53
  -7  -1  -2  186.74    2.48
  -7   1  -2  187.97    2.53
  -7   1  -2  188.53    2.50
   7   1   2  184.01    2.50
  -7   1  -2  188.02    2.47
  -9  -1  -2    0.35    0.08
  -9  -1  -2    0.32    0.10
  -9  -1  -2    0.38    0.08
   9   1   2    0.34    0.09
  -9   1  -2    0.19    0.08
  -9   1  -2    0.17    0.07
  -9   1  -2    0.30    0.08
 -11  -1  -2    3.08    0.23
 -11  -1  -2    2.89    0.20
 -11   1  -2    2.81    0.20
 -11   1  -2    3.13    0.24
 -12  -2   2    2.18    0.21
 -12  -2   2    1.16    0.18
  12   2  -2    1.45    0.20
 -12   2   2    1.18    0.18
 -12   2   2    1.66    0.19
 -10  -2   2    2.10    0.18
 -10  -2   2    2.35    0.21
 -10   2   2    1.95    0.18
 -10   2   2    1.92    0.18
  10   2  -2    2.02    0.19
   8  -2  -2    1.22    0.10
  -8  -2   2    1.29    0.12
  -8  -2   2    1.52    0.15
  -8   2   2    1.10    0.12
  -8   2   2    1.20    0.12
  -8   2   2    1.23    0.10
   8   2  -2    1.35    0.14
  -6  -2   2   11.44    0.30
   6  -2  -2   11.40    0.27
  -6  -2   2   11.53    0.24
  -6  -2   2   11.57    0.27
  -6   2   2   11.58    0.25
  -6   2   2   11.54    0.29
   6   2  -2   11.62    0.31
  -6   2   2   11.71    0.28
  -4  -2   2    0.84    0.06
  -4  -2   2    0.96    0.08
   4  -2  -2    0.76    0.06
  -4  -2   2    0.85    0.07
  -4   2   2    0.83    0.06
  -4   2   2    0.84    0.07
  -4   2   2    0.87    0.06
  -4   2   2    0.78    0.07
   4   2  -2    0.86    0.09
   4   2  -2    0.93    0.06
  -2  -2   2   90.88    1.18
  -2  -2   2   90.77    1.18
   2   2  -2   90.84    1.21
  -2   2   2   90.19    1.17
  -2   2   2   92.06    1.19
   2   2  -2   91.30    1.22
  -2   2   2   93.33    1.19
  -2   2   2   88.06    1.18
  -2   2   2   91.62    1.19
   0  -2  -2  968.02   12.14
   0  -2   2  918.89   11.98
   0  -2  -2  967.92   11.79
   0  -2  -2  965.97   12.00
   0  -2   2  969.13   11.84
   0  -2   2  952.24   12.10
   0   2   2  962.39   11.90
   0   2  -2  962.61   12.04
   0   2  -2  947.16   12.17
   0   2   2 1000.00   12.21
   0   2  -2  959.26   12.10
  -2  -2  -2   54.13    0.76
  -2  -2  -2   55.23    0.76
   2  -2   2   54.76    0.77
  -2  -2  -2   54.97    0.71
  -2   2  -2   54.98    0.77
  -2   2  -2   55.14    0.77
   2   2   2   54.95    0.78
  -2   2  -2   55.95    0.70
  -2   2  -2   54.91    0.78
  -4  -2  -2    3.95    0.13
  -4  -2  -2    4.46    0.15
   4  -2   2    4.16    0.10
  -4  -2  -2    4.16    0.12
  -4   2  -2    3.97    0.13
  -4   2  -2    4.05    0.15
  -4   2  -2    4.19    0.14
  -6  -2  -2   21.76    0.41
  -6  -2  -2   21.18    0.40
  -6  -2  -2   21.39    0.44
   6  -2   2   21.70    0.37
  -6   2  -2   21.22    0.44
  -6   2  -2   20.83    0.41
  -6   2  -2   21.70    0.42
   6   2   2   21.13    0.44
  -8  -2  -2    3.61    0.20
  -8  -2  -2    2.99    0.15
  -8  -2  -2    3.59    0.17
  -8   2  -2    3.56    0.20
  -8   2  -2    3.57    0.18
   8   2   2    3.57    0.19
  -8   2  -2    3.64    0.17
  10  -2   2    0.30    0.11
 -10  -2  -2    0.24    0.09
 -10  -2  -2    0.20    0.10
 -10   2  -2    0.12    0.10
 -10   2  -2    0.31    0.09
 -10   2  -2    0.30    0.09
  10   2   2    0.20    0.10
 -12  -2  -2    6.70    0.30
 -12  -2  -2    6.53    0.34
 -12   2  -2    6.83    0.35
 -11  -3   2    3.25    0.22
 -11  -3   2    3.60    0.26
  11   3  -2    3.40    0.26
 -11   3   2    3.27    0.22
 -11   3   2    3.46    0.25
  -9  -3   2   -0.03    0.08
  -9  -3   2    0.17    0.08
   9   3  -2    0.12    0.09
  -9   3   2    0.05    0.06
  -9   3   2   -0.04    0.07
  -7  -3   2    0.40    0.09
   7  -3  -2    0.34    0.06
  -7  -3   2    0.37    0.06
  -7  -3   2    0.26    0.07
  -7   3   2    0.26    0.07
  -7   3   2    0.17    0.06
  -7   3   2    0.37    0.08
   7   3  -2    0.19    0.08
  -5  -3   2    6.74    0.18
  -5  -3   2    7.05    0.19
  -5  -3   2    6.91    0.22
   5  -3  -2    6.89    0.19
  -5   3   2    6.77    0.18
  -5   3   2    6.91    0.20
   5   3  -2    6.59    0.23
  -5   3   2    6.94    0.21
  -5   3   2    7.13    0.20
  -3  -3   2    3.85    0.12
  -3  -3   2    3.80    0.12
  -3  -3   2    3.94    0.14
   3   3  -2    3.81    0.14
  -3   3   2    3.85    0.12
  -3   3   2    4.12    0.12
   3   3  -2    3.67    0.15
  -3   3   2    3.88    0.13
  -3   3   2    4.05    0.14
   1  -3  -2    1.55    0.09
   1  -3  -2    1.52    0.06
   1  -3  -2    1.41    0.06
  -1  -3   2    1.49    0.08
  -1  -3   2    1.58    0.08
  -1  -3   2    1.47    0.07
  -1   3   2    1.48    0.08
  -1   3   2    1.44    0.08
   1   3  -2    1.53    0.09
   1   3  -2    1.41    0.08
  -1   3   2    1.46    0.06
   1   3  -2    1.54    0.10
  -1  -3  -2   96.96    1.33
  -1  -3  -2  101.49    1.31
  -1  -3  -2   99.47    1.24
   1  -3   2   98.52    1.32
   1  -3   2   98.05    1.30
  -1   3  -2  101.69    1.29
  -1   3  -2   99.91    1.33
   1   3   2  101.19    1.26
   1   3   2   98.10    1.34
  -3  -3  -2  126.33    1.66
   3  -3   2  125.88    1.67
  -3  -3  -2  126.62    1.60
  -3  -3  -2  122.18    1.66
   3   3   2  125.20    1.70
  -3   3  -2  120.64    1.67
  -3   3  -2  126.42    1.69
  -3   3  -2  127.01    1.58
  -5  -3  -2   12.28    0.30
   5  -3   2   12.73    0.24
  -5  -3  -2   12.37    0.29
  -5  -3  -2   12.47    0.25
  -5   3  -2   12.08    0.29
  -5   3  -2   12.48    0.31
   5   3   2   12.07    0.32
  -5   3  -2   12.57    0.29
  -7  -3  -2    1.30    0.12
  -7  -3  -2    1.36    0.11
   7  -3   2    1.53    0.15
  -7  -3  -2    1.50    0.14
  -7   3  -2    1.44    0.12
   7   3   2    1.27    0.14
  -7   3  -2    1.44    0.13
  -7   3  -2    1.25    0.13
   9  -3   2    2.13    0.20
  -9  -3  -2    2.09    0.15
  -9  -3  -2    2.22    0.19
  -9  -3  -2    2.03    0.15
  -9   3  -2    1.72    0.17
  -9   3  -2    1.78    0.16
   9   3   2    1.85    0.18
  -9   3  -2    2.05    0.16
  11  -3   2    4.07    0.27
 -11  -3  -2    3.70    0.26
 -11   3  -2    3.72    0.26
 -11   3  -2    3.67    0.23
  11   3   2    4.11    0.26
 -10  -4   2    6.89    0.32
 -10  -4   2    6.89    0.27
  10  -4  -2    7.53    0.33
  10   4  -2    7.06    0.34
 -10   4   2    6.68    0.29
 -10   4   2    6.60    0.31
  -8  -4   2    8.06    0.31
  -8  -4   2    8.65    0.27
  -8   4   2    8.50    0.28
  -8   4   2    8.27    0.30
   8   4  -2    8.27    0.32
  -8   4   2    8.31    0.27
   6  -4  -2    1.00    0.10
   6  -4  -2    1.37    0.13
  -6  -4   2    1.09    0.12
  -6  -4   2    1.20    0.10
  -6  -4   2    1.17    0.10
  -6   4   2    1.23    0.11
   6   4  -2    1.25    0.14
  -6   4   2    1.02    0.10
  -6   4   2    1.21    0.12
  -6   4   2    1.06    0.09
   4  -4  -2    0.03    0.03
  -4  -4   2    0.06    0.04
  -4  -4   2    0.04    0.03
  -4  -4   2    0.06    0.05
  -4   4   2    0.00    0.04
  -4   4   2    0.08    0.04
   4   4  -2    0.00    0.05
  -4   4   2    0.12    0.04
  -4   4   2    0.19    0.05
   2  -4  -2   11.89    0.25
  -2  -4   2   11.79    0.27
  -2  -4   2   12.21    0.27
  -2  -4   2   12.23    0.24
   2  -4  -2   12.37    0.23
  -2   4   2   12.24    0.25
  -2   4   2   12.39    0.28
   2   4  -2   11.98    0.29
   0  -4   2    8.97    0.19
   0  -4  -2    9.44    0.16
   0  -4   2    9.09    0.22
   0  -4  -2    9.29    0.20
   0  -4  -2    9.45    0.24
   0   4  -2    9.19    0.23
   0   4   2    9.39    0.23
   0   4  -2    9.33    0.21
   0   4   2    9.34    0.15
  -2  -4  -2    0.08    0.04
   2  -4   2    0.18    0.04
   2  -4   2    0.14    0.04
  -2  -4  -2    0.19    0.05
  -2  -4  -2    0.13    0.03
   2   4   2    0.11    0.02
  -2   4  -2    0.16    0.05
   2   4   2    0.16    0.05
  -2   4  -2    0.15    0.03
  -4  -4  -2   43.85    0.63
   4  -4   2   43.40    0.71
  -4  -4  -2   43.77    0.71
  -4  -4  -2   43.65    0.71
  -4   4  -2   44.23    0.61
  -4   4  -2   41.99    0.73
   4   4   2   44.23    0.75
  -4   4  -2   43.39    0.71
  -6  -4  -2    2.23    0.14
  -6  -4  -2    2.38    0.15
   6  -4   2    2.50    0.15
  -6  -4  -2    2.43    0.12
  -6   4  -2    2.30    0.16
   6   4   2    2.20    0.16
  -6   4  -2    2.39    0.14
   8  -4   2    4.82    0.24
  -8  -4  -2    4.50    0.24
  -8  -4  -2    4.19    0.20
  -8   4  -2    4.63    0.24
  -8   4  -2    4.62    0.21
  -8   4  -2    4.44    0.21
   8   4   2    4.31    0.24
 -10  -4  -2    6.42    0.31
  10  -4   2    5.27    0.28
 -10   4  -2    6.27    0.31
  10   4   2    6.26    0.31
 -10   4  -2    5.62    0.26
 -10   4  -2    5.36    0.27
 -11  -5   2    9.53    0.41
  11  -5  -2    8.80    0.40
 -11   5   2    9.85    0.41
 -11   5   2    9.52    0.38
   9  -5  -2    2.09    0.20
  -9  -5   2    2.06    0.21
   9   5  -2    2.58    0.25
  -9   5   2    2.31    0.22
  -9   5   2    1.96    0.17
  -9   5   2    2.21    0.17
  -7  -5   2   76.28    1.15
   7  -5  -2   76.79    1.21
  -7  -5   2   75.86    1.24
  -7   5   2   75.39    1.17
  -7   5   2   78.43    1.19
  -7   5   2   76.73    1.23
   7   5  -2   76.01    1.29
  -5  -5   2    0.00    0.04
   5  -5  -2   -0.05    0.04
  -5  -5   2   -0.03    0.06
  -5  -5   2    0.01    0.05
   5  -5  -2    0.03    0.05
  -5   5   2    0.00    0.04
  -5   5   2   -0.02    0.05
   5   5  -2    0.06    0.06
  -5   5   2    0.05    0.06
   3  -5  -2    1.52    0.10
   3  -5  -2    1.38    0.08
  -3  -5   2    1.69    0.11
  -3  -5   2    1.47    0.11
  -3  -5   2    1.65    0.09
   3   5  -2    1.45    0.12
  -3   5   2    1.57    0.12
  -3   5   2    1.52    0.09
  -1  -5   2    8.98    0.20
  -1  -5   2    8.83    0.24
   1  -5  -2    8.92    0.18
   1  -5  -2    9.11    0.22
  -1  -5   2    8.64    0.25
   1  -5  -2    8.96    0.25
  -1   5   2    8.83    0.25
   1   5  -2    9.01    0.25
  -1   5   2    8.77    0.24
   1   5  -2    9.15    0.25
   1  -5   2    9.30    0.24
  -1  -5  -2    9.00    0.17
  -1  -5  -2    8.91    0.25
   1  -5   2    9.41    0.21
  -1  -5  -2    9.13    0.23
  -1   5  -2    9.25    0.26
  -1   5  -2    9.64    0.22
   1   5   2    9.80    0.26
   3  -5   2    4.62    0.16
  -3  -5  -2    4.69    0.18
   3  -5   2    4.98    0.18
  -3  -5  -2    4.60    0.18
  -3   5  -2    4.43    0.19
   3   5   2    4.53    0.20
  -3   5  -2    4.76    0.13
  -5  -5  -2    9.22    0.28
   5  -5   2    8.68    0.28
   5  -5   2    9.43    0.28
  -5  -5  -2    9.17    0.27
   5   5   2    8.85    0.31
  -5   5  -2    9.33    0.29
  -5   5  -2    8.99    0.30
   7  -5   2    9.16    0.32
  -7  -5  -2    9.20    0.32
  -7  -5  -2   10.09    0.31
  -7   5  -2    9.70    0.34
  -7   5  -2   10.03    0.32
   7   5   2   10.00    0.35
  -9  -5  -2    2.62    0.23
   9  -5   2    2.52    0.23
   9   5   2    2.73    0.23
  -9   5  -2    2.37    0.20
  -9   5  -2    2.83    0.23
 -10  -6   2    0.26    0.13
  10  -6  -2    0.14    0.10
 -10   6   2    0.26    0.13
   8  -6  -2    9.82    0.33
   8  -6  -2   10.27    0.34
  -8  -6   2    9.79    0.37
  -8   6   2    9.28    0.36
  -8   6   2    9.58    0.34
   8   6  -2    9.78    0.39
   6  -6  -2    6.38    0.24
  -6  -6   2    6.52    0.24
  -6  -6   2    6.75    0.28
   6  -6  -2    6.41    0.24
  -6   6   2    6.23    0.27
   6   6  -2    6.29    0.29
  -6   6   2    6.62    0.26
   4  -6  -2    0.20    0.05
  -4  -6   2    0.20    0.08
   4  -6  -2    0.15    0.05
  -4  -6   2    0.09    0.06
  -4   6   2    0.15    0.06
  -4   6   2    0.09    0.07
   4   6  -2    0.09    0.07
  -2  -6   2    2.63    0.15
  -2  -6   2    2.30    0.11
   2  -6  -2    2.31    0.13
   2  -6  -2    2.44    0.16
  -2  -6   2    2.18    0.14
  -2   6   2    2.09    0.13
  -2   6   2    2.06    0.15
   2   6  -2    2.19    0.15
   0  -6   2    1.21    0.11
   0  -6   2    1.28    0.13
   0  -6   2    1.15    0.08
   0  -6  -2    1.02    0.10
   0  -6  -2    1.11    0.12
   0   6   2    1.02    0.11
   0   6  -2    1.17    0.12
   0   6  -2    1.06    0.11
   2  -6   2   28.85    0.54
  -2  -6  -2   27.84    0.56
  -2  -6  -2   28.71    0.54
   2  -6   2   28.45    0.50
  -2   6  -2   29.15    0.49
   2   6   2   30.28    0.59
  -2   6  -2   27.76    0.56
   4  -6   2    6.98    0.23
  -4  -6  -2    6.78    0.25
  -4  -6  -2    6.81    0.25
   4  -6   2    7.05    0.25
  -4   6  -2    7.30    0.27
   4   6   2    6.87    0.27
  -6  -6  -2    1.87    0.17
   6  -6   2    1.84    0.15
   6  -6   2    2.08    0.16
  -6  -6  -2    1.85    0.17
  -6   6  -2    2.17    0.17
  -6   6  -2    1.94    0.19
   6   6   2    1.84    0.19
   8  -6   2    0.22    0.09
  -8  -6  -2    0.28    0.12
  -8  -6  -2    0.31    0.10
   8  -6   2    0.30    0.10
  -8   6  -2    0.28    0.10
  -8   6  -2    0.05    0.10
   8   6   2    0.15    0.10
  -9  -7   2    5.90    0.33
   9  -7  -2    5.54    0.28
  -9   7   2    5.39    0.32
  -9   7   2    5.50    0.29
  -7  -7   2   16.04    0.48
   7  -7  -2   15.57    0.42
  -7   7   2   15.27    0.45
   7   7  -2   16.38    0.51
  -5  -7   2   17.89    0.47
   5  -7  -2   17.21    0.42
   5  -7  -2   17.43    0.48
  -5  -7   2   18.24    0.45
   5   7  -2   18.25    0.50
  -5   7   2   17.87    0.46
   3  -7  -2    1.83    0.14
  -3  -7   2    1.99    0.16
   3  -7  -2    2.10    0.19
  -3  -7   2    1.80    0.16
  -3   7   2    1.62    0.16
   3   7  -2    1.84    0.16
  -3   7   2    2.00    0.13
  -1  -7   2    7.63    0.28
   1  -7  -2    7.19    0.24
  -1  -7   2    7.09    0.25
   1  -7  -2    6.75    0.27
  -1   7   2    7.44    0.25
   1   7  -2    7.46    0.26
   1  -7   2    1.27    0.13
  -1  -7  -2    1.48    0.13
  -1  -7  -2    1.37    0.15
   1  -7   2    1.36    0.15
   1   7   2    1.15    0.13
  -1   7  -2    1.44    0.12
  -1   7  -2    1.20    0.14
  -3  -7  -2    0.08    0.07
   3  -7   2    0.03    0.05
  -3  -7  -2   -0.04    0.07
   3  -7   2    0.05    0.06
  -3   7  -2    0.06    0.07
   3   7   2    0.03    0.07
   5  -7   2    5.62    0.24
  -5  -7  -2    5.57    0.26
   5  -7   2    5.28    0.22
  -5  -7  -2    5.79    0.26
   5   7   2    5.60    0.28
  -5   7  -2    5.77    0.27
   7  -7   2   16.08    0.46
  -7  -7  -2   17.02    0.46
  -7  -7  -2   16.73    0.49
   7  -7   2   17.39    0.46
  -7   7  -2   16.59    0.48
   7   7   2   16.44    0.51
  -6  -8   2    0.31    0.12
  -6  -8   2    0.46    0.13
   6  -8  -2    0.30    0.09
   6  -8  -2    0.47    0.13
   6   8  -2    0.09    0.10
  -6   8   2    0.28    0.12
   4  -8  -2    3.79    0.21
   4  -8  -2    3.30    0.23
  -4  -8   2    3.56    0.23
  -4  -8   2    3.53    0.22
  -4   8   2    3.89    0.24
   4   8  -2    3.33    0.23
   2  -8  -2    7.05    0.30
  -2  -8   2    7.10    0.28
  -2  -8   2    6.74    0.28
   2  -8  -2    7.36    0.26
   2   8  -2    6.71    0.28
  -2   8   2    6.76    0.25
   0  -8   2    5.08    0.24
   0  -8  -2    5.49    0.23
   0  -8  -2    5.63    0.26
   0  -8   2    5.40    0.27
   0   8  -2    5.71    0.23
   0   8   2    5.25    0.24
   2  -8   2    0.19    0.10
  -2  -8  -2    0.19    0.08
  -2  -8  -2    0.02    0.07
   2  -8   2    0.16    0.08
  -2   8  -2    0.07    0.08
   2   8   2    0.07    0.09
  -4  -8  -2   -0.17    0.07
   4  -8   2   -0.03    0.07
  -4  -8  -2   -0.02    0.08
   4   8   2   -0.08    0.08
  -4   8  -2   -0.07    0.08
   6  -8   2    0.66    0.12
  -6  -8  -2    0.71    0.13
  -6  -8  -2    0.72    0.14
  -6   8  -2    0.63    0.15
   6   8   2    0.70    0.16
  -5  -9   2   19.12    0.53
  -5  -9   2   19.65    0.56
   5  -9  -2   18.94    0.56
   5   9  -2   19.41    0.57
  -5   9   2   19.73    0.56
  -3  -9   2    1.89    0.20
  -3  -9   2    1.90    0.20
   3  -9  -2    1.79    0.20
   3  -9  -2    2.17    0.19
   3   9  -2    2.11    0.21
   1  -9  -2    0.30    0.09
  -1  -9   2    0.36    0.12
  -1  -9   2    0.27    0.10
   1  -9  -2    0.17    0.11
  -1   9   2    0.18    0.09
   1   9  -2    0.18    0.10
  -1  -9  -2    2.14    0.21
  -1  -9  -2    2.26    0.19
   1  -9   2    1.46    0.16
   1  -9   2    2.22    0.23
   1   9   2    1.69    0.18
   3  -9   2    3.85    0.27
  -3  -9  -2    3.82    0.25
  -3  -9  -2    3.65    0.24
   3  -9   2    3.80    0.23
   3   9   2    3.51    0.24
  -3   9  -2    4.17    0.27
   5  -9   2    1.03    0.16
  -5  -9  -2    1.05    0.16
  -5  -9  -2    0.78    0.16
   5  -9   2    1.13    0.19
  -5   9  -2    1.15    0.18
 -12   0   3    0.01    0.09
 -12   0   3    0.10    0.10
 -10   0   3   -0.02    0.08
 -10   0   3    0.04    0.07
  10   0  -3    0.02    0.08
  -8   0   3    0.02    0.05
  -8   0   3   -0.04    0.05
   8   0  -3    0.00    0.06
   6   0  -3    0.03    0.02
  -6   0   3    0.04    0.04
  -6   0   3   -0.06    0.04
  -6   0   3   -0.02    0.02
   6   0  -3    0.00    0.04
  -4   0   3   -0.01    0.03
   4   0  -3    0.00    0.02
  -4   0   3    0.00    0.02
  -4   0   3   -0.01    0.03
   4   0  -3    0.01    0.03
  -2   0   3    0.00    0.02
  -2   0   3    0.00    0.02
   2   0  -3   -0.01    0.03
   2   0  -3    0.02    0.02
  -2   0   3    0.01    0.02
   0   0  -3    0.01    0.02
   0   0  -3    0.01    0.01
   0   0   3   -0.01    0.01
   0   0   3   -0.01    0.01
   0   0  -3    0.04    0.02
   2   0   3    0.02    0.03
  -2   0  -3    0.02    0.02
  -2   0  -3    0.00    0.03
  -2   0  -3   -0.01    0.02
  -2   0  -3    0.01    0.03
   2   0   3    0.02    0.02
  -4   0  -3    0.03    0.03
  -4   0  -3    0.02    0.03
  -4   0  -3    0.00    0.01
   4   0   3    0.01    0.03
  -4   0  -3    0.02    0.03
  -6   0  -3    0.04    0.05
   6   0   3    0.01    0.04
  -6   0  -3    0.00    0.04
  -6   0  -3    0.04    0.04
  -8   0  -3    0.03    0.05
   8   0   3    0.00    0.05
  -8   0  -3    0.02    0.05
  -8   0  -3   -0.08    0.05
 -10   0  -3   -0.01    0.06
 -10   0  -3   -0.01    0.07
 -10   0  -3    0.02    0.07
  12   0   3    0.08    0.11
 -12   0  -3   -0.08    0.08
 -12   0  -3    0.04    0.10
 -11  -1   3    7.67    0.33
 -11  -1   3    7.56    0.31
 -11   1   3    7.73    0.31
  11   1  -3    8.07    0.33
 -11   1   3    7.38    0.32
  -9  -1   3    1.78    0.17
  -9  -1   3    1.89    0.15
   9  -1  -3    1.67    0.14
   9   1  -3    1.59    0.16
  -9   1   3    1.59    0.15
  -9   1   3    2.11    0.18
  -7  -1   3    0.52    0.05
  -7  -1   3    0.54    0.08
  -7  -1   3    0.69    0.10
   7  -1  -3    0.49    0.07
  -7   1   3    0.55    0.06
   7   1  -3    0.58    0.09
  -7   1   3    0.59    0.09
  -7   1   3    0.59    0.09
  -5  -1   3   13.75    0.30
   5  -1  -3   13.18    0.23
  -5  -1   3   13.03    0.28
   5  -1  -3   13.61    0.29
  -5  -1   3   13.63    0.23
  -5   1   3   13.46    0.28
   5   1  -3   13.53    0.24
  -5   1   3   13.43    0.29
   5   1  -3   13.50    0.31
  -5   1   3   13.51    0.24
   3  -1  -3    4.73    0.13
  -3  -1   3    4.74    0.13
  -3  -1   3    4.59    0.09
  -3  -1   3    4.88    0.13
  -3  -1   3    4.61    0.13
  -3   1   3    4.66    0.13
  -3   1   3    4.97    0.13
  -3   1   3    4.68    0.12
   3   1  -3    4.82    0.12
   3   1  -3    4.81    0.14
  -3   1   3    4.82    0.10
  -1  -1   3   24.41    0.34
  -1  -1   3   23.95    0.34
  -1  -1   3   24.40    0.35
   1  -1  -3   23.94    0.34
  -1   1   3   22.69    0.34
   1   1  -3   24.70    0.33
   1   1  -3   24.82    0.37
  -1   1   3   24.42    0.32
  -1   1   3   24.83    0.33
   1   1  -3   24.04    0.35
  -1   1   3   24.87    0.35
  -1  -1  -3  183.64    2.28
  -1  -1  -3  184.81    2.30
   1  -1   3  184.92    2.30
   1   1   3  186.07    2.26
  -1   1  -3  186.51    2.31
   1   1   3  180.48    2.30
   1   1   3  179.02    2.29
  -1   1  -3  182.04    2.30
  -1   1  -3  182.25    2.30
   3  -1   3  140.37    1.88
  -3  -1  -3  144.56    1.87
  -3  -1  -3  145.20    1.84
   3  -1   3  145.46    1.80
  -3  -1  -3  146.44    1.81
  -3  -1  -3  145.66    1.87
  -3   1  -3  142.54    1.87
  -3   1  -3  146.03    1.86
  -3   1  -3  146.67    1.83
   3   1   3  143.53    1.87
  -3   1  -3  142.62    1.87
  -5  -1  -3   65.90    0.93
  -5  -1  -3   64.48    0.96
  -5  -1  -3   65.45    0.94
   5  -1   3   65.06    0.89
  -5   1  -3   65.52    0.95
  -5   1  -3   64.36    0.94
   5   1   3   65.91    0.95
  -5   1  -3   66.61    0.97
  -7  -1  -3   18.28    0.42
  -7  -1  -3   18.74    0.39
   7  -1   3   18.61    0.36
  -7  -1  -3   19.02    0.39
   7   1   3   19.50    0.41
  -7   1  -3   18.65    0.40
  -7   1  -3   18.98    0.39
  -7   1  -3   18.27    0.43
  -9  -1  -3    2.26    0.16
  -9  -1  -3    2.92    0.20
  -9  -1  -3    2.78    0.16
  -9   1  -3    2.25    0.16
  -9   1  -3    2.60    0.16
  -9   1  -3    2.23    0.17
   9   1   3    2.63    0.17
 -11  -1  -3    6.38    0.32
  11  -1   3    6.79    0.34
 -11  -1  -3    7.08    0.29
 -11   1  -3    7.40    0.33
 -11   1  -3    6.66    0.29
 -12  -2   3    7.71    0.36
 -12  -2   3    7.45    0.33
  12   2  -3    8.47    0.38
 -12   2   3    8.27    0.34
 -12   2   3    7.34    0.35
 -10  -2   3    0.54    0.11
 -10  -2   3    0.71    0.13
 -10   2   3    0.46    0.11
 -10   2   3    0.30    0.10
  10   2  -3    0.49    0.12
   8  -2  -3   20.40    0.44
  -8  -2   3   20.46    0.45
  -8  -2   3   20.38    0.47
  -8   2   3   20.84    0.45
  -8   2   3   20.84    0.46
   8   2  -3   21.22    0.50
  -8   2   3   21.43    0.39
  -6  -2   3   13.28    0.25
  -6  -2   3   12.29    0.31
   6  -2  -3   12.80    0.30
  -6  -2   3   12.72    0.30
  -6   2   3   12.59    0.30
   6   2  -3   12.57    0.25
  -6   2   3   13.06    0.30
   6   2  -3   13.37    0.34
  -6   2   3   12.98    0.26
  -4  -2   3    3.29    0.13
  -4  -2   3    3.16    0.09
  -4  -2   3    3.27    0.12
   4  -2  -3    3.25    0.12
   4   2  -3    3.08    0.14
  -4   2   3    3.25    0.12
  -4   2   3    3.39    0.11
  -4   2   3    3.18    0.12
  -4   2   3    3.24    0.11
   4   2  -3    3.33    0.11
  -2  -2   3   77.24    1.00
  -2  -2   3   76.80    0.99
  -2  -2   3   77.98    1.02
  -2  -2   3   75.21    1.03
  -2   2   3   76.65    1.02
  -2   2   3   77.88    1.00
   2   2  -3   76.05    1.05
  -2   2   3   76.59    1.01
   2   2  -3   79.07    1.00
  -2   2   3   76.89    1.02
   2   2  -3   76.95    1.05
  -2   2   3   76.21    1.02
   0  -2   3  728.25    9.18
   0  -2   3  716.59    9.20
   0  -2  -3  731.88    9.29
   0  -2   3  753.98    9.12
   0  -2  -3  746.57    9.13
   0   2  -3  722.17    9.16
   0   2   3  727.50    9.34
   0   2   3  756.69    9.15
   0   2  -3  729.23    9.15
   0   2  -3  717.68    9.33
  -2  -2  -3   62.23    0.87
   2  -2   3   62.44    0.87
  -2  -2  -3   64.75    0.86
  -2  -2  -3   62.88    0.81
   2   2   3   61.69    0.89
  -2   2  -3   64.10    0.88
  -2   2  -3   63.08    0.88
  -2   2  -3   64.62    0.79
  -4  -2  -3   33.47    0.54
   4  -2   3   32.75    0.46
  -4  -2  -3   33.29    0.50
  -4  -2  -3   32.97    0.54
   4  -2   3   33.28    0.56
  -4   2  -3   33.24    0.56
  -4   2  -3   33.84    0.54
   4   2   3   33.65    0.56
  -4   2  -3   33.64    0.54
  -6  -2  -3   29.19    0.55
   6  -2   3   28.91    0.45
  -6  -2  -3   29.94    0.52
  -6  -2  -3   29.02    0.49
   6  -2   3   28.98    0.56
  -6   2  -3   29.18    0.53
  -6   2  -3   29.09    0.52
  -6   2  -3   28.74    0.55
   6   2   3   29.60    0.55
   8  -2   3   14.82    0.41
  -8  -2  -3   15.60    0.36
  -8  -2  -3   15.91    0.37
  -8  -2  -3   15.80    0.41
  -8   2  -3   15.72    0.39
  -8   2  -3   15.20    0.41
   8   2   3   15.60    0.40
  -8   2  -3   16.30    0.38
 -10  -2  -3    4.47    0.26
 -10  -2  -3    4.04    0.21
  10  -2   3    3.85    0.25
 -10   2  -3    4.23    0.21
 -10   2  -3    4.42    0.25
 -10   2  -3    4.25    0.23
 -12  -2  -3    0.68    0.16
 -12   2  -3    0.93    0.18
 -11  -3   3   27.01    0.67
 -11  -3   3   27.59    0.63
  11   3  -3   28.64    0.71
 -11   3   3   27.44    0.66
 -11   3   3   28.08    0.64
  -9  -3   3    0.69    0.12
  -9  -3   3    0.54    0.10
  -9   3   3    0.52    0.10
  -9   3   3    0.54    0.11
  -7  -3   3   17.59    0.42
  -7  -3   3   17.83    0.39
   7  -3  -3   17.36    0.38
  -7   3   3   17.49    0.40
  -7   3   3   17.57    0.39
  -7   3   3   17.38    0.36
   7   3  -3   17.58    0.44
  -5  -3   3   22.45    0.41
  -5  -3   3   21.66    0.43
  -5  -3   3   22.39    0.37
   5  -3  -3   21.61    0.41
  -5   3   3   21.58    0.40
  -5   3   3   21.71    0.39
   5   3  -3   21.97    0.40
  -5   3   3   21.70    0.41
  -5   3   3   21.48    0.39
   5   3  -3   22.01    0.46
  -3  -3   3   89.42    1.20
  -3  -3   3   88.99    1.19
  -3  -3   3   88.64    1.23
  -3   3   3   89.43    1.20
  -3   3   3   89.44    1.22
   3   3  -3   87.29    1.24
   3   3  -3   90.54    1.27
  -3   3   3   89.32    1.20
  -3   3   3   90.98    1.19
  -3   3   3   90.11    1.22
  -1  -3   3   52.01    0.74
  -1  -3   3   53.34    0.66
   1  -3  -3   52.78    0.71
   1  -3  -3   51.87    0.75
   1  -3  -3   52.49    0.68
  -1  -3   3   51.52    0.72
   1   3  -3   49.96    0.78
  -1   3   3   51.98    0.70
   1   3  -3   53.49    0.74
  -1   3   3   51.68    0.75
  -1   3   3   50.83    0.74
   1   3  -3   52.64    0.75
  -1  -3  -3    5.95    0.14
   1  -3   3    6.37    0.15
  -1  -3  -3    6.03    0.17
   1  -3   3    6.21    0.16
  -1   3  -3    6.11    0.13
  -1   3  -3    6.17    0.17
   1   3   3    5.92    0.17
   1   3   3    6.19    0.12
  -1   3  -3    5.69    0.18
  -3  -3  -3   48.94    0.74
  -3  -3  -3   47.63    0.66
  -3  -3  -3   49.34    0.73
   3  -3   3   48.29    0.74
   3   3   3   49.15    0.76
  -3   3  -3   48.95    0.64
  -3   3  -3   48.69    0.74
   5  -3   3   17.99    0.39
  -5  -3  -3   17.92    0.32
  -5  -3  -3   18.23    0.37
  -5  -3  -3   18.26    0.39
  -5   3  -3   17.82    0.38
   5   3   3   17.70    0.40
  -5   3  -3   17.99    0.40
   7  -3   3    1.73    0.16
  -7  -3  -3    1.85    0.14
  -7  -3  -3    1.94    0.15
  -7  -3  -3    2.02    0.12
   7   3   3    1.96    0.15
  -7   3  -3    1.99    0.17
  -7   3  -3    1.89    0.14
  -7   3  -3    2.00    0.14
  -9  -3  -3    4.11    0.20
  -9  -3  -3    4.71    0.22
   9  -3   3    4.87    0.25
  -9  -3  -3    4.82    0.25
  -9   3  -3    4.72    0.25
   9   3   3    4.75    0.25
  -9   3  -3    4.85    0.23
  -9   3  -3    4.55    0.22
 -11  -3  -3    1.56    0.19
  11  -3   3    1.75    0.21
 -11   3  -3    2.13    0.21
 -11   3  -3    2.05    0.23
 -10  -4   3    0.13    0.11
 -10  -4   3    0.04    0.08
  10   4  -3    0.07    0.11
 -10   4   3    0.04    0.10
 -10   4   3    0.07    0.08
  -8  -4   3   69.26    1.10
  -8  -4   3   70.03    1.17
  -8   4   3   71.82    1.08
  -8   4   3   70.41    1.14
  -8   4   3   71.42    1.11
   8   4  -3   69.43    1.21
  -6  -4   3    0.01    0.04
  -6  -4   3    0.00    0.04
   6  -4  -3   -0.05    0.03
  -6  -4   3    0.05    0.05
  -6   4   3   -0.01    0.04
  -6   4   3    0.10    0.06
  -6   4   3    0.00    0.04
   6   4  -3    0.06    0.06
  -6   4   3   -0.04    0.05
   4  -4  -3    6.05    0.18
  -4  -4   3    6.06    0.18
  -4  -4   3    6.01    0.20
  -4  -4   3    6.19    0.17
  -4   4   3    6.01    0.17
  -4   4   3    6.19    0.20
  -4   4   3    5.98    0.19
  -4   4   3    5.82    0.17
   4   4  -3    5.87    0.22
   2  -4  -3   13.22    0.30
  -2  -4   3   13.05    0.29
  -2  -4   3   13.37    0.26
   2  -4  -3   13.39    0.24
  -2  -4   3   13.42    0.28
   2  -4  -3   13.84    0.26
  -2   4   3   13.27    0.24
   2   4  -3   12.90    0.28
   2   4  -3   12.75    0.30
  -2   4   3   13.31    0.28
  -2   4   3   13.51    0.29
   0  -4  -3  360.18    4.48
   0  -4   3  359.32    4.48
   0  -4  -3  345.42    4.53
   0  -4  -3  354.30    4.40
   0   4  -3  362.49    4.50
   0   4   3  359.81    4.42
   0   4  -3  366.13    4.53
   0   4   3  361.72    4.53
  -2  -4  -3   46.26    0.70
   2  -4   3   46.72    0.70
   2  -4   3   46.99    0.72
  -2  -4  -3   47.03    0.73
  -2  -4  -3   46.16    0.61
   2   4   3   46.70    0.64
  -2   4  -3   45.18    0.73
   2   4   3   47.13    0.75
  -2   4  -3   46.99    0.65
  -4  -4  -3    0.05    0.05
   4  -4   3    0.00    0.04
  -4  -4  -3    0.01    0.04
  -4  -4  -3   -0.03    0.02
  -4   4  -3   -0.03    0.04
   4   4   3    0.06    0.06
  -4   4  -3    0.04    0.05
  -6  -4  -3    0.03    0.05
  -6  -4  -3   -0.01    0.06
   6  -4   3    0.02    0.06
   6   4   3   -0.02    0.06
  -6   4  -3   -0.01    0.05
  -6   4  -3   -0.03    0.06
   8  -4   3    0.20    0.08
  -8  -4  -3    0.03    0.07
  -8  -4  -3    0.17    0.09
  -8   4  -3    0.11    0.09
  -8   4  -3    0.25    0.09
   8   4   3    0.17    0.09
  10  -4   3    3.77    0.25
 -10  -4  -3    3.72    0.25
  10   4   3    3.06    0.24
 -10   4  -3    3.80    0.26
 -10   4  -3    3.11    0.21
 -11  -5   3   18.96    0.58
  11  -5  -3   19.53    0.56
 -11   5   3   19.08    0.52
 -11   5   3   19.25    0.57
  -9  -5   3   -0.08    0.09
   9  -5  -3    0.01    0.09
   9   5  -3   -0.10    0.09
  -9   5   3   -0.07    0.09
  -9   5   3    0.00    0.08
   7  -5  -3    5.52    0.24
  -7  -5   3    5.63    0.22
  -7  -5   3    5.32    0.25
  -7   5   3    5.25    0.22
  -7   5   3    5.58    0.24
   7   5  -3    5.67    0.27
  -7   5   3    5.89    0.22
  -5  -5   3   37.21    0.63
  -5  -5   3   37.86    0.69
   5  -5  -3   37.05    0.64
  -5  -5   3   37.20    0.63
   5  -5  -3   37.80    0.65
  -5   5   3   37.69    0.66
  -5   5   3   36.57    0.68
   5   5  -3   37.86    0.73
  -5   5   3   38.36    0.62
  -5   5   3   37.14    0.62
  -3  -5   3    0.94    0.08
   3  -5  -3    0.96    0.08
  -3  -5   3    0.79    0.08
   3  -5  -3    0.79    0.10
  -3  -5   3    0.80    0.09
   3  -5  -3    0.85    0.07
   3   5  -3    0.98    0.11
  -3   5   3    0.77    0.08
  -3   5   3    0.95    0.11
  -1  -5   3    1.36    0.10
   1  -5  -3    1.37    0.06
  -1  -5   3    1.26    0.08
   1  -5  -3    1.33    0.08
   1  -5  -3    1.43    0.12
  -1  -5   3    1.47    0.12
   1   5  -3    1.47    0.11
   1   5  -3    1.47    0.11
  -1   5   3    1.46    0.10
  -1  -5  -3    0.06    0.04
   1  -5   3    0.05    0.04
  -1  -5  -3    0.10    0.05
   1  -5   3    0.12    0.05
  -1   5  -3    0.03    0.03
   1   5   3    0.03    0.04
  -1   5  -3    0.05    0.05
   3  -5   3    4.05    0.17
  -3  -5  -3    3.97    0.17
  -3  -5  -3    4.03    0.17
   3  -5   3    4.12    0.16
  -3   5  -3    3.84    0.13
   3   5   3    3.93    0.19
  -3   5  -3    3.94    0.18
  -5  -5  -3    5.21    0.22
  -5  -5  -3    5.17    0.21
   5  -5   3    5.46    0.22
   5  -5   3    5.31    0.21
   5   5   3    5.30    0.24
  -5   5  -3    5.49    0.24
  -5   5  -3    5.40    0.22
  -7  -5  -3    1.04    0.14
  -7  -5  -3    1.05    0.13
   7  -5   3    0.67    0.11
  -7   5  -3    0.83    0.14
  -7   5  -3    0.86    0.12
   7   5   3    0.70    0.13
  -9  -5  -3    0.73    0.14
  -9  -5  -3    0.65    0.12
   9  -5   3    0.60    0.12
   9   5   3    0.40    0.13
  -9   5  -3    0.48    0.13
  -9   5  -3    0.63    0.13
  10  -6  -3   -0.03    0.09
 -10  -6   3    0.21    0.12
 -10   6   3    0.02    0.11
  -8  -6   3    4.09    0.25
   8  -6  -3    4.19    0.22
   8  -6  -3    4.00    0.22
  -8   6   3    4.22    0.26
  -8   6   3    4.44    0.24
   8   6  -3    3.77    0.27
   6  -6  -3   13.20    0.35
  -6  -6   3   13.86    0.35
  -6  -6   3   12.93    0.39
  -6   6   3   12.96    0.39
  -6   6   3   13.63    0.37
   6   6  -3   12.38    0.41
   4  -6  -3   22.17    0.45
  -4  -6   3   22.55    0.50
   4  -6  -3   22.24    0.46
   4  -6  -3   23.12    0.51
  -4  -6   3   23.17    0.47
   4   6  -3   23.28    0.53
  -4   6   3   22.35    0.49
  -4   6   3   23.20    0.45
  -2  -6   3   31.46    0.52
  -2  -6   3   30.61    0.58
   2  -6  -3   31.33    0.55
   2  -6  -3   31.92    0.61
  -2  -6   3   31.15    0.59
   2   6  -3   31.67    0.60
  -2   6   3   31.46    0.56
  -2   6   3   30.79    0.60
   0  -6   3    9.06    0.23
   0  -6   3   10.44    0.29
   0  -6  -3   10.97    0.30
   0  -6  -3   10.10    0.26
   0   6  -3   10.87    0.28
   0   6  -3   10.84    0.30
   0   6   3   11.13    0.30
   2  -6   3    3.02    0.14
  -2  -6  -3    3.08    0.17
   2  -6   3    3.11    0.16
  -2  -6  -3    3.17    0.16
  -2   6  -3    2.92    0.17
   2   6   3    3.05    0.17
  -2   6  -3    3.10    0.13
   4  -6   3    1.34    0.13
   4  -6   3    1.27    0.12
  -4  -6  -3    1.52    0.15
  -4  -6  -3    1.41    0.14
  -4   6  -3    1.68    0.16
   4   6   3    1.40    0.15
   6  -6   3    3.07    0.19
  -6  -6  -3    3.10    0.19
   6  -6   3    2.73    0.18
  -6  -6  -3    3.01    0.19
  -6   6  -3    2.96    0.19
   6   6   3    2.97    0.21
  -6   6  -3    2.57    0.21
  -8  -6  -3    0.11    0.10
   8  -6   3    0.14    0.09
   8  -6   3    0.20    0.09
  -8  -6  -3    0.16    0.10
   8   6   3    0.06    0.10
  -8   6  -3    0.15    0.12
  -8   6  -3    0.15    0.10
   9  -7  -3    0.55    0.12
  -9  -7   3    0.58    0.16
  -9   7   3    0.47    0.14
  -7  -7   3   14.05    0.45
   7  -7  -3   13.23    0.42
   7  -7  -3   12.82    0.38
   7   7  -3   13.72    0.47
  -7   7   3   13.43    0.41
  -5  -7   3   19.42    0.49
  -5  -7   3   19.38    0.45
   5  -7  -3   18.88    0.43
   5  -7  -3   18.65    0.49
   5   7  -3   18.86    0.52
  -5   7   3   19.06    0.48
  -3  -7   3   16.46    0.42
   3  -7  -3   15.64    0.37
   3  -7  -3   16.47    0.44
  -3  -7   3   16.68    0.41
   3   7  -3   16.36    0.43
  -3   7   3   16.25    0.38
  -3   7   3   16.38    0.43
  -1  -7   3    6.31    0.25
  -1  -7   3    6.48    0.24
   1  -7  -3    6.24    0.26
   1  -7  -3    6.24    0.22
   1   7  -3    6.35    0.24
  -1   7   3    6.39    0.24
  -1  -7  -3   -0.04    0.05
   1  -7   3   -0.02    0.07
   1  -7   3    0.05    0.06
  -1  -7  -3   -0.10    0.07
   1   7   3    0.04    0.06
  -1   7  -3    0.09    0.07
  -1   7  -3   -0.01    0.05
  -3  -7  -3    8.02    0.28
   3  -7   3    8.56    0.25
  -3  -7  -3    7.98    0.29
   3  -7   3    7.62    0.27
  -3   7  -3    7.55    0.29
   3   7   3    7.84    0.30
  -5  -7  -3    0.00    0.08
   5  -7   3   -0.03    0.06
   5  -7   3   -0.03    0.06
  -5  -7  -3    0.05    0.07
   5   7   3    0.03    0.09
  -5   7  -3   -0.09    0.08
   7  -7   3    0.92    0.13
   7  -7   3    1.15    0.15
  -7  -7  -3    1.30    0.17
  -7  -7  -3    1.07    0.16
   7   7   3    1.27    0.18
  -7   7  -3    1.27    0.17
  -6  -8   3    0.28    0.12
   6  -8  -3    0.42    0.13
  -6   8   3    0.39    0.12
   6   8  -3    0.51    0.14
  -4  -8   3    4.28    0.25
   4  -8  -3    4.41    0.21
  -4  -8   3    4.21    0.23
   4  -8  -3    4.47    0.26
  -4   8   3    4.39    0.25
   4   8  -3    4.62    0.26
   2  -8  -3    0.83    0.14
  -2  -8   3    0.65    0.12
  -2  -8   3    0.71    0.12
   2  -8  -3    0.87    0.11
   2   8  -3    0.95    0.14
  -2   8   3    0.83    0.12
   0  -8  -3   10.60    0.36
   0  -8   3   11.29    0.38
   0  -8  -3   11.47    0.33
   0  -8   3   10.75    0.34
   0   8   3   11.25    0.35
   0   8  -3   11.63    0.37
   2  -8   3    6.26    0.26
  -2  -8  -3    6.42    0.26
   2  -8   3    6.51    0.30
  -2  -8  -3    6.35    0.29
   2   8   3    6.84    0.29
  -2   8  -3    6.52    0.29
  -4  -8  -3    1.27    0.15
   4  -8   3    1.42    0.16
  -4  -8  -3    1.27    0.17
   4   8   3    1.47    0.18
  -4   8  -3    1.50    0.18
  -6  -8  -3    9.04    0.35
  -6  -8  -3    8.15    0.34
   6  -8   3    8.72    0.33
  -6   8  -3    8.41    0.37
   6   8   3    8.30    0.38
   5  -9  -3   12.60    0.45
  -5  -9   3   12.08    0.42
  -5  -9   3   12.17    0.43
   5   9  -3   11.46    0.44
   3  -9  -3    0.62    0.14
  -3  -9   3    0.49    0.12
  -3  -9   3    0.63    0.13
   3   9  -3    0.56    0.12
  -1  -9   3    0.16    0.10
   1  -9  -3    0.19    0.11
  -1  -9   3    0.13    0.11
  -1   9   3    0.24    0.09
   1  -9   3    0.77    0.14
  -1  -9  -3    0.51    0.11
   1  -9   3    0.62    0.12
  -1  -9  -3    0.75    0.15
  -1   9  -3    0.68    0.14
   1   9   3    0.55    0.13
  -3  -9  -3    3.14    0.22
  -3  -9  -3    2.66    0.24
   3  -9   3    3.46    0.27
   3  -9   3    3.63    0.23
  -3   9  -3    3.40    0.25
   3   9   3    3.10    0.24
 -12   0   4    0.64    0.14
 -12   0   4    0.62    0.15
  10   0  -4   -0.01    0.07
 -10   0   4    0.07    0.07
 -10   0   4    0.00    0.08
   8   0  -4   26.67    0.55
  -8   0   4   26.65    0.54
  -8   0   4   25.81    0.53
  -6   0   4    2.24    0.12
   6   0  -4    2.21    0.13
  -6   0   4    2.24    0.07
  -6   0   4    2.15    0.12
   6   0  -4    2.31    0.08
  -4   0   4   65.11    0.90
   4   0  -4   63.13    0.85
  -4   0   4   62.49    0.90
  -4   0   4   63.35    0.80
   4   0  -4   63.09    0.91
  -4   0   4   62.99    0.88
  -2   0   4  302.93    3.84
   2   0  -4  306.85    3.86
  -2   0   4  310.57    3.82
  -2   0   4  317.06    3.84
   2   0  -4  309.55    3.84
   0   0  -4   48.47    0.67
   0   0  -4   50.03    0.64
   0   0  -4   50.54    0.66
   0   0   4   50.32    0.65
   0   0   4   49.51    0.67
   0   0   4   49.73    0.63
   0   0   4   50.89    0.65
   2   0   4  196.98    2.44
  -2   0  -4  196.31    2.48
  -2   0  -4  197.37    2.45
  -2   0  -4  196.08    2.47
   2   0   4  193.67    2.47
  -4   0  -4   69.06    0.97
  -4   0  -4   68.86    0.88
   4   0   4   67.83    0.92
   4   0   4   66.39    0.96
  -4   0  -4   68.27    0.94
  -4   0  -4   65.72    0.96
  -6   0  -4  130.86    1.80
  -6   0  -4  130.29    1.76
   6   0   4  129.93    1.74
  -6   0  -4  130.32    1.78
  -8   0  -4   36.38    0.64
  -8   0  -4   35.21    0.64
  -8   0  -4   34.65    0.68
 -10   0  -4    0.01    0.07
 -10   0  -4    0.16    0.08
  10   0   4    0.15    0.10
 -10   0  -4    0.19    0.10
  12   0   4    4.34    0.30
 -12   0  -4    5.14    0.27
 -12   0  -4    4.83    0.30
 -11  -1   4    1.93    0.20
 -11  -1   4    2.05    0.19
  11  -1  -4    1.73    0.20
  11   1  -4    1.90    0.20
 -11   1   4    1.95    0.20
 -11   1   4    2.13    0.20
  -9  -1   4    2.69    0.18
   9  -1  -4    3.21    0.18
  -9  -1   4    2.74    0.18
   9   1  -4    2.79    0.19
  -9   1   4    3.21    0.19
  -9   1   4    2.95    0.18
  -7  -1   4    5.34    0.20
  -7  -1   4    4.95    0.20
   7  -1  -4    4.94    0.19
  -7   1   4    5.18    0.19
   7   1  -4    5.05    0.21
  -7   1   4    5.44    0.14
  -7   1   4    4.84    0.19
  -5  -1   4   65.98    0.96
  -5  -1   4   66.82    0.96
   5  -1  -4   65.86    0.90
  -5  -1   4   66.14    0.86
   5  -1  -4   65.16    0.96
   5   1  -4   65.29    0.98
  -5   1   4   64.95    0.94
   5   1  -4   65.87    0.90
  -5   1   4   67.27    0.88
  -5   1   4   65.98    0.95
   3  -1  -4    0.02    0.03
  -3  -1   4    0.04    0.03
  -3  -1   4    0.07    0.01
  -3  -1   4    0.05    0.03
  -3  -1   4    0.09    0.03
   3  -1  -4    0.05    0.03
  -3   1   4    0.08    0.03
  -3   1   4    0.06    0.03
  -3   1   4    0.05    0.02
   3   1  -4    0.05    0.03
  -3   1   4    0.07    0.03
   3   1  -4    0.10    0.03
  -3   1   4    0.07    0.03
  -1  -1   4  160.68    2.01
  -1  -1   4  160.92    2.02
  -1  -1   4  159.85    2.00
   1  -1  -4  157.78    2.00
  -1   1   4  161.79    2.02
  -1   1   4  157.60    2.02
   1   1  -4  160.58    2.02
  -1   1   4  162.83    2.00
   1   1  -4  160.82    1.99
  -1   1   4  160.85    1.97
   1   1  -4  159.79    2.04
   1  -1   4  174.79    2.25
   1  -1   4  178.83    2.25
  -1  -1  -4  181.67    2.22
  -1   1  -4  175.24    2.25
  -1   1  -4  173.37    2.25
   1   1   4  185.42    2.25
  -1   1  -4  178.30    2.19
   1   1   4  176.26    2.25
  -1   1  -4  181.74    2.26
   1   1   4  181.17    2.21
   3  -1   4   21.36    0.37
   3  -1   4   22.17    0.30
  -3  -1  -4   21.25    0.37
  -3  -1  -4   21.38    0.34
  -3  -1  -4   21.57    0.32
  -3  -1  -4   21.41    0.36
  -3   1  -4   22.30    0.38
  -3   1  -4   21.40    0.37
   3   1   4   21.90    0.36
  -3   1  -4   22.01    0.34
  -5  -1  -4   16.34    0.31
   5  -1   4   16.63    0.36
  -5  -1  -4   16.70    0.35
   5  -1   4   16.26    0.28
  -5  -1  -4   16.58    0.34
  -5  -1  -4   16.00    0.23
  -5   1  -4   16.02    0.35
  -5   1  -4   16.19    0.33
   5   1   4   16.56    0.33
  -5   1  -4   15.77    0.33
  -7  -1  -4  123.83    1.67
  -7  -1  -4  118.66    1.64
   7  -1   4  119.33    1.71
  -7  -1  -4  118.98    1.70
  -7   1  -4  118.91    1.71
   7   1   4  118.62    1.66
  -7   1  -4  117.69    1.67
  -7   1  -4  118.20    1.67
   9  -1   4    6.34    0.28
  -9  -1  -4    6.54    0.24
  -9  -1  -4    6.34    0.25
  -9  -1  -4    6.35    0.27
  -9   1  -4    6.49    0.27
  -9   1  -4    6.67    0.25
  -9   1  -4    6.68    0.25
 -11  -1  -4    1.24    0.15
  11  -1   4    1.24    0.19
 -11  -1  -4    1.80    0.20
 -11   1  -4    1.60    0.19
 -11   1  -4    1.13    0.15
 -12  -2   4    2.61    0.25
 -12  -2   4    2.70    0.22
 -12   2   4    2.97    0.25
 -12   2   4    2.86    0.23
  12   2  -4    2.98    0.27
 -10  -2   4    2.35    0.20
 -10  -2   4    2.17    0.18
  10  -2  -4    2.03    0.16
  10   2  -4    2.51    0.20
 -10   2   4    2.38    0.19
 -10   2   4    2.19    0.17
   8  -2  -4    1.00    0.11
  -8  -2   4    0.80    0.11
  -8  -2   4    0.87    0.12
   8   2  -4    0.61    0.11
  -8   2   4    0.94    0.12
  -8   2   4    0.96    0.12
   6  -2  -4    0.04    0.04
  -6  -2   4    0.03    0.02
  -6  -2   4    0.03    0.04
  -6  -2   4    0.07    0.04
   6  -2  -4    0.05    0.03
   6   2  -4    0.03    0.03
  -6   2   4    0.05    0.04
  -6   2   4    0.03    0.03
   6   2  -4    0.01    0.05
  -6   2   4    0.08    0.05
  -4  -2   4   56.86    0.84
   4  -2  -4   56.67    0.84
  -4  -2   4   57.89    0.76
  -4  -2   4   57.86    0.83
  -4   2   4   55.88    0.83
  -4   2   4   56.92    0.79
  -4   2   4   57.37    0.81
  -4   2   4   58.27    0.82
   4   2  -4   57.25    0.87
  -4   2   4   57.23    0.82
   4   2  -4   57.21    0.82
  -2  -2   4    2.37    0.09
  -2  -2   4    2.38    0.08
   2  -2  -4    2.52    0.09
  -2  -2   4    2.42    0.09
  -2   2   4    2.35    0.09
  -2   2   4    2.57    0.08
   2   2  -4    2.63    0.08
   2   2  -4    2.32    0.10
  -2   2   4    2.39    0.08
   2   2  -4    2.47    0.10
  -2   2   4    2.50    0.09
  -2   2   4    2.34    0.09
   0  -2   4  151.28    1.87
   0  -2  -4  149.87    1.92
   0  -2   4  151.24    1.90
   0  -2  -4  150.90    1.86
   0  -2   4  148.52    1.90
   0   2  -4  149.52    1.89
   0   2  -4  146.39    1.94
   0   2  -4  147.81    1.90
   0   2   4  150.21    1.92
   0   2   4  150.01    1.89
  -2  -2  -4    2.41    0.06
   2  -2   4    2.33    0.10
  -2  -2  -4    2.47    0.09
  -2   2  -4    2.33    0.10
  -2   2  -4    2.22    0.10
   2   2   4    2.36    0.10
   2   2   4    2.27    0.09
  -2   2  -4    2.44    0.11
   4  -2   4   21.07    0.40
   4  -2   4   20.64    0.29
  -4  -2  -4   20.88    0.34
  -4  -2  -4   21.01    0.39
  -4  -2  -4   20.45    0.39
   4   2   4   21.31    0.40
  -4   2  -4   21.49    0.41
  -4   2  -4   20.73    0.39
  -4   2  -4   21.87    0.37
  -6  -2  -4    0.28    0.07
   6  -2   4    0.25    0.07
  -6  -2  -4    0.19    0.05
  -6  -2  -4    0.20    0.06
  -6   2  -4    0.29    0.07
   6   2   4    0.35    0.07
  -6   2  -4    0.22    0.06
  -6   2  -4    0.25    0.06
  -8  -2  -4   14.60    0.35
  -8  -2  -4   14.88    0.40
   8  -2   4   14.71    0.41
  -8  -2  -4   14.77    0.37
   8   2   4   14.75    0.39
  -8   2  -4   14.45    0.37
  -8   2  -4   14.53    0.37
  -8   2  -4   15.03    0.41
 -10  -2  -4   39.80    0.74
 -10  -2  -4   39.42    0.75
 -10  -2  -4   39.12    0.81
  10  -2   4   39.40    0.82
 -10   2  -4   39.88    0.82
 -10   2  -4   40.31    0.75
 -10   2  -4   39.27    0.77
 -11  -3   4    1.22    0.18
 -11  -3   4    1.16    0.15
  11   3  -4    1.42    0.19
 -11   3   4    1.39    0.17
 -11   3   4    1.36    0.18
   9  -3  -4    4.81    0.21
  -9  -3   4    5.05    0.25
  -9  -3   4    4.74    0.22
  -9   3   4    4.87    0.23
  -9   3   4    5.06    0.23
   9   3  -4    4.64    0.26
  -7  -3   4    0.42    0.08
   7  -3  -4    0.37    0.07
  -7  -3   4    0.45    0.09
  -7   3   4    0.30    0.08
  -7   3   4    0.32    0.06
  -7   3   4    0.29    0.07
   7   3  -4    0.42    0.09
  -5  -3   4    2.01    0.11
  -5  -3   4    2.08    0.09
   5  -3  -4    2.11    0.11
  -5  -3   4    1.93    0.12
  -5   3   4    2.09    0.11
   5   3  -4    2.17    0.14
   5   3  -4    2.04    0.11
  -5   3   4    2.08    0.10
  -5   3   4    2.22    0.12
  -5   3   4    1.97    0.11
  -3  -3   4   18.07    0.31
   3  -3  -4   17.97    0.33
  -3  -3   4   17.79    0.32
  -3  -3   4   17.13    0.33
  -3   3   4   17.78    0.32
   3   3  -4   17.30    0.36
  -3   3   4   17.80    0.32
   3   3  -4   17.86    0.35
  -3   3   4   17.54    0.32
  -3   3   4   17.70    0.30
  -3   3   4   17.04    0.32
  -1  -3   4   73.03    0.91
   1  -3  -4   70.57    0.99
  -1  -3   4   69.93    0.96
   1  -3  -4   72.33    0.92
   1  -3  -4   71.68    0.94
  -1  -3   4   69.55    0.98
   1   3  -4   70.71    0.98
  -1   3   4   73.95    0.95
   1   3  -4   70.10    1.03
   1   3  -4   70.77    0.99
  -1   3   4   70.67    0.91
  -1   3   4   71.82    0.99
  -1  -3  -4    0.47    0.05
   1  -3   4    0.47    0.04
  -1  -3  -4    0.42    0.06
   1  -3   4    0.46    0.05
   1  -3   4    0.40    0.05
   1   3   4    0.30    0.05
   1   3   4    0.48    0.04
  -1   3  -4    0.44    0.05
  -1   3  -4    0.34    0.06
  -1   3  -4    0.46    0.04
  -3  -3  -4    0.11    0.04
  -3  -3  -4    0.13    0.02
  -3  -3  -4    0.03    0.04
   3  -3   4    0.13    0.04
  -3   3  -4    0.17    0.05
  -3   3  -4    0.13    0.05
  -3   3  -4    0.12    0.02
   3   3   4    0.06    0.05
  -3   3  -4    0.08    0.04
   5  -3   4    0.44    0.07
  -5  -3  -4    0.28    0.06
  -5  -3  -4    0.38    0.05
  -5  -3  -4    0.34    0.07
   5   3   4    0.29    0.07
  -5   3  -4    0.21    0.07
  -5   3  -4    0.40    0.07
  -7  -3  -4   12.88    0.34
  -7  -3  -4   12.77    0.36
  -7  -3  -4   13.13    0.30
   7  -3   4   12.43    0.36
  -7   3  -4   13.25    0.34
  -7   3  -4   13.19    0.36
   7   3   4   12.91    0.36
   9  -3   4    0.31    0.11
  -9  -3  -4    0.13    0.07
  -9  -3  -4    0.21    0.09
  -9   3  -4    0.18    0.08
   9   3   4    0.34    0.10
  -9   3  -4    0.23    0.10
  -9   3  -4    0.23    0.09
 -11  -3  -4    8.02    0.36
  11  -3   4    7.73    0.36
 -11   3  -4    8.36    0.36
 -11   3  -4    8.17    0.32
 -10  -4   4    0.10    0.11
 -10  -4   4    0.03    0.08
 -10   4   4    0.03    0.08
 -10   4   4    0.01    0.09
  10   4  -4   -0.04    0.09
   8  -4  -4    0.54    0.09
  -8  -4   4    0.44    0.11
  -8  -4   4    0.56    0.10
  -8   4   4    0.50    0.09
   8   4  -4    0.41    0.11
  -8   4   4    0.45    0.09
  -8   4   4    0.38    0.10
  -6  -4   4    0.76    0.09
  -6  -4   4    0.74    0.10
   6  -4  -4    0.75    0.09
  -6  -4   4    0.88    0.08
  -6   4   4    0.89    0.09
  -6   4   4    0.92    0.10
   6   4  -4    0.72    0.11
  -6   4   4    0.88    0.09
  -6   4   4    0.79    0.10
  -4  -4   4    4.25    0.14
  -4  -4   4    4.21    0.17
  -4  -4   4    3.93    0.14
   4  -4  -4    4.18    0.15
  -4   4   4    4.49    0.17
   4   4  -4    4.48    0.18
  -4   4   4    4.54    0.14
  -4   4   4    4.38    0.15
   4   4  -4    4.43    0.19
  -4   4   4    4.45    0.16
  -2  -4   4   26.42    0.45
   2  -4  -4   25.97    0.42
   2  -4  -4   26.55    0.40
   2  -4  -4   25.70    0.47
  -2  -4   4   26.01    0.46
  -2  -4   4   25.88    0.43
  -2   4   4   26.15    0.45
   2   4  -4   25.93    0.44
   2   4  -4   26.67    0.51
  -2   4   4   26.02    0.46
  -2   4   4   26.69    0.41
   2   4  -4   25.24    0.47
   0  -4   4  225.21    2.87
   0  -4   4  225.26    2.84
   0  -4  -4  223.49    2.89
   0  -4  -4  225.58    2.82
   0  -4   4  224.47    2.75
   0   4  -4  221.24    2.94
   0   4   4  219.58    2.89
   0   4  -4  223.96    2.88
   0   4  -4  221.87    2.85
   0   4   4  219.65    2.78
  -2  -4  -4   56.53    0.82
  -2  -4  -4   56.08    0.85
   2  -4   4   55.60    0.84
   2  -4   4   54.91    0.82
   2   4   4   54.58    0.87
  -2   4  -4   55.50    0.85
   2   4   4   55.87    0.76
  -2   4  -4   55.35    0.75
   4  -4   4    0.50    0.08
   4  -4   4    0.70    0.09
  -4  -4  -4    0.78    0.09
  -4  -4  -4    0.55    0.08
   4   4   4    0.59    0.06
  -4   4  -4    0.54    0.08
  -4   4  -4    0.40    0.08
   4   4   4    0.51    0.08
  -6  -4  -4    0.52    0.09
   6  -4   4    0.63    0.10
  -6  -4  -4    0.49    0.09
   6   4   4    0.51    0.11
  -6   4  -4    0.66    0.11
  -6   4  -4    0.53    0.09
  -8  -4  -4    1.36    0.16
  -8  -4  -4    0.97    0.13
   8  -4   4    1.11    0.15
  -8   4  -4    1.08    0.14
   8   4   4    0.99    0.14
  -8   4  -4    1.00    0.14
  10  -4   4    1.51    0.18
 -10  -4  -4    1.54    0.19
  10   4   4    1.82    0.20
 -10   4  -4    1.74    0.19
 -10   4  -4    1.32    0.19
  11  -5  -4    7.81    0.37
 -11  -5   4    7.47    0.37
 -11   5   4    8.31    0.36
 -11   5   4    8.09    0.34
  -9  -5   4    0.66    0.11
  -9  -5   4    0.63    0.15
   9  -5  -4    0.79    0.14
  -9   5   4    0.62    0.12
   9   5  -4    0.49    0.13
  -9   5   4    0.77    0.14
   7  -5  -4    7.77    0.28
   7  -5  -4    7.20    0.25
  -7  -5   4    7.55    0.29
  -7  -5   4    7.81    0.26
   7   5  -4    7.30    0.31
  -7   5   4    7.61    0.25
  -7   5   4    7.78    0.26
  -7   5   4    7.50    0.27
  -7   5   4    7.42    0.24
   5  -5  -4   20.59    0.42
  -5  -5   4   20.38    0.41
  -5  -5   4   21.00    0.41
  -5  -5   4   20.61    0.46
   5  -5  -4   21.06    0.42
  -5   5   4   20.62    0.44
  -5   5   4   21.00    0.42
  -5   5   4   21.12    0.40
  -5   5   4   20.96    0.46
   5   5  -4   21.01    0.49
  -3  -5   4    0.60    0.08
  -3  -5   4    0.49    0.08
   3  -5  -4    0.53    0.06
  -3  -5   4    0.49    0.06
   3  -5  -4    0.60    0.08
   3  -5  -4    0.54    0.06
  -3   5   4    0.58    0.07
  -3   5   4    0.57    0.08
   3   5  -4    0.63    0.10
   1  -5  -4   31.49    0.51
  -1  -5   4   30.79    0.55
  -1  -5   4   31.52    0.57
   1  -5  -4   31.32    0.58
  -1  -5   4   31.77    0.51
  -1   5   4   32.47    0.56
  -1   5   4   31.62    0.47
   1   5  -4   31.84    0.55
   1   5  -4   31.60    0.56
   1  -5   4   10.51    0.27
   1  -5   4   10.10    0.24
  -1  -5  -4   10.66    0.28
  -1  -5  -4    9.84    0.24
  -1   5  -4   10.50    0.28
   1   5   4   10.28    0.28
  -1   5  -4   10.13    0.23
   3  -5   4   17.28    0.39
   3  -5   4   18.02    0.38
  -3  -5  -4   17.90    0.37
  -3  -5  -4   17.34    0.40
   3   5   4   18.11    0.42
  -3   5  -4   17.71    0.40
   5  -5   4    0.13    0.07
  -5  -5  -4    0.14    0.06
   5  -5   4    0.09    0.06
  -5  -5  -4    0.26    0.07
   5   5   4    0.14    0.07
  -5   5  -4    0.16    0.09
  -5   5  -4    0.13    0.07
  -7  -5  -4    9.98    0.32
   7  -5   4    9.44    0.32
  -7  -5  -4    9.24    0.33
  -7   5  -4    8.80    0.34
   7   5   4    9.96    0.36
  -7   5  -4    9.37    0.32
   9  -5   4    9.11    0.35
  -9  -5  -4    8.97    0.32
  -9  -5  -4    8.75    0.36
  -9   5  -4    9.08    0.35
   9   5   4    8.59    0.36
  -9   5  -4    8.95    0.38
 -10  -6   4    2.31    0.24
  10  -6  -4    2.67    0.22
 -10   6   4    2.32    0.23
 -10   6   4    2.46    0.21
   8  -6  -4   23.32    0.53
  -8  -6   4   22.90    0.58
   8  -6  -4   22.62    0.55
   8   6  -4   23.19    0.63
  -8   6   4   23.64    0.54
  -8   6   4   23.64    0.52
  -8   6   4   23.46    0.58
   6  -6  -4    0.43    0.10
  -6  -6   4    0.40    0.11
   6  -6  -4    0.46    0.08
  -6   6   4    0.52    0.10
  -6   6   4    0.55    0.09
   6   6  -4    0.48    0.11
  -6   6   4    0.39    0.09
  -4  -6   4   12.12    0.32
   4  -6  -4   11.72    0.29
  -4  -6   4   11.69    0.29
   4  -6  -4   11.96    0.34
  -4  -6   4   11.48    0.34
   4   6  -4   11.23    0.35
  -4   6   4   12.60    0.34
  -4   6   4   11.94    0.30
  -2  -6   4    1.27    0.12
  -2  -6   4    1.19    0.12
  -2  -6   4    1.24    0.10
   2  -6  -4    1.44    0.14
   2  -6  -4    1.17    0.09
   2   6  -4    1.22    0.12
  -2   6   4    1.19    0.12
   0  -6   4   28.96    0.55
   0  -6  -4   29.20    0.51
   0  -6  -4   28.29    0.56
   0  -6   4   28.66    0.50
   0   6   4   27.92    0.55
   0   6  -4   28.68    0.56
   0   6  -4   29.53    0.53
  -2  -6  -4   13.22    0.32
  -2  -6  -4   12.95    0.35
   2  -6   4   13.55    0.31
   2  -6   4   13.23    0.34
   2   6   4   13.24    0.36
  -2   6  -4   13.14    0.36
   4  -6   4   11.56    0.33
   4  -6   4   11.71    0.31
  -4  -6  -4   10.39    0.33
  -4  -6  -4   11.67    0.33
   4   6   4   11.32    0.35
  -4   6  -4   11.31    0.34
   6  -6   4    2.59    0.18
  -6  -6  -4    2.65    0.18
  -6  -6  -4    2.61    0.18
   6  -6   4    2.45    0.17
  -6   6  -4    2.33    0.18
  -6   6  -4    2.97    0.22
   6   6   4    3.13    0.21
  -8  -6  -4    3.46    0.22
  -8  -6  -4    3.91    0.25
   8  -6   4    3.92    0.24
   8  -6   4    3.66    0.23
   8   6   4    4.03    0.26
  -8   6  -4    3.83    0.27
  -8   6  -4    3.73    0.24
  -9  -7   4    2.63    0.26
   7  -7  -4   14.67    0.42
  -7  -7   4   15.71    0.48
   7  -7  -4   15.14    0.44
  -7   7   4   14.79    0.43
   7   7  -4   15.37    0.49
  -5  -7   4   21.55    0.49
   5  -7  -4   22.58    0.54
  -5  -7   4   23.09    0.55
   5  -7  -4   22.07    0.47
  -5   7   4   23.40    0.54
   5   7  -4   22.80    0.57
  -5   7   4   22.98    0.48
  -3  -7   4    6.55    0.26
  -3  -7   4    6.42    0.25
   3  -7  -4    6.45    0.22
   3  -7  -4    6.49    0.27
   3   7  -4    6.39    0.27
  -3   7   4    6.68    0.24
  -1  -7   4    3.68    0.19
  -1  -7   4    3.69    0.20
   1  -7  -4    3.55    0.16
   1  -7  -4    3.88    0.21
   1   7  -4    3.92    0.20
  -1   7   4    3.60    0.19
   1   7  -4    3.54    0.18
   1  -7   4    2.29    0.13
  -1  -7  -4    1.89    0.13
   1  -7   4    2.50    0.16
  -1  -7  -4    2.32    0.19
   1   7   4    2.10    0.16
  -1   7  -4    2.13    0.17
  -3  -7  -4    0.01    0.06
   3  -7   4    0.04    0.06
  -3  -7  -4    0.04    0.08
   3  -7   4   -0.02    0.05
  -3   7  -4    0.04    0.07
   3   7   4    0.04    0.07
  -5  -7  -4    8.45    0.32
   5  -7   4    8.15    0.28
   5  -7   4    7.95    0.30
  -5  -7  -4    7.78    0.30
  -5   7  -4    8.05    0.32
   5   7   4    8.53    0.34
   7  -7   4   11.01    0.37
   7  -7   4   11.35    0.39
  -7  -7  -4   11.76    0.40
  -7  -7  -4   12.07    0.40
  -7   7  -4   11.29    0.40
   7   7   4   11.47    0.43
   6  -8  -4   38.07    0.81
  -6  -8   4   38.31    0.82
   6   8  -4   38.60    0.86
  -6   8   4   39.22    0.81
  -4  -8   4    4.10    0.22
   4  -8  -4    4.37    0.25
  -4  -8   4    4.01    0.24
   4   8  -4    4.22    0.25
  -2  -8   4    2.39    0.19
   2  -8  -4    3.00    0.21
  -2  -8   4    2.38    0.19
   2   8  -4    2.48    0.18
  -2   8   4    2.48    0.17
   0  -8   4    5.95    0.26
   0  -8   4    5.61    0.27
   0  -8  -4    5.92    0.27
   0  -8  -4    5.86    0.23
   0   8   4    5.35    0.25
   0   8  -4    5.89    0.27
  -2  -8  -4    6.86    0.27
   2  -8   4    7.02    0.32
  -2  -8  -4    6.68    0.30
   2  -8   4    6.49    0.27
  -2   8  -4    6.84    0.30
   2   8   4    6.55    0.28
  -4  -8  -4    0.05    0.09
   4  -8   4    0.04    0.07
  -4  -8  -4   -0.08    0.08
   4   8   4   -0.09    0.08
  -4   8  -4   -0.11    0.08
   6  -8   4    0.74    0.13
  -6  -8  -4    1.18    0.16
  -6  -8  -4    1.21    0.18
  -6   8  -4    1.00    0.17
   6   8   4    1.27    0.19
   5  -9  -4    0.21    0.12
  -5  -9   4    0.04    0.10
   5   9  -4   -0.03    0.11
  -3  -9   4    1.67    0.18
  -3  -9   4    1.82    0.20
   3  -9  -4    2.19    0.22
   3   9  -4    1.39    0.17
  -1  -9   4    1.96    0.19
   1  -9  -4    2.12    0.21
  -1  -9   4    2.40    0.22
  -1   9   4    2.11    0.19
   1  -9   4    0.14    0.09
   1  -9   4    0.02    0.10
  -1  -9  -4    0.12    0.11
  -1   9  -4    0.04    0.11
   1   9   4    0.09    0.09
  -3  -9  -4    1.41    0.20
   3  -9   4    1.19    0.18
   3  -9   4    1.14    0.16
   3   9   4    0.98    0.15
  -3   9  -4    1.44    0.19
 -12   0   5    0.00    0.10
 -12   0   5   -0.17    0.09
  12   0  -5   -0.06    0.09
 -10   0   5    0.39    0.11
 -10   0   5    0.08    0.07
  10   0  -5    0.22    0.09
  -8   0   5    0.03    0.05
   8   0  -5    0.07    0.06
  -8   0   5    0.01    0.06
  -6   0   5   -0.02    0.02
   6   0  -5    0.06    0.05
   6   0  -5    0.02    0.02
  -6   0   5    0.02    0.04
  -6   0   5    0.06    0.04
  -4   0   5    0.04    0.03
  -4   0   5    0.05    0.03
  -4   0   5   -0.02    0.03
   4   0  -5    0.03    0.02
   4   0  -5    0.00    0.03
   2   0  -5    0.01    0.03
   2   0  -5   -0.04    0.02
  -2   0   5    0.04    0.03
  -2   0   5    0.01    0.03
   2   0  -5    0.04    0.01
  -2   0   5    0.00    0.02
  -2   0   5    0.01    0.02
  -2   0  -5    0.02    0.02
   2   0   5    0.00    0.03
  -2   0  -5    0.01    0.03
   2   0   5    0.00    0.02
  -2   0  -5    0.03    0.03
  -4   0  -5    0.00    0.03
  -4   0  -5   -0.01    0.02
   4   0   5    0.04    0.04
  -4   0  -5    0.01    0.04
  -4   0  -5    0.03    0.03
   4   0   5   -0.02    0.02
   6   0   5   -0.01    0.05
  -6   0  -5   -0.03    0.04
   6   0   5    0.00    0.04
  -6   0  -5    0.08    0.05
  -6   0  -5   -0.05    0.04
  -8   0  -5   -0.02    0.06
   8   0   5    0.02    0.07
  -8   0  -5    0.03    0.06
  -8   0  -5   -0.03    0.05
 -10   0  -5    0.01    0.07
  10   0   5    0.01    0.08
 -10   0  -5    0.04    0.07
 -10   0  -5    0.08    0.09
 -11  -1   5    1.84    0.19
 -11  -1   5    1.85    0.19
  11  -1  -5    1.66    0.18
 -11   1   5    1.57    0.17
 -11   1   5    1.84    0.19
  11   1  -5    1.74    0.20
  -9  -1   5    0.38    0.09
  -9  -1   5    0.60    0.11
   9  -1  -5    0.48    0.10
  -9   1   5    0.30    0.09
  -9   1   5    0.38    0.09
   9   1  -5    0.59    0.11
  -7  -1   5   18.45    0.40
   7  -1  -5   18.72    0.41
  -7  -1   5   18.81    0.41
   7  -1  -5   18.20    0.33
   7   1  -5   17.33    0.42
  -7   1   5   18.18    0.40
  -7   1   5   18.88    0.40
   5  -1  -5    0.67    0.06
  -5  -1   5    0.74    0.03
  -5  -1   5    0.62    0.07
  -5  -1   5    0.65    0.07
  -5  -1   5    0.77    0.08
   5  -1  -5    0.80    0.08
  -5   1   5    0.68    0.07
  -5   1   5    0.82    0.07
  -5   1   5    0.97    0.09
  -5   1   5    0.78    0.05
   5   1  -5    0.66    0.06
   5   1  -5    0.77    0.09
   3  -1  -5   28.20    0.39
   3  -1  -5   27.23    0.43
  -3  -1   5   27.89    0.44
  -3  -1   5   27.53    0.43
   3  -1  -5   28.55    0.46
  -3  -1   5   27.44    0.43
  -3   1   5   28.33    0.41
   3   1  -5   27.26    0.46
  -3   1   5   27.46    0.44
   3   1  -5   28.11    0.44
  -3   1   5   26.43    0.43
  -3   1   5   28.01    0.44
  -1  -1   5   98.99    1.27
   1  -1  -5   98.70    1.31
  -1  -1   5  101.16    1.28
  -1  -1   5  101.70    1.29
   1  -1  -5   99.95    1.27
  -1   1   5   98.32    1.29
   1   1  -5  100.83    1.26
  -1   1   5   98.84    1.29
  -1   1   5   99.51    1.26
   1   1  -5   98.17    1.29
   1  -1   5   21.18    0.34
   1  -1   5   20.65    0.34
  -1  -1  -5   21.30    0.34
  -1  -1  -5   21.61    0.35
  -1  -1  -5   21.55    0.31
  -1   1  -5   21.33    0.35
   1   1   5   21.55    0.34
  -1   1  -5   21.24    0.34
   1   1   5   21.64    0.30
  -1   1  -5   21.17    0.34
   1   1   5   21.79    0.34
  -1   1  -5   21.45    0.29
   3  -1   5   36.18    0.46
   3  -1   5   35.76    0.56
  -3  -1  -5   34.56    0.56
  -3  -1  -5   35.77    0.51
  -3  -1  -5   36.20    0.54
  -3  -1  -5   35.54    0.51
  -3   1  -5   35.97    0.56
  -3   1  -5   35.41    0.56
   3   1   5   36.06    0.53
   3   1   5   35.53    0.54
  -3   1  -5   35.72    0.53
  -5  -1  -5   29.46    0.42
  -5  -1  -5   29.39    0.52
  -5  -1  -5   29.14    0.52
   5  -1   5   29.57    0.44
  -5  -1  -5   29.53    0.48
  -5   1  -5   29.14    0.52
  -5   1  -5   29.79    0.53
  -5   1  -5   30.36    0.44
   5   1   5   29.54    0.50
  -5   1  -5   28.97    0.51
  -7  -1  -5   11.87    0.33
  -7  -1  -5   12.35    0.32
  -7  -1  -5   11.89    0.29
   7  -1   5   12.07    0.34
  -7   1  -5   11.59    0.33
  -7   1  -5   12.24    0.32
  -7   1  -5   12.35    0.31
   7   1   5   12.36    0.30
  -9  -1  -5   -0.07    0.07
  -9  -1  -5   -0.03    0.07
   9  -1   5   -0.13    0.07
  -9  -1  -5   -0.07    0.05
  -9   1  -5   -0.06    0.06
  -9   1  -5   -0.06    0.07
  -9   1  -5   -0.01    0.07
 -11  -1  -5    7.25    0.29
  11  -1   5    7.06    0.33
 -11  -1  -5    6.90    0.33
 -11   1  -5    7.14    0.33
  11   1   5    6.96    0.33
 -11   1  -5    6.75    0.29
 -11   1  -5    6.73    0.28
 -12  -2   5   14.50    0.46
 -12  -2   5   15.50    0.49
 -12   2   5   14.71    0.46
 -12   2   5   14.63    0.47
  12   2  -5   14.59    0.50
 -10  -2   5   -0.02    0.09
 -10  -2   5   -0.04    0.07
  10  -2  -5   -0.01    0.06
 -10   2   5    0.05    0.08
 -10   2   5   -0.01    0.07
  10   2  -5   -0.02    0.09
  -8  -2   5    8.42    0.29
  -8  -2   5    9.24    0.28
   8  -2  -5    8.71    0.28
   8   2  -5    8.30    0.30
  -8   2   5    8.98    0.28
  -8   2   5    9.00    0.28
   6  -2  -5    3.96    0.13
  -6  -2   5    3.77    0.17
   6  -2  -5    4.11    0.17
  -6  -2   5    3.80    0.16
   6   2  -5    3.87    0.18
  -6   2   5    3.59    0.15
  -6   2   5    3.98    0.12
   6   2  -5    3.87    0.14
  -6   2   5    3.60    0.15
  -4  -2   5   20.91    0.36
  -4  -2   5   20.91    0.31
  -4  -2   5   20.24    0.37
  -4  -2   5   20.47    0.38
   4   2  -5   20.98    0.38
  -4   2   5   20.75    0.35
  -4   2   5   20.49    0.33
  -4   2   5   21.00    0.37
  -4   2   5   21.12    0.37
  -4   2   5   21.00    0.38
  -2  -2   5    6.89    0.16
  -2  -2   5    6.66    0.16
   2  -2  -5    6.77    0.15
  -2  -2   5    6.99    0.15
  -2   2   5    7.19    0.14
   2   2  -5    6.97    0.14
  -2   2   5    6.94    0.14
  -2   2   5    6.62    0.16
   2   2  -5    6.72    0.17
  -2   2   5    7.09    0.16
   2   2  -5    6.75    0.18
   0  -2   5    4.43    0.12
   0  -2   5    4.57    0.11
   0  -2  -5    4.61    0.09
   0  -2   5    4.18    0.12
   0   2  -5    4.34    0.12
   0   2   5    4.56    0.12
   0   2   5    4.23    0.12
   0   2  -5    4.23    0.14
   0   2  -5    4.52    0.11
   0   2   5    4.48    0.07
  -2  -2  -5   71.68    1.02
  -2  -2  -5   73.57    0.98
   2  -2   5   71.71    1.01
   2   2   5   73.30    1.00
  -2   2  -5   73.07    1.02
   2   2   5   74.08    0.94
   2   2   5   74.36    1.02
  -2   2  -5   71.17    1.01
  -2   2  -5   74.06    1.03
  -4  -2  -5    2.95    0.10
  -4  -2  -5    2.99    0.13
   4  -2   5    2.80    0.13
  -4  -2  -5    2.96    0.10
  -4  -2  -5    2.73    0.13
  -4   2  -5    2.75    0.13
  -4   2  -5    3.02    0.13
   4   2   5    2.73    0.13
  -4   2  -5    2.90    0.12
  -6  -2  -5    8.69    0.22
   6  -2   5    8.91    0.27
  -6  -2  -5    8.72    0.25
  -6  -2  -5    8.97    0.26
  -6   2  -5    8.69    0.25
  -6   2  -5    9.02    0.28
   6   2   5    8.85    0.26
  -6   2  -5    8.30    0.25
  -8  -2  -5    7.61    0.24
  -8  -2  -5    8.15    0.29
   8  -2   5    8.21    0.30
  -8  -2  -5    7.62    0.26
   8   2   5    7.84    0.27
  -8   2  -5    7.87    0.27
  -8   2  -5    7.33    0.26
  -8   2  -5    7.99    0.30
  10  -2   5    0.37    0.12
 -10  -2  -5    0.56    0.13
 -10  -2  -5    0.62    0.12
 -10  -2  -5    0.69    0.11
 -10   2  -5    0.57    0.13
 -10   2  -5    0.68    0.12
 -10   2  -5    0.59    0.12
 -11  -3   5   14.08    0.47
 -11  -3   5   14.42    0.44
  11   3  -5   14.36    0.49
 -11   3   5   14.38    0.43
 -11   3   5   14.73    0.45
  -9  -3   5    0.81    0.12
   9  -3  -5    0.77    0.11
  -9  -3   5    0.67    0.12
  -9   3   5    0.78    0.12
  -9   3   5    0.68    0.11
   9   3  -5    0.84    0.14
  -7  -3   5   22.43    0.47
  -7  -3   5   21.93    0.49
   7  -3  -5   22.39    0.47
  -7   3   5   23.03    0.46
  -7   3   5   23.00    0.42
  -7   3   5   22.92    0.47
   7   3  -5   22.58    0.52
  -5  -3   5   88.68    1.29
  -5  -3   5   89.20    1.27
  -5  -3   5   89.22    1.19
  -5   3   5   89.58    1.26
  -5   3   5   91.20    1.28
   5   3  -5   89.22    1.27
   5   3  -5   89.95    1.33
  -5   3   5   89.39    1.23
  -5   3   5   90.47    1.25
  -5   3   5   90.03    1.25
   3  -3  -5    0.50    0.06
  -3  -3   5    0.46    0.06
  -3  -3   5    0.57    0.05
  -3  -3   5    0.41    0.05
  -3  -3   5    0.61    0.06
   3   3  -5    0.69    0.08
  -3   3   5    0.65    0.06
  -3   3   5    0.52    0.06
   3   3  -5    0.55    0.07
  -3   3   5    0.46    0.06
  -3   3   5    0.51    0.05
  -3   3   5    0.57    0.07
  -1  -3   5  194.65    2.50
   1  -3  -5  197.64    2.52
  -1  -3   5  190.54    2.51
   1  -3  -5  194.99    2.45
  -1  -3   5  199.00    2.45
  -1   3   5  196.57    2.42
  -1   3   5  208.95    2.48
   1   3  -5  195.58    2.51
  -1   3   5  191.06    2.52
   1   3  -5  192.21    2.56
   1   3  -5  196.01    2.50
   1  -3   5    4.96    0.15
   1  -3   5    4.87    0.12
  -1  -3  -5    5.03    0.13
  -1  -3  -5    5.09    0.16
   1  -3   5    4.88    0.15
   1   3   5    4.99    0.16
  -1   3  -5    5.01    0.17
  -1   3  -5    4.95    0.15
   1   3   5    5.14    0.13
  -1   3  -5    4.98    0.11
  -3  -3  -5   23.30    0.43
  -3  -3  -5   23.14    0.40
  -3  -3  -5   23.43    0.33
   3  -3   5   22.34    0.42
  -3   3  -5   22.20    0.42
  -3   3  -5   22.14    0.44
  -3   3  -5   23.23    0.43
   3   3   5   22.88    0.39
   3   3   5   22.46    0.43
  -5  -3  -5    5.08    0.19
  -5  -3  -5    5.03    0.14
  -5  -3  -5    4.82    0.19
   5  -3   5    4.83    0.19
  -5   3  -5    4.76    0.20
  -5   3  -5    4.74    0.18
   5   3   5    4.88    0.20
   7  -3   5  129.64    1.84
  -7  -3  -5  126.29    1.79
  -7  -3  -5  124.59    1.81
   7   3   5  125.80    1.82
  -7   3  -5  124.68    1.83
  -7   3  -5  125.34    1.79
  -9  -3  -5    3.98    0.23
  -9  -3  -5    3.73    0.21
   9  -3   5    3.89    0.23
  -9   3  -5    3.37    0.20
  -9   3  -5    4.05    0.24
   9   3   5    3.45    0.21
  11  -3   5    0.08    0.11
 -11  -3  -5    0.00    0.10
 -11   3  -5    0.07    0.11
 -11   3  -5    0.09    0.10
 -10  -4   5    2.46    0.20
 -10  -4   5    3.15    0.24
 -10   4   5    2.64    0.19
 -10   4   5    2.62    0.22
  10   4  -5    2.82    0.24
  -8  -4   5    2.36    0.16
  -8  -4   5    2.24    0.18
   8  -4  -5    2.11    0.15
  -8   4   5    2.15    0.17
  -8   4   5    2.35    0.16
   8   4  -5    2.50    0.19
  -6  -4   5   20.03    0.43
  -6  -4   5   20.91    0.46
   6  -4  -5   20.41    0.44
   6   4  -5   20.53    0.49
  -6   4   5   20.38    0.41
  -6   4   5   20.29    0.42
  -6   4   5   20.35    0.43
   6   4  -5   20.66    0.43
  -6   4   5   20.45    0.41
  -4  -4   5   46.47    0.69
  -4  -4   5   45.71    0.75
   4  -4  -5   45.18    0.69
   4  -4  -5   45.37    0.73
  -4  -4   5   45.79    0.72
  -4   4   5   45.21    0.71
  -4   4   5   45.60    0.71
   4   4  -5   46.47    0.77
  -4   4   5   45.89    0.72
  -4   4   5   45.70    0.68
  -4   4   5   45.80    0.72
   4   4  -5   45.20    0.78
   2  -4  -5   16.46    0.34
   2  -4  -5   16.75    0.28
  -2  -4   5   16.56    0.26
  -2  -4   5   16.62    0.33
  -2  -4   5   16.27    0.31
   2  -4  -5   16.77    0.29
  -2  -4   5   16.19    0.33
   2   4  -5   16.11    0.32
   2   4  -5   16.40    0.35
  -2   4   5   17.26    0.30
  -2   4   5   16.55    0.26
  -2   4   5   16.19    0.33
   2   4  -5   15.99    0.37
   0  -4   5   47.06    0.72
   0  -4  -5   46.90    0.67
   0  -4   5   47.26    0.62
   0  -4   5   46.41    0.69
   0  -4  -5   46.31    0.73
   0   4  -5   46.46    0.72
   0   4   5   45.32    0.65
   0   4  -5   46.51    0.77
   0   4   5   46.67    0.73
   0   4  -5   46.55    0.69
   2  -4   5    0.24    0.05
  -2  -4  -5    0.25    0.06
   2  -4   5    0.21    0.05
  -2  -4  -5    0.14    0.04
  -2   4  -5    0.20    0.05
  -2   4  -5    0.23    0.06
  -2   4  -5    0.19    0.03
   2   4   5    0.16    0.04
   2   4   5    0.14    0.05
  -4  -4  -5    6.22    0.20
   4  -4   5    6.18    0.21
  -4  -4  -5    6.22    0.22
   4  -4   5    5.87    0.21
  -4   4  -5    5.90    0.23
   4   4   5    5.92    0.22
   4   4   5    6.27    0.18
  -4   4  -5    5.84    0.21
   6  -4   5    1.54    0.14
  -6  -4  -5    1.62    0.14
  -6  -4  -5    1.67    0.15
   6   4   5    1.77    0.16
  -6   4  -5    1.94    0.17
  -6   4  -5    1.66    0.15
   8  -4   5    0.09    0.08
  -8  -4  -5    0.19    0.09
  -8  -4  -5    0.07    0.08
  -8   4  -5    0.08    0.08
   8   4   5    0.16    0.09
  -8   4  -5    0.00    0.08
  10  -4   5    7.69    0.34
 -10  -4  -5    7.29    0.34
 -10  -4  -5    7.61    0.31
 -10   4  -5    7.99    0.37
 -10   4  -5    7.17    0.31
  10   4   5    7.94    0.35
   9  -5  -5    1.08    0.15
  -9  -5   5    1.14    0.17
  -9  -5   5    1.27    0.14
   9   5  -5    1.07    0.17
  -9   5   5    1.01    0.15
  -9   5   5    1.11    0.14
  -7  -5   5    3.12    0.17
   7  -5  -5    3.35    0.19
   7  -5  -5    3.44    0.19
  -7  -5   5    3.26    0.20
  -7   5   5    2.97    0.17
  -7   5   5    3.25    0.17
  -7   5   5    3.31    0.17
   7   5  -5    3.60    0.23
  -7   5   5    3.16    0.19
  -5  -5   5   16.62    0.37
   5  -5  -5   17.06    0.37
   5  -5  -5   16.12    0.35
   5  -5  -5   17.02    0.39
  -5  -5   5   17.03    0.41
  -5  -5   5   17.31    0.35
  -5   5   5   16.55    0.37
   5   5  -5   16.49    0.43
  -5   5   5   16.56    0.38
  -5   5   5   16.58    0.34
  -5   5   5   16.70    0.39
  -3  -5   5   16.72    0.36
  -3  -5   5   17.12    0.38
  -3  -5   5   17.20    0.35
   3  -5  -5   17.22    0.33
   3  -5  -5   16.85    0.31
   3  -5  -5   16.77    0.38
  -3   5   5   16.64    0.33
  -3   5   5   16.77    0.37
   3   5  -5   17.36    0.42
   3   5  -5   17.32    0.40
  -3   5   5   17.26    0.36
  -1  -5   5   87.28    1.22
   1  -5  -5   89.51    1.20
  -1  -5   5   90.64    1.27
   1  -5  -5   86.07    1.27
  -1   5   5   88.62    1.17
   1   5  -5   86.36    1.25
   1   5  -5   85.70    1.33
   1   5  -5   88.86    1.26
  -1   5   5   87.90    1.26
   1  -5   5    3.73    0.16
   1  -5   5    4.00    0.15
  -1  -5  -5    3.78    0.17
  -1  -5  -5    4.00    0.14
  -1   5  -5    3.95    0.13
  -1   5  -5    4.00    0.17
   1   5   5    3.70    0.17
   3  -5   5   21.26    0.42
  -3  -5  -5   20.38    0.44
   3  -5   5   19.93    0.43
  -3  -5  -5   20.24    0.41
  -3   5  -5   20.76    0.45
   3   5   5   20.78    0.46
   5  -5   5   24.88    0.53
  -5  -5  -5   25.19    0.53
   5  -5   5   24.47    0.51
  -5  -5  -5   24.67    0.51
   5   5   5   24.94    0.56
  -5   5  -5   24.70    0.57
  -5   5  -5   25.47    0.54
   7  -5   5    6.14    0.26
  -7  -5  -5    6.50    0.27
  -7  -5  -5    6.25    0.27
   7   5   5    6.36    0.28
  -7   5  -5    6.69    0.30
  -7   5  -5    5.88    0.26
  -9  -5  -5    8.25    0.35
  -9  -5  -5    8.63    0.33
   9  -5   5    8.09    0.34
   9   5   5    8.33    0.35
  -9   5  -5    8.51    0.33
  -9   5  -5    7.74    0.36
 -10  -6   5    2.62    0.25
 -10   6   5    2.86    0.21
   8  -6  -5   41.27    0.76
  -8  -6   5   40.75    0.84
   8   6  -5   41.51    0.89
  -8   6   5   41.64    0.82
  -8   6   5   38.63    0.77
  -6  -6   5   15.62    0.43
   6  -6  -5   15.17    0.37
  -6  -6   5   15.22    0.38
   6  -6  -5   15.24    0.41
  -6   6   5   15.40    0.37
   6   6  -5   15.96    0.46
  -6   6   5   15.25    0.41
  -6   6   5   15.22    0.40
  -4  -6   5   -0.01    0.05
  -4  -6   5    0.16    0.07
   4  -6  -5    0.04    0.06
   4  -6  -5   -0.01    0.04
  -4  -6   5    0.06    0.05
   4   6  -5   -0.05    0.06
  -4   6   5    0.07    0.06
  -4   6   5    0.02    0.05
   2  -6  -5    1.29    0.14
   2  -6  -5    1.07    0.09
  -2  -6   5    0.94    0.09
  -2  -6   5    0.99    0.11
  -2  -6   5    0.92    0.10
   2   6  -5    0.88    0.10
   2   6  -5    0.99    0.11
  -2   6   5    1.29    0.12
   0  -6  -5   19.25    0.38
   0  -6  -5   19.15    0.44
   0  -6   5   18.55    0.41
   0  -6   5   19.09    0.38
   0   6   5   19.20    0.43
   0   6  -5   19.15    0.39
   0   6  -5   18.46    0.42
  -2  -6  -5    6.42    0.24
   2  -6   5    6.09    0.22
  -2  -6  -5    6.23    0.21
   2  -6   5    6.44    0.21
   2   6   5    6.38    0.24
  -2   6  -5    6.18    0.24
  -4  -6  -5    8.54    0.28
  -4  -6  -5    8.62    0.29
   4  -6   5    8.85    0.27
   4  -6   5    8.39    0.29
   4   6   5    8.90    0.32
  -4   6  -5    8.60    0.30
   6  -6   5    3.49    0.21
  -6  -6  -5    3.76    0.21
  -6  -6  -5    4.05    0.22
   6  -6   5    3.71    0.20
  -6   6  -5    3.79    0.23
  -6   6  -5    3.52    0.24
   6   6   5    3.74    0.23
  -8  -6  -5    0.66    0.14
   8  -6   5    0.52    0.12
  -8  -6  -5    0.56    0.13
   8  -6   5    0.74    0.13
   8   6   5    0.43    0.13
  -8   6  -5    0.56    0.14
  -8   6  -5    0.56    0.13
   7  -7  -5   13.45    0.41
  -7  -7   5   14.04    0.45
   7   7  -5   14.36    0.48
  -7   7   5   13.04    0.40
   5  -7  -5   28.58    0.63
  -5  -7   5   28.42    0.64
  -5  -7   5   28.06    0.58
  -5   7   5   29.68    0.57
  -5   7   5   28.90    0.62
   5   7  -5   28.54    0.66
   3  -7  -5    5.78    0.26
  -3  -7   5    5.99    0.25
  -3  -7   5    6.03    0.24
   3   7  -5    6.28    0.26
  -3   7   5    6.30    0.23
   1  -7  -5    7.24    0.28
  -1  -7   5    7.70    0.27
  -1  -7   5    7.49    0.28
  -1   7   5    7.40    0.26
   1   7  -5    6.99    0.27
   1   7  -5    7.48    0.26
   1  -7   5    8.72    0.26
   1  -7   5    8.83    0.29
  -1  -7  -5    8.77    0.31
  -1  -7  -5    8.68    0.27
  -1   7  -5    8.47    0.30
   1   7   5    8.46    0.30
   3  -7   5   13.85    0.35
  -3  -7  -5   14.03    0.41
  -3  -7  -5   14.00    0.37
   3  -7   5   13.73    0.38
  -3   7  -5   13.88    0.40
   3   7   5   14.10    0.42
  -5  -7  -5    1.51    0.16
   5  -7   5    1.58    0.15
  -5  -7  -5    1.58    0.17
   5  -7   5    1.53    0.16
   5   7   5    1.56    0.17
  -5   7  -5    1.37    0.17
  -7  -7  -5    0.25    0.11
   7  -7   5    0.20    0.09
  -7  -7  -5    0.13    0.10
   7  -7   5    0.20    0.10
  -7   7  -5   -0.01    0.10
   7   7   5    0.21    0.12
   6  -8  -5    2.34    0.22
  -6  -8   5    3.02    0.24
   6   8  -5    2.96    0.27
   4  -8  -5    1.18    0.16
  -4  -8   5    1.04    0.14
  -4  -8   5    1.10    0.15
   4   8  -5    1.15    0.16
  -4   8   5    1.44    0.15
  -2  -8   5    1.26    0.15
  -2  -8   5    1.28    0.15
   2  -8  -5    1.77    0.18
   2   8  -5    1.47    0.15
  -2   8   5    1.54    0.16
   0  -8  -5    4.75    0.25
   0  -8   5    4.55    0.25
   0  -8   5    4.91    0.24
   0   8   5    4.64    0.23
   0   8  -5    4.71    0.24
   2  -8   5   31.50    0.66
  -2  -8  -5   32.24    0.69
   2   8   5   31.92    0.70
  -2   8  -5   31.20    0.69
  -4  -8  -5    2.43    0.22
   4  -8   5    2.62    0.20
   4   8   5    2.48    0.23
  -4   8  -5    3.00    0.22
   6  -8   5    0.68    0.13
   6  -8   5    0.51    0.12
  -6  -8  -5    0.77    0.14
   6   8   5    0.71    0.14
  -6   8  -5    0.85    0.17
   5  -9  -5    2.27    0.23
  -3  -9   5   13.30    0.42
  -3  -9   5   12.27    0.42
   3  -9  -5   13.24    0.44
   3   9  -5   12.11    0.42
  -3   9   5   12.81    0.39
   1  -9  -5    2.28    0.22
  -1  -9   5    2.80    0.22
  -1  -9   5    2.70    0.23
  -1   9   5    2.79    0.20
  -1  -9  -5    8.45    0.36
   1  -9   5    8.26    0.33
   1  -9   5    8.30    0.36
  -1   9  -5    8.39    0.36
   1   9   5    8.50    0.34
   3  -9   5    0.94    0.14
  -3  -9  -5    1.10    0.18
   3  -9   5    1.15    0.19
   3   9   5    1.09    0.18
  -3   9  -5    1.17    0.19
 -12   0   6   24.52    0.62
  12   0  -6   23.01    0.62
 -12   0   6   23.33    0.60
 -10   0   6    6.10    0.26
 -10   0   6    5.99    0.27
  10   0  -6    5.79    0.27
  -8   0   6   38.72    0.71
   8   0  -6   39.13    0.73
  -8   0   6   40.35    0.70
  -6   0   6   39.70    0.67
   6   0  -6   39.91    0.69
   6   0  -6   40.40    0.61
  -6   0   6   39.81    0.66
  -6   0   6   39.91    0.65
   4   0  -6   11.05    0.26
  -4   0   6   10.75    0.22
   4   0  -6   10.98    0.23
  -4   0   6   10.84    0.24
  -4   0   6   10.73    0.24
  -2   0   6   31.91    0.47
   2   0  -6   31.12    0.49
  -2   0   6   31.83    0.44
  -2   0   6   32.06    0.48
   2   0  -6   32.65    0.42
   2   0  -6   32.69    0.50
   0   0   6  495.86    6.11
   0   0   6  470.81    6.10
   0   0  -6  481.84    6.04
   0   0  -6  486.19    6.01
   0   0   6  488.58    6.01
   0   0   6  491.61    6.04
   0   0  -6  497.14    6.03
  -2   0  -6  185.73    2.36
   2   0   6  187.82    2.32
  -2   0  -6  186.74    2.36
   2   0   6  183.17    2.36
  -2   0  -6  186.62    2.39
  -4   0  -6   24.17    0.44
   4   0   6   24.72    0.38
  -4   0  -6   24.91    0.38
   4   0   6   23.67    0.42
  -4   0  -6   24.53    0.43
   6   0   6   15.31    0.30
  -6   0  -6   15.64    0.36
  -6   0  -6   16.10    0.37
  -6   0  -6   15.48    0.33
   6   0   6   15.41    0.36
  -8   0  -6   23.93    0.51
  -8   0  -6   23.19    0.49
  -8   0  -6   24.01    0.54
   8   0   6   25.21    0.54
 -10   0  -6   11.72    0.37
  10   0   6   12.03    0.39
 -10   0  -6   12.69    0.37
 -10   0  -6   11.72    0.40
 -11  -1   6   24.70    0.60
  11  -1  -6   24.03    0.60
 -11  -1   6   23.24    0.58
 -11   1   6   23.75    0.58
  11   1  -6   24.41    0.62
 -11   1   6   24.08    0.58
  -9  -1   6    0.29    0.09
   9  -1  -6    0.43    0.10
  -9  -1   6    0.36    0.10
  -9   1   6    0.16    0.08
   9   1  -6    0.14    0.09
  -9   1   6    0.28    0.09
   7  -1  -6   22.09    0.39
  -7  -1   6   22.29    0.46
  -7  -1   6   22.15    0.45
   7  -1  -6   21.91    0.47
   7   1  -6   21.63    0.48
  -7   1   6   23.10    0.45
   7   1  -6   20.40    0.40
  -7   1   6   22.34    0.45
  -5  -1   6    0.74    0.08
   5  -1  -6    0.72    0.06
  -5  -1   6    0.56    0.07
  -5  -1   6    0.64    0.07
   5  -1  -6    0.61    0.08
   5   1  -6    0.66    0.07
  -5   1   6    0.52    0.07
  -5   1   6    0.71    0.04
  -5   1   6    0.69    0.08
   5   1  -6    0.70    0.08
  -5   1   6    0.83    0.08
   3  -1  -6    0.03    0.04
   3  -1  -6    0.06    0.03
   3  -1  -6    0.00    0.02
  -3  -1   6    0.00    0.03
  -3  -1   6    0.01    0.03
  -3  -1   6    0.06    0.03
  -3   1   6    0.04    0.03
  -3   1   6    0.04    0.03
  -3   1   6    0.03    0.03
   3   1  -6    0.01    0.04
   3   1  -6   -0.01    0.03
  -3   1   6    0.02    0.02
   1  -1  -6    6.73    0.16
   1  -1  -6    6.65    0.14
  -1  -1   6    6.91    0.15
  -1  -1   6    6.76    0.15
  -1  -1   6    6.63    0.13
   1   1  -6    6.47    0.17
  -1   1   6    6.69    0.15
   1   1  -6    6.84    0.13
   1   1  -6    6.36    0.15
  -1   1   6    6.81    0.13
  -1   1   6    6.86    0.15
  -1  -1  -6   77.61    1.00
   1  -1   6   78.75    1.05
   1  -1   6   77.47    1.04
   1  -1   6   77.44    0.98
  -1  -1  -6   76.69    1.05
  -1  -1  -6   76.37    1.05
  -1   1  -6   77.72    0.99
   1   1   6   77.93    1.04
   1   1   6   78.79    1.00
  -1   1  -6   79.29    1.04
  -1   1  -6   78.78    1.05
   1   1   6   77.98    1.05
   3  -1   6   16.34    0.22
  -3  -1  -6   16.31    0.32
  -3  -1  -6   16.16    0.30
  -3  -1  -6   16.42    0.28
   3  -1   6   15.98    0.31
   3   1   6   16.54    0.29
  -3   1  -6   16.01    0.29
  -3   1  -6   15.37    0.31
  -3   1  -6   16.21    0.31
   3   1   6   16.04    0.29
  -5  -1  -6    6.44    0.21
   5  -1   6    6.20    0.20
  -5  -1  -6    6.06    0.17
   5  -1   6    6.04    0.13
  -5  -1  -6    6.05    0.14
  -5  -1  -6    5.84    0.19
  -5   1  -6    6.45    0.21
   5   1   6    6.08    0.18
  -5   1  -6    6.04    0.20
  -5   1  -6    6.32    0.15
   5   1   6    6.23    0.19
  -7  -1  -6    0.09    0.07
  -7  -1  -6    0.14    0.06
   7  -1   6    0.12    0.07
  -7  -1  -6    0.12    0.05
  -7   1  -6    0.03    0.06
  -7   1  -6    0.19    0.06
  -7   1  -6    0.09    0.06
   7   1   6    0.05    0.05
   7   1   6    0.13    0.07
  -9  -1  -6    0.68    0.11
  -9  -1  -6    0.73    0.11
   9  -1   6    0.59    0.12
  -9  -1  -6    0.59    0.12
  -9   1  -6    0.57    0.12
  -9   1  -6    0.92    0.13
   9   1   6    0.55    0.11
  -9   1  -6    0.62    0.11
 -11  -1  -6    1.15    0.17
 -11  -1  -6    1.68    0.19
 -11  -1  -6    1.89    0.18
  11  -1   6    1.53    0.19
 -11   1  -6    1.90    0.19
 -11   1  -6    2.04    0.20
 -11   1  -6    1.38    0.19
  11   1   6    1.64    0.19
 -12  -2   6   15.64    0.50
 -12  -2   6   15.58    0.48
 -12   2   6   15.46    0.49
  12   2  -6   16.56    0.53
 -12   2   6   15.92    0.48
 -10  -2   6    3.53    0.23
  10  -2  -6    3.58    0.21
 -10  -2   6    3.53    0.21
  10   2  -6    3.20    0.23
 -10   2   6    3.10    0.21
 -10   2   6    3.64    0.21
  -8  -2   6   27.39    0.57
  -8  -2   6   27.64    0.57
   8  -2  -6   27.91    0.58
  -8   2   6   28.63    0.56
  -8   2   6   28.35    0.56
   8   2  -6   28.56    0.62
   6  -2  -6    2.06    0.13
  -6  -2   6    1.81    0.12
   6  -2  -6    1.96    0.10
  -6  -2   6    1.69    0.12
   6   2  -6    1.91    0.11
  -6   2   6    1.92    0.12
  -6   2   6    1.85    0.08
  -6   2   6    1.80    0.11
   6   2  -6    1.90    0.14
  -6   2   6    1.69    0.12
  -4  -2   6    3.43    0.12
  -4  -2   6    3.38    0.13
  -4  -2   6    3.45    0.08
   4  -2  -6    3.46    0.10
  -4  -2   6    3.37    0.13
   4   2  -6    3.61    0.15
  -4   2   6    3.44    0.10
  -4   2   6    3.19    0.12
   4   2  -6    3.31    0.14
  -4   2   6    3.35    0.13
  -4   2   6    3.55    0.14
  -4   2   6    3.51    0.11
  -2  -2   6   98.05    1.30
  -2  -2   6   99.32    1.32
   2  -2  -6  100.23    1.26
   2  -2  -6   99.74    1.31
  -2  -2   6  100.64    1.33
   2   2  -6  100.35    1.28
  -2   2   6  101.35    1.27
  -2   2   6  104.43    1.33
  -2   2   6   98.60    1.33
   2   2  -6   98.22    1.34
   2   2  -6   95.94    1.36
  -2   2   6  101.24    1.29
   0  -2  -6    2.33    0.06
   0  -2   6    2.82    0.09
   0  -2   6    2.30    0.08
   0  -2   6    2.26    0.09
   0  -2  -6    2.24    0.09
   0   2   6    2.36    0.06
   0   2   6    2.43    0.10
   0   2  -6    2.27    0.11
   0   2  -6    2.31    0.09
   0   2   6    2.42    0.09
   0   2  -6    2.37    0.08
  -2  -2  -6  120.55    1.55
  -2  -2  -6  118.97    1.60
   2   2   6  117.77    1.58
   2   2   6  120.26    1.50
  -2   2  -6  115.46    1.59
   2   2   6  119.89    1.59
  -2   2  -6  120.19    1.60
  -2   2  -6  120.92    1.60
  -4  -2  -6   15.28    0.27
   4  -2   6   15.36    0.33
  -4  -2  -6   15.65    0.28
  -4  -2  -6   14.90    0.33
  -4  -2  -6   15.15    0.32
   4   2   6   15.34    0.29
  -4   2  -6   16.45    0.34
  -4   2  -6   15.98    0.31
   4   2   6   15.46    0.32
  -4   2  -6   15.47    0.33
  -6  -2  -6   41.88    0.72
  -6  -2  -6   40.95    0.65
  -6  -2  -6   41.24    0.71
   6  -2   6   40.76    0.73
  -6   2  -6   42.20    0.72
  -6   2  -6   42.61    0.74
   6   2   6   41.86    0.70
   6   2   6   42.27    0.68
  -8  -2  -6    1.14    0.13
   8  -2   6    1.60    0.16
  -8  -2  -6    1.60    0.12
  -8  -2  -6    1.49    0.14
   8   2   6    1.45    0.14
   8   2   6    1.59    0.14
  -8   2  -6    1.47    0.14
  -8   2  -6    1.69    0.17
 -10  -2  -6    0.00    0.09
  10  -2   6    0.08    0.09
 -10  -2  -6    0.07    0.08
  10   2   6    0.14    0.10
 -10   2  -6    0.05    0.08
 -10   2  -6   -0.02    0.09
 -11  -3   6    0.01    0.09
 -11  -3   6    0.10    0.10
 -11   3   6   -0.04    0.09
  11   3  -6   -0.10    0.11
 -11   3   6   -0.09    0.09
  -9  -3   6    0.88    0.12
  -9   3   6    0.81    0.12
   9   3  -6    0.88    0.14
  -7  -3   6    0.29    0.07
   7  -3  -6    0.27    0.06
  -7  -3   6    0.36    0.08
   7  -3  -6    0.36    0.08
  -7   3   6    0.46    0.08
   7   3  -6    0.25    0.08
  -7   3   6    0.30    0.08
  -5  -3   6    2.03    0.12
   5  -3  -6    1.98    0.10
  -5  -3   6    1.90    0.08
  -5  -3   6    1.94    0.12
   5   3  -6    1.88    0.14
   5   3  -6    1.94    0.12
  -5   3   6    2.04    0.10
  -5   3   6    1.89    0.11
  -5   3   6    2.01    0.12
  -5   3   6    1.89    0.11
  -5   3   6    1.89    0.11
   3  -3  -6    8.28    0.17
   3  -3  -6    8.51    0.20
  -3  -3   6    8.01    0.18
  -3  -3   6    8.39    0.21
  -3  -3   6    8.36    0.18
  -3   3   6    7.96    0.18
  -3   3   6    8.56    0.18
   3   3  -6    7.99    0.18
  -1  -3   6    1.43    0.08
  -1  -3   6    1.35    0.06
   1  -3  -6    1.41    0.09
  -1  -3   6    1.45    0.08
   1  -3  -6    1.41    0.05
  -1   3   6    1.40    0.07
  -1   3   6    1.48    0.09
  -1   3   6    1.38    0.05
   1   3  -6    1.35    0.08
   1   3  -6    1.30    0.10
   1   3  -6    1.55    0.08
   1  -3   6   13.35    0.28
   1  -3   6   13.67    0.28
   1  -3   6   13.43    0.25
  -1  -3  -6   14.11    0.29
  -1  -3  -6   13.77    0.24
  -1   3  -6   13.28    0.31
   1   3   6   13.65    0.25
   1   3   6   13.84    0.29
  -1   3  -6   13.58    0.22
  -1   3  -6   13.54    0.28
  -3  -3  -6    1.52    0.09
   3  -3   6    1.60    0.10
  -3  -3  -6    1.59    0.11
  -3   3  -6    1.56    0.11
   3   3   6    1.55    0.06
   3   3   6    1.46    0.09
  -3   3  -6    1.57    0.11
   3   3   6    1.60    0.10
  -3   3  -6    1.67    0.12
  -5  -3  -6    0.51    0.06
   5  -3   6    0.53    0.09
  -5  -3  -6    0.56    0.09
  -5  -3  -6    0.56    0.08
  -5   3  -6    0.37    0.07
  -5   3  -6    0.59    0.10
   5   3   6    0.54    0.09
   5   3   6    0.50    0.06
   7  -3   6   19.28    0.47
  -7  -3  -6   18.83    0.45
  -7  -3  -6   19.53    0.45
   7   3   6   18.97    0.46
  -7   3  -6   19.64    0.45
  -7   3  -6   19.77    0.48
  -9  -3  -6    9.68    0.35
   9  -3   6    9.37    0.36
  -9  -3  -6    9.72    0.33
  -9   3  -6    9.96    0.37
   9   3   6   10.01    0.34
  -9   3  -6    9.61    0.33
 -11  -3  -6   -0.04    0.11
 -11   3  -6   -0.01    0.10
 -11   3  -6   -0.12    0.11
 -10  -4   6    0.46    0.13
 -10  -4   6    0.75    0.13
 -10   4   6    0.51    0.12
 -10   4   6    0.62    0.12
  10   4  -6    0.88    0.17
  -8  -4   6    1.80    0.17
   8  -4  -6    2.09    0.16
  -8  -4   6    1.98    0.16
  -8   4   6    1.96    0.16
  -8   4   6    1.91    0.15
   8   4  -6    1.65    0.17
  -6  -4   6    2.63    0.16
   6  -4  -6    2.42    0.13
   6  -4  -6    2.45    0.14
  -6  -4   6    2.60    0.15
  -6   4   6    2.38    0.14
  -6   4   6    2.46    0.13
   6   4  -6    2.56    0.15
  -6   4   6    2.48    0.14
   6   4  -6    2.13    0.17
  -6   4   6    2.51    0.14
  -4  -4   6    0.22    0.06
   4  -4  -6    0.28    0.06
  -4  -4   6    0.22    0.05
   4  -4  -6    0.21    0.04
  -4  -4   6    0.20    0.06
   4   4  -6    0.11    0.06
  -4   4   6    0.21    0.05
  -4   4   6    0.16    0.05
  -4   4   6    0.16    0.05
  -4   4   6    0.24    0.06
   4   4  -6    0.22    0.07
  -4   4   6    0.17    0.04
  -2  -4   6    0.05    0.04
  -2  -4   6    0.03    0.02
  -2  -4   6   -0.02    0.03
   2  -4  -6    0.07    0.04
   2  -4  -6    0.06    0.02
  -2   4   6    0.05    0.02
   2   4  -6    0.03    0.03
  -2   4   6    0.05    0.03
   2   4  -6    0.02    0.04
  -2   4   6    0.06    0.04
   2   4  -6    0.05    0.05
   0  -4  -6    3.27    0.14
   0  -4  -6    3.35    0.11
   0  -4   6    3.06    0.13
   0  -4   6    3.33    0.09
   0  -4   6    3.20    0.13
   0   4   6    3.26    0.11
   0   4   6    3.27    0.14
   0   4  -6    3.31    0.14
   0   4  -6    3.33    0.16
   0   4  -6    3.49    0.12
   2  -4   6   31.32    0.54
  -2  -4  -6   31.63    0.51
   2  -4   6   31.14    0.54
  -2  -4  -6   30.76    0.56
   2  -4   6   31.94    0.49
  -2   4  -6   31.11    0.58
   2   4   6   29.78    0.56
  -2   4  -6   31.29    0.55
   2   4   6   31.46    0.49
   4  -4   6    2.23    0.14
   4  -4   6    2.27    0.14
  -4  -4  -6    2.26    0.12
  -4  -4  -6    2.36    0.14
   4   4   6    2.37    0.12
   4   4   6    2.30    0.15
  -4   4  -6    2.18    0.15
  -4   4  -6    2.50    0.15
  -6  -4  -6    3.09    0.18
  -6  -4  -6    2.81    0.17
   6  -4   6    3.03    0.18
  -6   4  -6    2.79    0.17
  -6   4  -6    2.51    0.18
   6   4   6    3.00    0.18
  -8  -4  -6    7.35    0.29
  -8  -4  -6    7.36    0.29
   8  -4   6    7.79    0.31
  -8   4  -6    7.38    0.32
   8   4   6    7.10    0.30
  -8   4  -6    7.63    0.29
 -10  -4  -6   13.56    0.45
 -10  -4  -6   13.86    0.43
  10  -4   6   13.98    0.46
 -10   4  -6   14.37    0.45
 -10   4  -6   13.61    0.48
  -9  -5   6    3.26    0.20
  -9  -5   6    3.95    0.25
  -9   5   6    3.89    0.23
   9   5  -6    3.61    0.26
  -9   5   6    3.79    0.21
  -7  -5   6    9.42    0.33
  -7  -5   6    9.82    0.30
   7  -5  -6    9.94    0.32
  -7   5   6   10.21    0.31
   7   5  -6   10.28    0.37
  -7   5   6    9.52    0.29
  -7   5   6    9.79    0.30
  -7   5   6   10.60    0.29
   5  -5  -6   40.25    0.65
   5  -5  -6   40.34    0.67
  -5  -5   6   39.61    0.68
  -5  -5   6   40.69    0.65
   5  -5  -6   40.04    0.70
  -5  -5   6   39.31    0.73
  -5   5   6   41.66    0.70
  -5   5   6   40.05    0.64
   5   5  -6   39.28    0.74
   5   5  -6   40.30    0.77
  -5   5   6   40.12    0.70
  -5   5   6   40.91    0.69
   3  -5  -6   23.96    0.41
  -3  -5   6   24.32    0.48
   3  -5  -6   23.07    0.47
  -3  -5   6   24.37    0.45
  -3  -5   6   23.63    0.45
   3   5  -6   23.85    0.52
  -3   5   6   23.63    0.43
   3   5  -6   24.51    0.50
  -3   5   6   23.66    0.46
  -1  -5   6   52.75    0.83
   1  -5  -6   52.87    0.76
  -1  -5   6   52.50    0.80
   1  -5  -6   51.65    0.84
   1   5  -6   52.20    0.90
   1   5  -6   52.08    0.82
  -1   5   6   51.99    0.74
   1   5  -6   52.05    0.81
  -1   5   6   51.81    0.83
   1  -5   6   14.94    0.34
  -1  -5  -6   14.76    0.30
  -1  -5  -6   15.04    0.36
   1  -5   6   14.40    0.32
  -1   5  -6   14.78    0.34
  -1   5  -6   15.00    0.28
   1   5   6   14.59    0.27
   1   5   6   14.30    0.35
  -1   5  -6   14.44    0.38
  -3  -5  -6    1.49    0.11
   3  -5   6    1.40    0.12
   3  -5   6    1.12    0.11
  -3  -5  -6    1.34    0.13
   3   5   6    1.09    0.12
  -3   5  -6    1.24    0.12
   5  -5   6    1.61    0.15
  -5  -5  -6    2.02    0.16
  -5  -5  -6    1.91    0.13
   5  -5   6    1.77    0.14
  -5   5  -6    1.70    0.17
  -5   5  -6    1.66    0.15
   5   5   6    2.01    0.16
  -7  -5  -6    7.85    0.30
   7  -5   6    8.39    0.31
  -7  -5  -6    7.96    0.30
  -7   5  -6    7.35    0.32
   7   5   6    7.56    0.31
  -7   5  -6    7.94    0.30
  -9  -5  -6    1.12    0.16
   9  -5   6    0.77    0.14
  -9  -5  -6    0.92    0.15
  -9   5  -6    0.76    0.14
   9   5   6    0.91    0.16
  -9   5  -6    0.88    0.16
 -10  -6   6    2.48    0.26
  -8  -6   6    0.40    0.13
   8   6  -6    0.42    0.13
  -6  -6   6   56.48    0.93
   6  -6  -6   58.15    0.96
  -6  -6   6   57.29    1.00
  -6   6   6   56.87    0.93
   6   6  -6   56.75    1.04
  -6   6   6   55.80    0.95
  -4  -6   6    0.81    0.11
   4  -6  -6    0.75    0.11
  -4  -6   6    0.61    0.09
  -4  -6   6    0.94    0.11
   4   6  -6    0.75    0.12
  -4   6   6    0.78    0.10
   2  -6  -6    0.21    0.05
  -2  -6   6    0.33    0.07
   2  -6  -6    0.26    0.07
  -2  -6   6    0.36    0.07
  -2  -6   6    0.31    0.08
   2   6  -6    0.26    0.07
   2   6  -6    0.19    0.07
  -2   6   6    0.30    0.07
   0  -6  -6  114.11    1.67
   0  -6   6  113.96    1.64
   0  -6  -6  114.90    1.57
   0  -6   6  115.13    1.59
   0   6  -6  114.99    1.58
   0   6   6  117.83    1.66
   0   6  -6  113.93    1.65
  -2  -6  -6    7.51    0.27
  -2  -6  -6    7.21    0.23
   2  -6   6    7.50    0.23
   2  -6   6    7.22    0.25
   2   6   6    6.96    0.26
  -2   6  -6    7.35    0.27
  -4  -6  -6    3.80    0.19
   4  -6   6    3.69    0.20
  -4  -6  -6    3.74    0.20
   4  -6   6    3.95    0.19
  -4   6  -6    3.95    0.21
   4   6   6    4.07    0.22
   6  -6   6   12.61    0.37
   6  -6   6   12.17    0.38
  -6  -6  -6   12.07    0.38
  -6  -6  -6   11.81    0.37
   6   6   6   12.32    0.41
  -6   6  -6   11.78    0.39
  -6   6  -6   11.90    0.42
   8  -6   6   -0.07    0.08
   8  -6   6   -0.08    0.08
  -8  -6  -6   -0.08    0.09
  -8  -6  -6   -0.16    0.09
  -8   6  -6    0.02    0.11
   8   6   6   -0.02    0.10
  -8   6  -6    0.01    0.09
  -7  -7   6    0.34    0.12
  -7   7   6    0.49    0.12
   7   7  -6    0.40    0.13
  -5  -7   6    0.24    0.11
   5  -7  -6    0.21    0.09
   5   7  -6    0.42    0.11
  -5   7   6    0.38    0.09
  -3  -7   6    0.95    0.13
  -3  -7   6    0.92    0.12
   3  -7  -6    1.19    0.14
   3   7  -6    0.91    0.13
  -3   7   6    0.78    0.11
  -1  -7   6    0.97    0.11
  -1  -7   6    1.19    0.14
  -1  -7   6    0.98    0.12
   1  -7  -6    1.08    0.14
   1   7  -6    1.13    0.12
  -1   7   6    1.44    0.14
   1   7  -6    0.96    0.12
   1  -7   6    5.87    0.22
  -1  -7  -6    5.67    0.25
   1  -7   6    5.89    0.24
  -1   7  -6    5.67    0.25
   1   7   6    6.01    0.26
  -3  -7  -6    2.38    0.18
   3  -7   6    2.15    0.15
   3  -7   6    2.42    0.17
  -3   7  -6    2.36    0.19
   3   7   6    2.30    0.18
  -5  -7  -6    1.59    0.18
  -5  -7  -6    1.66    0.18
   5  -7   6    1.42    0.15
   5  -7   6    1.76    0.17
   5   7   6    1.45    0.18
  -5   7  -6    1.31    0.16
  -7  -7  -6    1.53    0.18
   7  -7   6    1.37    0.18
   7  -7   6    1.41    0.17
   7   7   6    1.43    0.19
  -7   7  -6    1.59    0.18
   6  -8  -6    0.82    0.15
  -6  -8   6    0.84    0.15
   6   8  -6    0.85    0.16
  -4  -8   6    2.49    0.19
  -4  -8   6    2.62    0.22
   4  -8  -6    2.36    0.20
   4   8  -6    2.36    0.22
  -4   8   6    2.23    0.17
   2  -8  -6    0.81    0.14
  -2  -8   6    0.75    0.13
  -2  -8   6    0.73    0.12
  -2   8   6    1.05    0.14
   0  -8   6    4.07    0.23
   0  -8   6    3.97    0.24
   0  -8  -6    4.76    0.25
   0   8   6    4.29    0.23
   0   8  -6    4.27    0.24
  -2  -8  -6   45.03    0.88
   2  -8   6   44.57    0.84
   2   8   6   44.15    0.88
  -2   8  -6   45.20    0.87
   4  -8   6   10.48    0.37
   4  -8   6   10.43    0.34
  -4  -8  -6   10.89    0.39
   4   8   6   11.17    0.40
  -4   8  -6   10.90    0.40
  -6  -8  -6   -0.05    0.11
   6  -8   6   -0.07    0.08
   6  -8   6   -0.02    0.08
  -6   8  -6    0.12    0.12
  -3  -9   6    1.64    0.18
  -3  -9   6    1.78    0.20
   3  -9  -6    1.84    0.21
  -3   9   6    1.29    0.15
   1  -9  -6    4.95    0.28
  -1  -9   6    4.91    0.28
  -1  -9   6    4.97    0.27
  -1   9   6    4.80    0.26
   1  -9   6   10.82    0.41
   1  -9   6   10.89    0.38
  -1  -9  -6   11.48    0.41
  -1   9  -6   11.09    0.40
   1   9   6   11.33    0.39
   3  -9   6    4.63    0.27
  -3  -9  -6    4.92    0.29
  -3   9  -6    4.44    0.28
   3   9   6    4.39    0.30
 -12   0   7   -0.05    0.10
  12   0  -7   -0.18    0.10
 -12   0   7   -0.13    0.09
  10   0  -7    0.14    0.10
 -10   0   7    0.01    0.08
 -10   0   7    0.03    0.08
  -8   0   7    0.04    0.06
   8   0  -7    0.07    0.06
  -8   0   7    0.04    0.07
  -6   0   7    0.03    0.04
  -6   0   7    0.03    0.04
   6   0  -7   -0.04    0.04
   6   0  -7    0.03    0.03
  -6   0   7    0.01    0.04
   4   0  -7   -0.01    0.04
  -4   0   7    0.05    0.03
   4   0  -7    0.01    0.03
  -4   0   7    0.02    0.03
  -4   0   7    0.10    0.04
  -2   0   7    0.03    0.03
  -2   0   7   -0.02    0.03
  -2   0   7   -0.02    0.02
  -2   0   7    0.03    0.03
   2   0  -7    0.00    0.02
   2   0  -7    0.04    0.03
   2   0  -7    0.02    0.03
   2   0   7   -0.02    0.02
   2   0   7    0.02    0.02
  -2   0  -7    0.03    0.03
   2   0   7    0.00    0.03
  -2   0  -7    0.00    0.03
  -2   0  -7    0.00    0.03
   4   0   7    0.03    0.04
  -4   0  -7    0.01    0.03
  -4   0  -7    0.04    0.04
   4   0   7    0.04    0.03
  -4   0  -7    0.02    0.02
   6   0   7    0.01    0.05
  -6   0  -7    0.05    0.05
  -6   0  -7   -0.06    0.04
  -8   0  -7   -0.10    0.05
   8   0   7    0.15    0.08
  -8   0  -7   -0.04    0.06
  -8   0  -7    0.02    0.06
 -10   0  -7   -0.04    0.07
  10   0   7   -0.05    0.08
 -10   0  -7    0.02    0.07
 -10   0  -7   -0.16    0.08
 -11  -1   7   -0.04    0.08
  11  -1  -7   -0.15    0.08
 -11  -1   7    0.11    0.10
 -11   1   7   -0.01    0.08
  11   1  -7    0.00    0.09
 -11   1   7    0.11    0.10
  -9  -1   7    1.19    0.13
   9  -1  -7    1.16    0.14
  -9  -1   7    1.17    0.14
  -9   1   7    1.10    0.13
  -9   1   7    1.39    0.15
   9   1  -7    1.37    0.16
  -7  -1   7    0.03    0.05
  -7  -1   7    0.09    0.06
   7  -1  -7    0.07    0.04
   7  -1  -7    0.16    0.07
  -7   1   7    0.16    0.06
   7   1  -7    0.08    0.06
   7   1  -7    0.02    0.04
  -7   1   7    0.05    0.06
   5  -1  -7   34.18    0.60
  -5  -1   7   34.32    0.58
   5  -1  -7   35.14    0.47
  -5  -1   7   34.07    0.56
   5  -1  -7   34.97    0.56
  -5  -1   7   34.40    0.58
   5   1  -7   34.49    0.56
  -5   1   7   35.00    0.55
  -5   1   7   34.71    0.58
  -5   1   7   34.92    0.59
   5   1  -7   35.28    0.61
   3  -1  -7   10.53    0.17
  -3  -1   7   10.27    0.23
  -3  -1   7    9.90    0.21
   3  -1  -7    9.98    0.23
  -3  -1   7   10.17    0.22
   3   1  -7   10.18    0.14
  -3   1   7   10.09    0.18
  -3   1   7    9.95    0.23
  -3   1   7    9.84    0.21
   3   1  -7   10.03    0.23
   3   1  -7   10.39    0.24
  -3   1   7   10.25    0.23
  -1  -1   7   15.06    0.26
  -1  -1   7   14.99    0.27
   1  -1  -7   14.70    0.25
   1  -1  -7   14.63    0.29
  -1  -1   7   14.70    0.24
  -1   1   7   14.91    0.24
   1   1  -7   14.63    0.27
   1   1  -7   14.72    0.24
  -1   1   7   14.57    0.27
  -1   1   7   14.43    0.27
   1   1  -7   14.54    0.29
  -1  -1  -7    9.92    0.22
   1  -1   7   10.06    0.22
  -1  -1  -7   10.09    0.22
  -1  -1  -7   10.10    0.17
   1  -1   7   10.39    0.17
   1  -1   7   10.44    0.21
   1  -1   7   10.13    0.20
   1   1   7   10.40    0.22
  -1   1  -7   10.02    0.21
   1   1   7   10.47    0.18
  -1   1  -7   10.21    0.17
  -1   1  -7   10.17    0.22
   1   1   7    9.91    0.20
   3  -1   7    6.93    0.11
   3  -1   7    6.84    0.19
  -3  -1  -7    7.09    0.17
  -3  -1  -7    6.80    0.17
  -3  -1  -7    6.71    0.19
  -3   1  -7    6.90    0.18
  -3   1  -7    6.61    0.18
   3   1   7    6.67    0.17
   3   1   7    7.07    0.17
   3   1   7    6.91    0.20
  -3   1  -7    6.77    0.19
   5  -1   7    0.43    0.08
  -5  -1  -7    0.39    0.04
  -5  -1  -7    0.50    0.07
  -5  -1  -7    0.42    0.08
   5   1   7    0.51    0.07
  -5   1  -7    0.41    0.05
   5   1   7    0.30    0.06
  -5   1  -7    0.42    0.07
  -5   1  -7    0.38    0.07
  -7  -1  -7    8.72    0.24
  -7  -1  -7    9.58    0.29
   7  -1   7    9.00    0.29
  -7  -1  -7    9.07    0.29
  -7   1  -7    9.57    0.29
   7   1   7    9.09    0.27
   7   1   7    9.21    0.26
  -7   1  -7    9.28    0.30
  -9  -1  -7    8.98    0.29
  -9  -1  -7    8.70    0.31
  -9  -1  -7    8.54    0.32
   9  -1   7    9.00    0.33
  -9   1  -7    8.88    0.33
  -9   1  -7    8.74    0.31
   9   1   7    9.06    0.32
  11  -1   7    0.71    0.14
 -11  -1  -7    0.47    0.14
 -11  -1  -7    0.58    0.14
 -11  -1  -7    0.58    0.12
 -11   1  -7    0.41    0.13
 -11   1  -7    0.75    0.14
  11   1   7    0.65    0.14
 -12  -2   7    1.82    0.20
 -12  -2   7    2.10    0.23
  12   2  -7    1.79    0.22
 -12   2   7    2.41    0.22
 -12   2   7    1.62    0.19
 -10  -2   7   -0.05    0.08
  10  -2  -7   -0.01    0.08
 -10  -2   7    0.08    0.09
 -10   2   7   -0.10    0.07
 -10   2   7   -0.04    0.08
  10   2  -7   -0.04    0.09
   8  -2  -7   19.24    0.47
  -8  -2   7   19.91    0.46
  -8  -2   7   20.25    0.47
   8   2  -7   20.56    0.50
  -8   2   7   20.72    0.46
  -8   2   7   20.21    0.44
  -6  -2   7    0.81    0.09
  -6  -2   7    1.00    0.11
  -6  -2   7    0.99    0.10
   6  -2  -7    0.88    0.10
   6  -2  -7    0.97    0.08
   6   2  -7    0.85    0.11
   6   2  -7    1.02    0.09
  -6   2   7    0.99    0.10
  -6   2   7    1.21    0.10
  -6   2   7    1.07    0.11
  -4  -2   7   43.75    0.58
  -4  -2   7   43.36    0.67
  -4  -2   7   43.55    0.69
  -4  -2   7   44.42    0.67
   4  -2  -7   43.68    0.69
   4  -2  -7   43.84    0.62
   4   2  -7   43.61    0.70
  -4   2   7   45.13    0.63
  -4   2   7   44.26    0.66
  -4   2   7   43.46    0.69
  -4   2   7   43.45    0.69
   4   2  -7   44.46    0.72
  -2  -2   7    0.08    0.03
   2  -2  -7    0.10    0.03
  -2  -2   7    0.09    0.03
  -2  -2   7    0.07    0.03
   2  -2  -7    0.10    0.02
  -2   2   7    0.05    0.03
  -2   2   7    0.11    0.04
  -2   2   7    0.06    0.03
   2   2  -7    0.11    0.04
   2   2  -7    0.11    0.03
   2   2  -7    0.08    0.04
   0  -2   7   69.44    0.94
   0  -2  -7   68.88    0.96
   0  -2   7   69.75    0.94
   0  -2  -7   69.28    0.88
   0  -2   7   69.63    0.96
   0   2   7   67.60    0.96
   0   2  -7   69.50    0.92
   0   2  -7   69.11    1.00
   0   2   7   68.14    0.95
   0   2   7   70.57    0.89
   0   2  -7   70.03    0.95
   2  -2   7   61.26    0.89
   2  -2   7   62.23    0.89
  -2  -2  -7   62.58    0.85
  -2  -2  -7   61.49    0.90
  -2  -2  -7   62.62    0.89
   2   2   7   62.40    0.81
  -2   2  -7   61.90    0.91
  -2   2  -7   61.79    0.91
  -2   2  -7   62.49    0.90
   2   2   7   61.53    0.89
   2   2   7   62.11    0.89
  -4  -2  -7    0.43    0.06
  -4  -2  -7    0.48    0.05
   4  -2   7    0.44    0.07
  -4  -2  -7    0.41    0.07
  -4   2  -7    0.45    0.06
  -4   2  -7    0.33    0.07
  -4   2  -7    0.33    0.06
   4   2   7    0.38    0.05
   4   2   7    0.24    0.06
  -6  -2  -7   22.01    0.40
  -6  -2  -7   21.44    0.45
  -6  -2  -7   23.03    0.48
   6  -2   7   21.55    0.47
   6   2   7   21.82    0.44
  -6   2  -7   21.81    0.46
  -6   2  -7   21.72    0.48
   6   2   7   22.05    0.42
  -8  -2  -7    1.80    0.16
   8  -2   7    1.38    0.16
  -8  -2  -7    0.91    0.12
  -8  -2  -7    1.31    0.12
   8   2   7    1.52    0.14
  -8   2  -7    1.41    0.15
  -8   2  -7    1.48    0.15
 -10  -2  -7    0.15    0.09
 -10  -2  -7    0.16    0.10
  10  -2   7    0.06    0.10
 -10   2  -7    0.10    0.10
 -10   2  -7    0.13    0.10
 -11  -3   7    4.48    0.26
 -11  -3   7    5.00    0.28
 -11   3   7    4.16    0.26
  11   3  -7    4.46    0.29
 -11   3   7    4.66    0.25
  -9  -3   7    0.49    0.11
  -9  -3   7    0.46    0.11
   9  -3  -7    0.67    0.11
   9   3  -7    0.27    0.10
  -9   3   7    0.46    0.10
  -9   3   7    0.53    0.11
  -7  -3   7    0.37    0.09
   7  -3  -7    0.24    0.06
  -7  -3   7    0.17    0.07
   7  -3  -7    0.38    0.08
  -7   3   7    0.26    0.07
  -7   3   7    0.31    0.07
   7   3  -7    0.32    0.07
   7   3  -7    0.29    0.08
  -5  -3   7   60.87    0.95
   5  -3  -7   62.48    0.90
  -5  -3   7   63.36    0.95
  -5  -3   7   63.13    0.92
   5   3  -7   63.29    0.96
   5   3  -7   64.01    1.01
  -5   3   7   62.21    0.95
  -5   3   7   63.29    0.90
  -5   3   7   62.74    0.92
  -5   3   7   60.00    0.95
  -5   3   7   62.61    0.89
  -3  -3   7    0.84    0.06
   3  -3  -7    1.00    0.07
   3  -3  -7    0.99    0.05
  -3  -3   7    0.89    0.08
  -3  -3   7    0.87    0.08
  -3  -3   7    1.06    0.07
   3   3  -7    0.88    0.06
  -3   3   7    0.95    0.08
  -3   3   7    0.98    0.06
  -3   3   7    0.87    0.08
  -3   3   7    1.08    0.07
   3   3  -7    0.80    0.09
   3   3  -7    0.92    0.09
  -1  -3   7  119.31    1.59
   1  -3  -7  119.23    1.50
  -1  -3   7  120.33    1.54
   1  -3  -7  117.60    1.59
  -1  -3   7  120.14    1.59
  -1   3   7  118.13    1.60
  -1   3   7  123.33    1.57
   1   3  -7  118.02    1.58
   1   3  -7  119.23    1.57
   1   3  -7  117.31    1.65
  -1   3   7  119.18    1.50
   1  -3   7   75.80    1.07
   1  -3   7   75.87    1.08
   1  -3   7   76.68    1.04
  -1  -3  -7   78.57    1.02
  -1  -3  -7   74.52    1.09
  -1   3  -7   75.22    1.13
  -1   3  -7   79.00    1.09
   1   3   7   78.67    1.10
   1   3   7   76.33    1.05
  -1   3  -7   76.30    1.00
  -3  -3  -7   12.75    0.31
   3  -3   7   12.92    0.30
   3  -3   7   12.93    0.30
  -3  -3  -7   12.89    0.27
   3   3   7   12.70    0.21
  -3   3  -7   13.38    0.31
   3   3   7   13.64    0.31
  -3   3  -7   13.20    0.32
  -3   3  -7   12.86    0.31
   3   3   7   13.43    0.29
  -5  -3  -7   41.10    0.71
   5  -3   7   39.52    0.69
  -5  -3  -7   38.51    0.62
  -5  -3  -7   39.52    0.67
  -5   3  -7   39.99    0.70
   5   3   7   39.68    0.69
  -5   3  -7   40.04    0.72
  -5   3  -7   39.76    0.66
  -7  -3  -7   17.42    0.43
  -7  -3  -7   17.82    0.44
   7  -3   7   17.26    0.44
  -7   3  -7   18.03    0.44
  -7   3  -7   17.51    0.46
   7   3   7   17.58    0.43
  -9  -3  -7   10.33    0.35
   9  -3   7   10.92    0.38
  -9  -3  -7   10.64    0.37
  -9   3  -7   10.47    0.38
  -9   3  -7   10.84    0.36
 -10  -4   7    8.23    0.35
 -10  -4   7    8.40    0.33
 -10   4   7    8.37    0.35
 -10   4   7    8.28    0.31
  10   4  -7    8.82    0.39
  -8  -4   7    0.10    0.07
  -8  -4   7    0.18    0.08
   8  -4  -7    0.07    0.06
  -8   4   7    0.13    0.07
  -8   4   7    0.02    0.07
   8   4  -7    0.04    0.09
   6  -4  -7   35.61    0.60
  -6  -4   7   33.47    0.65
  -6  -4   7   33.85    0.63
   6  -4  -7   34.08    0.65
  -6   4   7   34.30    0.62
  -6   4   7   34.93    0.59
  -6   4   7   34.49    0.60
  -6   4   7   34.14    0.59
   6   4  -7   34.34    0.64
   6   4  -7   35.22    0.69
  -4  -4   7   23.41    0.45
  -4  -4   7   24.69    0.48
  -4  -4   7   24.76    0.41
  -4  -4   7   23.77    0.40
   4  -4  -7   23.89    0.45
   4  -4  -7   24.50    0.40
  -4   4   7   24.12    0.43
  -4   4   7   24.15    0.45
  -4   4   7   23.55    0.45
  -4   4   7   24.13    0.41
   4   4  -7   23.89    0.50
   4   4  -7   23.73    0.49
   2  -4  -7    0.79    0.05
   2  -4  -7    0.71    0.08
  -2  -4   7    0.79    0.05
  -2  -4   7    0.84    0.08
  -2  -4   7    0.73    0.08
  -2   4   7    0.72    0.07
  -2   4   7    0.71    0.08
   2   4  -7    0.85    0.11
   2   4  -7    0.82    0.09
  -2   4   7    0.77    0.05
   2   4  -7    0.88    0.08
   0  -4   7   54.87    0.83
   0  -4  -7   55.86    0.76
   0  -4   7   55.97    0.84
   0  -4  -7   55.02    0.85
   0  -4   7   54.50    0.75
   0   4   7   55.51    0.79
   0   4  -7   55.98    0.79
   0   4  -7   53.06    0.89
   0   4  -7   54.88    0.84
   0   4   7   55.57    0.85
  -2  -4  -7   14.12    0.33
  -2  -4  -7   14.06    0.28
   2  -4   7   13.74    0.32
   2  -4   7   13.91    0.31
   2  -4   7   13.90    0.28
   2   4   7   13.67    0.33
  -2   4  -7   13.92    0.32
   2   4   7   13.56    0.28
  -2   4  -7   13.31    0.35
   4  -4   7   19.10    0.42
  -4  -4  -7   19.33    0.43
  -4  -4  -7   19.09    0.39
   4  -4   7   18.91    0.42
   4   4   7   19.17    0.38
  -4   4  -7   18.41    0.44
  -4   4  -7   19.62    0.43
  -4   4  -7   18.09    0.42
   4   4   7   17.92    0.42
  -6  -4  -7   45.21    0.79
  -6  -4  -7   45.28    0.81
   6  -4   7   44.77    0.80
  -6   4  -7   44.79    0.81
   6   4   7   44.92    0.81
   6   4   7   46.04    0.77
  -6   4  -7   44.27    0.84
   8  -4   7    1.52    0.16
  -8  -4  -7    1.77    0.17
  -8  -4  -7    1.49    0.17
  -8   4  -7    1.42    0.17
  -8   4  -7    1.42    0.17
   8   4   7    1.58    0.17
 -10  -4  -7    4.53    0.26
 -10  -4  -7    4.75    0.28
  10  -4   7    4.55    0.27
 -10   4  -7    4.60    0.30
 -10   4  -7    4.28    0.27
  -9  -5   7    8.53    0.32
  -9  -5   7    8.68    0.36
  -9   5   7    8.72    0.30
   9   5  -7    9.23    0.39
   7  -5  -7    0.13    0.07
  -7  -5   7   -0.02    0.08
  -7  -5   7    0.11    0.07
  -7   5   7    0.08    0.07
  -7   5   7    0.05    0.06
   7   5  -7   -0.04    0.08
  -5  -5   7   42.63    0.72
   5  -5  -7   41.12    0.72
   5  -5  -7   41.95    0.67
  -5  -5   7   42.99    0.77
  -5   5   7   41.80    0.71
  -5   5   7   42.66    0.72
  -5   5   7   43.37    0.73
   5   5  -7   42.36    0.80
   5   5  -7   41.69    0.78
  -3  -5   7    9.44    0.25
  -3  -5   7    9.39    0.26
   3  -5  -7    9.03    0.26
   3  -5  -7    9.30    0.21
  -3  -5   7    9.61    0.28
   3   5  -7    8.96    0.28
   3   5  -7    9.33    0.31
   3   5  -7    9.54    0.25
  -3   5   7    9.51    0.27
  -3   5   7    9.65    0.24
  -1  -5   7   29.66    0.55
  -1  -5   7   30.03    0.53
   1  -5  -7   29.69    0.56
   1  -5  -7   30.16    0.48
  -1   5   7   29.88    0.49
   1   5  -7   29.35    0.54
   1   5  -7   31.93    0.63
  -1   5   7   30.35    0.56
   1   5  -7   29.35    0.53
   1  -5   7    6.91    0.22
  -1  -5  -7    6.91    0.19
  -1  -5  -7    7.22    0.24
   1  -5   7    6.64    0.21
  -1   5  -7    7.13    0.27
   1   5   7    7.12    0.18
  -1   5  -7    7.32    0.24
   1   5   7    7.59    0.25
  -3  -5  -7    0.35    0.08
  -3  -5  -7    0.37    0.07
   3  -5   7    0.34    0.08
   3  -5   7    0.31    0.08
  -3   5  -7    0.44    0.09
   3   5   7    0.30    0.06
   3   5   7    0.19    0.07
  -5  -5  -7    1.03    0.11
   5  -5   7    1.01    0.12
   5  -5   7    1.07    0.13
  -5  -5  -7    1.24    0.14
  -5   5  -7    1.10    0.12
  -5   5  -7    0.94    0.13
   5   5   7    0.89    0.12
  -7  -5  -7   39.59    0.77
   7  -5   7   40.52    0.81
  -7  -5  -7   40.76    0.80
   7  -5   7   40.18    0.79
   7   5   7   40.48    0.80
  -7   5  -7   40.66    0.85
  -7   5  -7   41.75    0.80
   9  -5   7    0.01    0.09
  -9  -5  -7    0.07    0.10
  -9  -5  -7    0.08    0.10
  -9   5  -7    0.02    0.09
   9   5   7    0.03    0.10
  -9   5  -7   -0.05    0.09
  -8  -6   7    0.45    0.12
   8   6  -7    0.33    0.12
   6  -6  -7    4.56    0.21
  -6  -6   7    5.06    0.25
  -6  -6   7    5.22    0.22
   6   6  -7    4.86    0.26
  -6   6   7    4.82    0.21
   4  -6  -7    8.77    0.29
  -4  -6   7    8.88    0.30
  -4  -6   7    8.52    0.26
  -4  -6   7    8.73    0.26
   4   6  -7    8.84    0.31
  -4   6   7    8.81    0.28
   2  -6  -7    0.46    0.09
  -2  -6   7    0.56    0.09
  -2  -6   7    0.55    0.09
  -2  -6   7    0.57    0.08
   2   6  -7    0.52    0.09
   2   6  -7    0.46    0.10
   2   6  -7    0.61    0.09
  -2   6   7    0.61    0.10
   0  -6  -7   21.59    0.44
   0  -6   7   22.30    0.44
   0  -6  -7   22.84    0.50
   0  -6   7   22.26    0.47
   0   6   7   22.31    0.48
   0   6  -7   22.38    0.48
  -2  -6  -7   71.22    1.15
   2  -6   7   72.18    1.09
   2  -6   7   72.38    1.12
   2   6   7   68.81    1.15
  -2   6  -7   72.07    1.14
   4  -6   7    1.61    0.15
   4  -6   7    2.04    0.17
  -4  -6  -7    2.17    0.19
   4   6   7    2.21    0.18
  -4   6  -7    1.58    0.16
  -6  -6  -7    0.34    0.11
   6  -6   7    0.35    0.10
  -6  -6  -7    0.28    0.09
   6  -6   7    0.52    0.11
  -6   6  -7    0.53    0.13
   6   6   7    0.58    0.12
  -6   6  -7    0.36    0.12
   8  -6   7    2.21    0.21
   8  -6   7    1.80    0.19
  -8  -6  -7    1.93    0.21
  -8   6  -7    2.10    0.23
   8   6   7    1.87    0.20
  -8   6  -7    2.00    0.21
  -7  -7   7    1.54    0.19
   7   7  -7    1.09    0.18
   5  -7  -7   11.86    0.37
  -5  -7   7   12.30    0.40
   5   7  -7   11.64    0.40
  -5   7   7   11.96    0.35
   3  -7  -7   13.97    0.39
  -3  -7   7   13.81    0.37
  -3  -7   7   13.00    0.39
  -3  -7   7   13.03    0.34
   3   7  -7   13.04    0.38
  -3   7   7   13.19    0.36
   1  -7  -7   48.33    0.88
  -1  -7   7   48.54    0.87
  -1  -7   7   49.94    0.87
  -1  -7   7   49.60    0.82
   1   7  -7   49.40    0.87
  -1   7   7   49.40    0.87
   1  -7   7   13.43    0.37
   1  -7   7   13.69    0.35
  -1  -7  -7   13.06    0.39
   1   7   7   13.18    0.39
  -1   7  -7   12.70    0.38
   3  -7   7    4.99    0.22
  -3  -7  -7    5.07    0.26
   3  -7   7    4.27    0.22
   3   7   7    4.92    0.25
  -3   7  -7    4.95    0.25
   5  -7   7   11.32    0.37
   5  -7   7   11.72    0.36
  -5  -7  -7   12.55    0.41
  -5   7  -7   11.87    0.40
   5   7   7   11.65    0.41
  -7  -7  -7    0.31    0.12
   7  -7   7    0.22    0.11
   7  -7   7    0.18    0.10
   7   7   7    0.37    0.13
  -7   7  -7    0.50    0.14
  -6  -8   7    0.66    0.15
   6  -8  -7    0.38    0.13
   6   8  -7    0.65    0.16
  -4  -8   7    1.08    0.16
   4  -8  -7    0.92    0.14
   4   8  -7    1.07    0.15
  -4   8   7    1.06    0.14
   2  -8  -7    3.81    0.24
  -2  -8   7    3.71    0.23
  -2  -8   7    3.84    0.23
  -2   8   7    3.64    0.22
   0  -8   7   13.54    0.42
   0  -8  -7   12.99    0.42
   0  -8   7   13.51    0.40
   0   8   7   12.87    0.40
   0   8  -7   13.76    0.41
  -2  -8  -7    4.56    0.27
   2  -8   7    4.50    0.22
   2  -8   7    4.82    0.24
   2   8   7    4.54    0.26
  -2   8  -7    4.17    0.25
   4  -8   7    2.11    0.18
   4  -8   7    2.14    0.19
  -4  -8  -7    1.86    0.20
  -4   8  -7    2.19    0.21
   4   8   7    2.60    0.22
  -3  -9   7    9.02    0.37
  -3  -9   7    9.59    0.36
   3  -9  -7    9.52    0.39
  -3   9   7    9.76    0.35
  -1  -9   7    2.65    0.23
   1  -9  -7    2.45    0.23
  -1  -9   7    2.42    0.22
  -1   9   7    2.73    0.21
   1  -9   7    1.32    0.17
  -1  -9  -7    1.46    0.20
   1  -9   7    2.08    0.23
   1   9   7    1.45    0.18
  -1   9  -7    1.75    0.20
  -3  -9  -7    2.77    0.25
   3  -9   7    2.67    0.22
  -3   9  -7    2.69    0.24
 -12   0   8   52.47    1.02
  12   0  -8   53.31    1.06
 -12   0   8   54.00    1.02
 -10   0   8    5.11    0.26
  10   0  -8    4.99    0.27
 -10   0   8    5.16    0.25
   8   0  -8    7.52    0.28
  -8   0   8    7.56    0.25
  -8   0   8    7.34    0.26
   6   0  -8    1.05    0.11
  -6   0   8    1.25    0.12
  -6   0   8    1.24    0.10
   6   0  -8    1.29    0.09
  -6   0   8    1.36    0.12
  -4   0   8   10.60    0.25
  -4   0   8   10.18    0.21
  -4   0   8   10.70    0.25
   4   0  -8   10.55    0.25
   4   0  -8   10.49    0.27
  -2   0   8   47.40    0.71
  -2   0   8   48.42    0.64
   2   0  -8   48.37    0.73
   2   0  -8   48.59    0.73
  -2   0   8   48.34    0.71
   2   0  -8   50.07    0.65
  -2   0   8   48.52    0.70
   0   0   8   51.49    0.67
   0   0   8   50.89    0.74
   0   0  -8   51.32    0.72
   0   0   8   50.58    0.71
   0   0   8   51.00    0.71
   0   0  -8   52.21    0.76
  -2   0  -8   51.29    0.75
  -2   0  -8   50.69    0.72
   2   0   8   51.12    0.77
   2   0   8   51.12    0.73
  -2   0  -8   50.26    0.76
   2   0   8   51.72    0.69
  -4   0  -8    0.98    0.09
  -4   0  -8    1.12    0.09
  -4   0  -8    1.09    0.07
   4   0   8    1.17    0.06
   4   0   8    1.18    0.09
  -6   0  -8    2.45    0.15
   6   0   8    2.47    0.15
  -6   0  -8    2.50    0.15
  -8   0  -8    7.81    0.29
  -8   0  -8    8.12    0.29
   8   0   8    8.28    0.28
 -10   0  -8    0.33    0.10
  10   0   8    0.21    0.10
 -10   0  -8    0.33    0.12
  11  -1  -8    6.46    0.31
 -11  -1   8    5.73    0.29
 -11  -1   8    6.22    0.29
 -11   1   8    6.32    0.29
 -11   1   8    5.86    0.28
  11   1  -8    5.78    0.31
  -9  -1   8    1.43    0.15
   9  -1  -8    1.23    0.15
  -9  -1   8    1.15    0.13
   9   1  -8    0.75    0.13
  -9   1   8    1.23    0.14
  -9   1   8    0.90    0.12
  -7  -1   8   19.01    0.42
  -7  -1   8   18.75    0.42
  -7  -1   8   18.50    0.41
   7  -1  -8   18.87    0.44
   7  -1  -8   18.67    0.37
   7   1  -8   18.66    0.38
   7   1  -8   18.66    0.45
  -7   1   8   18.77    0.39
  -7   1   8   18.51    0.43
  -7   1   8   18.45    0.41
   5  -1  -8   53.04    0.86
  -5  -1   8   55.22    0.84
   5  -1  -8   54.48    0.81
  -5  -1   8   54.11    0.83
  -5  -1   8   54.24    0.81
  -5   1   8   53.00    0.82
   5   1  -8   53.98    0.82
  -5   1   8   53.85    0.78
  -5   1   8   54.11    0.84
   5   1  -8   53.99    0.87
  -3  -1   8    0.80    0.06
   3  -1  -8    0.82    0.08
  -3  -1   8    0.72    0.07
   3  -1  -8    0.90    0.08
   3  -1  -8    0.74    0.04
  -3  -1   8    0.74    0.07
  -3   1   8    0.78    0.04
  -3   1   8    0.68    0.07
   3   1  -8    0.69    0.07
   3   1  -8    0.80    0.08
   3   1  -8    0.78    0.03
  -3   1   8    0.70    0.07
  -3   1   8    0.78    0.08
   1  -1  -8  228.86    2.91
  -1  -1   8  224.07    2.87
  -1  -1   8  226.51    2.84
  -1  -1   8  223.56    2.87
   1  -1  -8  227.16    2.86
  -1   1   8  229.82    2.85
   1   1  -8  226.39    2.88
   1   1  -8  226.14    2.84
  -1   1   8  225.68    2.88
   1   1  -8  228.52    2.92
  -1   1   8  229.43    2.88
   1  -1   8    9.55    0.22
  -1  -1  -8    9.55    0.22
   1  -1   8    9.85    0.21
   1  -1   8    9.40    0.17
  -1  -1  -8    9.62    0.17
  -1  -1  -8    9.69    0.22
   1  -1   8    9.31    0.19
   1   1   8    9.60    0.18
  -1   1  -8    9.57    0.22
  -1   1  -8    9.53    0.18
   1   1   8    9.27    0.22
  -1   1  -8    9.89    0.23
  -1   1  -8    9.73    0.21
   1   1   8    9.41    0.20
  -3  -1  -8   12.08    0.25
  -3  -1  -8   12.07    0.28
   3  -1   8   12.66    0.19
   3  -1   8   12.41    0.29
   3  -1   8   12.24    0.27
  -3  -1  -8   12.87    0.26
  -3   1  -8   13.04    0.29
  -3   1  -8   12.46    0.27
   3   1   8   12.44    0.25
   3   1   8   12.83    0.25
   3   1   8   12.14    0.28
  -3   1  -8   12.55    0.27
   5  -1   8    5.03    0.19
  -5  -1  -8    4.53    0.17
  -5  -1  -8    4.56    0.19
  -5   1  -8    4.56    0.18
  -5   1  -8    4.57    0.15
   5   1   8    4.85    0.17
  -5   1  -8    4.29    0.18
   5   1   8    4.42    0.15
  -7  -1  -8   14.56    0.38
  -7  -1  -8   15.07    0.39
   7  -1   8   14.43    0.38
   7   1   8   15.05    0.36
  -7   1  -8   14.87    0.39
  -7   1  -8   14.60    0.39
   9  -1   8   20.25    0.51
  -9  -1  -8   21.23    0.53
  -9  -1  -8   20.30    0.51
   9   1   8   21.50    0.50
  -9   1  -8   21.45    0.52
  -9   1  -8   20.36    0.53
 -11  -1  -8    5.10    0.30
 -11  -1  -8    4.78    0.28
  11  -1   8    4.98    0.29
 -11   1  -8    4.19    0.29
 -11   1  -8    4.95    0.28
 -12  -2   8    4.60    0.28
 -12  -2   8    4.54    0.28
 -12   2   8    4.80    0.29
 -12   2   8    4.66    0.29
  12   2  -8    4.37    0.31
  10  -2  -8    0.76    0.13
 -10  -2   8    0.41    0.11
 -10  -2   8    0.48    0.11
  10   2  -8    0.61    0.13
 -10   2   8    0.49    0.11
 -10   2   8    0.56    0.12
  -8  -2   8    3.39    0.19
  -8  -2   8    3.59    0.19
   8  -2  -8    3.59    0.20
   8   2  -8    2.84    0.19
  -8   2   8    3.47    0.17
  -8   2   8    3.54    0.18
  -6  -2   8    2.05    0.13
  -6  -2   8    2.15    0.13
   6  -2  -8    1.85    0.11
  -6  -2   8    1.89    0.13
   6  -2  -8    2.00    0.14
   6   2  -8    2.09    0.13
  -6   2   8    2.03    0.11
   6   2  -8    2.22    0.15
  -6   2   8    1.84    0.13
  -6   2   8    2.01    0.13
  -4  -2   8   12.33    0.27
   4  -2  -8   12.68    0.23
   4  -2  -8   12.46    0.29
  -4  -2   8   12.33    0.29
  -4  -2   8   12.50    0.28
  -4  -2   8   12.35    0.19
  -4   2   8   12.97    0.27
  -4   2   8   12.51    0.23
   4   2  -8   12.67    0.31
   4   2  -8   13.00    0.30
  -4   2   8   12.36    0.29
  -4   2   8   13.09    0.29
   2  -2  -8   14.46    0.27
  -2  -2   8   14.72    0.27
  -2  -2   8   14.50    0.29
  -2  -2   8   14.87    0.27
   2  -2  -8   14.43    0.31
   2   2  -8   14.96    0.30
  -2   2   8   14.46    0.29
  -2   2   8   14.53    0.26
  -2   2   8   15.48    0.29
   2   2  -8   14.22    0.32
   2   2  -8   14.35    0.25
   0  -2  -8    0.97    0.08
   0  -2   8    0.90    0.07
   0  -2  -8    1.02    0.08
   0  -2   8    0.92    0.06
   0  -2   8    0.88    0.07
   0   2  -8    1.08    0.10
   0   2  -8    0.98    0.06
   0   2  -8    1.09    0.07
   0   2   8    0.96    0.07
   0   2   8    0.89    0.04
   0   2   8    0.87    0.07
   2  -2   8    0.33    0.06
   2  -2   8    0.39    0.06
  -2  -2  -8    0.44    0.05
  -2  -2  -8    0.42    0.06
  -2  -2  -8    0.45    0.07
   2  -2   8    0.46    0.06
  -2   2  -8    0.49    0.06
  -2   2  -8    0.35    0.06
   2   2   8    0.59    0.07
   2   2   8    0.44    0.06
   2   2   8    0.49    0.04
  -2   2  -8    0.34    0.06
  -4  -2  -8    1.48    0.10
  -4  -2  -8    1.74    0.09
  -4  -2  -8    1.64    0.12
   4  -2   8    1.42    0.11
   4   2   8    1.39    0.08
  -4   2  -8    1.51    0.11
  -4   2  -8    1.37    0.11
  -4   2  -8    1.46    0.10
   4   2   8    1.62    0.10
   4   2   8    1.52    0.11
  -6  -2  -8    0.02    0.06
  -6  -2  -8   -0.03    0.06
   6  -2   8    0.02    0.06
  -6   2  -8    0.01    0.06
   6   2   8   -0.04    0.05
   6   2   8    0.09    0.05
  -6   2  -8   -0.05    0.06
  -8  -2  -8   15.09    0.42
   8  -2   8   15.57    0.43
  -8  -2  -8   15.00    0.41
  -8   2  -8   15.68    0.42
   8   2   8   16.02    0.42
  -8   2  -8   15.57    0.44
  10  -2   8    2.03    0.20
 -10  -2  -8    1.85    0.19
 -10  -2  -8    2.03    0.20
 -10   2  -8    2.06    0.21
 -10   2  -8    2.20    0.20
 -11  -3   8    4.16    0.26
 -11  -3   8    4.32    0.26
  11  -3  -8    3.77    0.25
  11   3  -8    4.15    0.28
 -11   3   8    4.06    0.24
  -9  -3   8    2.63    0.20
   9  -3  -8    2.51    0.19
  -9  -3   8    2.58    0.19
  -9   3   8    2.10    0.17
  -9   3   8    2.37    0.18
   9   3  -8    2.44    0.21
   7  -3  -8    0.57    0.10
  -7  -3   8    0.47    0.09
   7  -3  -8    0.38    0.07
  -7  -3   8    0.35    0.09
   7   3  -8    0.42    0.10
   7   3  -8    0.54    0.09
  -7   3   8    0.41    0.07
  -7   3   8    0.48    0.09
  -5  -3   8   31.35    0.53
   5  -3  -8   32.02    0.51
  -5  -3   8   31.61    0.57
   5  -3  -8   30.74    0.56
  -5  -3   8   30.19    0.56
  -5   3   8   31.43    0.57
  -5   3   8   30.82    0.51
   5   3  -8   31.46    0.58
  -5   3   8   30.81    0.56
   5   3  -8   32.52    0.61
  -5   3   8   31.30    0.53
   3  -3  -8   21.31    0.38
  -3  -3   8   21.09    0.40
   3  -3  -8   21.26    0.32
  -3  -3   8   20.78    0.39
  -3  -3   8   20.75    0.36
   3   3  -8   20.93    0.44
   3   3  -8   21.23    0.34
  -3   3   8   19.58    0.39
   3   3  -8   20.57    0.42
  -3   3   8   21.13    0.35
  -3   3   8   20.56    0.39
   1  -3  -8    0.00    0.03
  -1  -3   8    0.03    0.03
   1  -3  -8    0.03    0.01
  -1  -3   8    0.02    0.03
  -1  -3   8    0.03    0.03
  -1   3   8    0.00    0.02
   1   3  -8   -0.01    0.03
  -1   3   8    0.04    0.03
   1   3  -8   -0.04    0.03
   1   3  -8    0.01    0.05
  -1   3   8   -0.01    0.03
  -1  -3  -8    0.34    0.04
   1  -3   8    0.39    0.06
   1  -3   8    0.44    0.05
   1  -3   8    0.25    0.05
  -1  -3  -8    0.33    0.06
   1   3   8    0.31    0.05
   1   3   8    0.39    0.06
  -1   3  -8    0.32    0.06
  -1   3  -8    0.21    0.06
  -1   3  -8    0.31    0.03
  -3  -3  -8    4.36    0.14
   3  -3   8    4.03    0.15
   3  -3   8    4.37    0.17
   3  -3   8    4.38    0.17
  -3  -3  -8    4.29    0.16
  -3  -3  -8    4.29    0.17
  -3   3  -8    4.86    0.19
  -3   3  -8    3.86    0.16
  -3   3  -8    4.44    0.19
   3   3   8    4.03    0.16
   3   3   8    4.30    0.16
   5  -3   8    0.03    0.05
  -5  -3  -8    0.02    0.06
  -5  -3  -8    0.06    0.05
  -5   3  -8    0.07    0.06
  -5   3  -8    0.09    0.06
  -5   3  -8    0.06    0.05
   5   3   8   -0.03    0.05
   5   3   8    0.08    0.06
  -7  -3  -8    0.46    0.10
   7  -3   8    0.30    0.09
  -7  -3  -8    0.45    0.09
   7   3   8    0.32    0.08
  -7   3  -8    0.53    0.11
  -7   3  -8    0.36    0.10
   9  -3   8    0.04    0.09
  -9  -3  -8    0.13    0.09
  -9  -3  -8    0.06    0.08
  -9   3  -8    0.06    0.09
  -9   3  -8    0.17    0.09
 -10  -4   8    0.04    0.10
 -10  -4   8    0.10    0.09
  10  -4  -8   -0.04    0.07
 -10   4   8    0.10    0.09
  10   4  -8    0.12    0.10
  -8  -4   8   23.99    0.54
  -8  -4   8   24.36    0.56
   8  -4  -8   23.80    0.55
   8   4  -8   23.55    0.59
  -8   4   8   24.41    0.51
  -6  -4   8   50.43    0.84
   6  -4  -8   51.13    0.88
   6  -4  -8   49.13    0.78
  -6  -4   8   51.19    0.86
  -6   4   8   50.58    0.80
  -6   4   8   49.38    0.84
   6   4  -8   48.96    0.90
   6   4  -8   49.41    0.85
  -6   4   8   49.71    0.83
  -6   4   8   50.91    0.85
  -4  -4   8    9.24    0.21
  -4  -4   8    8.92    0.26
  -4  -4   8    9.14    0.22
   4  -4  -8    8.78    0.20
   4  -4  -8    9.19    0.24
  -4  -4   8    8.96    0.25
  -4   4   8    8.91    0.25
  -4   4   8    9.43    0.21
  -4   4   8    9.07    0.22
  -4   4   8    8.98    0.25
   4   4  -8    9.28    0.29
   4   4  -8    9.17    0.28
  -2  -4   8    1.84    0.11
   2  -4  -8    1.76    0.07
  -2  -4   8    1.78    0.08
  -2  -4   8    1.72    0.11
   2  -4  -8    1.91    0.11
  -2   4   8    1.78    0.11
   2   4  -8    1.68    0.10
  -2   4   8    1.70    0.10
   2   4  -8    1.65    0.11
   2   4  -8    1.56    0.13
   0  -4   8    0.51    0.07
   0  -4   8    0.54    0.07
   0  -4  -8    0.58    0.05
   0  -4  -8    0.42    0.07
   0  -4   8    0.55    0.05
   0   4  -8    0.44    0.08
   0   4  -8    0.72    0.07
   0   4   8    0.59    0.06
   0   4  -8    0.56    0.08
   0   4   8    0.35    0.06
  -2  -4  -8    4.86    0.15
   2  -4   8    4.90    0.18
  -2  -4  -8    4.38    0.18
   2  -4   8    4.77    0.15
   2  -4   8    4.88    0.18
   2   4   8    4.86    0.16
  -2   4  -8    4.79    0.21
  -2   4  -8    5.30    0.19
   2   4   8    4.72    0.19
   4  -4   8    0.02    0.05
  -4  -4  -8   -0.02    0.04
  -4  -4  -8    0.02    0.06
   4  -4   8    0.05    0.05
   4   4   8    0.03    0.05
  -4   4  -8    0.05    0.06
  -4   4  -8    0.05    0.07
   4   4   8    0.02    0.06
  -4   4  -8    0.04    0.06
  -6  -4  -8    9.17    0.29
  -6  -4  -8    9.39    0.32
   6  -4   8    9.72    0.31
   6   4   8    8.96    0.31
  -6   4  -8    9.05    0.31
   6   4   8    9.05    0.28
  -6   4  -8    9.35    0.33
   8  -4   8    4.30    0.24
  -8  -4  -8    4.23    0.24
  -8  -4  -8    4.34    0.24
   8   4   8    4.36    0.24
  -8   4  -8    4.33    0.27
   8   4   8    4.68    0.24
  -8   4  -8    4.23    0.24
 -10  -4  -8    0.12    0.11
 -10  -4  -8    0.26    0.12
 -10   4  -8    0.40    0.14
 -10   4  -8    0.22    0.12
  -9  -5   8   12.69    0.40
  -9  -5   8   12.44    0.43
   9  -5  -8   12.74    0.40
  -9   5   8   12.01    0.37
   9   5  -8   12.77    0.46
  -7  -5   8    0.07    0.09
   7  -5  -8    0.04    0.07
  -7  -5   8    0.20    0.08
  -7   5   8    0.02    0.06
  -7   5   8    0.04    0.07
   7   5  -8    0.04    0.08
  -5  -5   8   17.57    0.40
   5  -5  -8   16.65    0.39
  -5  -5   8   16.95    0.42
   5   5  -8   17.19    0.45
  -5   5   8   17.26    0.39
  -5   5   8   17.08    0.40
   5   5  -8   17.38    0.45
  -3  -5   8    4.70    0.20
   3  -5  -8    4.78    0.19
  -3  -5   8    4.91    0.19
  -3  -5   8    4.57    0.17
  -3   5   8    4.79    0.19
  -3   5   8    4.71    0.17
   3   5  -8    4.70    0.17
   3   5  -8    4.82    0.23
   3   5  -8    4.36    0.20
  -1  -5   8    6.42    0.21
   1  -5  -8    6.10    0.22
  -1  -5   8    6.10    0.21
  -1   5   8    6.26    0.22
   1   5  -8    6.30    0.21
  -1   5   8    6.06    0.18
   1   5  -8    6.30    0.20
   1   5  -8    6.19    0.26
  -1  -5  -8   24.13    0.43
   1  -5   8   23.96    0.48
   1  -5   8   24.06    0.47
  -1  -5  -8   24.12    0.50
  -1   5  -8   24.42    0.49
   1   5   8   23.47    0.50
  -1   5  -8   23.98    0.54
   1   5   8   24.77    0.42
   3  -5   8    1.11    0.12
  -3  -5  -8    1.21    0.13
   3  -5   8    1.12    0.12
  -3  -5  -8    1.06    0.10
   3   5   8    1.03    0.09
  -3   5  -8    1.29    0.14
   3   5   8    0.95    0.12
  -3   5  -8    1.15    0.14
  -5  -5  -8    6.46    0.26
   5  -5   8    6.66    0.26
   5  -5   8    6.83    0.26
   5   5   8    6.73    0.27
  -5   5  -8    7.25    0.28
  -5   5  -8    7.17    0.30
  -7  -5  -8   45.61    0.85
   7  -5   8   46.42    0.88
   7  -5   8   46.29    0.89
  -7  -5  -8   47.27    0.89
  -7   5  -8   47.12    0.89
   7   5   8   45.37    0.88
  -7   5  -8   45.47    0.93
  -9  -5  -8    0.19    0.11
  -9  -5  -8    0.01    0.10
   9  -5   8    0.00    0.09
   9   5   8   -0.02    0.10
  -9   5  -8    0.03    0.09
  -9   5  -8   -0.06    0.12
   8  -6  -8    2.00    0.20
  -8  -6   8    1.65    0.19
  -8  -6   8    1.47    0.16
   8   6  -8    2.01    0.22
  -8   6   8    1.55    0.16
  -6  -6   8    3.89    0.23
  -6  -6   8    3.56    0.19
   6  -6  -8    3.60    0.19
   6   6  -8    3.89    0.24
  -6   6   8    3.89    0.20
   4  -6  -8    0.71    0.10
  -4  -6   8    0.75    0.10
  -4  -6   8    0.54    0.10
   4   6  -8    0.62    0.12
  -4   6   8    0.57    0.09
   4   6  -8    0.74    0.12
   2  -6  -8    0.85    0.11
  -2  -6   8    0.60    0.10
  -2  -6   8    0.83    0.10
  -2  -6   8    0.68    0.10
   2   6  -8    0.57    0.11
  -2   6   8    0.71    0.11
   2   6  -8    0.66    0.10
   2   6  -8    0.72    0.10
   0  -6  -8    4.74    0.22
   0  -6   8    5.39    0.20
   0  -6   8    5.38    0.22
   0   6   8    5.03    0.22
   0   6  -8    4.76    0.24
   0   6  -8    4.81    0.21
  -2  -6  -8   55.19    0.95
   2  -6   8   55.17    0.89
   2  -6   8   56.46    0.93
  -2   6  -8   54.29    0.93
   2   6   8   54.35    0.95
   4  -6   8    6.72    0.25
  -4  -6  -8    6.87    0.28
   4  -6   8    6.77    0.27
   4   6   8    6.68    0.28
  -4   6  -8    6.50    0.28
  -6  -6  -8    2.69    0.21
   6  -6   8    2.86    0.20
   6  -6   8    2.92    0.21
  -6   6  -8    2.48    0.24
  -6   6  -8    3.06    0.22
   6   6   8    3.03    0.22
   8  -6   8    0.24    0.11
   8  -6   8    0.15    0.10
  -8  -6  -8    0.15    0.11
  -8   6  -8    0.01    0.11
  -8   6  -8    0.06    0.11
   8   6   8    0.11    0.11
  -7  -7   8    4.89    0.29
   7   7  -8    5.04    0.30
  -7   7   8    6.06    0.26
  -5  -7   8    1.42    0.18
   5  -7  -8    1.30    0.14
  -5  -7   8    1.35    0.14
   5   7  -8    1.36    0.18
  -5   7   8    1.34    0.15
  -3  -7   8    5.09    0.23
  -3  -7   8    5.28    0.25
  -3  -7   8    5.08    0.22
   3  -7  -8    5.31    0.25
   3   7  -8    5.04    0.24
  -3   7   8    4.95    0.23
  -1  -7   8   26.77    0.54
  -1  -7   8   27.36    0.58
   1  -7  -8   28.05    0.60
  -1  -7   8   26.84    0.59
  -1   7   8   26.76    0.58
   1   7  -8   27.55    0.58
   1  -7   8   20.26    0.45
   1  -7   8   20.34    0.48
  -1  -7  -8   19.83    0.51
  -1   7  -8   19.84    0.49
   1   7   8   20.15    0.50
   3  -7   8    0.13    0.08
   3  -7   8    0.45    0.09
  -3  -7  -8    0.44    0.11
  -3   7  -8    0.48    0.12
   3   7   8    0.41    0.11
  -5  -7  -8    1.59    0.19
   5  -7   8    1.03    0.15
   5  -7   8    1.18    0.15
   5   7   8    1.32    0.17
  -5   7  -8    1.26    0.16
   7  -7   8    8.03    0.35
  -7  -7  -8    7.78    0.36
   7  -7   8    7.84    0.33
  -7   7  -8    7.84    0.36
   7   7   8    7.90    0.36
  -6  -8   8    1.54    0.21
   6  -8  -8    1.58    0.18
   6   8  -8    1.19    0.18
  -6   8   8    1.50    0.19
   4  -8  -8    0.23    0.10
  -4  -8   8   -0.07    0.09
  -4   8   8    0.01    0.08
   4   8  -8    0.15    0.10
   2  -8  -8   10.44    0.37
  -2  -8   8    9.94    0.36
  -2  -8   8    9.63    0.34
  -2   8   8   10.25    0.35
   0  -8   8   32.53    0.72
   0  -8   8   36.62    0.74
   0  -8   8   36.48    0.77
   0  -8  -8   37.13    0.76
   0   8  -8   37.27    0.75
   0   8   8   36.99    0.75
   2  -8   8    8.64    0.30
  -2  -8  -8    8.79    0.35
   2  -8   8    8.17    0.32
  -2   8  -8    9.27    0.36
   2   8   8    8.19    0.34
   4  -8   8    3.43    0.22
  -4  -8  -8    3.51    0.26
   4  -8   8    3.91    0.22
  -4   8  -8    3.77    0.26
   4   8   8    3.11    0.24
  -3  -9   8    1.38    0.18
   3  -9  -8    0.97    0.17
  -3   9   8    1.43    0.18
   1  -9  -8    0.98    0.17
  -1  -9   8    0.71    0.16
  -1  -9   8    0.92    0.15
   1   9  -8    0.83    0.16
  -1   9   8    0.94    0.16
  -1  -9  -8    4.76    0.30
   1  -9   8    4.88    0.30
   1  -9   8    4.69    0.27
  -1   9  -8    4.80    0.29
   1   9   8    4.68    0.27
 -12   0   9   -0.09    0.10
 -12   0   9   -0.03    0.10
  12   0  -9   -0.03    0.10
 -10   0   9   -0.11    0.08
 -10   0   9   -0.01    0.08
  10   0  -9   -0.04    0.09
   8   0  -9   -0.04    0.06
  -8   0   9    0.01    0.06
  -8   0   9   -0.02    0.05
   6   0  -9   -0.08    0.05
   6   0  -9    0.01    0.04
  -6   0   9   -0.02    0.05
  -6   0   9   -0.03    0.04
  -6   0   9    0.04    0.04
  -4   0   9   -0.01    0.03
  -4   0   9   -0.02    0.03
   4   0  -9    0.00    0.03
   4   0  -9    0.03    0.05
  -4   0   9   -0.01    0.04
   2   0  -9   -0.02    0.02
  -2   0   9   -0.05    0.03
  -2   0   9   -0.01    0.03
   2   0  -9   -0.01    0.03
   2   0  -9    0.00    0.03
  -2   0   9    0.02    0.03
  -2   0   9   -0.03    0.02
   0   0   9    0.05    0.03
   0   0   9    0.07    0.02
   0   0  -9    0.03    0.04
   0   0  -9    0.09    0.03
   0   0   9    0.11    0.03
   0   0   9    0.10    0.03
   2   0   9    0.00    0.02
   2   0   9    0.17    0.04
   2   0   9    0.04    0.04
  -2   0  -9    0.03    0.03
  -2   0  -9    0.00    0.03
  -2   0  -9    0.02    0.04
   4   0   9   -0.06    0.04
  -4   0  -9    0.00    0.03
   4   0   9    0.06    0.03
   4   0   9    0.01    0.03
  -4   0  -9   -0.04    0.04
  -4   0  -9    0.05    0.04
  -6   0  -9    0.12    0.06
  -6   0  -9   -0.01    0.05
   6   0   9    0.07    0.05
   8   0   9   -0.02    0.07
  -8   0  -9   -0.05    0.06
  -8   0  -9    0.12    0.08
 -10   0  -9    0.03    0.09
  10   0   9   -0.07    0.09
 -10   0  -9   -0.03    0.09
  11  -1  -9    8.46    0.36
 -11  -1   9    8.25    0.33
 -11  -1   9    8.64    0.35
 -11   1   9    8.64    0.33
 -11   1   9    8.67    0.35
  11   1  -9    8.87    0.37
   9  -1  -9    3.00    0.20
  -9  -1   9    2.80    0.19
  -9  -1   9    3.23    0.20
  -9   1   9    2.96    0.19
   9   1  -9    2.77    0.21
  -9   1   9    3.08    0.18
  -7  -1   9   16.52    0.38
  -7  -1   9   17.24    0.40
   7  -1  -9   16.38    0.42
  -7  -1   9   16.93    0.40
   7  -1  -9   16.86    0.36
   7   1  -9   16.69    0.42
  -7   1   9   16.81    0.36
  -7   1   9   16.99    0.41
  -7   1   9   16.54    0.39
   7   1  -9   17.41    0.37
  -5  -1   9    3.60    0.15
   5  -1  -9    3.36    0.14
  -5  -1   9    3.47    0.14
  -5  -1   9    3.18    0.15
   5  -1  -9    3.39    0.16
  -5   1   9    3.28    0.12
  -5   1   9    2.98    0.14
   5   1  -9    3.19    0.16
   5   1  -9    3.27    0.15
  -5   1   9    3.06    0.14
   3  -1  -9    0.64    0.08
  -3  -1   9    0.73    0.07
  -3  -1   9    0.88    0.06
  -3  -1   9    0.91    0.08
   3  -1  -9    0.89    0.05
   3  -1  -9    0.84    0.09
   3   1  -9    0.85    0.09
  -3   1   9    0.82    0.08
   3   1  -9    0.77    0.04
  -3   1   9    0.78    0.08
   3   1  -9    0.77    0.08
  -3   1   9    0.77    0.04
  -3   1   9    0.73    0.07
   1  -1  -9    0.02    0.04
  -1  -1   9    0.05    0.03
  -1  -1   9   -0.02    0.02
   1  -1  -9    0.05    0.03
  -1  -1   9    0.05    0.03
  -1   1   9   -0.01    0.03
   1   1  -9    0.03    0.03
   1   1  -9   -0.02    0.03
   1   1  -9    0.05    0.04
  -1   1   9    0.06    0.04
  -1   1   9    0.02    0.03
   1  -1   9    1.28    0.09
   1  -1   9    1.17    0.07
   1  -1   9    1.41    0.06
  -1  -1  -9    1.20    0.05
  -1  -1  -9    1.39    0.09
   1  -1   9    1.41    0.08
  -1  -1  -9    1.16    0.08
   1   1   9    1.17    0.07
  -1   1  -9    1.23    0.09
  -1   1  -9    1.11    0.06
   1   1   9    1.27    0.09
  -1   1  -9    1.19    0.08
  -1   1  -9    1.17    0.08
   1   1   9    1.25    0.06
  -3  -1  -9    5.28    0.18
  -3  -1  -9    5.36    0.15
   3  -1   9    5.31    0.18
  -3  -1  -9    5.36    0.16
   3  -1   9    5.25    0.10
   3  -1   9    4.92    0.17
   3   1   9    5.04    0.18
  -3   1  -9    5.09    0.18
  -3   1  -9    5.12    0.17
   3   1   9    5.37    0.15
  -3   1  -9    5.15    0.17
   3   1   9    5.11    0.15
  -5  -1  -9    8.01    0.23
   5  -1   9    8.42    0.24
  -5  -1  -9    8.04    0.26
  -5   1  -9    7.73    0.24
   5   1   9    7.96    0.22
  -5   1  -9    7.81    0.21
  -5   1  -9    7.63    0.25
   5   1   9    8.22    0.21
  -7  -1  -9    3.14    0.19
  -7  -1  -9    2.79    0.17
   7  -1   9    3.22    0.19
   7   1   9    3.10    0.17
  -7   1  -9    3.32    0.19
  -7   1  -9    3.18    0.19
  -9  -1  -9    0.12    0.09
   9  -1   9    0.02    0.09
  -9  -1  -9    0.17    0.10
  -9   1  -9    0.05    0.09
   9   1   9    0.13    0.09
  -9   1  -9    0.02    0.08
  12  -2  -9   16.22    0.52
 -12  -2   9   16.49    0.51
 -10  -2   9    8.28    0.32
 -10  -2   9    8.80    0.34
  10  -2  -9    8.74    0.34
 -10   2   9    8.72    0.31
 -10   2   9    8.61    0.32
  10   2  -9    8.64    0.36
  -8  -2   9    1.18    0.13
  -8  -2   9    1.13    0.12
   8  -2  -9    1.21    0.14
  -8   2   9    1.39    0.14
   8   2  -9    1.01    0.13
  -8   2   9    1.21    0.12
   6  -2  -9   80.19    1.19
  -6  -2   9   82.01    1.20
  -6  -2   9   80.52    1.20
  -6  -2   9   81.10    1.22
   6  -2  -9   81.82    1.25
   6   2  -9   81.12    1.26
  -6   2   9   81.18    1.23
  -6   2   9   81.22    1.19
   6   2  -9   81.04    1.21
  -6   2   9   83.07    1.14
  -4  -2   9    3.43    0.13
  -4  -2   9    3.23    0.14
  -4  -2   9    3.18    0.13
   4  -2  -9    3.45    0.15
   4  -2  -9    3.37    0.10
  -4   2   9    3.34    0.13
  -4   2   9    3.36    0.15
   4   2  -9    3.64    0.16
  -4   2   9    3.46    0.10
  -4   2   9    3.42    0.14
   4   2  -9    3.41    0.16
   2  -2  -9   -0.01    0.04
  -2  -2   9    0.05    0.03
  -2  -2   9    0.02    0.03
  -2  -2   9    0.02    0.03
   2  -2  -9    0.02    0.02
   2   2  -9    0.05    0.04
  -2   2   9    0.00    0.03
   2   2  -9   -0.04    0.04
  -2   2   9   -0.05    0.03
   2   2  -9   -0.02    0.02
  -2   2   9    0.02    0.03
   0  -2   9   29.59    0.46
   0  -2  -9   28.32    0.48
   0  -2  -9   28.14    0.50
   0  -2   9   28.63    0.46
   0  -2   9   28.74    0.48
   0   2   9   28.59    0.41
   0   2  -9   28.03    0.52
   0   2  -9   28.76    0.44
   0   2   9   28.27    0.48
   0   2  -9   29.55    0.47
   0   2   9   28.76    0.48
   2  -2   9   64.34    0.95
   2  -2   9   66.46    0.94
  -2  -2  -9   65.79    0.96
   2  -2   9   65.24    0.96
  -2  -2  -9   65.16    0.98
  -2  -2  -9   66.02    0.89
  -2   2  -9   66.40    0.97
   2   2   9   64.50    0.95
  -2   2  -9   65.17    0.98
  -2   2  -9   67.38    0.97
   2   2   9   63.80    0.94
   2   2   9   65.89    0.87
  -4  -2  -9    5.94    0.18
  -4  -2  -9    6.20    0.22
   4  -2   9    6.70    0.22
  -4  -2  -9    6.40    0.19
   4   2   9    6.37    0.17
   4   2   9    6.05    0.19
  -4   2  -9    6.23    0.22
  -4   2  -9    6.00    0.21
   4   2   9    6.01    0.21
  -4   2  -9    5.91    0.20
   6  -2   9   18.69    0.43
  -6  -2  -9   19.17    0.45
  -6  -2  -9   18.25    0.42
  -6   2  -9   18.29    0.44
   6   2   9   19.89    0.39
  -6   2  -9   19.95    0.45
   6   2   9   19.08    0.40
  -8  -2  -9    8.04    0.30
   8  -2   9    8.29    0.31
  -8  -2  -9    7.69    0.30
  -8   2  -9    7.53    0.30
  -8   2  -9    7.28    0.29
  10  -2   9    0.26    0.12
 -10  -2  -9    0.31    0.11
 -10  -2  -9    0.36    0.12
 -10   2  -9    0.18    0.11
 -10   2  -9    0.48    0.13
 -11  -3   9    0.24    0.11
  11  -3  -9    0.03    0.10
 -11  -3   9    0.08    0.11
 -11   3   9    0.01    0.09
  11   3  -9    0.10    0.12
  -9  -3   9   16.45    0.45
  -9  -3   9   15.79    0.44
   9  -3  -9   15.62    0.45
  -9   3   9   16.58    0.43
   9   3  -9   16.27    0.49
   7  -3  -9    6.28    0.26
  -7  -3   9    6.74    0.25
   7  -3  -9    7.03    0.23
  -7  -3   9    6.22    0.25
  -7   3   9    6.75    0.24
   7   3  -9    6.50    0.27
   7   3  -9    6.85    0.24
  -7   3   9    6.99    0.26
   5  -3  -9   12.51    0.26
  -5  -3   9   12.21    0.29
  -5  -3   9   12.47    0.31
   5  -3  -9   11.70    0.31
  -5  -3   9   12.07    0.30
  -5   3   9   11.98    0.31
   5   3  -9   12.02    0.32
  -5   3   9   12.06    0.31
   5   3  -9   12.18    0.34
  -5   3   9   11.98    0.28
  -3  -3   9   10.02    0.23
   3  -3  -9    9.91    0.27
   3  -3  -9   10.47    0.23
  -3  -3   9   10.13    0.25
  -3  -3   9   10.24    0.26
   3   3  -9   10.30    0.27
  -3   3   9   10.24    0.25
   3   3  -9   10.33    0.21
   3   3  -9   10.16    0.29
  -3   3   9    9.92    0.21
  -3   3   9    9.75    0.25
  -1  -3   9   21.14    0.38
  -1  -3   9   21.36    0.36
  -1  -3   9   21.09    0.40
   1  -3  -9   21.25    0.40
  -1   3   9   21.36    0.41
   1   3  -9   20.99    0.38
   1   3  -9   21.42    0.38
   1   3  -9   21.35    0.45
  -1   3   9   21.14    0.38
  -1   3   9   21.29    0.32
   1  -3   9    6.40    0.18
   1  -3   9    5.82    0.18
  -1  -3  -9    6.09    0.20
   1  -3   9    6.32    0.17
  -1  -3  -9    5.97    0.13
  -1   3  -9    5.96    0.19
  -1   3  -9    5.96    0.13
   1   3   9    6.14    0.19
   1   3   9    5.82    0.17
  -1   3  -9    6.09    0.22
  -3  -3  -9    5.13    0.20
   3  -3   9    4.80    0.18
   3  -3   9    5.13    0.18
  -3  -3  -9    5.08    0.16
  -3  -3  -9    4.95    0.17
   3  -3   9    5.00    0.18
   3   3   9    4.75    0.17
  -3   3  -9    4.91    0.20
   3   3   9    4.84    0.18
  -3   3  -9    5.05    0.20
  -3   3  -9    4.98    0.19
  -5  -3  -9    5.11    0.19
  -5  -3  -9    5.12    0.21
   5  -3   9    5.28    0.22
   5   3   9    5.34    0.20
   5   3   9    5.74    0.22
  -5   3  -9    5.56    0.21
  -5   3  -9    5.53    0.22
  -5   3  -9    5.25    0.23
  -7  -3  -9    0.86    0.12
  -7  -3  -9    0.86    0.12
   7  -3   9    1.11    0.14
  -7   3  -9    0.97    0.13
   7   3   9    0.96    0.13
  -7   3  -9    0.77    0.13
   7   3   9    0.76    0.11
  -9  -3  -9    0.89    0.13
   9  -3   9    1.00    0.14
  -9   3  -9    0.95    0.14
  -9   3  -9    0.96    0.16
 -10  -4   9    0.33    0.12
 -10  -4   9    0.20    0.10
  10  -4  -9    0.30    0.11
  10   4  -9    0.22    0.13
 -10   4   9    0.17    0.10
  -8  -4   9   16.30    0.45
  -8  -4   9   16.95    0.44
   8  -4  -9   15.99    0.45
  -8   4   9   16.75    0.41
   8   4  -9   16.28    0.48
  -6  -4   9   52.00    0.87
  -6  -4   9   50.99    0.86
   6  -4  -9   51.01    0.90
   6  -4  -9   49.97    0.86
  -6   4   9   50.42    0.85
  -6   4   9   50.62    0.86
   6   4  -9   48.19    0.86
  -6   4   9   51.82    0.81
   6   4  -9   51.74    0.92
  -4  -4   9    6.06    0.21
  -4  -4   9    5.92    0.17
   4  -4  -9    5.73    0.19
  -4  -4   9    5.80    0.21
  -4   4   9    5.94    0.20
   4   4  -9    6.00    0.23
  -4   4   9    5.70    0.20
   4   4  -9    6.09    0.24
  -4   4   9    5.93    0.17
  -2  -4   9    8.43    0.23
  -2  -4   9    8.13    0.23
   2  -4  -9    8.28    0.23
  -2  -4   9    8.22    0.19
   2   4  -9    8.07    0.23
  -2   4   9    8.29    0.22
   2   4  -9    8.19    0.21
   2   4  -9    8.43    0.28
  -2   4   9    8.23    0.24
   0  -4   9    0.00    0.04
   0  -4   9   -0.04    0.02
   0  -4   9   -0.04    0.04
   0  -4  -9   -0.01    0.04
   0   4  -9    0.01    0.03
   0   4  -9   -0.04    0.04
   0   4   9   -0.03    0.03
   0   4  -9   -0.06    0.05
   0   4   9    0.00    0.04
   2  -4   9  157.49    2.06
   2  -4   9  157.62    2.10
  -2  -4  -9  155.35    2.03
  -2  -4  -9  154.56    2.14
   2  -4   9  154.83    2.10
   2   4   9  156.35    2.06
  -2   4  -9  156.62    2.12
   2   4   9  150.85    2.13
  -2   4  -9  157.74    2.17
  -4  -4  -9    0.66    0.09
   4  -4   9    0.87    0.11
   4  -4   9    0.85    0.09
   4  -4   9    0.73    0.10
  -4  -4  -9    0.59    0.10
  -4  -4  -9    0.72    0.09
  -4   4  -9    0.57    0.09
   4   4   9    0.88    0.11
  -4   4  -9    0.71    0.11
   4   4   9    0.87    0.10
  -4   4  -9    0.60    0.10
  -6  -4  -9   20.49    0.46
   6  -4   9   19.96    0.48
  -6  -4  -9   20.73    0.50
  -6   4  -9   20.91    0.52
   6   4   9   19.58    0.48
   6   4   9   21.15    0.47
  -6   4  -9   20.67    0.50
  -8  -4  -9    3.13    0.21
  -8  -4  -9    3.42    0.22
   8  -4   9    3.61    0.23
  -8   4  -9    3.28    0.23
  -8   4  -9    3.35    0.25
   8   4   9    3.36    0.22
   8   4   9    3.61    0.22
  -9  -5   9    4.12    0.26
  -9  -5   9    3.48    0.22
   9  -5  -9    3.18    0.23
   9   5  -9    3.69    0.27
  -7  -5   9    0.27    0.10
   7  -5  -9    0.16    0.09
  -7  -5   9    0.24    0.09
  -7   5   9    0.28    0.09
   7   5  -9    0.31    0.11
  -5  -5   9    1.86    0.16
  -5  -5   9    1.85    0.16
   5  -5  -9    1.99    0.13
   5   5  -9    2.18    0.18
  -5   5   9    2.04    0.14
  -5   5   9    1.87    0.14
   5   5  -9    2.03    0.17
   3  -5  -9    8.83    0.26
  -3  -5   9    9.07    0.27
  -3  -5   9    8.87    0.25
  -3  -5   9    9.28    0.27
   3   5  -9    8.97    0.24
  -3   5   9    9.17    0.25
   3   5  -9    9.35    0.32
   3   5  -9    8.91    0.28
  -3   5   9    9.29    0.28
   1  -5  -9   26.69    0.53
  -1  -5   9   27.43    0.52
  -1  -5   9   27.02    0.51
   1   5  -9   26.87    0.51
   1   5  -9   26.88    0.49
  -1   5   9   27.74    0.47
   1   5  -9   26.77    0.59
  -1   5   9   27.07    0.53
   1  -5   9    8.14    0.25
   1  -5   9    7.70    0.24
  -1  -5  -9    7.48    0.26
  -1   5  -9    7.53    0.25
   1   5   9    8.00    0.26
   1   5   9    8.02    0.21
  -1   5  -9    8.13    0.30
   3  -5   9    6.77    0.24
  -3  -5  -9    5.93    0.24
   3  -5   9    6.16    0.23
  -3   5  -9    6.81    0.27
  -3   5  -9    6.35    0.25
   3   5   9    6.47    0.20
   3   5   9    6.03    0.24
   5  -5   9   15.54    0.38
   5  -5   9   16.11    0.42
   5  -5   9   15.17    0.40
  -5  -5  -9   15.14    0.43
  -5   5  -9   15.58    0.42
  -5   5  -9   15.88    0.46
   5   5   9   15.25    0.42
   7  -5   9   -0.03    0.07
   7  -5   9    0.10    0.09
  -7  -5  -9    0.00    0.09
  -7   5  -9    0.17    0.10
  -7   5  -9   -0.03    0.08
   7   5   9   -0.07    0.08
   9  -5   9    3.33    0.26
  -9  -5  -9    2.62    0.24
  -9   5  -9    3.28    0.25
  -9   5  -9    3.34    0.30
   8  -6  -9    0.34    0.11
  -8  -6   9    0.53    0.14
  -8  -6   9    0.56    0.12
   8   6  -9    0.61    0.15
  -8   6   9    0.82    0.13
  -6  -6   9    1.37    0.17
  -6  -6   9    1.58    0.15
  -6   6   9    1.88    0.16
   6   6  -9    1.39    0.17
   6   6  -9    2.23    0.20
  -4  -6   9   18.00    0.42
  -4  -6   9   18.57    0.45
   4  -6  -9   17.22    0.42
   4   6  -9   18.00    0.46
  -4   6   9   17.79    0.43
   4   6  -9   18.14    0.50
  -2  -6   9   13.18    0.35
  -2  -6   9   12.97    0.33
   2  -6  -9   12.58    0.35
  -2  -6   9   12.47    0.34
   2   6  -9   12.94    0.41
   2   6  -9   12.45    0.32
   2   6  -9   12.86    0.34
  -2   6   9   12.70    0.35
   0  -6   9   16.14    0.40
   0  -6   9   16.42    0.38
   0  -6  -9   17.03    0.43
   0   6   9   17.38    0.42
   0   6  -9   16.50    0.41
   0   6  -9   17.00    0.48
  -2  -6  -9    1.26    0.15
   2  -6   9    1.09    0.12
   2  -6   9    1.53    0.14
  -2   6  -9    1.06    0.15
  -2   6  -9    1.01    0.13
   2   6   9    1.14    0.14
   4  -6   9    3.64    0.20
  -4  -6  -9    3.68    0.22
   4  -6   9    3.46    0.20
  -4   6  -9    3.69    0.22
   4   6   9    3.86    0.22
  -6  -6  -9   12.93    0.43
   6  -6   9   12.61    0.40
   6  -6   9   13.47    0.41
   6   6   9   13.53    0.43
  -6   6  -9   13.35    0.43
   8  -6   9    0.09    0.10
  -8  -6  -9   -0.18    0.11
  -8   6  -9   -0.12    0.11
   8   6   9    0.01    0.10
  -8   6  -9    0.03    0.11
  -7  -7   9    0.38    0.13
  -7   7   9    0.61    0.13
   7   7  -9    0.50    0.14
   5  -7  -9    3.45    0.21
  -5  -7   9    2.87    0.19
  -5  -7   9    3.07    0.23
   5   7  -9    3.13    0.24
  -5   7   9    2.77    0.19
  -3  -7   9   11.49    0.33
   3  -7  -9   11.42    0.37
  -3  -7   9   11.89    0.35
  -3  -7   9   11.42    0.37
   3   7  -9   11.80    0.36
  -3   7   9   12.28    0.36
  -1  -7   9   11.49    0.33
   1  -7  -9   11.97    0.37
  -1  -7   9   11.28    0.35
   1   7  -9   11.78    0.35
  -1   7   9   11.07    0.35
   1  -7   9    6.37    0.26
   1  -7   9    6.52    0.25
  -1  -7  -9    5.83    0.28
   1   7   9    5.66    0.26
  -1   7  -9    6.54    0.28
  -3  -7  -9    0.18    0.09
   3  -7   9    0.13    0.08
   3  -7   9    0.20    0.08
  -3   7  -9    0.08    0.09
   3   7   9    0.18    0.09
   5  -7   9    3.40    0.23
   5  -7   9    3.17    0.21
  -5  -7  -9    3.32    0.25
  -5   7  -9    3.44    0.24
   5   7   9    3.50    0.24
  -6  -8   9    8.95    0.39
  -6   8   9    8.95    0.34
   6   8  -9    8.98    0.39
   4  -8  -9    2.19    0.21
  -4  -8   9    1.53    0.18
  -4   8   9    1.87    0.18
  -2  -8   9    2.11    0.20
   2  -8  -9    1.92    0.20
  -2  -8   9    2.10    0.20
   2   8  -9    2.25    0.20
  -2   8   9    1.98    0.18
   0  -8   9    7.21    0.32
   0  -8  -9    7.65    0.33
   0  -8   9    7.55    0.28
   0  -8   9    7.53    0.31
   0   8   9    7.46    0.31
   0   8  -9    7.24    0.31
   2  -8   9   -0.01    0.08
   2  -8   9   -0.01    0.08
  -2  -8  -9   -0.12    0.09
   2   8   9    0.00    0.08
  -2   8  -9    0.05    0.09
   4  -8   9    0.45    0.12
  -4  -8  -9    0.38    0.13
   4  -8   9    0.17    0.09
  -4   8  -9    0.32    0.13
   4   8   9    0.36    0.12
   1  -9  -9   21.54    0.58
  -1  -9   9   21.66    0.58
  -1  -9   9   21.67    0.58
  -1   9   9   21.24    0.56
   1   9  -9   20.56    0.56
   1  -9   9    0.28    0.11
   1  -9   9    0.21    0.12
  -1  -9  -9    0.17    0.12
  -1   9  -9    0.15    0.12
 -12   0  10   -0.09    0.10
  12   0 -10    0.11    0.12
  10   0 -10    3.22    0.23
 -10   0  10    2.61    0.19
 -10   0  10    3.18    0.21
  -8   0  10   11.49    0.31
  -8   0  10   11.01    0.34
  -8   0  10   11.35    0.34
   8   0 -10   11.65    0.37
   6   0 -10   34.03    0.65
   6   0 -10   34.48    0.61
  -6   0  10   35.20    0.57
  -6   0  10   34.29    0.62
  -6   0  10   33.97    0.61
   4   0 -10   81.77    1.21
  -4   0  10   85.10    1.11
  -4   0  10   83.24    1.17
   4   0 -10   81.07    1.19
  -4   0  10   80.24    1.17
   2   0 -10   30.48    0.45
   2   0 -10   29.26    0.53
   2   0 -10   29.08    0.51
  -2   0  10   30.09    0.49
  -2   0  10   29.71    0.48
  -2   0  10   31.22    0.51
  -2   0  10   29.73    0.42
   0   0  10   68.07    0.94
   0   0  10   67.28    0.94
   0   0 -10   70.10    0.96
   0   0 -10   67.91    1.00
   0   0  10   67.67    0.97
   0   0  10   67.28    0.88
   2   0  10   94.28    1.34
  -2   0 -10   94.47    1.33
   2   0  10   96.28    1.25
  -2   0 -10   94.18    1.28
   2   0  10   96.70    1.29
  -2   0 -10   95.94    1.34
   4   0  10    0.01    0.05
  -4   0 -10    0.01    0.04
  -4   0 -10   -0.04    0.04
   4   0  10    0.01    0.04
  -4   0 -10    0.00    0.03
  -6   0 -10   24.89    0.50
  -6   0 -10   24.08    0.53
   6   0  10   24.35    0.49
   8   0  10    0.78    0.12
  -8   0 -10    0.40    0.10
  -8   0 -10    0.68    0.12
 -10   0 -10    0.99    0.16
  10   0  10    1.19    0.17
 -10   0 -10    1.07    0.16
 -11  -1  10    0.14    0.10
 -11  -1  10   -0.01    0.08
  11  -1 -10    0.15    0.11
  11   1 -10   -0.06    0.10
 -11   1  10    0.04    0.09
  -9  -1  10    7.39    0.28
  -9  -1  10    7.34    0.29
   9  -1 -10    7.54    0.31
  -9   1  10    7.43    0.29
  -9   1  10    7.09    0.26
   9   1 -10    7.53    0.32
   7  -1 -10    4.29    0.18
  -7  -1  10    4.52    0.20
   7  -1 -10    4.72    0.22
  -7  -1  10    4.68    0.19
  -7  -1  10    4.67    0.21
  -7   1  10    4.34    0.17
  -7   1  10    4.11    0.19
   7   1 -10    4.55    0.22
   7   1 -10    4.81    0.19
  -7   1  10    4.45    0.21
   5  -1 -10   99.97    1.43
   5  -1 -10   99.53    1.47
  -5  -1  10  100.60    1.38
  -5  -1  10   99.81    1.43
  -5  -1  10  101.11    1.43
   5   1 -10  101.53    1.47
   5   1 -10  101.50    1.44
  -5   1  10  101.31    1.44
  -5   1  10  101.98    1.35
  -5   1  10  100.78    1.41
  -3  -1  10   29.68    0.50
  -3  -1  10   29.01    0.46
   3  -1 -10   29.24    0.43
   3  -1 -10   28.63    0.52
  -3  -1  10   29.07    0.50
   3  -1 -10   29.59    0.54
  -3   1  10   29.18    0.48
   3   1 -10   30.60    0.53
  -3   1  10   29.19    0.51
  -3   1  10   29.42    0.40
  -3   1  10   29.48    0.51
   3   1 -10   28.86    0.53
   3   1 -10   30.09    0.41
   1  -1 -10   55.63    0.85
   1  -1 -10   56.75    0.80
  -1  -1  10   55.34    0.82
  -1  -1  10   56.13    0.77
  -1  -1  10   55.99    0.82
  -1   1  10   56.84    0.82
   1   1 -10   57.30    0.79
   1   1 -10   55.70    0.87
  -1   1  10   56.69    0.79
   1   1 -10   56.67    0.82
  -1   1  10   56.26    0.83
   1  -1  10   49.05    0.72
   1  -1  10   49.31    0.75
  -1  -1 -10   48.56    0.65
  -1  -1 -10   48.52    0.74
  -1  -1 -10   46.43    0.75
   1  -1  10   47.89    0.69
   1  -1  10   48.36    0.67
  -1   1 -10   48.15    0.77
  -1   1 -10   48.11    0.72
   1   1  10   48.81    0.68
  -1   1 -10   49.96    0.74
   1   1  10   47.25    0.74
  -1   1 -10   49.30    0.68
   1   1  10   49.01    0.71
  -3  -1 -10    5.56    0.17
   3  -1  10    5.35    0.19
   3  -1  10    5.14    0.17
  -3  -1 -10    5.50    0.20
  -3  -1 -10    5.54    0.16
  -3   1 -10    5.43    0.19
   3   1  10    5.29    0.15
   3   1  10    5.09    0.19
   3   1  10    5.45    0.15
  -3   1 -10    5.42    0.18
  -3   1 -10    5.48    0.18
  -5  -1 -10   13.58    0.32
  -5  -1 -10   12.54    0.34
   5  -1  10   13.26    0.33
   5   1  10   13.34    0.30
  -5   1 -10   13.29    0.33
   5   1  10   13.20    0.28
  -5   1 -10   13.38    0.35
   5   1  10   12.83    0.34
   7  -1  10    2.92    0.17
  -7  -1 -10    2.89    0.19
  -7  -1 -10    2.77    0.18
   7   1  10    2.94    0.16
  -7   1 -10    2.96    0.19
  -7   1 -10    2.75    0.19
  -9  -1 -10   11.65    0.39
  -9  -1 -10   11.13    0.38
   9  -1  10   11.05    0.37
   9   1  10   10.44    0.35
  -9   1 -10   11.79    0.40
  -9   1 -10   11.10    0.38
  10  -2 -10    0.01    0.09
 -10  -2  10    0.20    0.10
 -10  -2  10    0.10    0.09
  10   2 -10   -0.05    0.10
 -10   2  10    0.02    0.08
   8  -2 -10    2.50    0.19
  -8  -2  10    2.88    0.18
  -8  -2  10    2.72    0.18
   8   2 -10    2.25    0.19
  -8   2  10    2.62    0.18
  -8   2  10    2.84    0.17
  -6  -2  10   92.40    1.36
   6  -2 -10   92.48    1.40
  -6  -2  10   90.77    1.32
  -6  -2  10   91.64    1.34
   6  -2 -10   91.71    1.34
  -6   2  10   91.90    1.37
  -6   2  10   92.30    1.33
   6   2 -10   92.44    1.41
   6   2 -10   91.89    1.35
  -4  -2  10    0.49    0.07
  -4  -2  10    0.62    0.07
   4  -2 -10    0.65    0.06
   4  -2 -10    0.56    0.08
  -4  -2  10    0.57    0.07
  -4   2  10    0.69    0.07
  -4   2  10    0.61    0.08
   4   2 -10    0.57    0.08
   4   2 -10    0.70    0.09
  -4   2  10    0.77    0.09
   2  -2 -10    1.02    0.10
  -2  -2  10    0.93    0.07
   2  -2 -10    0.99    0.07
  -2  -2  10    0.94    0.07
  -2  -2  10    0.89    0.08
   2   2 -10    1.04    0.08
   2   2 -10    0.96    0.06
  -2   2  10    0.81    0.08
   2   2 -10    0.79    0.09
  -2   2  10    0.97    0.09
  -2   2  10    1.03    0.07
   0  -2  10   23.72    0.40
   0  -2 -10   24.13    0.46
   0  -2  10   23.75    0.43
   0  -2  10   24.14    0.42
   0  -2 -10   24.29    0.43
   0   2  10   24.14    0.43
   0   2  10   23.77    0.42
   0   2 -10   23.92    0.39
   0   2 -10   24.49    0.42
   0   2 -10   23.47    0.47
   0   2  10   24.07    0.36
  -2  -2 -10   16.06    0.34
   2  -2  10   15.59    0.33
  -2  -2 -10   15.87    0.27
   2  -2  10   15.93    0.32
  -2  -2 -10   15.96    0.35
   2  -2  10   15.62    0.33
   2   2  10   15.58    0.34
   2   2  10   15.60    0.32
  -2   2 -10   14.77    0.33
  -2   2 -10   15.48    0.36
  -2   2 -10   15.52    0.34
   2   2  10   15.35    0.26
  -4  -2 -10    0.67    0.08
   4  -2  10    0.66    0.09
  -4  -2 -10    0.82    0.10
  -4  -2 -10    0.80    0.08
   4  -2  10    0.77    0.10
   4   2  10    0.57    0.09
  -4   2 -10    0.77    0.10
   4   2  10    0.80    0.09
   4   2  10    0.74    0.07
  -4   2 -10    0.74    0.09
  -4   2 -10    0.66    0.09
   6  -2  10    4.13    0.20
  -6  -2 -10    4.02    0.21
  -6  -2 -10    4.42    0.19
   6   2  10    4.48    0.21
  -6   2 -10    4.64    0.21
  -6   2 -10    4.34    0.21
   8  -2  10    0.03    0.07
  -8  -2 -10    0.08    0.08
  -8  -2 -10    0.12    0.08
  -8   2 -10    0.01    0.07
  -8   2 -10    0.02    0.08
 -10  -2 -10    0.09    0.10
 -10  -2 -10    0.04    0.10
  10  -2  10    0.03    0.09
 -10   2 -10   -0.02    0.09
 -10   2 -10   -0.02    0.10
  11  -3 -10    3.98    0.26
 -11  -3  10    4.21    0.28
 -11  -3  10    3.91    0.26
  11   3 -10    3.54    0.28
 -11   3  10    3.69    0.25
  -9  -3  10   27.93    0.61
   9  -3 -10   25.84    0.62
  -9  -3  10   27.47    0.61
  -9   3  10   26.73    0.58
   9   3 -10   26.65    0.66
  -7  -3  10   11.72    0.33
   7  -3 -10   11.73    0.32
   7  -3 -10   11.83    0.36
  -7  -3  10   11.42    0.34
   7   3 -10   11.64    0.38
  -7   3  10   11.41    0.35
   7   3 -10   12.10    0.34
  -7   3  10   11.10    0.31
   5  -3 -10    0.45    0.08
  -5  -3  10    0.40    0.08
  -5  -3  10    0.35    0.08
  -5  -3  10    0.37    0.07
   5   3 -10    0.28    0.08
  -5   3  10    0.32    0.07
  -5   3  10    0.29    0.06
   5   3 -10    0.44    0.09
  -5   3  10    0.45    0.07
   3  -3 -10    0.53    0.08
   3  -3 -10    0.40    0.06
  -3  -3  10    0.38    0.06
  -3  -3  10    0.48    0.07
  -3  -3  10    0.40    0.07
   3   3 -10    0.41    0.07
  -3   3  10    0.41    0.07
   3   3 -10    0.30    0.08
   3   3 -10    0.41    0.05
  -3   3  10    0.41    0.05
  -3   3  10    0.21    0.06
  -1  -3  10   35.71    0.57
  -1  -3  10   34.84    0.59
   1  -3 -10   34.79    0.63
  -1  -3  10   35.47    0.55
   1  -3 -10   35.75    0.59
   1   3 -10   35.91    0.57
  -1   3  10   35.15    0.50
   1   3 -10   35.93    0.57
  -1   3  10   35.69    0.58
   1   3 -10   35.63    0.66
  -1   3  10   35.51    0.60
   1  -3  10    3.45    0.13
  -1  -3 -10    3.13    0.15
   1  -3  10    3.46    0.14
   1  -3  10    3.54    0.15
  -1  -3 -10    3.43    0.15
   1   3  10    3.42    0.15
   1   3  10    3.72    0.15
  -1   3 -10    3.61    0.15
  -1   3 -10    3.31    0.17
   3  -3  10   -0.03    0.04
   3  -3  10    0.00    0.05
  -3  -3 -10   -0.01    0.04
  -3  -3 -10    0.00    0.04
   3  -3  10    0.01    0.05
  -3  -3 -10   -0.04    0.05
  -3   3 -10   -0.09    0.05
   3   3  10    0.05    0.05
  -3   3 -10    0.08    0.05
   3   3  10    0.02    0.04
  -3   3 -10    0.03    0.05
  -5  -3 -10   11.19    0.34
   5  -3  10   11.13    0.32
  -5  -3 -10   11.07    0.29
   5  -3  10   11.34    0.32
   5   3  10   10.93    0.32
  -5   3 -10   11.11    0.31
  -5   3 -10   11.25    0.34
   5   3  10   11.34    0.31
  -5   3 -10   10.66    0.32
   7  -3  10    0.99    0.14
  -7  -3 -10    0.93    0.12
  -7  -3 -10    1.18    0.16
  -7   3 -10    1.26    0.16
   7   3  10    1.07    0.14
  -7   3 -10    0.82    0.13
  -9  -3 -10    0.57    0.13
  -9  -3 -10    0.40    0.12
   9  -3  10    0.48    0.13
  -9   3 -10    0.67    0.15
   9   3  10    0.72    0.14
  -9   3 -10    0.50    0.12
 -10  -4  10    9.99    0.38
  10  -4 -10   11.03    0.40
 -10  -4  10   10.66    0.39
  10   4 -10   10.68    0.43
 -10   4  10   10.73    0.35
   8  -4 -10    1.08    0.15
  -8  -4  10    1.43    0.16
  -8  -4  10    0.95    0.14
  -8   4  10    1.09    0.13
   8   4 -10    1.21    0.17
   6  -4 -10    1.72    0.15
   6  -4 -10    1.55    0.16
  -6  -4  10    1.43    0.14
  -6  -4  10    1.73    0.15
   6   4 -10    1.74    0.17
  -6   4  10    1.62    0.14
   6   4 -10    1.44    0.15
  -6   4  10    1.68    0.14
  -6   4  10    1.65    0.12
  -4  -4  10    5.49    0.21
  -4  -4  10    5.66    0.21
  -4  -4  10    5.74    0.18
   4  -4 -10    5.50    0.18
   4   4 -10    5.48    0.22
  -4   4  10    5.60    0.21
   4   4 -10    5.44    0.24
  -4   4  10    5.52    0.21
  -2  -4  10    2.63    0.14
  -2  -4  10    2.34    0.13
   2  -4 -10    2.44    0.13
  -2  -4  10    2.37    0.11
  -2   4  10    2.41    0.13
   2   4 -10    2.27    0.13
   2   4 -10    2.27    0.11
   2   4 -10    2.51    0.17
  -2   4  10    2.51    0.13
   0  -4  10   11.66    0.29
   0  -4  10   12.10    0.30
   0  -4 -10   11.72    0.30
   0  -4  10   11.94    0.25
   0   4 -10   12.47    0.35
   0   4  10   11.89    0.31
   0   4  10   11.61    0.27
   0   4 -10   12.58    0.30
   2  -4  10   14.38    0.34
   2  -4  10   14.26    0.31
   2  -4  10   14.97    0.34
  -2  -4 -10   14.19    0.36
   2   4  10   14.22    0.35
   2   4  10   14.38    0.32
  -2   4 -10   14.51    0.39
  -2   4 -10   14.01    0.35
   4  -4  10    7.95    0.27
  -4  -4 -10    8.36    0.25
  -4  -4 -10    7.85    0.28
   4  -4  10    8.13    0.27
   4  -4  10    8.35    0.26
  -4   4 -10    7.98    0.28
   4   4  10    8.75    0.26
  -4   4 -10    7.93    0.30
   4   4  10    8.14    0.27
  -4   4 -10    8.21    0.28
   6  -4  10    8.27    0.30
  -6  -4 -10    8.65    0.32
   6  -4  10    7.96    0.30
  -6   4 -10    8.15    0.30
   6   4  10    8.11    0.29
  -6   4 -10    8.75    0.33
   6   4  10    7.98    0.29
   8  -4  10    1.51    0.18
  -8  -4 -10    1.78    0.20
   8   4  10    1.87    0.18
  -8   4 -10    1.65    0.20
  -8   4 -10    1.51    0.18
   9  -5 -10    0.63    0.13
  -9  -5  10    0.55    0.14
  -9  -5  10    0.77    0.13
   9   5 -10    0.60    0.16
  -7  -5  10    0.02    0.07
   7  -5 -10   -0.08    0.05
   7  -5 -10   -0.02    0.07
  -7  -5  10    0.10    0.09
  -7   5  10   -0.05    0.07
   7   5 -10   -0.03    0.08
  -5  -5  10    1.92    0.15
  -5  -5  10    1.83    0.16
   5  -5 -10    1.70    0.13
  -5   5  10    1.91    0.15
  -5   5  10    1.91    0.15
   5   5 -10    1.78    0.17
   5   5 -10    2.13    0.19
  -3  -5  10    5.19    0.21
  -3  -5  10    5.26    0.21
   3  -5 -10    5.75    0.21
  -3  -5  10    5.26    0.19
   3   5 -10    5.24    0.25
  -3   5  10    5.27    0.21
   3   5 -10    5.07    0.18
   3   5 -10    5.36    0.22
  -3   5  10    5.05    0.19
  -1  -5  10    0.00    0.05
   1  -5 -10    0.04    0.06
  -1  -5  10    0.08    0.06
   1   5 -10    0.10    0.07
  -1   5  10    0.10    0.06
  -1   5  10    0.11    0.05
   1   5 -10    0.06    0.05
   1  -5  10   68.08    1.04
   1  -5  10   67.37    1.04
  -1  -5 -10   67.36    1.07
  -1   5 -10   67.38    1.14
   1   5  10   68.41    1.07
   1   5  10   66.28    0.98
  -1   5 -10   66.94    1.06
   3  -5  10    5.35    0.22
   3  -5  10    5.09    0.22
  -3  -5 -10    5.17    0.24
  -3   5 -10    5.31    0.25
   3   5  10    5.50    0.19
  -3   5 -10    5.00    0.22
   3   5  10    5.33    0.23
   5  -5  10    9.96    0.33
  -5  -5 -10   10.19    0.35
   5  -5  10   10.26    0.33
   5   5  10    9.98    0.34
  -5   5 -10   10.31    0.38
  -5   5 -10   10.26    0.34
   7  -5  10    0.82    0.14
   7  -5  10    0.74    0.13
  -7  -5 -10    1.02    0.16
   7   5  10    0.66    0.13
  -7   5 -10    0.82    0.16
  -7   5 -10    0.70    0.13
   8  -6 -10   23.37    0.60
  -8  -6  10   22.99    0.60
  -8   6  10   23.37    0.57
  -6  -6  10    1.69    0.16
  -6  -6  10    1.81    0.18
   6   6 -10    1.62    0.18
   6   6 -10    1.81    0.19
  -6   6  10    2.02    0.16
  -4  -6  10    2.90    0.18
  -4  -6  10    2.78    0.19
   4  -6 -10    3.24    0.18
   4   6 -10    2.62    0.19
  -4   6  10    2.79    0.18
   4   6 -10    2.15    0.20
  -2  -6  10   10.52    0.32
  -2  -6  10   10.65    0.31
   2  -6 -10    9.71    0.31
  -2   6  10    9.89    0.31
   2   6 -10   10.69    0.30
   2   6 -10   10.68    0.38
   0  -6 -10    0.74    0.12
   0  -6  10    0.58    0.10
   0  -6  10    0.75    0.10
   0   6 -10    0.61    0.10
   0   6  10    0.67    0.10
   0   6 -10    0.74    0.14
   2  -6  10   19.03    0.45
   2  -6  10   19.03    0.45
  -2  -6 -10   19.79    0.48
   2   6  10   19.40    0.48
  -2   6 -10   18.89    0.47
  -2   6 -10   18.85    0.52
  -4  -6 -10    0.33    0.12
   4  -6  10    0.34    0.09
   4  -6  10    0.26    0.09
   4   6  10    0.34    0.10
  -4   6 -10    0.36    0.11
   6  -6  10   10.45    0.37
  -6  -6 -10   10.06    0.38
   6  -6  10   10.47    0.37
   6   6  10   10.23    0.37
  -6   6 -10    9.76    0.37
  -7  -7  10    0.01    0.11
   7   7 -10    0.19    0.12
  -7   7  10    0.18    0.10
  -5  -7  10    9.06    0.32
   5  -7 -10    9.31    0.32
  -5  -7  10    8.93    0.36
  -5   7  10    9.61    0.33
   5   7 -10    9.38    0.36
  -3  -7  10    0.66    0.11
  -3  -7  10    0.73    0.12
   3  -7 -10    0.73    0.12
   3   7 -10    0.69    0.16
  -3   7  10    0.39    0.10
  -1  -7  10    7.62    0.27
  -1  -7  10    7.84    0.30
   1  -7 -10    7.20    0.29
   1   7 -10    7.40    0.28
  -1   7  10    7.48    0.29
   1  -7  10   13.04    0.38
  -1  -7 -10   13.53    0.42
   1  -7  10   13.34    0.37
  -1   7 -10   12.86    0.39
   1   7  10   13.37    0.40
  -3  -7 -10    4.33    0.26
   3  -7  10    4.92    0.24
   3  -7  10    5.15    0.25
  -3   7 -10    4.63    0.26
   3   7  10    4.46    0.25
   5  -7  10    0.98    0.15
   5  -7  10    0.90    0.14
  -5  -7 -10    0.99    0.16
   5   7  10    1.16    0.18
  -5   7 -10    0.82    0.15
  -6  -8  10    8.79    0.38
   6   8 -10    8.69    0.39
  -6   8  10    8.40    0.34
   4  -8 -10    7.48    0.32
  -4  -8  10    6.28    0.31
  -4   8  10    6.95    0.31
  -2  -8  10    0.54    0.13
  -2  -8  10    0.60    0.13
  -2  -8  10    0.34    0.11
   2  -8 -10    0.69    0.13
  -2   8  10    0.36    0.11
   0  -8  10    6.07    0.28
   0  -8 -10    6.08    0.30
   0  -8  10    5.88    0.26
   0   8 -10    6.18    0.29
   0   8  10    6.24    0.29
  -2  -8 -10   -0.01    0.10
   2  -8  10    0.00    0.08
   2  -8  10    0.02    0.09
  -2   8 -10    0.08    0.10
   2   8  10    0.06    0.09
  -4  -8 -10    6.17    0.33
   4  -8  10    5.78    0.29
   4  -8  10    6.05    0.30
  -4   8 -10    6.32    0.32
 -10   0  11    0.01    0.08
  10   0 -11    0.08    0.09
 -10   0  11   -0.05    0.09
  -8   0  11    0.00    0.07
  -8   0  11    0.08    0.06
  -8   0  11    0.11    0.07
   8   0 -11    0.01    0.07
   6   0 -11   -0.02    0.05
   6   0 -11    0.10    0.07
  -6   0  11   -0.03    0.04
  -6   0  11    0.04    0.06
  -6   0  11    0.03    0.05
   4   0 -11    0.01    0.04
  -4   0  11   -0.02    0.03
  -4   0  11    0.02    0.04
   4   0 -11   -0.08    0.04
  -4   0  11    0.00    0.04
  -2   0  11   -0.01    0.03
  -2   0  11    0.01    0.02
  -2   0  11    0.02    0.03
   2   0 -11   -0.03    0.04
   2   0 -11    0.01    0.03
   2   0 -11    0.00    0.03
  -2   0  11    0.01    0.04
  -2   0 -11   -0.05    0.04
   2   0  11    0.03    0.05
  -2   0 -11    0.00    0.04
   2   0  11   -0.01    0.03
  -2   0 -11   -0.05    0.03
   2   0  11    0.07    0.04
   4   0  11    0.00    0.04
   4   0  11   -0.01    0.05
  -4   0 -11    0.00    0.04
  -4   0 -11    0.02    0.04
  -4   0 -11    0.04    0.05
   6   0  11   -0.07    0.05
  -6   0 -11   -0.05    0.06
  -6   0 -11    0.08    0.06
   6   0  11    0.00    0.07
  -8   0 -11   -0.01    0.08
  -8   0 -11    0.07    0.08
   8   0  11   -0.10    0.07
 -10   0 -11    0.10    0.10
 -10   0 -11    0.00    0.09
  10   0  11    0.03    0.09
 -11  -1  11    6.81    0.31
  11  -1 -11    7.44    0.35
 -11  -1  11    7.10    0.32
  11   1 -11    7.37    0.35
 -11   1  11    7.22    0.32
  -9  -1  11   17.99    0.47
   9  -1 -11   17.86    0.50
  -9  -1  11   18.09    0.44
  -9   1  11   17.97    0.46
   9   1 -11   17.47    0.50
   7  -1 -11    6.81    0.23
  -7  -1  11    6.99    0.26
  -7  -1  11    6.82    0.23
  -7  -1  11    6.79    0.25
   7  -1 -11    7.00    0.28
   7   1 -11    7.10    0.24
   7   1 -11    6.68    0.27
  -7   1  11    6.93    0.25
  -7   1  11    6.76    0.26
   5  -1 -11    6.83    0.23
  -5  -1  11    6.24    0.19
  -5  -1  11    6.69    0.22
   5  -1 -11    6.88    0.24
  -5  -1  11    6.50    0.22
   5   1 -11    6.65    0.24
  -5   1  11    6.36    0.21
  -5   1  11    6.27    0.22
   5   1 -11    6.30    0.22
  -3  -1  11    1.76    0.11
   3  -1 -11    1.86    0.08
   3  -1 -11    1.75    0.12
  -3  -1  11    1.77    0.11
   3  -1 -11    1.82    0.12
  -3  -1  11    1.71    0.08
  -3   1  11    1.70    0.11
   3   1 -11    1.76    0.06
  -3   1  11    1.56    0.11
   3   1 -11    1.50    0.11
  -3   1  11    1.77    0.10
   3   1 -11    1.88    0.12
  -1  -1  11   47.11    0.72
   1  -1 -11   47.49    0.70
  -1  -1  11   47.25    0.66
   1  -1 -11   45.54    0.75
  -1  -1  11   47.48    0.72
  -1   1  11   47.55    0.69
   1   1 -11   47.15    0.77
   1   1 -11   46.35    0.69
   1   1 -11   47.34    0.72
  -1   1  11   47.14    0.72
  -1   1  11   47.22    0.73
   1  -1  11    4.57    0.13
  -1  -1 -11    4.75    0.16
  -1  -1 -11    4.61    0.11
  -1  -1 -11    4.61    0.17
   1  -1  11    4.57    0.16
   1  -1  11    4.58    0.15
   1  -1  11    4.34    0.12
  -1   1 -11    4.56    0.18
   1   1  11    4.50    0.13
  -1   1 -11    4.53    0.16
  -1   1 -11    4.42    0.13
   1   1  11    4.55    0.14
   1   1  11    4.51    0.17
   3  -1  11    4.71    0.17
  -3  -1 -11    4.91    0.17
  -3  -1 -11    5.01    0.15
  -3  -1 -11    4.92    0.19
   3  -1  11    5.12    0.19
  -3   1 -11    5.00    0.19
   3   1  11    4.72    0.15
  -3   1 -11    4.72    0.17
   3   1  11    4.91    0.19
   3   1  11    4.88    0.15
  -3   1 -11    4.86    0.18
  -5  -1 -11    0.01    0.05
   5  -1  11    0.06    0.05
   5  -1  11   -0.05    0.05
  -5  -1 -11    0.00    0.05
   5   1  11   -0.04    0.04
  -5   1 -11    0.01    0.06
   5   1  11    0.04    0.06
  -5   1 -11    0.00    0.05
  -7  -1 -11    1.06    0.14
   7  -1  11    1.05    0.13
  -7  -1 -11    0.78    0.11
  -7   1 -11    0.99    0.13
  -7   1 -11    0.85    0.12
   7   1  11    0.77    0.13
   7   1  11    1.08    0.12
  -9  -1 -11    5.42    0.28
   9  -1  11    5.74    0.27
  -9  -1 -11    4.91    0.26
  -9   1 -11    5.09    0.27
  -9   1 -11    4.80    0.27
  10  -2 -11    2.05    0.21
 -10  -2  11    2.73    0.21
 -10  -2  11    2.53    0.21
 -10   2  11    2.60    0.20
  10   2 -11    2.10    0.21
  -8  -2  11    1.75    0.16
   8  -2 -11    1.85    0.18
  -8  -2  11    1.68    0.17
  -8   2  11    1.31    0.15
  -8   2  11    1.68    0.16
   8   2 -11    1.40    0.16
  -6  -2  11   18.44    0.43
   6  -2 -11   18.84    0.42
  -6  -2  11   18.59    0.41
   6  -2 -11   18.33    0.45
  -6  -2  11   18.31    0.40
   6   2 -11   17.96    0.45
  -6   2  11   18.45    0.43
   6   2 -11   18.25    0.43
  -6   2  11   18.80    0.43
  -6   2  11   19.75    0.41
  -4  -2  11    5.17    0.18
  -4  -2  11    5.02    0.17
  -4  -2  11    5.29    0.19
   4  -2 -11    5.22    0.14
   4  -2 -11    5.08    0.20
  -4   2  11    5.20    0.17
  -4   2  11    5.14    0.19
   4   2 -11    5.07    0.20
   4   2 -11    5.43    0.21
  -4   2  11    5.24    0.19
  -2  -2  11   12.22    0.28
   2  -2 -11   12.14    0.31
  -2  -2  11   12.23    0.25
  -2  -2  11   11.96    0.27
   2  -2 -11   11.55    0.25
  -2   2  11   11.75    0.24
  -2   2  11   12.10    0.28
  -2   2  11   12.16    0.28
   2   2 -11   12.18    0.32
   2   2 -11   11.70    0.23
   2   2 -11   11.80    0.28
   0  -2  11   40.95    0.64
   0  -2 -11   40.27    0.65
   0  -2  11   40.82    0.65
   0  -2  11   40.41    0.61
   0  -2 -11   38.95    0.68
   0   2  11   39.41    0.64
   0   2 -11   40.58    0.63
   0   2 -11   39.89    0.70
   0   2  11   40.26    0.58
   0   2  11   40.19    0.65
   0   2 -11   40.57    0.60
  -2  -2 -11   37.96    0.64
   2  -2  11   38.12    0.64
   2  -2  11   37.99    0.63
   2  -2  11   37.78    0.61
  -2  -2 -11   38.25    0.66
  -2   2 -11   38.78    0.65
   2   2  11   37.63    0.64
  -2   2 -11   38.33    0.67
   2   2  11   38.71    0.62
  -2   2 -11   38.55    0.65
   2   2  11   37.93    0.55
  -4  -2 -11    2.67    0.13
   4  -2  11    2.89    0.15
  -4  -2 -11    2.90    0.13
  -4  -2 -11    2.95    0.16
   4  -2  11    2.80    0.16
  -4   2 -11    3.08    0.16
  -4   2 -11    2.83    0.16
  -4   2 -11    3.00    0.16
   4   2  11    3.00    0.16
   4   2  11    2.92    0.14
  -6  -2 -11    0.29    0.09
   6  -2  11    0.34    0.09
   6  -2  11    0.32    0.08
  -6   2 -11    0.48    0.10
   6   2  11    0.53    0.10
  -6   2 -11    0.28    0.08
  -8  -2 -11    3.62    0.23
   8  -2  11    3.59    0.22
  -8  -2 -11    3.65    0.21
  -8   2 -11    3.91    0.24
   8   2  11    3.93    0.24
  -8   2 -11    3.53    0.23
  10  -2  11    0.74    0.16
 -10  -2 -11    0.18    0.12
  10   2  11    0.44    0.14
 -10   2 -11    0.44    0.13
 -10   2 -11    0.33    0.14
 -11  -3  11    6.63    0.33
  11  -3 -11    6.76    0.34
 -11  -3  11    6.36    0.32
 -11   3  11    6.49    0.31
  11   3 -11    7.14    0.37
  -9  -3  11    0.41    0.11
   9  -3 -11    0.29    0.11
  -9  -3  11    0.10    0.09
   9   3 -11    0.31    0.13
  -9   3  11    0.38    0.10
   7  -3 -11    0.86    0.11
   7  -3 -11    0.82    0.13
  -7  -3  11    1.07    0.13
  -7  -3  11    1.04    0.12
  -7  -3  11    0.86    0.12
  -7   3  11    0.88    0.13
   7   3 -11    1.08    0.12
  -7   3  11    0.97    0.12
   7   3 -11    1.22    0.15
  -5  -3  11   26.57    0.51
  -5  -3  11   26.37    0.53
  -5  -3  11   26.75    0.50
   5  -3 -11   26.26    0.54
  -5   3  11   27.24    0.54
   5   3 -11   26.77    0.56
  -5   3  11   26.84    0.49
   5   3 -11   26.11    0.56
  -5   3  11   27.18    0.53
  -3  -3  11   21.89    0.41
   3  -3 -11   21.56    0.46
   3  -3 -11   21.23    0.39
  -3  -3  11   20.91    0.40
  -3  -3  11   20.14    0.43
   3   3 -11   21.10    0.48
  -3   3  11   21.95    0.43
   3   3 -11   20.21    0.37
  -3   3  11   21.53    0.37
   3   3 -11   21.61    0.44
  -3   3  11   20.81    0.43
  -1  -3  11    4.66    0.15
   1  -3 -11    4.66    0.19
  -1  -3  11    4.66    0.16
  -1  -3  11    4.44    0.17
   1  -3 -11    4.54    0.17
  -1   3  11    4.90    0.17
   1   3 -11    4.49    0.15
  -1   3  11    4.47    0.17
   1   3 -11    4.46    0.15
   1   3 -11    4.49    0.20
   1  -3  11  127.95    1.73
  -1  -3 -11  130.12    1.79
   1  -3  11  130.34    1.77
   1  -3  11  125.34    1.73
  -1  -3 -11  127.49    1.78
   1   3  11  129.17    1.75
  -1   3 -11  128.70    1.83
  -1   3 -11  127.60    1.76
   1   3  11  129.76    1.76
   3  -3  11    8.02    0.24
  -3  -3 -11    7.94    0.26
   3  -3  11    8.16    0.25
   3  -3  11    8.08    0.24
  -3  -3 -11    7.95    0.24
  -3   3 -11    7.68    0.25
   3   3  11    7.98    0.25
  -3   3 -11    7.92    0.27
   3   3  11    8.12    0.25
  -3   3 -11    7.85    0.27
  -5  -3 -11    1.90    0.17
   5  -3  11    1.80    0.15
   5  -3  11    1.63    0.15
  -5   3 -11    1.70    0.16
   5   3  11    1.90    0.16
   5   3  11    1.76    0.14
  -5   3 -11    1.72    0.14
  -5   3 -11    1.70    0.16
   7  -3  11   10.32    0.35
  -7  -3 -11   10.73    0.37
  -7   3 -11   11.23    0.37
   7   3  11   11.32    0.36
  -7   3 -11   10.65    0.38
   9  -3  11   20.64    0.55
  -9  -3 -11   21.48    0.57
  -9   3 -11   20.55    0.56
   9   3  11   21.20    0.56
  -9   3 -11   21.34    0.59
 -10  -4  11    0.29    0.12
  10  -4 -11    0.30    0.12
 -10  -4  11    0.23    0.13
 -10   4  11    0.28    0.11
  10   4 -11    0.32    0.14
  -8  -4  11    0.01    0.08
   8  -4 -11   -0.04    0.07
  -8  -4  11    0.06    0.08
  -8   4  11    0.04    0.08
   8   4 -11   -0.12    0.07
   6  -4 -11    1.05    0.13
  -6  -4  11    1.32    0.14
   6  -4 -11    1.06    0.12
  -6  -4  11    1.34    0.14
   6   4 -11    1.09    0.14
  -6   4  11    1.10    0.12
   6   4 -11    0.89    0.13
  -6   4  11    1.06    0.13
  -6   4  11    1.06    0.13
  -4  -4  11    3.82    0.18
  -4  -4  11    3.85    0.18
   4  -4 -11    3.84    0.20
   4  -4 -11    3.80    0.15
  -4  -4  11    3.93    0.15
  -4   4  11    3.89    0.18
  -4   4  11    4.29    0.19
   4   4 -11    3.72    0.21
   4   4 -11    3.92    0.19
   2  -4 -11   10.52    0.27
  -2  -4  11   10.29    0.24
  -2  -4  11   10.08    0.28
  -2  -4  11   10.41    0.27
   2  -4 -11   10.16    0.31
   2   4 -11    9.87    0.27
  -2   4  11    9.75    0.28
   2   4 -11   10.04    0.25
   2   4 -11   10.02    0.32
  -2   4  11    9.97    0.26
   0  -4  11    0.96    0.10
   0  -4  11    1.15    0.09
   0  -4  11    0.90    0.09
   0  -4 -11    1.18    0.12
   0  -4 -11    1.19    0.12
   0   4 -11    1.05    0.13
   0   4 -11    1.14    0.11
   0   4  11    1.06    0.09
   0   4  11    0.92    0.10
   2  -4  11    3.46    0.15
   2  -4  11    3.53    0.17
  -2  -4 -11    3.51    0.17
   2  -4  11    3.20    0.16
  -2  -4 -11    3.40    0.18
   2   4  11    3.63    0.17
  -2   4 -11    3.27    0.17
   2   4  11    3.40    0.15
  -2   4 -11    3.53    0.20
   4  -4  11    0.09    0.06
  -4  -4 -11    0.00    0.07
   4  -4  11   -0.02    0.05
   4  -4  11    0.00    0.06
  -4  -4 -11    0.04    0.05
  -4   4 -11    0.02    0.06
  -4   4 -11    0.02    0.07
  -4   4 -11    0.03    0.07
   4   4  11    0.04    0.06
   4   4  11    0.03    0.06
   6  -4  11    0.72    0.12
  -6  -4 -11    0.95    0.15
   6  -4  11    1.03    0.13
   6  -4  11    1.02    0.14
  -6   4 -11    0.71    0.12
   6   4  11    1.06    0.13
  -6   4 -11    0.94    0.15
   6   4  11    1.29    0.15
   8  -4  11    6.17    0.29
  -8  -4 -11    5.36    0.29
  -8   4 -11    5.86    0.30
  -8   4 -11    5.79    0.31
   8   4  11    6.11    0.30
  -9  -5  11    0.06    0.10
  -9  -5  11   -0.07    0.09
   9  -5 -11    0.09    0.10
   9   5 -11    0.12    0.12
   7  -5 -11    3.37    0.23
  -7  -5  11    2.95    0.21
  -7  -5  11    3.27    0.20
   7  -5 -11    3.25    0.20
  -7   5  11    3.29    0.20
   7   5 -11    3.66    0.23
  -7   5  11    3.47    0.22
   7   5 -11    3.40    0.24
  -5  -5  11    0.65    0.12
  -5  -5  11    0.85    0.12
   5  -5 -11    0.60    0.11
   5   5 -11    0.64    0.12
  -5   5  11    0.69    0.11
  -5   5  11    0.59    0.11
   5   5 -11    0.59    0.12
  -3  -5  11    6.75    0.24
  -3  -5  11    6.71    0.24
   3  -5 -11    6.75    0.22
  -3   5  11    6.57    0.24
   3   5 -11    6.38    0.28
  -3   5  11    6.92    0.23
   3   5 -11    6.96    0.25
  -1  -5  11   21.15    0.45
  -1  -5  11   21.96    0.46
   1  -5 -11   21.61    0.47
   1   5 -11   22.24    0.54
  -1   5  11   20.72    0.46
  -1   5  11   20.55    0.42
   1   5 -11   21.41    0.44
   1  -5  11   20.05    0.44
   1  -5  11   20.02    0.44
  -1  -5 -11   19.73    0.46
   1   5  11   20.08    0.40
  -1   5 -11   20.43    0.51
   1   5  11   20.08    0.46
  -1   5 -11   19.70    0.45
   3  -5  11    5.31    0.22
   3  -5  11    5.23    0.23
  -3  -5 -11    5.33    0.25
  -3  -5 -11    5.51    0.23
   3   5  11    4.92    0.19
  -3   5 -11    5.45    0.26
   3   5  11    5.36    0.23
  -3   5 -11    5.38    0.24
   5  -5  11    0.76    0.12
   5  -5  11    0.64    0.12
  -5  -5 -11    0.75    0.14
  -5   5 -11    0.58    0.12
   5   5  11    0.68    0.13
  -5   5 -11    0.72    0.14
  -7  -5 -11    0.01    0.10
   7  -5  11    0.32    0.11
   7  -5  11    0.22    0.11
  -7   5 -11    0.24    0.12
   7   5  11    0.41    0.12
  -7   5 -11    0.18    0.11
  -8  -6  11    1.73    0.19
   8  -6 -11    1.39    0.18
  -8  -6  11    1.84    0.20
  -8   6  11    1.99    0.19
   8   6 -11    1.92    0.22
  -6  -6  11    0.74    0.12
  -6  -6  11    0.65    0.13
   6   6 -11    0.81    0.15
  -6   6  11    0.74    0.13
   6   6 -11    0.92    0.15
  -4  -6  11    0.02    0.07
   4  -6 -11    0.10    0.07
  -4  -6  11    0.08    0.08
   4   6 -11    0.03    0.09
   4   6 -11    0.03    0.08
  -4   6  11    0.15    0.08
  -2  -6  11    0.57    0.09
   2  -6 -11    0.47    0.10
  -2  -6  11    0.37    0.09
   2   6 -11    0.71    0.10
   2   6 -11    0.68    0.13
  -2   6  11    0.62    0.11
   0  -6  11    0.39    0.09
   0  -6  11    0.28    0.08
   0  -6 -11    0.28    0.09
   0   6  11    0.14    0.08
   0   6 -11    0.27    0.11
   0   6 -11    0.30    0.08
   2  -6  11    1.85    0.16
   2  -6  11    2.46    0.17
  -2  -6 -11    2.26    0.20
   2   6  11    2.05    0.17
  -2   6 -11    2.32    0.22
  -2   6 -11    1.98    0.17
  -4  -6 -11    0.18    0.10
   4  -6  11    0.22    0.09
   4  -6  11    0.10    0.08
  -4   6 -11    0.16    0.09
   4   6  11    0.20    0.10
   6  -6  11   21.50    0.56
   6  -6  11   22.89    0.57
  -6  -6 -11   22.37    0.59
   6   6  11   22.62    0.58
  -6   6 -11   22.60    0.59
  -7  -7  11    0.21    0.10
  -7  -7  11    0.07    0.11
   7  -7 -11    0.27    0.11
  -7   7  11    0.18    0.11
   7   7 -11    0.12    0.11
  -5  -7  11    0.40    0.10
  -5  -7  11    0.41    0.12
   5   7 -11    0.50    0.13
   5   7 -11    0.33    0.13
  -5   7  11    0.28    0.10
   3  -7 -11    0.46    0.11
  -3  -7  11    0.46    0.11
  -3  -7  11    0.47    0.11
   3   7 -11    0.53    0.13
  -3   7  11    0.45    0.12
  -1  -7  11    6.12    0.27
   1  -7 -11    6.36    0.29
  -1  -7  11    6.26    0.26
   1   7 -11    7.28    0.34
   1   7 -11    6.36    0.26
  -1   7  11    6.38    0.28
   1  -7  11    1.61    0.15
  -1  -7 -11    1.57    0.17
   1  -7  11    1.61    0.16
   1   7  11    1.43    0.16
  -1   7 -11    1.57    0.17
   3  -7  11   13.77    0.41
  -3  -7 -11   13.90    0.45
   3  -7  11   14.17    0.41
   3   7  11   13.74    0.43
  -3   7 -11   14.74    0.44
   5  -7  11   13.33    0.43
  -5  -7 -11   13.79    0.46
   5  -7  11   13.12    0.42
  -5   7 -11   12.97    0.45
   5   7  11   12.14    0.43
  -4  -8  11    0.31    0.12
   4  -8 -11    0.61    0.13
  -4   8  11    0.33    0.11
  -2  -8  11    3.45    0.23
   2  -8 -11    3.18    0.24
  -2  -8  11    4.07    0.23
  -2   8  11    3.57    0.23
   0  -8 -11    0.92    0.16
   0  -8  11    0.85    0.14
   0  -8  11    0.93    0.14
   0   8 -11    1.06    0.16
   0   8  11    0.97    0.15
   2  -8  11    1.45    0.18
  -2  -8 -11    1.83    0.21
   2  -8  11    1.73    0.17
   2   8  11    1.43    0.17
  -2   8 -11    1.84    0.21
  10   0 -12    0.49    0.12
 -10   0  12    0.18    0.10
  -8   0  12    5.34    0.25
  -8   0  12    5.57    0.25
   8   0 -12    5.61    0.27
   6   0 -12  348.12    4.55
   6   0 -12  344.56    4.50
  -6   0  12  347.98    4.49
  -6   0  12  350.74    4.51
   4   0 -12    2.96    0.16
   4   0 -12    2.94    0.15
  -4   0  12    2.80    0.14
  -4   0  12    2.59    0.14
  -2   0  12    1.23    0.10
   2   0 -12    1.29    0.10
   2   0 -12    1.16    0.07
  -2   0  12    1.26    0.09
   2   0 -12    1.23    0.12
  -2   0  12    1.08    0.09
   0   0  12    0.53    0.07
   0   0  12    0.47    0.06
   0   0 -12    0.38    0.07
   2   0  12   84.95    1.11
  -2   0 -12   83.16    1.21
  -2   0 -12   79.61    1.20
  -2   0 -12   83.13    1.13
   2   0  12   80.93    1.20
   2   0  12   81.89    1.15
  -4   0 -12    0.15    0.06
   4   0  12    0.12    0.07
  -4   0 -12    0.29    0.06
  -4   0 -12    0.24    0.06
   4   0  12    0.20    0.06
   6   0  12   25.04    0.50
  -6   0 -12   24.54    0.52
   6   0  12   24.47    0.55
  -6   0 -12   24.50    0.55
  -8   0 -12   12.27    0.40
  -8   0 -12   11.35    0.38
   8   0  12   12.08    0.40
   8   0  12   11.98    0.36
  11  -1 -12   -0.10    0.10
 -11  -1  12   -0.13    0.09
  11   1 -12    0.01    0.09
 -11   1  12   -0.01    0.11
  -9  -1  12   32.32    0.69
   9  -1 -12   32.28    0.72
  -9  -1  12   32.57    0.64
   9   1 -12   31.87    0.73
  -9   1  12   32.33    0.67
   7  -1 -12    0.03    0.05
  -7  -1  12    0.05    0.07
  -7  -1  12    0.16    0.08
  -7  -1  12    0.03    0.06
   7  -1 -12    0.04    0.07
  -7   1  12    0.00    0.06
   7   1 -12    0.04    0.07
   7   1 -12    0.11    0.04
  -7   1  12    0.10    0.07
   5  -1 -12    7.20    0.25
  -5  -1  12    7.56    0.24
   5  -1 -12    7.38    0.26
  -5  -1  12    7.60    0.20
  -5  -1  12    7.43    0.24
   5   1 -12    7.43    0.25
  -5   1  12    7.21    0.23
  -5   1  12    7.30    0.25
   5   1 -12    7.11    0.25
  -3  -1  12    2.33    0.10
  -3  -1  12    2.30    0.13
   3  -1 -12    2.40    0.14
  -3  -1  12    2.37    0.13
   3  -1 -12    2.39    0.09
   3  -1 -12    2.53    0.15
  -3   1  12    2.51    0.13
   3   1 -12    2.49    0.15
  -3   1  12    2.32    0.11
  -3   1  12    2.38    0.13
   3   1 -12    2.66    0.14
   1  -1 -12    0.00    0.03
   1  -1 -12    0.02    0.05
  -1  -1  12    0.04    0.04
  -1  -1  12    0.08    0.04
  -1  -1  12    0.08    0.03
   1   1 -12    0.06    0.04
  -1   1  12    0.02    0.04
   1   1 -12    0.06    0.05
   1   1 -12    0.03    0.04
  -1   1  12    0.06    0.04
  -1   1  12    0.05    0.04
   1  -1  12    9.72    0.25
   1  -1  12   10.45    0.22
   1  -1  12   10.37    0.26
  -1  -1 -12    9.78    0.26
   1  -1  12   10.51    0.21
  -1  -1 -12   10.23    0.28
   1   1  12   10.10    0.22
   1   1  12   10.11    0.23
  -1   1 -12   10.61    0.26
  -1   1 -12    9.85    0.28
  -1   1 -12   10.48    0.22
   1   1  12   10.16    0.27
  -3  -1 -12    3.81    0.14
  -3  -1 -12    3.92    0.18
   3  -1  12    4.06    0.18
   3  -1  12    3.91    0.16
  -3  -1 -12    4.18    0.17
   3   1  12    3.90    0.14
   3   1  12    3.75    0.17
  -3   1 -12    3.58    0.17
  -3   1 -12    3.68    0.17
   3   1  12    3.94    0.14
  -3   1 -12    3.86    0.16
   5  -1  12   23.85    0.49
   5  -1  12   23.77    0.52
  -5  -1 -12   22.71    0.52
  -5  -1 -12   23.98    0.47
   5   1  12   24.30    0.53
   5   1  12   24.63    0.46
  -5   1 -12   22.85    0.51
  -5   1 -12   23.71    0.50
   7  -1  12    7.16    0.29
  -7  -1 -12    7.35    0.27
  -7  -1 -12    7.19    0.30
   7  -1  12    6.99    0.27
  -7   1 -12    6.56    0.27
   7   1  12    6.87    0.29
  -7   1 -12    6.91    0.29
   9  -1  12    1.14    0.15
  -9  -1 -12    1.00    0.16
   9   1  12    0.97    0.16
  -9   1 -12    1.01    0.17
  -9   1 -12    1.35    0.17
  10  -2 -12    2.74    0.23
 -10  -2  12    2.93    0.21
 -10  -2  12    2.47    0.22
  10   2 -12    2.96    0.23
 -10   2  12    2.67    0.20
  -8  -2  12    7.29    0.29
  -8  -2  12    7.37    0.28
   8  -2 -12    7.38    0.31
  -8  -2  12    7.55    0.27
   8   2 -12    7.74    0.32
  -8   2  12    7.81    0.28
  -8   2  12    7.65    0.30
   6  -2 -12   17.18    0.41
  -6  -2  12   17.52    0.38
  -6  -2  12   16.89    0.40
   6  -2 -12   17.24    0.44
  -6  -2  12   17.32    0.42
  -6   2  12   16.83    0.39
   6   2 -12   17.28    0.42
   6   2 -12   16.99    0.44
  -6   2  12   17.71    0.43
  -6   2  12   16.83    0.41
  -4  -2  12   44.22    0.74
  -4  -2  12   44.82    0.70
   4  -2 -12   44.85    0.77
   4  -2 -12   45.67    0.79
  -4  -2  12   44.27    0.73
  -4   2  12   45.28    0.75
  -4   2  12   44.06    0.70
  -4   2  12   44.14    0.75
   4   2 -12   43.08    0.78
   4   2 -12   44.47    0.77
  -2  -2  12   21.03    0.41
   2  -2 -12   21.85    0.39
  -2  -2  12   21.44    0.42
  -2  -2  12   21.78    0.38
   2  -2 -12   21.49    0.46
   2   2 -12   21.91    0.48
   2   2 -12   22.11    0.37
   2   2 -12   22.13    0.42
  -2   2  12   21.85    0.43
  -2   2  12   20.82    0.42
  -2   2  12   21.58    0.38
   0  -2  12    0.33    0.06
   0  -2  12    0.46    0.07
   0  -2  12    0.47    0.06
   0  -2 -12    0.49    0.07
   0  -2 -12    0.32    0.07
   0   2  12    0.47    0.07
   0   2 -12    0.53    0.06
   0   2 -12    0.30    0.07
   0   2  12    0.57    0.08
   0   2  12    0.51    0.05
   0   2 -12    0.46    0.07
   2  -2  12   72.78    1.09
  -2  -2 -12   74.07    1.12
  -2  -2 -12   74.43    1.11
   2  -2  12   74.94    1.10
   2  -2  12   74.97    1.06
   2   2  12   70.03    1.01
  -2   2 -12   75.48    1.14
   2   2  12   75.38    1.11
  -2   2 -12   72.66    1.10
   2   2  12   74.50    1.07
  -2   2 -12   73.46    1.10
  -4  -2 -12   11.81    0.30
   4  -2  12   11.51    0.33
   4  -2  12   12.01    0.32
  -4  -2 -12   11.84    0.34
  -4   2 -12   11.88    0.32
   4   2  12   11.85    0.29
  -4   2 -12   12.01    0.32
  -4   2 -12   11.52    0.33
   4   2  12   11.88    0.33
  -6  -2 -12    3.04    0.20
   6  -2  12    3.21    0.18
   6  -2  12    2.93    0.19
  -6   2 -12    3.27    0.20
  -6   2 -12    2.84    0.19
   6   2  12    2.91    0.19
  -8  -2 -12    2.48    0.22
   8  -2  12    2.32    0.20
   8  -2  12    2.43    0.20
  -8   2 -12    2.08    0.19
   8   2  12    2.35    0.20
  -8   2 -12    2.91    0.22
 -11  -3  12    3.09    0.25
  11  -3 -12    3.64    0.27
 -11   3  12    3.32    0.25
   9  -3 -12    1.66    0.19
  -9  -3  12    1.41    0.16
  -9  -3  12    1.49    0.16
   9   3 -12    1.69    0.21
  -9   3  12    1.89    0.18
  -7  -3  12    1.75    0.15
  -7  -3  12    1.54    0.16
   7  -3 -12    1.54    0.15
   7  -3 -12    1.72    0.18
  -7  -3  12    1.78    0.16
   7   3 -12    1.71    0.18
   7   3 -12    1.86    0.17
  -7   3  12    1.94    0.17
  -7   3  12    1.76    0.14
  -5  -3  12   11.03    0.29
   5  -3 -12   11.10    0.34
  -5  -3  12   11.39    0.30
   5  -3 -12   10.93    0.32
  -5  -3  12   11.02    0.32
   5   3 -12   10.59    0.34
  -5   3  12   11.19    0.28
  -5   3  12   10.71    0.31
   5   3 -12   11.30    0.34
  -5   3  12   10.93    0.32
  -3  -3  12    7.46    0.21
   3  -3 -12    7.59    0.26
  -3  -3  12    7.84    0.22
  -3  -3  12    7.28    0.24
   3  -3 -12    7.54    0.20
   3   3 -12    7.73    0.28
  -3   3  12    7.03    0.23
   3   3 -12    7.66    0.24
  -3   3  12    7.51    0.19
  -3   3  12    7.17    0.24
  -1  -3  12   15.45    0.35
   1  -3 -12   15.07    0.37
  -1  -3  12   15.14    0.32
  -1  -3  12   14.79    0.32
   1  -3 -12   15.40    0.34
   1   3 -12   14.79    0.31
  -1   3  12   15.35    0.35
  -1   3  12   15.37    0.34
   1   3 -12   15.09    0.40
   1   3 -12   15.65    0.32
   1  -3  12   29.82    0.55
   1  -3  12   29.94    0.52
  -1  -3 -12   29.71    0.57
   1  -3  12   29.44    0.52
  -1  -3 -12   29.20    0.56
   1   3  12   29.47    0.54
  -1   3 -12   30.20    0.54
   1   3  12   29.88    0.55
  -1   3 -12   29.42    0.60
   3  -3  12    5.21    0.20
  -3  -3 -12    5.25    0.22
  -3  -3 -12    5.11    0.20
   3  -3  12    5.25    0.19
   3  -3  12    4.79    0.20
  -3   3 -12    5.35    0.23
   3   3  12    5.19    0.19
  -3   3 -12    4.89    0.21
  -3   3 -12    4.96    0.22
   3   3  12    4.82    0.20
   5  -3  12    0.29    0.08
   5  -3  12    0.48    0.10
   5  -3  12    0.45    0.09
  -5  -3 -12    0.51    0.10
  -5   3 -12    0.48    0.10
   5   3  12    0.47    0.09
   5   3  12    0.40    0.09
  -5   3 -12    0.51    0.10
   7  -3  12    2.42    0.19
   7  -3  12    1.95    0.18
  -7  -3 -12    2.02    0.19
  -7   3 -12    1.73    0.19
   7   3  12    2.31    0.20
  -7   3 -12    2.09    0.20
  -9  -3 -12    5.06    0.29
   9  -3  12    5.07    0.28
   9  -3  12    4.56    0.27
  -9   3 -12    4.50    0.28
  -9   3 -12    4.56    0.30
   9   3  12    4.95    0.29
  10  -4 -12    1.61    0.21
 -10  -4  12    1.51    0.20
 -10  -4  12    1.46    0.19
 -10   4  12    1.43    0.17
  10   4 -12    1.54    0.22
  -8  -4  12    5.11    0.26
   8  -4 -12    4.45    0.26
  -8  -4  12    4.59    0.24
  -8   4  12    4.86    0.25
   8   4 -12    5.08    0.28
  -6  -4  12    0.14    0.08
   6  -4 -12    0.05    0.07
   6  -4 -12   -0.04    0.06
  -6  -4  12    0.03    0.07
  -6   4  12    0.01    0.07
   6   4 -12   -0.05    0.07
   6   4 -12   -0.07    0.07
  -6   4  12    0.04    0.07
  -4  -4  12    0.05    0.06
  -4  -4  12    0.06    0.05
   4  -4 -12    0.01    0.05
  -4  -4  12    0.12    0.06
   4  -4 -12    0.08    0.06
   4   4 -12    0.04    0.07
  -4   4  12    0.13    0.06
  -4   4  12    0.03    0.06
   4   4 -12    0.06    0.07
   2  -4 -12   16.91    0.38
  -2  -4  12   17.09    0.34
   2  -4 -12   17.21    0.43
  -2  -4  12   16.43    0.39
  -2  -4  12   17.48    0.37
   2   4 -12   16.85    0.37
  -2   4  12   17.41    0.38
   2   4 -12   16.61    0.44
   2   4 -12   17.30    0.35
  -2   4  12   16.97    0.40
   0  -4  12   17.00    0.38
   0  -4  12   16.89    0.34
   0  -4 -12   16.98    0.41
   0  -4  12   16.91    0.37
   0  -4 -12   16.70    0.39
   0   4 -12   17.65    0.45
   0   4 -12   16.92    0.37
   0   4  12   16.20    0.39
   0   4  12   16.80    0.37
   2  -4  12   14.59    0.34
  -2  -4 -12   14.61    0.39
   2  -4  12   15.24    0.37
  -2  -4 -12   15.16    0.38
   2  -4  12   15.27    0.35
   2   4  12   15.05    0.37
  -2   4 -12   15.86    0.38
   2   4  12   14.85    0.35
  -2   4 -12   15.00    0.42
   4  -4  12    1.24    0.13
   4  -4  12    1.41    0.14
   4  -4  12    1.43    0.13
  -4  -4 -12    1.37    0.13
  -4  -4 -12    1.22    0.14
  -4   4 -12    1.89    0.17
  -4   4 -12    1.66    0.17
  -4   4 -12    1.52    0.16
   4   4  12    1.52    0.14
   4   4  12    1.57    0.15
  -6  -4 -12    2.61    0.20
   6  -4  12    2.51    0.19
   6  -4  12    2.57    0.19
   6  -4  12    2.49    0.19
  -6   4 -12    2.70    0.22
   6   4  12    2.31    0.18
  -6   4 -12    2.66    0.20
   6   4  12    2.69    0.19
  -8  -4 -12    8.98    0.37
   8  -4  12    9.28    0.36
   8  -4  12    9.06    0.36
  -8   4 -12    8.59    0.36
   8   4  12    9.38    0.36
  -8   4 -12    8.68    0.38
  -9  -5  12    1.86    0.20
   9  -5 -12    1.77    0.20
  -9  -5  12    1.56    0.18
   9   5 -12    1.80    0.23
   7  -5 -12    3.66    0.22
  -7  -5  12    3.43    0.21
   7  -5 -12    3.64    0.24
  -7  -5  12    3.18    0.22
  -7   5  12    3.46    0.22
   7   5 -12    3.60    0.23
   7   5 -12    3.27    0.23
  -7   5  12    3.24    0.22
  -5  -5  12   -0.02    0.07
   5  -5 -12    0.09    0.08
  -5  -5  12    0.12    0.08
   5   5 -12   -0.09    0.07
  -5   5  12    0.12    0.07
   5   5 -12   -0.06    0.08
  -5   5  12    0.05    0.06
  -3  -5  12    5.45    0.23
   3  -5 -12    5.48    0.25
   3  -5 -12    5.41    0.22
  -3  -5  12    5.38    0.22
   3   5 -12    5.03    0.22
  -3   5  12    5.05    0.22
  -3   5  12    5.48    0.21
   3   5 -12    4.82    0.25
  -1  -5  12   10.85    0.31
   1  -5 -12   10.71    0.31
  -1  -5  12   10.61    0.31
   1   5 -12   10.64    0.29
   1   5 -12   10.33    0.36
  -1   5  12   10.99    0.29
  -1   5  12   10.85    0.32
   1  -5  12    0.05    0.06
   1  -5  12   -0.01    0.06
  -1  -5 -12   -0.01    0.06
  -1  -5 -12    0.01    0.06
  -1   5 -12    0.07    0.08
  -1   5 -12   -0.05    0.06
   1   5  12    0.11    0.06
   1   5  12    0.00    0.05
   3  -5  12    4.36    0.21
  -3  -5 -12    4.42    0.22
   3  -5  12    4.75    0.21
  -3  -5 -12    4.56    0.24
   3   5  12    4.61    0.22
   3   5  12    4.00    0.18
  -3   5 -12    4.32    0.24
  -3   5 -12    4.32    0.22
  -5  -5 -12    1.70    0.18
   5  -5  12    1.90    0.17
   5  -5  12    2.01    0.18
  -5   5 -12    1.99    0.19
   5   5  12    2.18    0.18
   7  -5  12    0.05    0.09
  -7  -5 -12   -0.01    0.10
   7  -5  12    0.05    0.09
   7   5  12   -0.01    0.09
  -7   5 -12    0.00    0.10
  -7   5 -12    0.06    0.11
  -8  -6  12    3.76    0.26
   8  -6 -12    3.52    0.26
  -8  -6  12    3.52    0.24
   8   6 -12    3.50    0.28
  -8   6  12    3.65    0.25
   6  -6 -12   34.83    0.74
  -6  -6  12   34.69    0.73
  -6  -6  12   33.67    0.70
  -6   6  12   33.99    0.71
   6   6 -12   33.96    0.76
   6   6 -12   32.56    0.76
  -4  -6  12    1.66    0.16
  -4  -6  12    1.72    0.16
   4  -6 -12    2.08    0.15
   4   6 -12    1.50    0.18
   4   6 -12    1.48    0.16
  -4   6  12    1.72    0.16
  -2  -6  12    0.57    0.10
   2  -6 -12    0.64    0.11
  -2  -6  12    0.53    0.10
  -2   6  12    0.42    0.10
   2   6 -12    0.48    0.12
   0  -6 -12    5.06    0.24
   0  -6  12    4.52    0.22
   0  -6  12    4.87    0.22
   0   6  12    4.38    0.23
   0   6 -12    4.65    0.22
   0   6 -12    4.82    0.27
  -2  -6 -12    1.96    0.19
   2  -6  12    2.70    0.18
   2  -6  12    2.09    0.17
  -2   6 -12    2.13    0.19
   2   6  12    2.24    0.18
  -2   6 -12    2.41    0.23
  -4  -6 -12    5.95    0.29
   4  -6  12    5.93    0.27
   4  -6  12    6.70    0.28
  -4   6 -12    6.29    0.29
   4   6  12    6.41    0.28
   6  -6  12    2.76    0.24
  -6  -6 -12    1.83    0.20
   6  -6  12    1.67    0.18
   6   6  12    2.53    0.22
  -6   6 -12    1.98    0.21
   7  -7 -12    0.14    0.12
  -7  -7  12   -0.02    0.11
  -7  -7  12    0.14    0.10
   7  -7 -12    0.05    0.10
  -7   7  12    0.18    0.11
   7   7 -12    0.04    0.12
  -5  -7  12    0.47    0.12
  -5  -7  12    0.26    0.13
  -5   7  12    0.44    0.12
   5   7 -12    0.34    0.13
   5   7 -12    0.41    0.14
   3  -7 -12    1.74    0.17
  -3  -7  12    2.03    0.18
  -3  -7  12    1.93    0.19
  -3   7  12    2.26    0.19
   3   7 -12    1.88    0.22
  -1  -7  12    2.21    0.18
  -1  -7  12    2.53    0.19
   1  -7 -12    2.73    0.20
   1   7 -12    2.48    0.25
  -1   7  12    2.42    0.20
   1   7 -12    2.75    0.19
   1  -7  12    0.05    0.08
  -1  -7 -12    0.01    0.09
   1  -7  12   -0.07    0.07
  -1   7 -12    0.05    0.08
   1   7  12    0.07    0.09
  -1   7 -12    0.02    0.11
   3  -7  12    1.75    0.18
  -3  -7 -12    1.54    0.20
   3  -7  12    2.10    0.20
   3   7  12    1.84    0.20
  -3   7 -12    1.90    0.20
   5  -7  12    1.53    0.18
   5  -7  12    1.43    0.18
  -5  -7 -12    1.18    0.19
   5   7  12    1.36    0.19
  -5   7 -12    1.29    0.18
   4  -8 -12    4.17    0.25
  -4  -8  12    4.43    0.24
  -4  -8  12    4.01    0.27
  -4   8  12    3.99    0.26
  -2  -8  12    0.08    0.09
  -2  -8  12    0.10    0.09
   2  -8 -12    0.14    0.12
  -2   8  12    0.02    0.09
   0  -8  12    0.62    0.12
   0   8 -12    0.83    0.14
  -2  -8 -12    6.99    0.34
   2  -8  12    8.04    0.32
   2  -8  12    7.81    0.33
  10   0 -13    0.11    0.10
 -10   0  13    0.03    0.09
   8   0 -13    0.02    0.07
  -8   0  13   -0.06    0.07
  -8   0  13   -0.08    0.07
  -6   0  13    0.00    0.06
   6   0 -13    0.06    0.06
   6   0 -13    0.02    0.07
  -6   0  13   -0.07    0.06
  -4   0  13    0.05    0.05
  -4   0  13   -0.04    0.04
   4   0 -13   -0.04    0.05
   4   0 -13    0.01    0.05
   2   0 -13    0.00    0.05
   2   0 -13   -0.01    0.03
   2   0 -13    0.03    0.05
  -2   0  13   -0.07    0.04
  -2   0  13    0.01    0.04
  -2   0  13    0.01    0.04
   0   0  13    0.42    0.07
   0   0 -13    0.37    0.08
   2   0  13    0.01    0.03
  -2   0 -13   -0.02    0.05
   2   0  13    0.05    0.04
  -2   0 -13   -0.08    0.05
   2   0  13    0.04    0.05
   4   0  13    0.00    0.05
   4   0  13    0.01    0.06
  -4   0 -13    0.03    0.05
  -4   0 -13    0.05    0.05
  -4   0 -13    0.04    0.06
  -6   0 -13   -0.07    0.06
   6   0  13    0.05    0.06
  -6   0 -13   -0.01    0.07
   6   0  13   -0.10    0.06
   8   0  13   -0.03    0.08
   8   0  13    0.07    0.09
  -8   0 -13    0.05    0.09
  -8   0 -13    0.04    0.08
 -11  -1  13    9.13    0.37
  11  -1 -13    9.10    0.39
  11   1 -13    9.15    0.41
 -11   1  13    8.33    0.36
   9  -1 -13    9.39    0.37
  -9  -1  13    9.46    0.35
  -9  -1  13    9.65    0.35
   9   1 -13    9.42    0.37
  -9   1  13    9.67    0.36
  -9   1  13    9.83    0.34
  -7  -1  13   -0.02    0.06
   7  -1 -13   -0.11    0.06
  -7  -1  13   -0.08    0.06
   7  -1 -13    0.05    0.06
   7   1 -13   -0.07    0.06
  -7   1  13   -0.06    0.06
  -7   1  13    0.00    0.06
   7   1 -13    0.00    0.07
   5  -1 -13   11.30    0.32
   5  -1 -13   11.56    0.34
  -5  -1  13   11.76    0.32
  -5  -1  13   11.12    0.31
   5   1 -13   11.16    0.33
  -5   1  13   11.66    0.30
  -5   1  13   11.29    0.32
   5   1 -13   11.24    0.33
   3  -1 -13   22.47    0.48
  -3  -1  13   23.59    0.45
  -3  -1  13   23.00    0.39
   3  -1 -13   22.98    0.49
  -3  -1  13   24.16    0.46
   3   1 -13   23.19    0.50
  -3   1  13   23.24    0.46
  -3   1  13   23.09    0.43
   3   1 -13   22.98    0.47
  -3   1  13   21.95    0.45
  -1  -1  13   23.22    0.44
  -1  -1  13   23.72    0.37
  -1  -1  13   23.05    0.44
   1  -1 -13   22.51    0.48
   1  -1 -13   22.72    0.42
  -1   1  13   23.61    0.41
  -1   1  13   23.21    0.45
   1   1 -13   22.96    0.49
  -1   1  13   22.98    0.43
   1   1 -13   23.19    0.41
   1   1 -13   22.78    0.43
   1  -1  13   78.47    1.07
  -1  -1 -13   77.30    1.18
   1  -1  13   79.69    1.13
   1  -1  13   78.55    1.15
  -1  -1 -13   78.53    1.15
  -1   1 -13   77.94    1.19
  -1   1 -13   79.78    1.08
   1   1  13   75.44    1.15
  -1   1 -13   77.63    1.14
   1   1  13   79.44    1.11
   1   1  13   77.79    1.08
   3  -1  13    0.88    0.10
  -3  -1 -13    0.89    0.11
   3  -1  13    0.94    0.11
  -3  -1 -13    0.75    0.10
  -3   1 -13    0.80    0.10
   3   1  13    1.01    0.08
   3   1  13    0.96    0.11
  -3   1 -13    0.83    0.10
   3   1  13    0.86    0.08
  -3   1 -13    0.90    0.10
  -5  -1 -13    1.99    0.18
   5  -1  13    2.13    0.18
   5  -1  13    2.08    0.15
  -5   1 -13    1.61    0.15
   5   1  13    2.03    0.13
  -5   1 -13    1.86    0.15
   5   1  13    1.82    0.17
   7  -1  13   -0.01    0.08
   7  -1  13    0.18    0.10
  -7  -1 -13    0.18    0.10
  -7   1 -13    0.11    0.08
  -7   1 -13    0.06    0.08
   7   1  13    0.13    0.09
  -9  -1 -13    1.96    0.22
   9  -1  13    2.27    0.21
   9  -1  13    2.19    0.23
  -9   1 -13    1.85    0.20
  -9   1 -13    2.12    0.22
   9   1  13    1.91    0.20
  10  -2 -13    9.24    0.38
 -10  -2  13    9.07    0.36
 -10   2  13    9.27    0.35
  10   2 -13    8.75    0.39
  -8  -2  13    1.65    0.18
   8  -2 -13    1.35    0.17
   8  -2 -13    1.61    0.15
  -8  -2  13    1.70    0.17
  -8  -2  13    1.55    0.15
   8   2 -13    1.52    0.19
  -8   2  13    1.71    0.17
  -8   2  13    1.56    0.16
  -6  -2  13   63.61    1.05
   6  -2 -13   65.04    1.06
   6  -2 -13   65.63    1.10
  -6  -2  13   65.65    1.04
  -6  -2  13   64.21    0.99
   6   2 -13   64.75    1.07
  -6   2  13   65.21    1.07
   6   2 -13   64.23    1.09
  -6   2  13   65.42    1.02
   4  -2 -13    0.69    0.10
  -4  -2  13    0.62    0.07
  -4  -2  13    0.76    0.10
   4  -2 -13    0.54    0.10
  -4  -2  13    0.68    0.09
  -4   2  13    0.69    0.10
  -4   2  13    0.64    0.10
   4   2 -13    0.67    0.10
  -4   2  13    0.69    0.08
   4   2 -13    0.57    0.10
  -2  -2  13    5.95    0.17
   2  -2 -13    5.99    0.18
  -2  -2  13    5.80    0.19
  -2  -2  13    5.72    0.20
   2  -2 -13    5.67    0.22
   2   2 -13    5.92    0.16
   2   2 -13    5.44    0.23
  -2   2  13    5.88    0.17
   2   2 -13    5.73    0.20
  -2   2  13    5.93    0.21
  -2   2  13    5.88    0.20
   0  -2  13    0.00    0.05
   0  -2 -13   -0.02    0.04
   0  -2 -13   -0.03    0.05
   0  -2  13    0.05    0.05
   0  -2  13   -0.01    0.03
   0   2  13    0.09    0.04
   0   2  13    0.05    0.05
   0   2 -13    0.09    0.06
   0   2 -13    0.04    0.03
   0   2 -13    0.07    0.04
   0   2  13    0.09    0.05
   2  -2  13   12.48    0.32
  -2  -2 -13   13.30    0.34
   2  -2  13   13.14    0.32
   2  -2  13   13.14    0.29
  -2  -2 -13   12.85    0.33
   2   2  13   13.05    0.30
  -2   2 -13   13.33    0.33
   2   2  13   13.12    0.33
  -2   2 -13   13.32    0.36
   4  -2  13    0.69    0.10
   4  -2  13    0.72    0.11
   4  -2  13    0.66    0.09
  -4  -2 -13    0.63    0.09
  -4  -2 -13    0.78    0.12
  -4   2 -13    0.73    0.11
   4   2  13    0.82    0.12
  -4   2 -13    0.58    0.10
   4   2  13    0.69    0.08
  -4   2 -13    0.65    0.10
   6  -2  13    9.59    0.31
  -6  -2 -13    8.78    0.32
   6  -2  13    9.37    0.33
  -6   2 -13    8.97    0.32
   6   2  13    9.50    0.33
  -6   2 -13    9.20    0.33
   8  -2  13    2.18    0.21
   8  -2  13    2.72    0.21
  -8  -2 -13    2.39    0.23
  -8   2 -13    2.55    0.23
  -8   2 -13    2.61    0.23
   8   2  13    2.50    0.21
   9  -3 -13    0.14    0.10
  -9  -3  13    0.11    0.09
  -9  -3  13    0.02    0.09
  -9   3  13    0.09    0.09
   9   3 -13    0.04    0.10
   7  -3 -13    6.09    0.26
  -7  -3  13    6.03    0.25
  -7  -3  13    6.25    0.27
   7  -3 -13    5.74    0.28
  -7  -3  13    6.26    0.25
   7   3 -13    6.56    0.28
  -7   3  13    6.14    0.24
   7   3 -13    6.74    0.29
  -7   3  13    6.35    0.27
  -5  -3  13    6.76    0.23
  -5  -3  13    6.67    0.25
   5  -3 -13    7.12    0.27
   5  -3 -13    6.76    0.28
  -5  -3  13    6.76    0.23
   5   3 -13    6.79    0.28
  -5   3  13    6.94    0.26
   5   3 -13    6.81    0.27
  -5   3  13    7.22    0.26
  -5   3  13    6.86    0.22
  -3  -3  13    3.11    0.15
   3  -3 -13    3.14    0.14
   3  -3 -13    3.07    0.18
  -3  -3  13    3.26    0.15
  -3  -3  13    2.97    0.16
   3   3 -13    3.31    0.17
   3   3 -13    2.96    0.19
  -3   3  13    2.87    0.16
  -3   3  13    2.83    0.16
   1  -3 -13   22.30    0.49
  -1  -3  13   21.94    0.42
   1  -3 -13   21.81    0.44
  -1  -3  13   22.03    0.42
  -1  -3  13   22.75    0.46
   1   3 -13   22.59    0.52
   1   3 -13   21.84    0.42
  -1   3  13   22.67    0.45
  -1   3  13   21.89    0.45
   1   3 -13   22.65    0.42
  -1  -3 -13   35.97    0.65
   1  -3  13   35.15    0.63
   1  -3  13   35.21    0.61
  -1  -3 -13   35.04    0.66
   1  -3  13   35.37    0.60
  -1   3 -13   35.18    0.62
  -1   3 -13   34.35    0.69
   1   3  13   35.94    0.63
   1   3  13   35.65    0.63
   3  -3  13    7.50    0.25
  -3  -3 -13    7.59    0.25
  -3  -3 -13    7.27    0.27
   3  -3  13    7.70    0.26
   3  -3  13    7.58    0.24
   3   3  13    7.71    0.26
  -3   3 -13    7.70    0.27
  -3   3 -13    7.48    0.28
   3   3  13    7.74    0.24
  -5  -3 -13    9.16    0.33
   5  -3  13    9.00    0.31
   5  -3  13    9.08    0.31
   5  -3  13    9.26    0.30
   5   3  13    8.76    0.30
   5   3  13    9.19    0.31
  -5   3 -13    9.16    0.32
  -5   3 -13    9.08    0.33
   7  -3  13    2.54    0.19
  -7  -3 -13    2.60    0.21
   7  -3  13    2.52    0.20
  -7   3 -13    2.69    0.23
   7   3  13    2.54    0.22
  -7   3 -13    2.51    0.22
  10  -4 -13    0.22    0.12
 -10  -4  13    0.15    0.11
 -10  -4  13    0.43    0.13
  -8  -4  13   13.58    0.42
  -8  -4  13   14.02    0.42
   8  -4 -13   14.22    0.45
   8  -4 -13   13.36    0.41
   8   4 -13   14.15    0.47
  -8   4  13   14.11    0.43
   6  -4 -13   22.32    0.56
  -6  -4  13   22.68    0.51
   6  -4 -13   22.78    0.54
  -6  -4  13   22.76    0.53
  -6   4  13   22.24    0.52
  -6   4  13   22.35    0.52
   6   4 -13   22.39    0.56
   6   4 -13   23.15    0.56
  -4  -4  13   17.21    0.42
   4  -4 -13   16.29    0.43
  -4  -4  13   17.10    0.40
   4   4 -13   17.33    0.43
  -4   4  13   17.53    0.41
  -4   4  13   16.51    0.42
   4   4 -13   17.44    0.47
  -2  -4  13    1.38    0.13
   2  -4 -13    1.52    0.13
   2  -4 -13    1.46    0.15
  -2  -4  13    1.45    0.11
  -2  -4  13    1.53    0.12
  -2   4  13    1.37    0.13
  -2   4  13    1.47    0.12
   2   4 -13    1.39    0.11
   2   4 -13    1.58    0.11
   2   4 -13    1.39    0.15
   0  -4  13    8.56    0.23
   0  -4  13    8.46    0.25
   0  -4  13    7.78    0.26
   0  -4 -13    8.02    0.28
   0  -4 -13    8.39    0.27
   0   4 -13    8.20    0.31
   0   4  13    8.04    0.25
   0   4  13    8.24    0.26
   0   4 -13    7.88    0.25
   2  -4  13    3.60    0.19
  -2  -4 -13    3.80    0.19
  -2  -4 -13    3.65    0.20
   2  -4  13    3.67    0.17
   2  -4  13    3.62    0.17
   2   4  13    3.95    0.18
   2   4  13    3.63    0.18
  -2   4 -13    3.40    0.18
  -2   4 -13    3.26    0.21
  -4  -4 -13    0.06    0.09
  -4  -4 -13    0.15    0.07
   4  -4  13    0.08    0.07
   4  -4  13   -0.02    0.06
   4  -4  13    0.02    0.06
   4   4  13    0.10    0.07
  -4   4 -13   -0.01    0.07
   4   4  13    0.09    0.07
  -4   4 -13    0.06    0.07
   6  -4  13   -0.03    0.07
  -6  -4 -13   -0.02    0.08
   6  -4  13   -0.02    0.08
   6  -4  13   -0.11    0.07
   6   4  13    0.04    0.09
  -6   4 -13    0.14    0.09
  -6   4 -13   -0.07    0.09
  -8  -4 -13   22.09    0.60
   8  -4  13   21.75    0.58
   8  -4  13   22.04    0.58
   8   4  13   21.51    0.57
  -8   4 -13   22.05    0.63
  -8   4 -13   22.90    0.61
  -9  -5  13   10.70    0.40
  -9  -5  13   12.02    0.42
   9  -5 -13   11.56    0.43
   9   5 -13   12.23    0.48
   7  -5 -13    0.57    0.13
  -7  -5  13    0.20    0.09
  -7  -5  13    0.27    0.11
   7  -5 -13    0.23    0.09
  -7   5  13    0.28    0.10
  -7   5  13    0.35    0.11
   7   5 -13    0.34    0.11
   7   5 -13    0.35    0.12
   5  -5 -13    2.93    0.20
  -5  -5  13    3.01    0.20
  -5  -5  13    3.11    0.20
   5   5 -13    3.34    0.23
  -5   5  13    3.41    0.20
   5   5 -13    3.23    0.21
  -5   5  13    2.66    0.18
   3  -5 -13    2.84    0.16
  -3  -5  13    2.77    0.18
   3  -5 -13    3.05    0.20
  -3  -5  13    3.04    0.18
  -3   5  13    2.89    0.18
   3   5 -13    3.28    0.23
  -3   5  13    3.02    0.17
   1  -5 -13    1.71    0.15
  -1  -5  13    1.32    0.13
  -1  -5  13    1.76    0.16
   1  -5 -13    1.36    0.14
  -1   5  13    1.58    0.12
  -1   5  13    1.76    0.15
   1   5 -13    1.56    0.14
   1   5 -13    1.45    0.17
   1  -5  13   10.21    0.30
  -1  -5 -13    9.99    0.34
   1  -5  13    9.87    0.31
  -1  -5 -13    9.77    0.33
  -1   5 -13    9.55    0.31
   1   5  13    9.80    0.31
  -1   5 -13    9.82    0.36
   1   5  13    9.38    0.27
   3  -5  13   13.85    0.39
   3  -5  13   14.28    0.38
  -3  -5 -13   15.31    0.40
  -3  -5 -13   13.91    0.42
   3   5  13   14.15    0.36
   3   5  13   14.25    0.39
  -3   5 -13   14.19    0.44
  -3   5 -13   13.68    0.40
   5  -5  13    5.78    0.26
  -5  -5 -13    5.22    0.28
   5  -5  13    5.23    0.26
   5   5  13    5.81    0.26
  -5   5 -13    5.36    0.27
  -7  -5 -13    8.47    0.37
   7  -5  13    8.23    0.37
   7  -5  13    8.82    0.35
  -7   5 -13    7.49    0.35
  -7   5 -13    8.23    0.39
  -8  -6  13    0.51    0.13
  -8  -6  13    0.43    0.13
   8  -6 -13    0.63    0.15
  -8   6  13    0.49    0.13
   8   6 -13    0.71    0.16
   6  -6 -13    6.28    0.30
  -6  -6  13    6.02    0.29
  -6  -6  13    5.83    0.28
   6   6 -13    6.00    0.32
   6   6 -13    5.54    0.30
  -6   6  13    6.04    0.28
  -4  -6  13    1.44    0.16
   4  -6 -13    1.31    0.17
  -4  -6  13    1.40    0.15
   4   6 -13    1.24    0.18
  -4   6  13    1.43    0.16
  -2  -6  13    0.79    0.12
  -2  -6  13    1.08    0.14
   2  -6 -13    1.31    0.15
   2   6 -13    0.92    0.16
  -2   6  13    0.86    0.13
   0  -6  13    0.16    0.07
   0  -6  13    0.21    0.09
   0  -6 -13    0.43    0.11
   0   6 -13    0.21    0.11
   0   6  13    0.23    0.09
   0   6 -13    0.27    0.09
   2  -6  13   -0.13    0.07
  -2  -6 -13   -0.05    0.08
  -2  -6 -13    0.01    0.08
   2  -6  13   -0.01    0.07
  -2   6 -13   -0.05    0.07
  -2   6 -13   -0.08    0.08
   2   6  13    0.00    0.07
   4  -6  13    3.33    0.21
  -4  -6 -13    3.11    0.23
   4  -6  13    3.60    0.22
   4   6  13    3.33    0.22
  -4   6 -13    2.96    0.24
  -4   6 -13    3.50    0.24
   6  -6  13    0.06    0.09
  -6  -6 -13   -0.14    0.10
  -6   6 -13    0.12    0.11
   6   6  13    0.01    0.10
  -5  -7  13    4.58    0.26
  -5  -7  13    4.54    0.29
   5  -7 -13    4.01    0.27
  -5   7  13    4.63    0.26
   5   7 -13    4.31    0.30
  -3  -7  13   -0.03    0.09
  -3  -7  13   -0.03    0.07
   3  -7 -13    0.07    0.09
   3   7 -13   -0.06    0.10
  -3   7  13   -0.05    0.08
   1  -7 -13    4.32    0.25
  -1  -7  13    4.24    0.23
  -1  -7  13    4.19    0.24
   1   7 -13    3.83    0.28
  -1   7  13    4.34    0.24
   1  -7  13    2.89    0.21
  -1  -7 -13    3.07    0.23
   1  -7  13    2.94    0.21
  -1   7 -13    2.96    0.22
   1   7  13    3.41    0.22
  -1   7 -13    2.38    0.24
  -3  -7 -13   -0.05    0.09
   3  -7  13    0.07    0.09
   3  -7  13   -0.11    0.08
  -3  -7 -13   -0.11    0.09
   3   7  13    0.07    0.10
  -3   7 -13   -0.09    0.09
   2  -8 -13    0.64    0.14
  -2  -8  13    0.44    0.12
  -2  -8  13    0.56    0.13
  -2   8  13    0.43    0.12
   0  -8  13    1.64    0.18
   0  -8  13    1.98    0.19
   0  -8 -13    2.51    0.25
   0   8 -13    1.77    0.19
  10   0 -14   30.44    0.74
 -10   0  14   30.28    0.69
   8   0 -14    1.28    0.17
  -8   0  14    1.39    0.16
  -8   0  14    1.29    0.15
   8   0 -14    1.05    0.13
  -6   0  14    0.08    0.07
  -6   0  14    0.21    0.08
   6   0 -14    0.12    0.07
   6   0 -14    0.26    0.09
  -4   0  14   30.31    0.58
  -4   0  14   31.59    0.57
   4   0 -14   30.59    0.61
   4   0 -14   30.89    0.61
   2   0 -14   25.08    0.52
  -2   0  14   24.51    0.47
  -2   0  14   24.33    0.48
  -2   0  14   24.88    0.46
   2   0 -14   25.14    0.43
   2   0 -14   25.33    0.50
   0   0 -14    9.57    0.30
   0   0  14   10.08    0.28
   0   0 -14    9.83    0.26
   0   0  14   10.26    0.25
   0   0  14   10.08    0.24
   2   0  14   57.25    0.94
  -2   0 -14   59.40    0.95
  -2   0 -14   58.16    0.94
   2   0  14   60.01    0.89
   4   0  14   40.99    0.76
   4   0  14   40.78    0.69
  -4   0 -14   42.59    0.73
  -4   0 -14   40.86    0.76
  -6   0 -14    3.87    0.22
   6   0  14    3.83    0.23
   6   0  14    4.15    0.20
   8   0  14    3.15    0.24
  -8   0 -14    3.23    0.24
 -11   1  14    1.20    0.17
  -9  -1  14    6.38    0.30
   9  -1 -14    7.32    0.33
  -9  -1  14    7.13    0.31
  -9   1  14    7.08    0.30
  -9   1  14    7.59    0.32
   9   1 -14    7.84    0.35
  -7  -1  14    8.83    0.31
   7  -1 -14    8.60    0.29
   7  -1 -14    8.21    0.32
  -7  -1  14    8.75    0.30
  -7   1  14    8.68    0.31
  -7   1  14    8.22    0.29
   7   1 -14    8.84    0.33
   7   1 -14    8.55    0.30
   5  -1 -14    0.17    0.08
  -5  -1  14    0.11    0.06
  -5  -1  14    0.10    0.07
   5  -1 -14    0.10    0.07
   5   1 -14    0.20    0.08
   5   1 -14    0.17    0.07
  -5   1  14    0.13    0.07
  -5   1  14    0.21    0.07
  -3  -1  14    0.55    0.09
  -3  -1  14    0.53    0.08
   3  -1 -14    0.59    0.09
   3  -1 -14    0.66    0.10
   3   1 -14    0.64    0.10
   3   1 -14    0.56    0.09
  -3   1  14    0.52    0.08
  -3   1  14    0.49    0.08
  -3   1  14    0.50    0.08
  -1  -1  14    0.78    0.10
   1  -1 -14    1.29    0.13
   1  -1 -14    0.54    0.07
  -1  -1  14    0.57    0.08
  -1   1  14    0.54    0.07
   1   1 -14    0.57    0.09
  -1   1  14    0.59    0.08
   1   1 -14    0.65    0.07
   1   1 -14    0.59    0.08
  -1   1  14    0.59    0.08
   1  -1  14  199.75    2.61
   1  -1  14  195.46    2.64
  -1  -1 -14  198.43    2.67
  -1  -1 -14  193.60    2.63
  -1   1 -14  200.97    2.69
   1   1  14  197.03    2.58
  -1   1 -14  197.93    2.63
   1   1  14  201.26    2.65
   1   1  14  196.27    2.56
   3  -1  14    3.85    0.19
  -3  -1 -14    3.42    0.18
  -3  -1 -14    3.67    0.18
   3  -1  14    3.56    0.15
   3  -1  14    3.83    0.17
  -3   1 -14    3.98    0.17
   3   1  14    3.47    0.19
   3   1  14    3.74    0.15
  -3   1 -14    3.56    0.18
  -3   1 -14    3.62    0.18
   5  -1  14    0.68    0.12
   5  -1  14    0.69    0.11
  -5  -1 -14    0.60    0.12
   5   1  14    0.58    0.11
  -5   1 -14    0.53    0.12
  -5   1 -14    0.77    0.12
  -7  -1 -14    0.74    0.14
   7  -1  14    0.58    0.11
   7  -1  14    0.39    0.12
   7   1  14    0.52    0.13
  -7   1 -14    0.53    0.13
  -7   1 -14    0.42    0.11
  -9  -1 -14   23.14    0.62
   9  -1  14   22.69    0.62
   9  -1  14   23.19    0.57
   9   1  14   23.09    0.62
  -9   1 -14   22.41    0.61
 -10  -2  14    1.37    0.18
  10  -2 -14    0.99    0.18
 -10   2  14    0.98    0.16
  10   2 -14    1.05    0.17
   8  -2 -14   18.70    0.47
   8  -2 -14   18.57    0.52
  -8  -2  14   17.47    0.48
  -8  -2  14   18.61    0.48
  -8   2  14   18.78    0.50
   8   2 -14   18.51    0.53
  -8   2  14   18.40    0.46
   6  -2 -14   42.89    0.79
   6  -2 -14   43.08    0.83
  -6  -2  14   42.77    0.77
  -6  -2  14   42.68    0.78
   6   2 -14   42.37    0.81
  -6   2  14   43.64    0.75
   6   2 -14   43.01    0.81
  -6   2  14   42.70    0.80
  -4  -2  14    6.58    0.22
  -4  -2  14    6.53    0.20
   4  -2 -14    6.81    0.27
  -4  -2  14    6.63    0.24
   4  -2 -14    6.61    0.25
   4   2 -14    6.66    0.25
   4   2 -14    6.72    0.27
  -4   2  14    6.68    0.24
  -4   2  14    6.67    0.21
  -4   2  14    6.34    0.24
  -2  -2  14    5.69    0.21
  -2  -2  14    5.76    0.17
   2  -2 -14    5.64    0.18
   2  -2 -14    5.59    0.23
  -2  -2  14    5.51    0.20
  -2   2  14    5.80    0.21
   2   2 -14    5.76    0.20
  -2   2  14    6.14    0.17
   2   2 -14    5.43    0.24
  -2   2  14    5.95    0.22
   0  -2 -14    1.61    0.12
   0  -2  14    1.69    0.12
   0  -2  14    1.59    0.12
   0  -2 -14    1.65    0.13
   0  -2  14    1.68    0.09
   0   2  14    1.60    0.12
   0   2 -14    1.87    0.12
   0   2 -14    1.70    0.15
   0   2  14    1.48    0.12
   2  -2  14   -0.02    0.05
  -2  -2 -14   -0.09    0.05
  -2  -2 -14    0.06    0.06
   2  -2  14    0.06    0.06
   2  -2  14    0.02    0.05
   2   2  14    0.02    0.04
  -2   2 -14    0.03    0.06
  -2   2 -14   -0.02    0.05
   2   2  14    0.03    0.05
  -4  -2 -14    0.51    0.09
   4  -2  14    0.54    0.10
  -4  -2 -14    0.51    0.11
   4  -2  14    0.53    0.09
   4  -2  14    0.55    0.09
  -4   2 -14    0.39    0.10
  -4   2 -14    0.63    0.11
  -4   2 -14    0.29    0.09
   4   2  14    0.57    0.11
  -6  -2 -14   12.15    0.39
   6  -2  14   11.97    0.36
   6  -2  14   11.89    0.39
  -6   2 -14   12.72    0.39
   6   2  14   12.62    0.39
  -6   2 -14   12.12    0.38
   8  -2  14    1.74    0.20
   8  -2  14    1.64    0.18
  -8  -2 -14    1.88    0.21
  -8   2 -14    1.70    0.20
   8   2  14    1.59    0.20
  -8   2 -14    1.74    0.20
  -9  -3  14    1.87    0.19
   9  -3 -14    2.59    0.24
  -9   3  14    2.26    0.22
   9   3 -14    2.48    0.26
  -9   3  14    2.21    0.20
  -7  -3  14    0.18    0.08
   7  -3 -14    0.07    0.07
   7  -3 -14    0.08    0.09
  -7  -3  14    0.10    0.08
  -7  -3  14    0.04    0.07
  -7   3  14    0.01    0.07
   7   3 -14    0.18    0.09
  -7   3  14    0.04    0.08
   7   3 -14    0.08    0.09
  -5  -3  14   12.46    0.32
   5  -3 -14   12.06    0.37
  -5  -3  14   12.21    0.35
   5  -3 -14   12.24    0.39
  -5  -3  14   12.48    0.33
  -5   3  14   12.34    0.35
  -5   3  14   12.62    0.36
   5   3 -14   12.45    0.37
   5   3 -14   12.96    0.39
  -3  -3  14   11.98    0.30
  -3  -3  14   12.20    0.30
   3  -3 -14   12.53    0.29
  -3  -3  14   11.81    0.33
   3  -3 -14   12.37    0.36
  -3   3  14   11.93    0.33
   3   3 -14   13.03    0.34
   3   3 -14   12.67    0.39
  -3   3  14   12.32    0.34
  -1  -3  14    2.70    0.13
   1  -3 -14    2.80    0.15
  -1  -3  14    2.51    0.14
   1  -3 -14    2.81    0.18
  -1  -3  14    2.71    0.16
  -1   3  14    2.73    0.15
   1   3 -14    2.74    0.19
   1   3 -14    2.83    0.14
  -1   3  14    2.72    0.15
   1  -3  14    0.53    0.09
  -1  -3 -14    0.80    0.11
  -1  -3 -14    0.77    0.11
   1  -3  14    0.82    0.09
   1  -3  14    0.82    0.09
  -1   3 -14    0.71    0.12
   1   3  14    0.72    0.10
   1   3  14    0.72    0.10
  -1   3 -14    0.66    0.09
   3  -3  14   15.45    0.36
  -3  -3 -14   14.96    0.38
  -3  -3 -14   15.05    0.41
   3  -3  14   15.16    0.38
   3  -3  14   15.26    0.38
   3   3  14   15.54    0.37
   3   3  14   14.92    0.39
  -3   3 -14   14.60    0.39
  -3   3 -14   14.91    0.41
   5  -3  14   13.20    0.37
  -5  -3 -14   13.28    0.41
   5  -3  14   13.45    0.39
   5  -3  14   12.80    0.38
   5   3  14   13.44    0.39
  -5   3 -14   13.30    0.40
  -5   3 -14   13.29    0.41
   7  -3  14    3.52    0.24
  -7  -3 -14    3.47    0.24
   7  -3  14    3.58    0.23
   7   3  14    3.49    0.24
  -7   3 -14    3.88    0.24
  -7   3 -14    3.78    0.25
  -8  -4  14    0.89    0.14
   8  -4 -14    0.49    0.11
  -8  -4  14    0.57    0.13
   8  -4 -14    0.58    0.13
   8   4 -14    0.64    0.15
  -8   4  14    0.93    0.15
  -6  -4  14    1.69    0.17
   6  -4 -14    1.63    0.17
   6  -4 -14    1.79    0.19
  -6  -4  14    1.52    0.16
  -6   4  14    1.45    0.16
   6   4 -14    1.43    0.17
  -6   4  14    1.43    0.15
   6   4 -14    1.55    0.18
  -4  -4  14    1.00    0.12
   4  -4 -14    1.10    0.14
  -4  -4  14    1.02    0.13
   4   4 -14    0.96    0.14
  -4   4  14    1.15    0.13
  -4   4  14    1.19    0.14
   4   4 -14    1.25    0.14
  -2  -4  14   12.34    0.34
   2  -4 -14   12.00    0.32
  -2  -4  14   11.78    0.29
   2  -4 -14   12.22    0.37
  -2  -4  14   12.15    0.31
  -2   4  14   12.30    0.34
   2   4 -14   11.78    0.39
  -2   4  14   11.00    0.31
   0  -4  14    0.06    0.06
   0  -4 -14    0.04    0.07
   0  -4  14    0.11    0.06
   0  -4 -14    0.15    0.08
   0  -4  14    0.06    0.05
   0   4  14    0.09    0.06
   0   4 -14    0.02    0.03
   0   4  14    0.05    0.05
   0   4 -14    0.05    0.08
   2  -4  14    7.19    0.25
  -2  -4 -14    7.38    0.28
   2  -4  14    7.40    0.27
   2  -4  14    7.55    0.24
  -2  -4 -14    7.36    0.28
   2   4  14    7.48    0.26
   2   4  14    7.27    0.25
  -2   4 -14    7.77    0.31
  -2   4 -14    7.88    0.27
   4  -4  14   10.66    0.32
   4  -4  14   10.39    0.33
   4  -4  14    9.79    0.31
  -4  -4 -14   10.13    0.36
   4   4  14   10.34    0.32
  -4   4 -14   10.04    0.35
  -4   4 -14    9.97    0.34
   4   4  14   10.20    0.32
   6  -4  14    4.44    0.24
  -6  -4 -14    4.47    0.26
   6  -4  14    4.27    0.24
   6  -4  14    4.26    0.25
  -6   4 -14    4.40    0.28
   6   4  14    4.50    0.25
  -6   4 -14    4.68    0.26
  -9  -5  14    0.53    0.14
  -7  -5  14    5.68    0.28
  -7  -5  14    6.05    0.29
   7  -5 -14    6.16    0.32
   7  -5 -14    6.20    0.30
   7   5 -14    6.50    0.31
  -7   5  14    6.15    0.29
  -7   5  14    6.76    0.30
   7   5 -14    6.41    0.31
  -5  -5  14   14.70    0.41
   5  -5 -14   15.26    0.44
  -5  -5  14   14.36    0.41
  -5   5  14   14.37    0.40
   5   5 -14   14.74    0.43
  -5   5  14   14.45    0.42
   5   5 -14   15.20    0.48
   3  -5 -14    2.60    0.20
  -3  -5  14    2.76    0.18
  -3  -5  14    2.69    0.18
   3  -5 -14    2.53    0.16
   3   5 -14    2.51    0.23
  -3   5  14    2.64    0.17
  -3   5  14    2.49    0.17
   1  -5 -14   14.54    0.39
  -1  -5  14   14.75    0.39
  -1  -5  14   14.23    0.37
   1  -5 -14   14.22    0.42
   1   5 -14   14.56    0.46
  -1   5  14   14.54    0.36
  -1   5  14   14.62    0.40
  -1  -5 -14    9.20    0.32
   1  -5  14    9.51    0.31
  -1  -5 -14    8.76    0.32
   1  -5  14    9.37    0.30
  -1   5 -14    9.11    0.30
   1   5  14    9.75    0.32
   1   5  14    9.55    0.29
  -1   5 -14    9.14    0.36
   3  -5  14    3.52    0.21
  -3  -5 -14    3.72    0.23
  -3  -5 -14    3.47    0.20
   3  -5  14    3.75    0.20
  -3   5 -14    3.60    0.24
   3   5  14    3.70    0.21
   3   5  14    3.44    0.19
  -3   5 -14    3.73    0.22
   5  -5  14    1.11    0.15
  -5  -5 -14    0.97    0.16
   5  -5  14    0.89    0.14
   5   5  14    0.93    0.14
  -5   5 -14    1.11    0.16
  -6  -6  14   -0.06    0.10
  -6  -6  14    0.22    0.10
   6  -6 -14   -0.06    0.08
   6   6 -14   -0.05    0.10
  -6   6  14    0.00    0.08
   6   6 -14    0.05    0.10
  -4  -6  14    0.44    0.11
  -4  -6  14    0.49    0.11
   4  -6 -14    0.48    0.12
  -4   6  14    0.51    0.10
   4   6 -14    0.43    0.13
  -2  -6  14    2.72    0.19
  -2  -6  14    2.60    0.18
   2  -6 -14    2.52    0.19
   2  -6 -14    2.52    0.21
  -2   6  14    2.45    0.19
   2   6 -14    2.22    0.22
   0  -6 -14    3.31    0.22
   0  -6  14    3.41    0.21
   0  -6 -14    3.12    0.22
   0  -6  14    3.18    0.21
   0   6  14    3.34    0.21
   0   6 -14    3.21    0.25
   0   6 -14    3.37    0.19
   2  -6  14    2.20    0.18
  -2  -6 -14    2.85    0.22
   2  -6  14    2.20    0.20
  -2  -6 -14    2.45    0.21
  -2   6 -14    2.38    0.21
   2   6  14    2.25    0.19
  -2   6 -14    2.47    0.23
   4  -6  14    0.50    0.12
   4  -6  14    0.38    0.12
  -4  -6 -14    0.14    0.11
   4   6  14    0.27    0.10
  -4   6 -14    0.25    0.12
  -4   6 -14    0.28    0.12
  -5  -7  14    1.10    0.16
  -5  -7  14    0.92    0.17
   5  -7 -14    0.91    0.16
  -5   7  14    1.07    0.16
   5   7 -14    0.85    0.18
  -3  -7  14    0.14    0.09
   3  -7 -14    0.25    0.11
  -3  -7  14    0.16    0.10
   3  -7 -14    0.13    0.10
  -3   7  14    0.13    0.09
   3   7 -14    0.08    0.12
  -1  -7  14    9.65    0.35
   1  -7 -14   10.06    0.39
   1  -7 -14    9.83    0.36
  -1  -7  14    9.87    0.35
  -1   7  14    9.97    0.36
   1   7 -14    9.57    0.42
   1  -7  14   24.33    0.58
  -1  -7 -14   24.78    0.62
   1  -7  14   24.91    0.59
  -1  -7 -14   24.13    0.61
   1   7  14   23.65    0.59
  -1   7 -14   24.49    0.59
  -1   7 -14   24.06    0.67
   3  -7  14    2.75    0.22
  -3  -7 -14    2.61    0.24
  -3  -7 -14    2.53    0.23
   3  -7  14    2.77    0.21
   3   7  14    2.06    0.20
  -3   7 -14    2.28    0.22
  10   0 -15    0.04    0.11
 -10   0  15   -0.02    0.10
   8   0 -15   -0.02    0.06
  -8   0  15    0.04    0.09
   8   0 -15    0.08    0.09
  -8   0  15    0.09    0.09
  -6   0  15   -0.04    0.06
  -6   0  15    0.05    0.06
   6   0 -15    0.04    0.07
   6   0 -15    0.02    0.08
   4   0 -15    0.07    0.07
  -4   0  15    0.03    0.06
  -4   0  15    0.14    0.06
   4   0 -15   -0.02    0.05
  -2   0  15    0.02    0.05
  -2   0  15   -0.01    0.05
   2   0 -15    0.01    0.06
   2   0 -15   -0.01    0.05
  -2   0  15    0.02    0.05
   0   0  15    0.69    0.09
   2   0  15    0.05    0.06
  -2   0 -15   -0.06    0.05
  -2   0 -15    0.04    0.06
   2   0  15    0.06    0.05
  -4   0 -15    0.00    0.07
  -4   0 -15   -0.10    0.06
   4   0  15   -0.08    0.06
   4   0  15   -0.02    0.06
   6   0  15   -0.12    0.06
   6   0  15   -0.02    0.08
  -6   0 -15    0.00    0.08
   8   0  15    0.06    0.11
  -8   0 -15   -0.05    0.11
  -9  -1  15    0.11    0.10
  -9  -1  15    0.03    0.09
   9  -1 -15    0.10    0.10
   9   1 -15    0.14    0.10
  -9   1  15    0.10    0.09
  -9   1  15    0.11    0.10
  -7  -1  15    0.72    0.12
   7  -1 -15    0.76    0.11
   7  -1 -15    0.59    0.13
  -7  -1  15    0.73    0.12
   7   1 -15    0.72    0.13
  -7   1  15    0.73    0.12
  -7   1  15    0.87    0.13
   7   1 -15    0.97    0.15
   5  -1 -15    6.44    0.26
  -5  -1  15    6.37    0.24
   5  -1 -15    6.42    0.27
  -5  -1  15    6.59    0.25
   5   1 -15    7.03    0.28
  -5   1  15    6.62    0.24
  -5   1  15    6.83    0.26
   5   1 -15    6.95    0.27
  -3  -1  15   28.36    0.55
   3  -1 -15   28.32    0.59
  -3  -1  15   28.40    0.54
   3  -1 -15   29.37    0.59
  -3   1  15   28.35    0.56
  -3   1  15   27.78    0.51
  -3   1  15   28.03    0.55
   3   1 -15   28.12    0.60
   3   1 -15   28.23    0.56
  -1  -1  15   16.10    0.37
   1  -1 -15   16.71    0.42
  -1  -1  15   16.44    0.37
   1  -1 -15   16.83    0.35
   1   1 -15   16.31    0.36
   1   1 -15   16.64    0.42
  -1   1  15   16.76    0.39
  -1   1  15   16.19    0.36
   1   1 -15   16.10    0.34
  -1   1  15   16.26    0.34
   1  -1  15   28.63    0.56
   1  -1  15   29.15    0.53
  -1  -1 -15   28.06    0.55
  -1  -1 -15   28.84    0.58
   1   1  15   28.88    0.56
   1   1  15   28.81    0.51
  -1   1 -15   28.73    0.55
   1   1  15   28.26    0.49
  -1   1 -15   28.28    0.59
   3  -1  15    2.56    0.17
   3  -1  15    2.69    0.15
  -3  -1 -15    2.48    0.16
  -3  -1 -15    2.67    0.17
  -3   1 -15    2.36    0.17
   3   1  15    2.53    0.17
  -3   1 -15    2.57    0.17
  -5  -1 -15    2.14    0.19
   5  -1  15    2.06    0.16
   5  -1  15    1.83    0.17
   5   1  15    2.31    0.18
  -5   1 -15    2.03    0.18
   7  -1  15    3.65    0.25
  -7  -1 -15    3.86    0.24
   7  -1  15    3.76    0.22
  -7   1 -15    3.54    0.23
   7   1  15    3.69    0.25
 -10  -2  15    2.33    0.23
  10  -2 -15    2.27    0.24
  10   2 -15    2.21    0.23
 -10   2  15    2.32    0.21
   8  -2 -15    4.30    0.23
   8  -2 -15    4.33    0.26
  -8  -2  15    4.08    0.24
  -8  -2  15    4.07    0.23
   8   2 -15    3.88    0.26
  -8   2  15    3.91    0.23
  -8   2  15    4.38    0.25
   6  -2 -15   47.64    0.90
   6  -2 -15   45.47    0.87
  -6  -2  15   47.88    0.85
  -6  -2  15   47.25    0.85
   6   2 -15   47.91    0.89
  -6   2  15   47.62    0.87
   6   2 -15   47.30    0.89
  -6   2  15   48.12    0.82
   4  -2 -15    6.99    0.27
  -4  -2  15    6.98    0.25
   4  -2 -15    7.12    0.28
  -4  -2  15    7.29    0.25
  -4   2  15    7.08    0.22
   4   2 -15    7.19    0.29
  -4   2  15    6.89    0.26
   4   2 -15    6.81    0.26
  -4   2  15    6.74    0.25
  -2  -2  15    0.29    0.07
   2  -2 -15    0.38    0.07
   2  -2 -15    0.29    0.09
  -2  -2  15    0.36    0.08
  -2   2  15    0.25    0.08
  -2   2  15    0.24    0.06
   2   2 -15    0.38    0.09
   2   2 -15    0.51    0.08
  -2   2  15    0.37    0.08
   0  -2  15    7.07    0.24
   0  -2 -15    6.76    0.23
   0  -2  15    7.21    0.24
   0  -2 -15    6.63    0.26
   0   2 -15    7.57    0.28
   0   2  15    7.15    0.24
   0   2 -15    6.62    0.22
   0   2  15    7.15    0.23
  -2  -2 -15   22.66    0.50
   2  -2  15   20.97    0.47
   2  -2  15   22.64    0.47
  -2  -2 -15   21.73    0.49
   2  -2  15   21.35    0.42
  -2   2 -15   21.49    0.47
   2   2  15   21.64    0.44
  -2   2 -15   21.43    0.51
   2   2  15   22.42    0.49
   4  -2  15    3.75    0.20
   4  -2  15    3.63    0.19
  -4  -2 -15    3.63    0.21
   4  -2  15    3.90    0.18
  -4  -2 -15    3.37    0.21
  -4   2 -15    3.84    0.21
   4   2  15    3.85    0.21
  -4   2 -15    3.80    0.21
   6  -2  15    0.98    0.13
   6  -2  15    1.00    0.14
  -6  -2 -15    1.14    0.15
  -6   2 -15    0.80    0.13
   6   2  15    1.37    0.17
  -8  -2 -15   38.27    0.85
   8  -2  15   37.82    0.79
   8  -2  15   38.83    0.84
  -8   2 -15   39.23    0.84
   8   2  15   39.64    0.85
  -9  -3  15   19.23    0.54
   9  -3 -15   19.71    0.58
  -9   3  15   18.61    0.54
   9   3 -15   19.03    0.58
  -9   3  15   20.41    0.50
   7  -3 -15    6.01    0.27
  -7  -3  15    5.83    0.26
   7  -3 -15    5.86    0.29
  -7  -3  15    6.05    0.27
   7   3 -15    6.63    0.30
  -7   3  15    5.49    0.27
   7   3 -15    6.47    0.29
  -5  -3  15    1.02    0.12
   5  -3 -15    0.97    0.14
   5  -3 -15    0.87    0.14
  -5  -3  15    1.24    0.14
  -5   3  15    0.81    0.12
  -5   3  15    0.98    0.13
   5   3 -15    0.89    0.13
   5   3 -15    1.15    0.15
  -3  -3  15    3.19    0.18
  -3  -3  15    3.12    0.15
  -3  -3  15    3.15    0.16
   3  -3 -15    3.27    0.19
   3   3 -15    2.94    0.17
  -3   3  15    3.24    0.18
  -3   3  15    3.30    0.18
   3   3 -15    3.18    0.21
   1  -3 -15   24.33    0.49
  -1  -3  15   24.18    0.45
   1  -3 -15   24.22    0.55
  -1  -3  15   24.59    0.48
  -1  -3  15   23.71    0.50
  -1   3  15   24.83    0.51
   1   3 -15   23.95    0.57
  -1   3  15   24.27    0.50
   1   3 -15   23.20    0.49
  -1  -3 -15    2.07    0.16
   1  -3  15    1.74    0.12
  -1  -3 -15    1.94    0.16
   1  -3  15    1.96    0.14
   1  -3  15    1.90    0.14
  -1   3 -15    1.65    0.14
   1   3  15    2.13    0.14
  -1   3 -15    1.75    0.17
   1   3  15    1.76    0.14
  -3  -3 -15    0.14    0.08
   3  -3  15    0.10    0.08
   3  -3  15    0.21    0.08
  -3  -3 -15    0.23    0.07
   3  -3  15    0.10    0.07
  -3   3 -15    0.24    0.09
   3   3  15    0.20    0.08
  -3   3 -15    0.12    0.07
   3   3  15    0.06    0.06
   5  -3  15    0.06    0.08
   5  -3  15    0.02    0.07
  -5  -3 -15   -0.11    0.08
   5  -3  15   -0.02    0.07
   5   3  15    0.06    0.08
  -5   3 -15   -0.14    0.08
  -5   3 -15    0.00    0.09
   7  -3  15    2.16    0.20
   7  -3  15    2.24    0.21
  -7  -3 -15    2.10    0.22
   7  -3  15    2.65    0.20
   7   3  15    2.13    0.21
  -7   3 -15    2.37    0.23
  -7   3 -15    1.83    0.20
   8  -4 -15    0.16    0.11
   8  -4 -15    0.22    0.09
  -8  -4  15    0.23    0.11
  -8   4  15    0.02    0.09
   8   4 -15    0.25    0.13
   6  -4 -15   79.89    1.37
  -6  -4  15   78.41    1.30
  -6  -4  15   80.02    1.26
   6  -4 -15   78.51    1.32
  -6   4  15   79.90    1.30
   6   4 -15   81.41    1.36
   6   4 -15   79.68    1.34
  -6   4  15   79.59    1.31
  -4  -4  15    2.06    0.16
   4  -4 -15    2.41    0.19
  -4  -4  15    2.09    0.17
  -4   4  15    2.34    0.16
  -4   4  15    2.47    0.18
   4   4 -15    2.22    0.21
   4   4 -15    2.30    0.17
  -2  -4  15   -0.02    0.03
  -2  -4  15    0.04    0.06
   2  -4 -15   -0.02    0.05
   2  -4 -15    0.00    0.07
  -2  -4  15    0.07    0.07
  -2   4  15    0.04    0.07
  -2   4  15   -0.05    0.06
   2   4 -15   -0.02    0.08
   0  -4 -15    0.24    0.09
   0  -4  15    0.09    0.07
   0  -4  15    0.21    0.06
   0  -4  15    0.17    0.07
   0  -4 -15    0.20    0.08
   0   4 -15    0.19    0.07
   0   4  15    0.25    0.08
   0   4 -15    0.23    0.10
   0   4  15    0.20    0.08
  -2  -4 -15    3.27    0.21
   2  -4  15    3.48    0.17
   2  -4  15    3.64    0.20
   2  -4  15    3.78    0.18
  -2  -4 -15    3.45    0.20
   2   4  15    3.64    0.19
  -2   4 -15    3.49    0.23
   2   4  15    3.75    0.19
  -2   4 -15    3.44    0.20
   4  -4  15    2.53    0.19
   4  -4  15    2.50    0.18
   4  -4  15    2.67    0.19
  -4  -4 -15    2.66    0.20
  -4   4 -15    2.70    0.21
   4   4  15    2.67    0.18
   4   4  15    2.84    0.19
  -4   4 -15    2.58    0.20
  -6  -4 -15    9.50    0.38
   6  -4  15    9.34    0.35
   6  -4  15    9.66    0.35
   6  -4  15    9.29    0.34
   6   4  15    9.44    0.36
  -6   4 -15    9.99    0.39
  -6   4 -15    9.12    0.36
  -7  -5  15    0.13    0.10
   7  -5 -15    0.23    0.11
   7  -5 -15   -0.03    0.10
  -7  -5  15    0.11    0.10
   7   5 -15    0.05    0.11
  -7   5  15    0.13    0.10
  -7   5  15    0.15    0.11
   7   5 -15    0.30    0.11
   5  -5 -15    1.80    0.19
  -5  -5  15    1.73    0.18
  -5  -5  15    1.63    0.17
   5   5 -15    1.75    0.18
   5   5 -15    1.58    0.20
  -5   5  15    1.53    0.16
  -5   5  15    1.57    0.17
   3  -5 -15    0.15    0.09
  -3  -5  15    0.14    0.09
  -3  -5  15    0.29    0.09
  -3   5  15    0.34    0.09
   3   5 -15    0.11    0.11
  -3   5  15    0.11    0.07
   1  -5 -15    0.32    0.10
  -1  -5  15    0.27    0.09
   1  -5 -15    0.17    0.09
  -1  -5  15    0.17    0.08
  -1   5  15    0.14    0.07
  -1   5  15    0.26    0.09
   1   5 -15    0.16    0.11
  -1  -5 -15    6.61    0.28
   1  -5  15    6.64    0.26
   1  -5  15    6.66    0.25
  -1  -5 -15    6.77    0.29
   1   5  15    7.11    0.28
   1   5  15    6.66    0.25
  -1   5 -15    7.23    0.33
  -1   5 -15    6.48    0.26
  -3  -5 -15    1.25    0.16
  -3  -5 -15    0.87    0.13
   3  -5  15    1.09    0.14
   3  -5  15    0.91    0.14
  -3   5 -15    1.12    0.15
  -3   5 -15    1.07    0.16
   3   5  15    1.04    0.13
   3   5  15    0.85    0.13
  -5  -5 -15    1.63    0.19
   5  -5  15    1.63    0.18
   5  -5  15    1.60    0.17
   5   5  15    1.43    0.16
  -5   5 -15    1.81    0.20
  -6  -6  15    1.78    0.20
  -6  -6  15    1.75    0.20
   6  -6 -15    1.73    0.19
   6   6 -15    1.81    0.21
   6   6 -15    1.55    0.21
  -6   6  15    1.93    0.21
  -4  -6  15    3.12    0.22
  -4  -6  15    3.48    0.23
   4  -6 -15    3.34    0.24
  -4   6  15    3.09    0.22
   4   6 -15    3.34    0.26
   2  -6 -15    9.52    0.33
  -2  -6  15    9.24    0.33
  -2  -6  15    9.54    0.34
   2  -6 -15    9.42    0.37
  -2   6  15    8.73    0.33
   2   6 -15    9.76    0.40
   0  -6  15    6.32    0.27
   0  -6 -15    6.77    0.31
   0  -6 -15    6.27    0.29
   0  -6  15    6.41    0.28
   0   6  15    6.59    0.29
   0   6 -15    5.61    0.32
  -2  -6 -15    0.16    0.10
  -2  -6 -15    0.20    0.11
   2  -6  15    0.10    0.09
   2  -6  15    0.11    0.09
  -2   6 -15    0.16    0.11
  -2   6 -15    0.18    0.10
   2   6  15    0.04    0.10
   4  -6  15   -0.14    0.08
   4  -6  15    0.00    0.09
  -4  -6 -15   -0.11    0.10
   4   6  15    0.01    0.08
  -4   6 -15    0.00    0.09
  -4   6 -15   -0.04    0.11
  -5  -7  15    2.56    0.23
  -5  -7  15    2.42    0.24
   5  -7 -15    2.11    0.25
   5   7 -15    2.47    0.27
  -3  -7  15   11.46    0.40
  -3  -7  15   11.75    0.40
   3  -7 -15   11.53    0.43
  -3   7  15   11.99    0.41
   3   7 -15   12.07    0.48
  -1  -7  15    0.33    0.11
  -1  -7  15    0.59    0.13
   1  -7 -15    0.24    0.12
   1  -7 -15    0.33    0.12
  -1   7  15    0.34    0.11
   1   7 -15    0.56    0.15
  -1  -7 -15    0.16    0.11
   1  -7  15    0.14    0.10
   1  -7  15    0.30    0.11
  -1  -7 -15    0.20    0.12
   1   7  15    0.11    0.10
  -1   7 -15    0.14    0.10
  -1   7 -15    0.10    0.12
  10   0 -16    4.32    0.29
 -10   0  16    3.90    0.26
 -10   0  16    4.07    0.28
  -8   0  16   38.80    0.77
  -8   0  16   37.49    0.78
   8   0 -16   38.20    0.83
   8   0 -16   38.63    0.77
  -6   0  16    8.52    0.29
   6   0 -16    7.46    0.30
  -6   0  16    8.32    0.31
   6   0 -16    8.18    0.32
   4   0 -16   13.43    0.39
  -4   0  16   13.19    0.36
  -4   0  16   13.84    0.35
   4   0 -16   13.69    0.38
  -2   0  16   16.40    0.40
  -2   0  16   16.77    0.38
  -2   0  16   16.80    0.38
   2   0 -16   16.69    0.44
   2   0 -16   16.99    0.40
   0   0  16   33.93    0.65
   0   0 -16   36.23    0.63
   0   0  16   35.98    0.61
   0   0 -16   36.47    0.63
   0   0 -16   35.46    0.70
   0   0  16   36.12    0.62
   2   0  16   27.17    0.50
  -2   0 -16   26.65    0.57
   2   0  16   25.36    0.55
  -2   0 -16   26.25    0.55
   4   0  16    5.03    0.24
  -4   0 -16    5.15    0.24
  -4   0 -16    4.90    0.25
   4   0  16    4.92    0.20
  -6   0 -16    6.18    0.29
   6   0  16    5.74    0.28
   8   0  16   47.34    0.98
  -8   0 -16   49.43    0.99
   9  -1 -16    0.14    0.10
  -9  -1  16    0.11    0.10
  -9  -1  16    0.10    0.10
   9   1 -16    0.04    0.10
  -9   1  16    0.00    0.09
  -9   1  16    0.20    0.12
   7  -1 -16    2.48    0.19
  -7  -1  16    2.57    0.20
   7  -1 -16    2.79    0.22
  -7  -1  16    2.59    0.19
  -7   1  16    2.72    0.21
  -7   1  16    2.33    0.18
   7   1 -16    2.25    0.19
   7   1 -16    2.51    0.23
  -5  -1  16    3.88    0.20
  -5  -1  16    3.96    0.20
   5  -1 -16    4.26    0.23
   5  -1 -16    3.54    0.21
   5   1 -16    3.80    0.22
  -5   1  16    3.57    0.19
   5   1 -16    3.40    0.21
  -5   1  16    3.86    0.20
   3  -1 -16    5.96    0.25
  -3  -1  16    5.79    0.22
  -3  -1  16    5.98    0.23
   3  -1 -16    5.77    0.25
  -3   1  16    5.57    0.22
  -3   1  16    5.28    0.22
  -3   1  16    5.94    0.21
   3   1 -16    5.70    0.23
   3   1 -16    5.85    0.26
   1  -1 -16    0.44    0.07
   1  -1 -16    0.21    0.07
  -1  -1  16    0.14    0.06
  -1  -1  16    0.24    0.07
   1   1 -16    0.19    0.06
   1   1 -16    0.24    0.06
  -1   1  16    0.22    0.07
   1   1 -16    0.16    0.07
  -1   1  16    0.35    0.08
  -1   1  16    0.15    0.06
  -1  -1 -16   60.46    0.97
   1  -1  16   60.42    0.95
   1  -1  16   60.55    0.98
  -1  -1 -16   60.49    1.01
   1   1  16   59.88    0.99
  -1   1 -16   62.62    0.97
   1   1  16   60.60    0.90
   1   1  16   60.77    0.92
  -1   1 -16   58.68    1.03
  -3  -1 -16   10.26    0.33
   3  -1  16   10.09    0.30
   3  -1  16   10.50    0.33
  -3  -1 -16    9.38    0.32
  -3   1 -16    9.32    0.32
  -3   1 -16   10.27    0.34
   3   1  16   10.53    0.33
   5  -1  16    0.18    0.08
   5  -1  16    0.34    0.10
  -5  -1 -16    0.21    0.09
   5   1  16    0.22    0.10
  -5   1 -16    0.35    0.11
  -7  -1 -16   -0.09    0.09
   7  -1  16   -0.05    0.08
   7  -1  16   -0.10    0.09
  -7   1 -16    0.01    0.09
   7   1  16    0.10    0.10
 -10   2  16    5.86    0.32
 -10   2  16    5.95    0.30
  -8  -2  16    0.34    0.11
  -8  -2  16    0.10    0.10
   8  -2 -16    0.14    0.09
   8  -2 -16    0.15    0.10
   8   2 -16    0.09    0.10
  -8   2  16    0.26    0.11
  -8   2  16    0.20    0.09
  -6  -2  16   27.17    0.59
  -6  -2  16   27.76    0.60
   6  -2 -16   28.10    0.65
   6  -2 -16   26.72    0.62
   6   2 -16   27.99    0.63
  -6   2  16   27.67    0.61
   6   2 -16   27.71    0.64
  -6   2  16   28.33    0.57
  -4  -2  16    0.75    0.11
  -4  -2  16    0.86    0.11
   4  -2 -16    0.68    0.12
   4  -2 -16    0.62    0.10
  -4   2  16    0.81    0.12
   4   2 -16    0.78    0.12
  -4   2  16    0.96    0.13
   4   2 -16    0.82    0.14
  -4   2  16    1.09    0.11
  -2  -2  16   10.56    0.30
   2  -2 -16   11.33    0.35
  -2  -2  16   10.41    0.31
   2   2 -16   10.64    0.30
   2   2 -16   11.24    0.37
  -2   2  16   10.78    0.31
  -2   2  16   10.21    0.31
   0  -2 -16    0.56    0.07
   0  -2  16    0.66    0.09
   0  -2 -16    0.54    0.10
   0  -2  16    0.80    0.11
   0   2  16    0.51    0.08
   0   2 -16    0.66    0.09
   0   2 -16    0.62    0.11
   0   2  16    0.55    0.10
   2  -2  16   17.88    0.43
  -2  -2 -16   17.87    0.44
  -2  -2 -16   18.42    0.45
   2  -2  16   17.09    0.41
   2   2  16   17.85    0.39
  -2   2 -16   17.97    0.43
  -2   2 -16   17.48    0.47
   2   2  16   18.53    0.44
  -4  -2 -16   29.49    0.64
   4  -2  16   29.77    0.60
   4  -2  16   29.54    0.63
   4   2  16   28.98    0.63
  -4   2 -16   28.57    0.63
  -4   2 -16   27.89    0.62
   6  -2  16    2.54    0.20
   6  -2  16    2.64    0.21
  -6  -2 -16    2.32    0.21
  -6   2 -16    2.65    0.23
   6   2  16    2.38    0.21
   9  -3 -16    0.17    0.10
  -9  -3  16    0.15    0.10
  -9  -3  16    0.30    0.12
  -9   3  16    0.04    0.12
   9   3 -16    0.47    0.14
  -7  -3  16    0.95    0.14
   7  -3 -16    0.75    0.14
  -7  -3  16    1.26    0.16
   7  -3 -16    0.90    0.14
   7   3 -16    0.77    0.14
   7   3 -16    1.46    0.18
  -7   3  16    0.91    0.14
   5  -3 -16    0.24    0.10
   5  -3 -16    0.20    0.09
  -5  -3  16    0.19    0.08
  -5  -3  16    0.24    0.09
   5   3 -16    0.23    0.10
  -5   3  16    0.40    0.11
  -5   3  16    0.18    0.10
   5   3 -16    0.18    0.09
  -3  -3  16    0.42    0.09
  -3  -3  16    0.43    0.09
   3  -3 -16    0.31    0.10
   3   3 -16    0.47    0.12
  -3   3  16    0.51    0.10
  -3   3  16    0.58    0.10
   3   3 -16    0.45    0.10
  -1  -3  16    2.53    0.15
   1  -3 -16    2.63    0.19
   1  -3 -16    2.18    0.15
  -1  -3  16    2.24    0.16
  -1   3  16    2.16    0.15
  -1   3  16    1.95    0.15
   1   3 -16    2.37    0.22
   1  -3  16   12.63    0.34
  -1  -3 -16   12.87    0.38
  -1  -3 -16   12.38    0.36
   1  -3  16   12.91    0.35
  -1   3 -16   12.85    0.41
   1   3  16   12.46    0.34
  -1   3 -16   12.82    0.34
   1   3  16   12.06    0.35
   3  -3  16   -0.02    0.07
  -3  -3 -16    0.00    0.07
  -3  -3 -16    0.02    0.08
   3  -3  16    0.02    0.06
   3  -3  16    0.07    0.07
  -3   3 -16    0.07    0.09
   3   3  16   -0.02    0.07
  -3   3 -16    0.08    0.07
   3   3  16    0.02    0.06
   5  -3  16    6.14    0.26
  -5  -3 -16    6.05    0.29
   5  -3  16    6.41    0.28
   5  -3  16    6.31    0.27
   5   3  16    6.33    0.28
  -5   3 -16    6.35    0.29
   7  -3  16    4.24    0.26
   7  -3  16    4.62    0.27
  -7  -3 -16    4.23    0.27
   7   3  16    3.87    0.26
  -7   3 -16    4.72    0.28
   8  -4 -16    5.15    0.28
  -8  -4  16    5.03    0.28
   8  -4 -16    4.80    0.29
   8   4 -16    4.97    0.30
  -8   4  16    4.83    0.29
   6  -4 -16   31.88    0.71
   6  -4 -16   30.96    0.73
  -6  -4  16   31.17    0.68
  -6   4  16   31.87    0.69
   6   4 -16   32.42    0.72
  -6   4  16   32.51    0.70
   6   4 -16   31.74    0.74
   4  -4 -16    5.90    0.29
  -4  -4  16    6.66    0.28
   4   4 -16    6.48    0.27
   4   4 -16    6.49    0.31
  -4   4  16    6.46    0.26
  -4   4  16    6.36    0.27
  -2  -4  16    0.16    0.08
  -2  -4  16    0.07    0.06
   2  -4 -16    0.04    0.08
  -2  -4  16    0.00    0.05
  -2   4  16    0.04    0.07
  -2   4  16    0.01    0.06
   2   4 -16   -0.03    0.08
   0  -4  16    0.55    0.09
   0  -4  16    0.54    0.11
   0  -4 -16    0.77    0.12
   0  -4  16    0.63    0.09
   0  -4 -16    0.37    0.10
   0   4  16    0.75    0.11
   0   4 -16    0.73    0.10
   0   4 -16    0.63    0.13
   0   4  16    0.50    0.10
  -2  -4 -16    2.51    0.18
   2  -4  16    2.85    0.17
   2  -4  16    2.49    0.16
  -2  -4 -16    2.85    0.20
   2  -4  16    2.64    0.19
   2   4  16    2.50    0.17
  -2   4 -16    2.37    0.18
   2   4  16    2.33    0.17
  -2   4 -16    2.70    0.22
   4  -4  16    1.07    0.14
  -4  -4 -16    1.17    0.16
   4  -4  16    1.29    0.14
   4  -4  16    1.24    0.14
  -4   4 -16    0.99    0.14
  -4   4 -16    1.04    0.16
   4   4  16    1.06    0.14
   6  -4  16    2.70    0.21
   6  -4  16    2.59    0.21
  -6  -4 -16    2.36    0.23
   6  -4  16    2.71    0.24
  -6   4 -16    2.97    0.23
   6   4  16    2.65    0.23
   7  -5 -16    3.71    0.27
   7  -5 -16    4.24    0.26
  -7  -5  16    4.07    0.26
  -7   5  16    4.36    0.26
   7   5 -16    3.81    0.26
   7   5 -16    4.24    0.29
  -7   5  16    4.83    0.28
  -5  -5  16    6.63    0.29
   5  -5 -16    7.65    0.33
  -5  -5  16    6.61    0.30
   5   5 -16    6.81    0.35
  -5   5  16    7.20    0.31
  -5   5  16    7.31    0.31
  -3  -5  16    0.40    0.11
   3  -5 -16    0.34    0.11
  -3  -5  16    0.26    0.09
  -3   5  16    0.27    0.10
   3   5 -16    0.18    0.11
  -3   5  16    0.40    0.10
   1  -5 -16    0.47    0.11
  -1  -5  16    0.45    0.10
   1  -5 -16    0.52    0.11
  -1  -5  16    0.54    0.11
   1   5 -16    0.42    0.12
  -1   5  16    0.42    0.10
  -1   5  16    0.55    0.12
   1  -5  16   12.68    0.36
   1  -5  16   13.17    0.39
  -1  -5 -16   13.32    0.41
  -1  -5 -16   12.86    0.41
   1   5  16   13.24    0.39
  -1   5 -16   13.39    0.46
  -1   5 -16   12.70    0.38
   1   5  16   12.20    0.36
   3  -5  16    0.30    0.10
  -3  -5 -16    0.26    0.12
  -3  -5 -16    0.33    0.11
   3  -5  16    0.26    0.11
   3   5  16    0.57    0.11
  -3   5 -16    0.32    0.11
  -3   5 -16    0.39    0.13
   3   5  16    0.47    0.11
  -5  -5 -16    9.76    0.39
   5  -5  16    9.84    0.35
   5  -5  16    9.78    0.37
  -5   5 -16    9.48    0.38
  -6  -6  16   14.95    0.47
  -6  -6  16   15.52    0.47
   6  -6 -16   14.14    0.48
   6   6 -16   15.35    0.53
  -4  -6  16    7.03    0.30
  -4  -6  16    6.69    0.30
   4  -6 -16    6.66    0.33
   4   6 -16    7.26    0.36
  -4   6  16    6.83    0.31
  -2  -6  16    0.45    0.11
  -2  -6  16    0.31    0.10
   2  -6 -16    0.43    0.12
  -2   6  16    0.41    0.12
   2   6 -16    0.46    0.14
   0  -6 -16    3.61    0.24
   0  -6  16    3.79    0.23
   0  -6 -16    3.33    0.23
   0  -6  16    3.86    0.22
   0   6 -16    3.64    0.27
   0   6  16    3.59    0.22
  -2  -6 -16    8.53    0.35
   2  -6  16    8.09    0.32
  -2  -6 -16    8.13    0.35
   2  -6  16    8.25    0.33
  -2   6 -16    7.89    0.38
  -2   6 -16    7.85    0.33
   2   6  16    8.19    0.33
  -4  -6 -16    0.68    0.15
   4  -6  16    0.87    0.15
  -4   6 -16    0.61    0.14
  -4   6 -16    0.72    0.17
   4   6  16    0.68    0.13
   3  -7 -16    2.96    0.28
  -3  -7  16    3.11    0.25
  -3  -7  16    2.74    0.22
   3   7 -16    2.78    0.28
   1  -7 -16    4.90    0.28
  -1  -7  16    4.55    0.26
  -1  -7  16    4.74    0.26
   1  -7 -16    4.70    0.29
   1   7 -16    4.88    0.34
  -1   7  16    4.74    0.28
   1  -7  16    4.78    0.26
  -1  -7 -16    4.95    0.29
  -1  -7 -16    4.60    0.29
  -1   7 -16    4.06    0.31
 -10   0  17    0.10    0.11
 -10   0  17   -0.03    0.10
   8   0 -17   -0.02    0.08
   8   0 -17   -0.08    0.08
  -8   0  17    0.08    0.09
  -8   0  17    0.06    0.09
  -6   0  17   -0.08    0.07
   6   0 -17   -0.10    0.07
  -6   0  17    0.01    0.08
   6   0 -17   -0.01    0.08
  -4   0  17    0.03    0.06
  -4   0  17    0.02    0.07
   4   0 -17   -0.04    0.07
   4   0 -17    0.06    0.07
   2   0 -17    0.01    0.06
  -2   0  17    0.04    0.06
  -2   0  17    0.03    0.06
   2   0 -17    0.10    0.06
  -2   0 -17    0.09    0.07
   2   0  17    0.03    0.05
   2   0  17    0.03    0.06
  -2   0 -17    0.01    0.08
   4   0  17    0.03    0.07
  -4   0 -17    0.01    0.07
   4   0  17   -0.09    0.07
  -6   0 -17   -0.06    0.09
   6   0  17   -0.15    0.08
   9  -1 -17    2.53    0.25
  -9  -1  17    2.59    0.22
  -9  -1  17    2.13    0.21
   9   1 -17    2.42    0.24
  -9   1  17    2.21    0.22
  -9   1  17    2.09    0.21
   7  -1 -17    4.57    0.27
  -7  -1  17    4.40    0.24
   7  -1 -17    4.59    0.25
  -7  -1  17    4.68    0.24
  -7   1  17    4.56    0.24
  -7   1  17    4.04    0.24
   7   1 -17    4.02    0.25
   7   1 -17    4.44    0.26
  -5  -1  17    2.91    0.19
  -5  -1  17    2.96    0.18
   5  -1 -17    2.99    0.20
   5  -1 -17    2.76    0.20
   5   1 -17    2.99    0.20
  -5   1  17    3.08    0.19
   5   1 -17    3.20    0.21
  -5   1  17    3.06    0.18
  -3  -1  17    9.22    0.29
   3  -1 -17    9.56    0.32
  -3  -1  17    9.19    0.30
   3  -1 -17    9.39    0.33
  -3   1  17    9.49    0.27
   3   1 -17    9.23    0.30
  -3   1  17    9.63    0.30
  -3   1  17    9.50    0.31
   3   1 -17    9.17    0.33
   1  -1 -17   20.40    0.50
  -1  -1  17   19.07    0.45
  -1  -1  17   19.96    0.44
  -1   1  17   20.54    0.47
  -1   1  17   20.18    0.41
  -1   1  17   19.66    0.43
   1   1 -17   20.47    0.51
   1  -1  17    8.01    0.26
   1  -1  17    7.55    0.27
  -1  -1 -17    7.77    0.29
  -1  -1 -17    7.62    0.27
  -1   1 -17    7.52    0.26
   1   1  17    7.83    0.28
  -1   1 -17    7.72    0.30
  -3  -1 -17    0.60    0.11
   3  -1  17    0.48    0.10
   3  -1  17    0.56    0.10
  -3  -1 -17    0.67    0.12
  -3   1 -17    0.68    0.12
   3   1  17    0.62    0.12
  -3   1 -17    0.62    0.11
  -5  -1 -17    7.65    0.32
   5  -1  17    7.45    0.31
   5  -1  17    6.81    0.27
  -5   1 -17    7.18    0.31
   5   1  17    7.35    0.32
   7  -1  17   12.81    0.40
  -7  -1 -17   12.36    0.44
   7  -1  17   12.75    0.44
   7   1  17   12.11    0.43
  -7   1 -17   12.60    0.44
  -8  -2  17    0.96    0.16
   8  -2 -17    1.03    0.15
   8  -2 -17    0.91    0.16
  -8  -2  17    0.70    0.13
  -8   2  17    0.73    0.14
   8   2 -17    1.03    0.17
   8   2 -17    0.74    0.14
  -8   2  17    0.51    0.14
  -6  -2  17    0.61    0.12
   6  -2 -17    0.51    0.12
  -6  -2  17    0.59    0.12
   6  -2 -17    0.50    0.12
   6   2 -17    0.61    0.12
  -6   2  17    0.45    0.12
  -6   2  17    0.54    0.11
   6   2 -17    0.60    0.13
  -4  -2  17    3.39    0.20
  -4  -2  17    3.90    0.20
   4  -2 -17    4.07    0.23
   4  -2 -17    3.74    0.22
  -4   2  17    3.27    0.20
   4   2 -17    3.64    0.23
   4   2 -17    3.57    0.20
  -4   2  17    3.55    0.20
  -2  -2  17    3.52    0.19
  -2  -2  17    3.63    0.18
   2  -2 -17    3.49    0.22
  -2   2  17    3.26    0.18
   2   2 -17    3.04    0.21
  -2   2  17    3.38    0.19
   0  -2  17    3.03    0.18
   0  -2 -17    3.03    0.20
   0  -2 -17    3.30    0.18
   0  -2  17    3.15    0.17
   0   2  17    2.95    0.18
   0   2  17    2.70    0.16
   0   2 -17    3.21    0.21
  -2  -2 -17    2.23    0.18
   2  -2  17    2.08    0.16
  -2  -2 -17    2.06    0.18
   2  -2  17    2.24    0.16
  -2   2 -17    2.08    0.16
   2   2  17    2.21    0.17
  -2   2 -17    2.44    0.19
   4  -2  17    1.21    0.13
  -4  -2 -17    1.08    0.15
   4  -2  17    1.05    0.14
   4   2  17    1.34    0.16
  -4   2 -17    0.89    0.13
   6  -2  17    0.13    0.10
   6  -2  17    0.13    0.10
  -6  -2 -17    0.16    0.11
   6   2  17    0.34    0.13
  -6   2 -17    0.31    0.12
  -9  -3  17    0.29    0.12
   9   3 -17    0.02    0.12
  -9   3  17    0.15    0.12
  -7  -3  17   21.21    0.52
   7  -3 -17   20.64    0.55
   7  -3 -17   20.21    0.58
  -7  -3  17   20.29    0.54
  -7   3  17   20.63    0.55
   7   3 -17   21.27    0.58
   7   3 -17   21.21    0.57
  -5  -3  17    1.84    0.19
   5  -3 -17    1.62    0.18
  -5  -3  17    1.55    0.15
   5  -3 -17    1.78    0.19
   5   3 -17    1.54    0.19
  -5   3  17    1.78    0.18
  -5   3  17    1.63    0.17
   5   3 -17    1.42    0.16
  -3  -3  17    6.58    0.26
  -3  -3  17    6.49    0.25
   3  -3 -17    6.54    0.29
   3   3 -17    6.14    0.30
  -3   3  17    6.35    0.26
  -3   3  17    6.23    0.26
   1  -3 -17    0.84    0.11
  -1  -3  17    0.86    0.12
  -1  -3  17    0.85    0.11
   1  -3 -17    0.92    0.14
   1   3 -17    0.99    0.15
  -1   3  17    0.88    0.12
  -1   3  17    0.87    0.12
  -1  -3 -17  121.58    1.82
   1  -3  17  126.17    1.80
   1  -3  17  128.45    1.82
  -1  -3 -17  128.38    1.88
   1   3  17  125.78    1.80
  -1   3 -17  126.81    1.93
   1   3  17  122.38    1.81
  -1   3 -17  123.26    1.79
  -3  -3 -17    4.53    0.24
   3  -3  17    3.99    0.22
  -3  -3 -17    4.56    0.24
   3  -3  17    4.15    0.22
  -3   3 -17    4.11    0.25
  -3   3 -17    4.26    0.23
   3   3  17    4.30    0.23
   5  -3  17   -0.06    0.08
   5  -3  17    0.06    0.08
  -5  -3 -17    0.18    0.11
   5   3  17   -0.04    0.08
  -5   3 -17    0.11    0.10
   8  -4 -17    0.19    0.12
   8  -4 -17    0.16    0.09
  -8  -4  17   -0.06    0.09
  -8   4  17    0.13    0.11
   8   4 -17    0.03    0.12
   6  -4 -17    1.28    0.18
  -6  -4  17    1.89    0.19
   6  -4 -17    1.77    0.19
   6   4 -17    1.45    0.18
  -6   4  17    1.60    0.18
   6   4 -17    1.84    0.22
  -6   4  17    1.82    0.19
  -4  -4  17    0.07    0.09
   4  -4 -17   -0.03    0.08
  -4   4  17    0.08    0.08
   4   4 -17   -0.02    0.09
  -4   4  17    0.04    0.08
  -2  -4  17    1.65    0.14
   2  -4 -17    1.80    0.19
  -2  -4  17    2.04    0.19
  -2   4  17    2.09    0.17
   2   4 -17    1.61    0.20
  -2   4  17    1.88    0.17
   0  -4 -17   -0.03    0.07
   0  -4  17   -0.04    0.08
   0  -4  17    0.04    0.06
   0  -4 -17    0.02    0.08
   0   4  17    0.03    0.07
   0   4  17    0.06    0.07
   0   4 -17    0.02    0.10
  -2  -4 -17    2.48    0.21
   2  -4  17    2.74    0.19
  -2  -4 -17    3.11    0.22
   2  -4  17    2.72    0.18
  -2   4 -17    2.90    0.23
  -2   4 -17    2.74    0.19
   2   4  17    2.68    0.19
   2   4  17    2.84    0.18
   4  -4  17    4.81    0.24
   4  -4  17    4.96    0.26
  -4  -4 -17    5.04    0.28
   4   4  17    4.69    0.25
  -4   4 -17    5.02    0.26
   7  -5 -17   13.25    0.46
   7   5 -17   13.87    0.48
  -7   5  17   13.86    0.45
   7   5 -17   13.81    0.50
   5  -5 -17    3.57    0.25
  -5  -5  17    3.00    0.23
  -5   5  17    2.79    0.22
   5   5 -17    3.22    0.28
  -5   5  17    3.24    0.23
   3  -5 -17   10.68    0.39
  -3  -5  17   10.17    0.36
  -3   5  17   10.44    0.35
  -3   5  17   10.17    0.36
   3   5 -17   11.00    0.43
  -1  -5  17   13.58    0.41
   1  -5 -17   14.34    0.45
   1  -5 -17   14.12    0.41
  -1  -5  17   13.61    0.38
  -1   5  17   13.44    0.38
   1   5 -17   13.11    0.47
  -1   5  17   13.70    0.41
  -1  -5 -17   16.40    0.46
  -1  -5 -17   15.15    0.47
   1  -5  17   15.74    0.44
   1  -5  17   15.44    0.41
   1   5  17   15.50    0.43
  -1   5 -17   15.90    0.43
   1   5  17   15.02    0.41
  -1   5 -17   15.22    0.51
  -3  -5 -17    6.56    0.32
  -3  -5 -17    6.32    0.30
   3  -5  17    6.34    0.27
   3  -5  17    6.19    0.29
  -3   5 -17    6.62    0.30
  -3   5 -17    6.51    0.33
   3   5  17    6.40    0.28
   3   5  17    6.34    0.28
  -4  -6  17    7.12    0.31
  -4  -6  17    7.33    0.32
   4  -6 -17    7.26    0.35
  -4   6  17    6.87    0.32
   4   6 -17    7.21    0.37
  -2  -6  17    5.06    0.26
   2  -6 -17    5.19    0.30
  -2  -6  17    5.54    0.28
   2   6 -17    5.53    0.33
  -2   6  17    5.42    0.28
   0  -6 -17    1.57    0.19
   0  -6  17    2.19    0.20
   0  -6 -17    1.77    0.19
   0  -6  17    1.77    0.18
   0   6 -17    1.64    0.21
   0   6  17    1.80    0.19
   2  -6  17    0.07    0.09
  -2  -6 -17    0.03    0.10
   2  -6  17    0.11    0.09
  -2  -6 -17    0.06    0.09
  -2   6 -17    0.02    0.12
  -2   6 -17    0.05    0.09
   2   6  17    0.01    0.09
   8   0 -18    0.31    0.11
  -8   0  18    0.20    0.10
  -8   0  18    0.25    0.12
   8   0 -18    0.29    0.13
  -6   0  18   52.95    0.94
  -6   0  18   53.67    0.98
   6   0 -18   52.77    1.00
   6   0 -18   55.10    1.02
   4   0 -18    5.05    0.25
  -4   0  18    4.95    0.22
   4   0 -18    5.23    0.26
  -4   0  18    4.58    0.23
  -2   0  18    1.75    0.16
   2   0 -18    2.10    0.16
  -2   0  18    1.99    0.15
   2   0 -18    1.83    0.18
   0   0 -18    5.25    0.26
   2   0  18   19.15    0.42
  -2   0 -18   18.97    0.47
   2   0  18   18.05    0.46
  -2   0 -18   19.80    0.51
  -4   0 -18   18.26    0.49
   4   0  18   18.96    0.50
   6   0  18    2.79    0.23
  -6   0 -18    3.59    0.25
   9  -1 -18    0.23    0.13
  -9  -1  18    0.37    0.13
  -9  -1  18    0.40    0.13
   9   1 -18    0.51    0.15
  -9   1  18    0.26    0.13
  -9   1  18    0.29    0.12
   7  -1 -18    5.39    0.28
   7  -1 -18    5.35    0.29
  -7  -1  18    5.14    0.27
  -7  -1  18    5.61    0.27
  -7   1  18    5.40    0.25
   7   1 -18    4.76    0.28
  -7   1  18    5.21    0.28
   7   1 -18    5.13    0.29
  -5  -1  18    1.72    0.17
   5  -1 -18    1.55    0.17
   5  -1 -18    1.35    0.16
  -5  -1  18    1.70    0.17
   5   1 -18    1.58    0.17
   5   1 -18    1.67    0.17
  -5   1  18    1.58    0.15
  -5   1  18    1.74    0.17
  -3  -1  18    5.50    0.24
   3  -1 -18    5.87    0.27
  -3  -1  18    5.23    0.23
   3  -1 -18    5.50    0.25
   3   1 -18    5.53    0.24
   3   1 -18    5.14    0.27
  -3   1  18    5.66    0.25
  -3   1  18    5.69    0.22
  -3   1  18    5.59    0.23
  -1  -1  18    3.88    0.20
   1  -1 -18    3.95    0.21
   1  -1 -18    4.23    0.23
  -1  -1  18    3.81    0.20
   1   1 -18    4.05    0.24
  -1   1  18    4.29    0.19
  -1   1  18    4.28    0.22
  -1  -1 -18    4.65    0.24
  -1  -1 -18    4.60    0.22
   1  -1  18    3.94    0.21
   1  -1  18    4.20    0.20
   1   1  18    4.27    0.22
  -1   1 -18    4.02    0.20
  -1   1 -18    4.17    0.24
  -3  -1 -18    0.29    0.10
  -3  -1 -18    0.48    0.11
   3  -1  18    0.18    0.08
   3  -1  18    0.12    0.09
   3   1  18    0.23    0.10
  -3   1 -18    0.31    0.10
  -3   1 -18    0.22    0.09
   5  -1  18    5.45    0.25
   5  -1  18    5.34    0.28
  -5  -1 -18    5.13    0.28
   5   1  18    5.69    0.29
  -5   1 -18    5.78    0.28
  -8  -2  18   12.17    0.42
   8  -2 -18   11.75    0.45
  -8  -2  18   11.99    0.42
   8  -2 -18   11.88    0.42
  -8   2  18   11.88    0.43
   8   2 -18   11.75    0.44
   8   2 -18   12.95    0.44
  -6  -2  18    0.51    0.12
  -6  -2  18    0.55    0.12
   6  -2 -18    0.39    0.12
   6  -2 -18    0.42    0.12
   6   2 -18    0.26    0.10
  -6   2  18    0.37    0.12
   6   2 -18    0.31    0.12
   4  -2 -18    8.31    0.33
  -4  -2  18    8.67    0.31
   4  -2 -18    8.61    0.34
  -4  -2  18    8.25    0.30
   4   2 -18    8.24    0.34
  -4   2  18    8.26    0.31
  -4   2  18    8.09    0.30
   4   2 -18    8.33    0.31
  -2  -2  18    2.15    0.17
  -2  -2  18    2.12    0.17
   2  -2 -18    2.20    0.18
   2   2 -18    2.40    0.19
  -2   2  18    2.14    0.17
  -2   2  18    2.20    0.16
   0  -2  18   13.27    0.37
   0  -2 -18   13.83    0.42
   0  -2 -18   13.64    0.37
   0  -2  18   13.96    0.38
   0   2  18   13.59    0.36
   0   2 -18   13.96    0.44
   0   2  18   14.11    0.39
  -2  -2 -18    2.93    0.20
  -2  -2 -18    2.95    0.19
   2  -2  18    3.01    0.18
   2  -2  18    3.11    0.20
  -2   2 -18    2.96    0.22
  -2   2 -18    2.74    0.19
   2   2  18    2.65    0.19
   4  -2  18    1.23    0.15
   4  -2  18    1.65    0.16
  -4  -2 -18    1.38    0.17
   4   2  18    1.50    0.17
  -4   2 -18    1.63    0.18
   6  -2  18    0.82    0.14
   6  -2  18    0.84    0.15
  -6  -2 -18    1.13    0.18
   6   2  18    1.19    0.18
  -6   2 -18    1.09    0.17
  -7  -3  18    1.50    0.16
   7  -3 -18    1.28    0.19
   7  -3 -18    1.66    0.19
  -7  -3  18    1.38    0.17
   7   3 -18    1.64    0.20
   7   3 -18    1.62    0.19
  -7   3  18    1.65    0.20
   5  -3 -18    1.36    0.17
  -5  -3  18    1.27    0.15
   5  -3 -18    1.35    0.18
  -5  -3  18    1.36    0.16
   5   3 -18    1.63    0.19
  -5   3  18    1.45    0.17
   5   3 -18    1.35    0.16
  -5   3  18    1.33    0.16
  -3  -3  18    0.30    0.09
  -3  -3  18    0.38    0.09
   3  -3 -18    0.38    0.11
   3   3 -18    0.22    0.10
  -3   3  18    0.25    0.09
  -3   3  18    0.34    0.10
  -1  -3  18    0.74    0.11
   1  -3 -18    0.84    0.14
  -1  -3  18    0.94    0.13
  -1   3  18    0.96    0.13
  -1   3  18    0.88    0.12
   1   3 -18    0.79    0.14
  -1  -3 -18    2.49    0.18
   1  -3  18    2.74    0.18
   1  -3  18    2.48    0.17
  -1  -3 -18    2.90    0.22
  -1   3 -18    2.82    0.18
  -1   3 -18    2.76    0.22
   1   3  18    2.62    0.18
   1   3  18    2.35    0.17
   3  -3  18    2.66    0.19
  -3  -3 -18    2.71    0.21
   3  -3  18    2.71    0.20
  -3  -3 -18    2.58    0.20
  -3   3 -18    2.76    0.23
   3   3  18    2.69    0.20
  -3   3 -18    2.50    0.19
  -5  -3 -18    0.43    0.13
   5  -3  18    0.39    0.12
   5  -3  18    0.37    0.11
  -5   3 -18    0.56    0.14
   5   3  18    0.42    0.12
  -6  -4  18    0.02    0.09
   6  -4 -18    0.26    0.11
   6  -4 -18    0.20    0.12
  -6   4  18   -0.03    0.10
   6   4 -18    0.10    0.11
  -6   4  18    0.06    0.09
   6   4 -18    0.17    0.10
   4  -4 -18   11.91    0.42
  -4  -4  18   12.12    0.39
  -4   4  18   12.13    0.39
   4   4 -18   11.33    0.44
  -4   4  18   12.43    0.39
  -2  -4  18    0.25    0.10
   2  -4 -18    0.27    0.11
  -2   4  18    0.31    0.10
   2   4 -18    0.45    0.14
  -2   4  18    0.24    0.08
   0  -4 -18    5.30    0.25
   0  -4  18    5.51    0.26
   0  -4  18    5.44    0.23
   0  -4 -18    4.92    0.27
   0   4  18    5.03    0.24
   0   4  18    4.79    0.24
   0   4 -18    5.28    0.30
  -2  -4 -18   12.44    0.41
  -2  -4 -18   13.53    0.43
   2  -4  18   13.35    0.38
   2  -4  18   13.16    0.40
   2   4  18   13.35    0.39
  -2   4 -18   13.45    0.40
  -2   4 -18   12.81    0.45
   4  -4  18    7.45    0.32
   4  -4  18    8.13    0.32
  -4  -4 -18    7.16    0.34
   4   4  18    8.07    0.32
  -4   4 -18    7.15    0.32
   5  -5 -18    2.41    0.24
  -5  -5  18    2.55    0.23
  -5   5  18    2.01    0.20
  -5   5  18    1.88    0.19
   5   5 -18    2.13    0.24
   3  -5 -18   11.91    0.43
  -3  -5  18   10.99    0.38
  -3   5  18   10.95    0.37
   3   5 -18   11.42    0.45
  -3   5  18   11.47    0.39
  -1  -5  18    1.31    0.16
   1  -5 -18    1.48    0.19
  -1   5  18    1.14    0.15
   1   5 -18    1.60    0.21
  -1   5  18    1.22    0.15
  -1  -5 -18   13.61    0.44
   1  -5  18   14.38    0.43
  -1  -5 -18   14.76    0.46
   1   5  18   14.41    0.43
   1   5  18   14.09    0.41
  -1   5 -18   13.98    0.49
   3  -5  18    0.38    0.12
  -3  -5 -18    0.32    0.11
   3   5  18    0.18    0.10
   3   5  18    0.48    0.11
  -3   5 -18    0.45    0.15
  -3   5 -18    0.22    0.11
   4   6 -18    7.07    0.40
   2  -6 -18    0.62    0.14
  -2  -6  18    0.55    0.14
   2   6 -18    0.27    0.13
  -2   6  18    0.50    0.12
   0  -6 -18    5.43    0.30
   0  -6 -18    5.67    0.31
   0  -6  18    5.83    0.30
   0   6 -18    5.49    0.34
   0   6  18    6.20    0.30
  -8   0  19   -0.07    0.09
   8   0 -19   -0.01    0.11
   8   0 -19   -0.05    0.10
  -8   0  19   -0.03    0.09
  -6   0  19   -0.05    0.08
   6   0 -19   -0.06    0.09
   6   0 -19    0.24    0.10
  -6   0  19    0.16    0.10
   4   0 -19   -0.03    0.08
  -4   0  19    0.04    0.07
  -4   0  19   -0.04    0.07
   4   0 -19    0.20    0.09
   2   0 -19   -0.05    0.06
  -2   0  19    0.04    0.07
  -2   0  19   -0.02    0.07
   2   0 -19   -0.05    0.08
  -2   0 -19   -0.06    0.09
   2   0  19    0.02    0.07
  -2   0 -19   -0.03    0.07
   4   0  19   -0.04    0.08
  -4   0 -19   -0.09    0.07
  -6   0 -19   -0.04    0.10
   6   0  19    0.03    0.11
   7  -1 -19    1.75    0.21
  -7  -1  19    1.65    0.19
  -7  -1  19    1.59    0.18
   7  -1 -19    1.48    0.19
   7   1 -19    1.54    0.20
   7   1 -19    1.67    0.20
  -7   1  19    1.48    0.16
  -7   1  19    1.88    0.20
  -5  -1  19    0.13    0.09
   5  -1 -19    0.26    0.10
  -5  -1  19    0.35    0.11
   5  -1 -19    0.33    0.11
   5   1 -19    0.24    0.11
  -5   1  19    0.27    0.10
  -5   1  19    0.43    0.10
   5   1 -19    0.39    0.12
  -3  -1  19    1.33    0.15
   3  -1 -19    1.09    0.14
   3  -1 -19    0.97    0.15
  -3  -1  19    1.33    0.15
   3   1 -19    1.20    0.16
  -3   1  19    1.09    0.14
  -3   1  19    1.11    0.15
   3   1 -19    1.11    0.14
   1  -1 -19    3.58    0.23
  -1  -1  19    3.52    0.19
  -1  -1  19    3.58    0.21
   1  -1 -19    3.61    0.21
   1   1 -19    3.88    0.25
  -1   1  19    3.48    0.18
  -1   1  19    3.53    0.21
   1  -1  19    8.51    0.31
  -1  -1 -19    8.57    0.34
   1  -1  19    8.72    0.29
  -1  -1 -19    8.71    0.31
   1   1  19    8.96    0.32
  -1   1 -19    8.23    0.34
  -1   1 -19    9.01    0.30
  -3  -1 -19    5.76    0.27
   3  -1  19    5.14    0.26
   3  -1  19    5.00    0.23
  -3  -1 -19    5.14    0.27
  -3   1 -19    5.34    0.27
  -3   1 -19    5.62    0.26
   3   1  19    5.59    0.27
   5  -1  19    2.72    0.22
  -5  -1 -19    2.57    0.23
  -5   1 -19    3.16    0.24
   5   1  19    2.72    0.22
  -8  -2  19    0.51    0.15
  -8  -2  19    0.48    0.14
   8  -2 -19    0.33    0.12
   8  -2 -19    0.34    0.14
   8   2 -19    0.38    0.13
  -8   2  19    0.17    0.12
   8   2 -19    0.41    0.14
   6  -2 -19   13.96    0.45
  -6  -2  19   13.04    0.42
   6  -2 -19   13.54    0.46
  -6  -2  19   13.48    0.42
   6   2 -19   13.76    0.45
  -6   2  19   14.44    0.45
   6   2 -19   13.29    0.46
   4  -2 -19    5.20    0.28
  -4  -2  19    5.95    0.27
  -4  -2  19    5.44    0.26
   4  -2 -19    5.05    0.28
   4   2 -19    5.46    0.29
  -4   2  19    5.63    0.27
  -4   2  19    5.49    0.26
   4   2 -19    5.30    0.25
  -2  -2  19    0.91    0.13
   2  -2 -19    0.83    0.13
  -2  -2  19    1.16    0.14
   2  -2 -19    1.00    0.15
  -2   2  19    1.04    0.14
  -2   2  19    1.01    0.13
   2   2 -19    1.00    0.15
   0  -2  19   11.60    0.35
   0  -2  19   11.42    0.35
   0  -2 -19   11.38    0.39
   0   2  19   11.08    0.33
   0   2 -19   12.14    0.42
   0   2  19   11.88    0.37
  -2  -2 -19    0.14    0.09
  -2  -2 -19    0.28    0.10
   2  -2  19    0.11    0.08
   2  -2  19    0.27    0.09
  -2   2 -19    0.22    0.11
  -2   2 -19    0.08    0.08
   2   2  19    0.09    0.09
   4  -2  19    0.03    0.09
   4  -2  19    0.05    0.09
  -4  -2 -19    0.22    0.10
  -4   2 -19    0.10    0.09
   4   2  19    0.00    0.09
  -7  -3  19    6.25    0.31
  -7  -3  19    6.13    0.29
   7  -3 -19    5.77    0.32
   7  -3 -19    6.08    0.31
   7   3 -19    6.14    0.32
  -7   3  19    5.67    0.31
   7   3 -19    5.48    0.32
   5  -3 -19    7.92    0.35
  -5  -3  19    8.32    0.33
  -5  -3  19    7.86    0.31
   5  -3 -19    8.09    0.36
   5   3 -19    7.44    0.34
  -5   3  19    7.52    0.32
   5   3 -19    7.56    0.36
  -5   3  19    7.94    0.32
  -3  -3  19   23.88    0.57
  -3  -3  19   24.55    0.55
   3  -3 -19   24.79    0.62
   3   3 -19   24.11    0.65
  -3   3  19   24.70    0.57
  -3   3  19   24.76    0.58
   1  -3 -19   10.40    0.39
  -1  -3  19   10.73    0.34
  -1  -3  19   10.50    0.34
  -1   3  19    9.96    0.33
  -1   3  19   10.42    0.35
   1   3 -19   10.24    0.40
   1  -3  19    8.84    0.31
  -1  -3 -19    8.77    0.35
  -1  -3 -19    7.79    0.31
   1  -3  19    8.93    0.32
   1   3  19    8.65    0.32
  -1   3 -19    9.11    0.38
  -3  -3 -19    6.26    0.30
  -3  -3 -19    6.85    0.31
   3  -3  19    6.51    0.28
   3  -3  19    6.60    0.29
  -3   3 -19    5.87    0.28
  -3   3 -19    6.57    0.33
   3   3  19    6.40    0.29
   6  -4 -19    8.43    0.39
  -6  -4  19    8.01    0.35
   6  -4 -19    8.31    0.37
  -6   4  19    8.02    0.35
   6   4 -19    7.79    0.38
  -6   4  19    7.79    0.35
   4  -4 -19    6.15    0.31
  -4  -4  19    6.31    0.30
  -4   4  19    6.13    0.29
  -4   4  19    5.71    0.28
   4   4 -19    6.31    0.34
  -2  -4  19    9.23    0.35
   2  -4 -19    9.70    0.38
  -2   4  19    9.95    0.35
   2   4 -19   10.35    0.42
  -2   4  19   10.09    0.35
   0  -4  19   27.45    0.62
   0  -4 -19   26.80    0.65
   0  -4 -19   26.97    0.60
   0   4  19   27.82    0.61
   0   4 -19   25.56    0.68
   0   4  19   26.06    0.59
   2  -4  19    0.98    0.15
   2  -4  19    0.94    0.13
  -2  -4 -19    1.25    0.17
  -2  -4 -19    0.75    0.14
  -2   4 -19    0.92    0.13
   2   4  19    0.77    0.13
  -2   4 -19    0.64    0.15
  -4  -4 -19    0.09    0.11
   4  -4  19    0.46    0.11
  -4   4 -19    0.32    0.12
   4   4  19    0.38    0.13
   5  -5 -19    0.30    0.14
  -5   5  19    0.33    0.13
   5   5 -19    0.83    0.18
   3  -5 -19    2.07    0.23
  -3  -5  19    2.42    0.22
   3   5 -19    2.14    0.24
  -3   5  19    2.17    0.21
  -3   5  19    2.03    0.20
  -1  -5  19    0.17    0.11
   1  -5 -19   -0.05    0.09
   1   5 -19    0.10    0.11
  -1   5  19    0.17    0.10
  -1   5  19    0.19    0.10
  -1  -5 -19   24.29    0.63
  -1  -5 -19   25.20    0.62
   1  -5  19   24.15    0.60
   1   5  19   23.66    0.57
   1   5  19   23.85    0.58
  -1   5 -19   24.08    0.68
   8   0 -20    2.42    0.27
   8   0 -20    2.42    0.23
  -8   0  20    3.27    0.25
  -8   0  20    2.77    0.23
   6   0 -20    5.01    0.29
  -6   0  20    5.20    0.27
  -6   0  20    4.90    0.28
   6   0 -20    5.27    0.29
   4   0 -20    3.08    0.23
  -4   0  20    2.76    0.19
   4   0 -20    2.46    0.21
  -4   0  20    2.99    0.21
   2   0 -20   -0.01    0.09
  -2   0  20    0.14    0.09
  -2   0  20    0.20    0.08
  -2   0 -20    0.09    0.10
   2   0  20    0.01    0.08
  -2   0 -20    0.00    0.08
   4   0  20    0.15    0.10
  -4   0 -20    0.16    0.11
   7  -1 -20   26.73    0.69
  -7  -1  20   26.76    0.64
  -7  -1  20   26.46    0.66
   7  -1 -20   27.06    0.68
   7   1 -20   26.81    0.69
  -7   1  20   26.46    0.61
  -7   1  20   25.68    0.65
   7   1 -20   26.27    0.68
   5  -1 -20    0.44    0.13
  -5  -1  20    0.39    0.11
   5  -1 -20    0.24    0.11
  -5  -1  20    0.56    0.12
   5   1 -20    0.16    0.10
   5   1 -20    0.42    0.13
  -5   1  20    0.41    0.11
  -3  -1  20    0.16    0.09
   3  -1 -20    0.17    0.10
   3  -1 -20    0.18    0.10
  -3  -1  20    0.28    0.10
  -3   1  20    0.31    0.11
   3   1 -20    0.16    0.11
  -1  -1  20    5.98    0.27
   1  -1 -20    6.38    0.31
  -1  -1  20    6.03    0.25
   1   1 -20    6.30    0.31
  -1   1  20    6.06    0.27
  -1  -1 -20   22.67    0.58
   1  -1  20   23.12    0.55
   1  -1  20   23.00    0.52
  -1  -1 -20   22.29    0.53
  -1   1 -20   23.78    0.61
   1   1  20   23.20    0.55
  -3  -1 -20   10.19    0.37
   3  -1  20   10.37    0.33
  -3  -1 -20   10.19    0.38
   3  -1  20   10.01    0.37
  -3   1 -20    9.85    0.36
   3   1  20   10.19    0.37
  -3   1 -20    9.97    0.38
   5  -1  20    3.55    0.25
  -5  -1 -20    3.21    0.25
   5   1  20    3.43    0.26
  -5   1 -20    3.70    0.25
   6  -2 -20    1.10    0.17
  -6  -2  20    0.82    0.14
   6  -2 -20    1.12    0.17
  -6  -2  20    1.08    0.16
   6   2 -20    0.96    0.16
   6   2 -20    1.27    0.19
  -6   2  20    1.03    0.16
  -4  -2  20    1.83    0.18
  -4  -2  20    1.79    0.18
   4  -2 -20    1.53    0.18
   4  -2 -20    1.79    0.20
  -4   2  20    1.41    0.16
  -4   2  20    1.79    0.18
   4   2 -20    1.84    0.22
  -2  -2  20    0.16    0.09
  -2  -2  20    0.19    0.09
   2  -2 -20    0.27    0.11
   2  -2 -20    0.20    0.10
  -2   2  20    0.26    0.09
   2   2 -20    0.20    0.11
  -2   2  20    0.31    0.11
   0  -2 -20    5.06    0.27
   0  -2  20    4.91    0.24
   0  -2  20    4.83    0.24
   0   2  20    4.79    0.26
   0   2 -20    4.66    0.28
   2  -2  20   14.02    0.42
   2  -2  20   13.94    0.40
  -2  -2 -20   13.29    0.41
  -2   2 -20   13.82    0.47
   2   2  20   13.30    0.42
  -2   2 -20   13.42    0.40
   4  -2  20    5.45    0.27
   4  -2  20    6.66    0.31
  -4  -2 -20    5.68    0.30
   4   2  20    5.80    0.30
  -4   2 -20    5.64    0.29
   7  -3 -20    0.44    0.14
  -7  -3  20    0.24    0.11
  -7   3  20    0.19    0.13
   7   3 -20    0.41    0.14
   7   3 -20    0.46    0.15
   5  -3 -20    0.37    0.13
  -5  -3  20    0.41    0.12
   5  -3 -20    0.19    0.12
  -5  -3  20    0.44    0.14
  -5   3  20    0.76    0.15
  -5   3  20    0.59    0.13
   5   3 -20    0.58    0.15
  -3  -3  20    1.01    0.15
   3  -3 -20    0.76    0.15
  -3  -3  20    0.91    0.13
   3  -3 -20    0.75    0.15
   3   3 -20    1.07    0.17
  -3   3  20    0.93    0.14
  -3   3  20    0.53    0.13
  -1  -3  20    2.40    0.19
   1  -3 -20    2.31    0.22
  -1  -3  20    2.44    0.19
  -1   3  20    2.37    0.20
   1   3 -20    2.54    0.25
  -1   3  20    2.46    0.18
  -1  -3 -20    0.35    0.11
  -1  -3 -20    0.42    0.13
   1  -3  20    0.18    0.11
   1  -3  20    0.37    0.10
   1   3  20    0.32    0.11
  -1   3 -20    0.38    0.13
  -3  -3 -20    0.04    0.10
   3  -3  20    0.09    0.09
   3  -3  20    0.04    0.08
   3   3  20    0.09    0.09
  -3   3 -20    0.10    0.10
  -3   3 -20    0.17    0.12
   4  -4 -20    5.72    0.32
  -4  -4  20    6.17    0.30
   4  -4 -20    5.83    0.32
  -4   4  20    5.91    0.29
   4   4 -20    6.22    0.36
  -4   4  20    6.70    0.31
  -2  -4  20    0.01    0.09
   2  -4 -20    0.10    0.10
   2   4 -20   -0.06    0.11
  -2   4  20    0.21    0.10
  -2   4  20    0.16    0.10
   0  -4  20    2.79    0.24
   0  -4 -20    2.33    0.23
   0   4  20    2.68    0.20
   0   4  20    2.62    0.21
   0   4 -20    3.17    0.27
  -2  -4 -20    3.06    0.25
  -2  -4 -20    2.52    0.23
   2  -4  20    2.74    0.21
  -2   4 -20    3.02    0.28
   2   4  20    2.75    0.22
  -3   5  20    0.26    0.12
   1  -5 -20    0.93    0.16
  -1   5  20    0.78    0.15
  -1   5  20    0.68    0.15
   1   5 -20    0.68    0.16
   6   0 -21    0.09    0.11
  -6   0  21    0.07    0.10
   6   0 -21    0.11    0.11
  -6   0  21    0.04    0.10
   4   0 -21   -0.07    0.09
  -4   0  21    0.02    0.08
   4   0 -21    0.03    0.09
  -4   0  21    0.11    0.09
  -2   0  21   -0.04    0.08
   2   0 -21    0.05    0.09
   2   0  21    0.06    0.09
  -2   0 -21    0.04    0.10
  -2   0 -21   -0.06    0.08
   4   0  21    0.12    0.10
  -4   0 -21   -0.09    0.10
   7  -1 -21    2.03    0.25
  -7  -1  21    1.51    0.18
   7  -1 -21    1.84    0.22
  -7  -1  21    1.99    0.22
   7   1 -21    1.86    0.23
  -7   1  21    1.94    0.22
   7   1 -21    2.32    0.25
  -5  -1  21    1.10    0.15
   5  -1 -21    0.85    0.16
   5  -1 -21    1.10    0.17
  -5  -1  21    1.21    0.17
  -5   1  21    0.98    0.15
   5   1 -21    1.06    0.18
   5   1 -21    1.26    0.18
   3  -1 -21   11.22    0.38
   3  -1 -21   10.39    0.41
  -3  -1  21   10.17    0.35
  -3  -1  21    9.96    0.36
  -3   1  21   10.53    0.37
   3   1 -21    9.86    0.41
  -1  -1  21    2.48    0.20
   1  -1 -21    2.77    0.23
  -1  -1  21    2.51    0.18
  -1   1  21    2.72    0.21
   1   1 -21    2.16    0.22
   1  -1  21    4.54    0.25
   1  -1  21    4.20    0.23
  -1  -1 -21    4.68    0.27
   1   1  21    3.78    0.24
  -1   1 -21    4.36    0.28
   3  -1  21    0.77    0.14
  -3  -1 -21    0.66    0.14
  -3   1 -21    0.57    0.15
  -3   1 -21    0.67    0.14
   3   1  21    0.64    0.14
  -6  -2  21    3.50    0.25
   6  -2 -21    3.46    0.26
   6  -2 -21    2.95    0.25
  -6  -2  21    3.75    0.26
   6   2 -21    3.32    0.25
  -6   2  21    3.54    0.26
   6   2 -21    3.35    0.28
   4  -2 -21   13.29    0.46
  -4  -2  21   13.55    0.42
  -4  -2  21   12.92    0.42
   4  -2 -21   13.06    0.45
  -4   2  21   13.14    0.42
   4   2 -21   13.02    0.48
  -4   2  21   13.36    0.44
  -2  -2  21    2.61    0.19
   2  -2 -21    2.47    0.23
   2  -2 -21    2.68    0.22
  -2  -2  21    2.44    0.19
  -2   2  21    2.17    0.20
   2   2 -21    2.44    0.24
  -2   2  21    1.90    0.19
   0  -2 -21   10.19    0.40
   0  -2  21   10.77    0.35
   0  -2  21   10.72    0.37
   0   2  21   10.80    0.38
   0   2 -21   11.16    0.43
  -2  -2 -21    1.62    0.19
   2  -2  21    1.43    0.17
  -2  -2 -21    1.42    0.18
   2  -2  21    1.98    0.20
  -2   2 -21    1.55    0.21
   2   2  21    1.04    0.15
   5  -3 -21    0.01    0.10
  -5  -3  21    0.06    0.10
   5  -3 -21   -0.01    0.11
  -5  -3  21    0.27    0.11
  -5   3  21    0.11    0.11
  -5   3  21    0.13    0.12
   5   3 -21    0.02    0.12
   3  -3 -21    6.68    0.33
  -3  -3  21    6.52    0.28
   3  -3 -21    6.43    0.33
  -3  -3  21    6.37    0.30
   3   3 -21    7.06    0.36
  -3   3  21    6.67    0.30
  -3   3  21    6.31    0.31
   1  -3 -21    0.54    0.13
  -1  -3  21    0.93    0.14
  -1  -3  21    0.67    0.13
  -1   3  21    0.79    0.14
  -1   3  21    1.00    0.15
   1   3 -21    0.71    0.16
   1  -3  21    2.68    0.22
  -1  -3 -21    2.76    0.24
   1  -3  21    2.53    0.20
  -1   3 -21    2.74    0.27
   1   3  21    2.73    0.22
  -4   4  21   37.85    0.81
  -2  -4  21    0.43    0.13
   2  -4 -21    0.46    0.14
  -2   4  21    0.39    0.13
   2   4 -21    0.20    0.14
  -2   4  21    0.35    0.11
   0  -4 -21    5.98    0.32
   0  -4  21    5.60    0.29
   0   4  21    5.60    0.27
   0   4  21    6.11    0.30
   0   4 -21    5.99    0.35
   6   0 -22    5.99    0.34
   6   0 -22    6.45    0.34
  -6   0  22    6.20    0.30
  -6   0  22    6.25    0.32
  -4   0  22   17.81    0.52
   4   0 -22   18.18    0.52
   4   0 -22   18.69    0.57
  -2   0  22    0.92    0.15
   2   0 -22    0.90    0.16
   0   0  22   39.94    0.81
   0   0 -22   38.88    0.87
  -2   0 -22    2.59    0.24
   2   0  22    2.94    0.23
  -5  -1  22    2.62    0.23
   5  -1 -22    2.80    0.26
  -5  -1  22    2.53    0.22
   5  -1 -22    2.76    0.26
  -5   1  22    2.92    0.26
   5   1 -22    2.93    0.28
  -3  -1  22    6.62    0.31
  -3  -1  22    6.60    0.29
   3  -1 -22    6.11    0.30
   3  -1 -22    6.46    0.34
  -3   1  22    6.21    0.30
   3   1 -22    7.24    0.36
  -1  -1  22    4.07    0.25
  -1  -1  22    4.04    0.23
   1  -1 -22    4.11    0.28
  -1   1  22    4.07    0.25
   1   1 -22    3.97    0.29
   1  -1  22    2.12    0.20
  -1  -1 -22    2.38    0.24
   1   1  22    2.05    0.20
  -1   1 -22    2.42    0.24
   4  -2 -22   10.26    0.41
   4  -2 -22    9.93    0.42
  -4  -2  22    9.58    0.37
  -4  -2  22    9.44    0.36
  -4   2  22    9.88    0.38
   4   2 -22    9.20    0.42
   2  -2 -22    0.00    0.10
  -2  -2  22   -0.04    0.09
  -2  -2  22   -0.03    0.09
   2  -2 -22   -0.06    0.10
  -2   2  22    0.13    0.10
   2   2 -22    0.13    0.11
   0  -2  22    3.30    0.23
   0  -2 -22    3.27    0.25
   0  -2  22    2.65    0.22
   0   2 -22    3.37    0.28
   0   2  22    3.41    0.24
  -2  -2 -22    1.61    0.20
   2  -2  22    1.52    0.18
   2  -2  22    1.38    0.18
  -2   2 -22    1.23    0.19
   2   2  22    1.34    0.18
   3  -3 -22    0.85    0.17
  -3  -3  22    0.49    0.13
   3  -3 -22    0.77    0.17
  -3  -3  22    0.80    0.14
  -3   3  22    0.75    0.15
   3   3 -22    0.71    0.18
  -3   3  22    0.61    0.14
  -1  -3  22    3.98    0.24
   1  -3 -22    3.69    0.27
  -1  -3  22    3.25    0.24
  -1   3  22    3.70    0.25
   1   3 -22    3.82    0.30
  -4   0  23   -0.08    0.10
   4   0 -23    0.07    0.13
  -2   0  23    0.09    0.10
   2   0 -23   -0.13    0.10
  -3  -1  23   -0.06    0.10
  -3  -1  23   -0.05    0.11
   3  -1 -23    0.11    0.11
  -3   1  23    0.15    0.11
   3   1 -23   -0.15    0.10
  -1  -1  23    0.63    0.14
   1  -1 -23    0.54    0.14
  -1   1  23    0.62    0.14
   1   1 -23    0.13    0.12
  -2  -2  23    0.91    0.15
  -2  -2  23    1.05    0.16
  -2   2  23    0.76    0.15
   0   0   0    0.00    0.00
;
_shelx_hkl_checksum              98452
loop_
_space_group_symop_operation_xyz
'x, y, z'
'-x, y, -z+1/2'
'x+1/2, y+1/2, z'
'-x+1/2, y+1/2, -z+1/2'
'-x, -y, -z'
'x, -y, z-1/2'
'-x+1/2, -y+1/2, -z'
'x+1/2, -y+1/2, z-1/2'
loop_
_atom_site_label
_atom_site_type_symbol
_atom_site_fract_x
_atom_site_fract_y
_atom_site_fract_z
_atom_site_U_iso_or_equiv
_atom_site_adp_type
_atom_site_occupancy
_atom_site_site_symmetry_order
_atom_site_calc_flag
_atom_site_refinement_flags_posn
_atom_site_refinement_flags_adp
N1 N 0.30686(10) 0.75641(14) 0.23988(5) 0.0216(2) Uani 1 1 d . .
C1 C 0.65130(10) 0.52600(13) 0.48403(5) 0.01344(18) Uani 1 1 d . .
H1 H 0.7533 0.5423 0.4744 0.016 Uiso 1 1 calc R U
N2 N -0.02033(10) 0.56574(14) 0.40012(5) 0.0213(2) Uani 1 1 d . .
C2 C 0.53555(10) 0.57991(13) 0.42558(5) 0.01354(18) Uani 1 1 d . .
H2 H 0.5572 0.6338 0.3754 0.016 Uiso 1 1 calc R U
C4 C 0.26081(10) 0.61020(13) 0.37929(5) 0.01372(18) Uani 1 1 d . .
C3 C 0.37903(9) 0.55627(12) 0.43884(5) 0.01240(18) Uani 1 1 d . .
C6 C 0.10476(10) 0.58520(13) 0.39044(5) 0.01544(19) Uani 1 1 d . .
C5 C 0.28658(10) 0.69132(14) 0.30189(6) 0.01588(19) Uani 1 1 d . .
loop_
_atom_site_aniso_label
_atom_site_aniso_U_11
_atom_site_aniso_U_22
_atom_site_aniso_U_33
_atom_site_aniso_U_23
_atom_site_aniso_U_13
_atom_site_aniso_U_12
N1 0.0225(4) 0.0240(4) 0.0184(4) 0.0031(3) 0.0030(3) 0.0010(3)
C1 0.0126(4) 0.0144(4) 0.0139(4) -0.0004(3) 0.0039(3) -0.0012(3)
N2 0.0167(4) 0.0262(4) 0.0211(4) -0.0002(3) 0.0029(3) -0.0001(3)
C2 0.0134(4) 0.0144(4) 0.0135(4) 0.0005(3) 0.0041(3) -0.0012(3)
C4 0.0137(4) 0.0140(4) 0.0136(4) -0.0009(3) 0.0025(3) -0.0005(3)
C3 0.0129(4) 0.0120(4) 0.0127(4) -0.0011(3) 0.0031(3) -0.0005(3)
C6 0.0156(4) 0.0163(4) 0.0141(4) -0.0004(3) 0.0009(3) 0.0002(3)
C5 0.0148(4) 0.0166(4) 0.0160(4) -0.0004(3) 0.0010(3) 0.0006(3)
loop_
_atom_type_symbol
_atom_type_description
_atom_type_scat_dispersion_real
_atom_type_scat_dispersion_imag
_atom_type_scat_source
C C 0.0033 0.0016 'International Tables Vol C Tables 4.2.6.8 and 6.1.1.4'
H H 0.0000 0.0000 'International Tables Vol C Tables 4.2.6.8 and 6.1.1.4'
N N 0.0061 0.0033 'International Tables Vol C Tables 4.2.6.8 and 6.1.1.4'
loop_
_geom_angle_atom_site_label_1
_geom_angle_atom_site_label_2
_geom_angle_atom_site_label_3
_geom_angle
_geom_angle_site_symmetry_1
_geom_angle_site_symmetry_3
C2 C1 C3 120.64(8) . 5_666
C2 C1 H1 119.7 . .
C3 C1 H1 119.7 5_666 .
C1 C2 C3 120.70(8) . .
C1 C2 H2 119.7 . .
C3 C2 H2 119.7 . .
C3 C4 C6 121.89(8) . .
C3 C4 C5 122.01(8) . .
C6 C4 C5 116.09(8) . .
C4 C3 C2 120.86(8) . .
C4 C3 C1 120.47(8) . 5_666
C2 C3 C1 118.67(7) . 5_666
N2 C6 C4 179.38(10) . .
N1 C5 C4 179.84(11) . .
loop_
_geom_bond_atom_site_label_1
_geom_bond_atom_site_label_2
_geom_bond_distance
_geom_bond_site_symmetry_2
N1 C5 1.1521(13) .
C1 C2 1.3555(12) .
C1 C3 1.4499(12) 5_666
C1 H1 0.9500 .
N2 C6 1.1546(13) .
C2 C3 1.4494(12) .
C2 H2 0.9500 .
C4 C3 1.3808(12) .
C4 C6 1.4367(13) .
C4 C5 1.4387(13) .
C3 C1 1.4500(12) 5_666

_cod_database_fobs_code 2300564
