#------------------------------------------------------------------------------
#$Date: 2016-02-21 11:56:54 +0200 (Sun, 21 Feb 2016) $
#$Revision: 176809 $
#$URL: svn://www.crystallography.net/cod/cif/2/30/04/2300491.cif $
#------------------------------------------------------------------------------
#
# This file is available in the Crystallography Open Database (COD),
# http://www.crystallography.net/. The original data for this entry
# were provided by IUCr Journals, http://journals.iucr.org/.
#
# The file may be used within the scientific community so long as
# proper attribution is given to the journal article from which the
# data were obtained.
#
data_2300491
loop_
_publ_author_name
'Krause, Lennard'
'Herbst-Irmer, Regine'
'Sheldrick, George M.'
'Stalke, Dietmar'
_publ_section_title
;
 Comparison of silver and molybdenum microfocus X-ray sources for
 single-crystal structure determination
;
_journal_coeditor_code           aj5242
_journal_issue                   1
_journal_name_full               'Journal of Applied Crystallography'
_journal_paper_doi               10.1107/S1600576714022985
_journal_volume                  48
_journal_year                    2015
_chemical_formula_moiety         'C4 Co Sc3'
_chemical_formula_sum            'C4 Co Sc3'
_chemical_formula_weight         241.85
_chemical_name_systematic
;
 ?
;
_space_group_crystal_system      orthorhombic
_space_group_IT_number           71
_space_group_name_Hall           '-I 2 2'
_space_group_name_H-M_alt        'I m m m'
_symmetry_space_group_name_Hall  '-I 2 2'
_symmetry_space_group_name_H-M   'I m m m'
_audit_creation_method           SHELXL-2014
_cell_angle_alpha                90
_cell_angle_beta                 90
_cell_angle_gamma                90
_cell_formula_units_Z            2
_cell_length_a                   3.394(2)
_cell_length_b                   4.374(2)
_cell_length_c                   11.995(3)
_cell_measurement_reflns_used    9877
_cell_measurement_temperature    100(2)
_cell_measurement_theta_max      66.393
_cell_measurement_theta_min      2.68
_cell_volume                     178.07(14)
_computing_cell_refinement       'SAINT V7.68A'
_computing_data_collection       'APEX2 v2012.2'
_computing_data_reduction        'SAINT V7.68A'
_computing_structure_refinement  'SHELXL-2014 (Sheldrick, 2014)'
_computing_structure_solution    'SHELXS-2012 (Sheldrick, 2012)'
_diffrn_ambient_temperature      100(2)
_diffrn_measured_fraction_theta_full 1.000
_diffrn_measured_fraction_theta_max 0.833
_diffrn_measurement_device_type  'Bruker Smart APEX II Quazar'
_diffrn_measurement_method       'omega scans'
_diffrn_radiation_type           AgK\a
_diffrn_radiation_wavelength     0.56086
_diffrn_reflns_av_R_equivalents  0.0268
_diffrn_reflns_av_unetI/netI     0.0120
_diffrn_reflns_Laue_measured_fraction_full 1.000
_diffrn_reflns_Laue_measured_fraction_max 0.833
_diffrn_reflns_limit_h_max       9
_diffrn_reflns_limit_h_min       -10
_diffrn_reflns_limit_k_max       12
_diffrn_reflns_limit_k_min       -12
_diffrn_reflns_limit_l_max       33
_diffrn_reflns_limit_l_min       -39
_diffrn_reflns_number            25448
_diffrn_reflns_point_group_measured_fraction_full 1.000
_diffrn_reflns_point_group_measured_fraction_max 0.833
_diffrn_reflns_theta_full        19.665
_diffrn_reflns_theta_max         67.602
_diffrn_reflns_theta_min         2.680
_diffrn_source                   'INCOATEC Microsource'
_exptl_absorpt_coefficient_mu    5.017
_exptl_absorpt_correction_T_max  0.8297
_exptl_absorpt_correction_T_min  0.7379
_exptl_absorpt_correction_type   multi-scan
_exptl_absorpt_process_details   SADABS-2014/4
_exptl_crystal_density_diffrn    4.511
_exptl_crystal_F_000             228
_exptl_crystal_size_max          0.080
_exptl_crystal_size_mid          0.050
_exptl_crystal_size_min          0.050
_refine_diff_density_max         1.183
_refine_diff_density_min         -1.051
_refine_diff_density_rms         0.210
_refine_ls_extinction_coef       0.067(3)
_refine_ls_extinction_expression Fc^*^=kFc[1+0.001xFc^2^\l^3^/sin(2\q)]^-1/4^
_refine_ls_extinction_method     SHELXL
_refine_ls_goodness_of_fit_ref   1.097
_refine_ls_hydrogen_treatment    undef
_refine_ls_matrix_type           full
_refine_ls_number_parameters     18
_refine_ls_number_reflns         1590
_refine_ls_number_restraints     0
_refine_ls_restrained_S_all      1.097
_refine_ls_R_factor_all          0.0172
_refine_ls_R_factor_gt           0.0145
_refine_ls_shift/su_max          0.002
_refine_ls_shift/su_mean         0.000
_refine_ls_structure_factor_coef Fsqd
_refine_ls_weighting_details
'w=1/[\s^2^(Fo^2^)+(0.0156P)^2^+0.0264P] where P=(Fo^2^+2Fc^2^)/3'
_refine_ls_weighting_scheme      calc
_refine_ls_wR_factor_gt          0.0314
_refine_ls_wR_factor_ref         0.0321
_reflns_Friedel_coverage         0.000
_reflns_number_gt                1463
_reflns_number_total             1590
_reflns_threshold_expression     'I > 2\s(I)'
_cod_data_source_file            aj5242sup1.cif
_cod_data_source_block           4-(Ag)
_cod_database_code               2300491
_cod_database_fobs_code          2300491
#BEGIN Tags that were not found in dictionaries:
_shelx_space_group_comment
;
The symmetry employed for this shelxl refinement is uniquely defined
by the following loop, which should always be used as a source of
symmetry information in preference to the above space-group names.
They are only intended as comments.
;
_shelx_estimated_absorpt_t_min   0.690
_shelx_estimated_absorpt_t_max   0.788
_shelxl_version_number           2014-3
_shelx_res_file
;
TITL global    I m m m      R = 0.01
CELL 0.56086   3.394   4.374  11.995  90.00  90.00  90.00
ZERR 2.00      0.002   0.002   0.003   0.00   0.00   0.00
LATT 2
SYMM - X , - Y ,   Z
SYMM   X , - Y , - Z
SYMM - X ,   Y , - Z
SFAC C Co Sc
UNIT 8 2 6
LIST 4
ACTA
TEMP -173.000
SIZE 0.08 0.05 0.05
L.S. 10
FMAP 2
PLAN 10
BOND $H
WGHT    0.015600    0.026400
EXTI    0.066630
FVAR       0.28803
CO    2    0.500000    0.000000    0.000000    10.12500    0.00678    0.00344 =
         0.00332    0.00000    0.00000    0.00000
SC1   3    0.000000    0.500000    0.000000    10.12500    0.00390    0.00428 =
         0.00408    0.00000    0.00000    0.00000
SC2   3    0.500000    0.500000    0.311986    10.25000    0.00400    0.00364 =
         0.00366    0.00000    0.00000    0.00000
C     1    0.500000    0.333795    0.124838    10.50000    0.00560    0.00438 =
         0.00456    0.00033    0.00000    0.00000
HKLF 4

REM  global    I m m m      R = 0.01
REM R1 =  0.0145 for    1463 Fo > 4sig(Fo)  and  0.0172 for all    1590 data
REM     18 parameters refined using      0 restraints

END

WGHT      0.0156      0.0264

REM Highest difference peak  1.183,  deepest hole -1.051,  1-sigma level  0.210
Q1    1   0.5000  0.0000 -0.0309  10.25000  0.05    1.18
Q2    1   0.5654 -0.0825  0.0000  10.50000  0.05    0.93
Q3    1   0.5000  0.5000  0.1616  10.25000  0.05    0.85
Q4    1   0.6215  0.0000  0.0000  10.25000  0.05    0.83
Q5    1   0.0882  0.5000  0.0153  10.50000  0.05    0.75
Q6    1   0.6875 -0.0682  0.0000  10.50000  0.05    0.70
Q7    1   0.5000  0.5000  0.1182  10.25000  0.05    0.57
Q8    1   0.3926  0.5000  0.1925  10.50000  0.05    0.56
Q9    1   0.2819  0.3343  0.3405  11.00000  0.05    0.55
Q10   1   0.3981  0.5000  0.2932  10.50000  0.05    0.55
;
_shelx_res_checksum              88224
_shelx_hkl_file
;
  -2   0   0  907.59   18.23
  -2   0   0 1000.00   18.34
  -2   0   0  982.95   18.12
  -2   0   0  995.51   18.09
  -4   0   0  397.91    8.01
  -4   0   0  392.37    7.62
  -4   0   0  395.72    7.55
   4   0   0  395.34    7.87
   4   0   0  388.61    8.33
   4   0   0  393.93    7.47
   4   0   0  402.46    7.42
  -4   0   0  384.52    7.51
  -4   0   0  384.99    7.64
  -4   0   0  387.38    7.66
  -4   0   0  397.69    8.44
  -4   0   0  385.39    7.68
   6   0   0  174.72    3.78
  -6   0   0  179.79    3.87
  -6   0   0  176.83    4.02
  -6   0   0  165.51    5.00
  -6   0   0  174.13    4.08
  -6   0   0  172.58    4.03
   6   0   0  174.01    4.89
  -6   0   0  179.82    3.98
  -8   0   0   74.20    2.23
  -8   0   0   70.38    2.33
  -8   0   0   70.22    2.25
  -8   0   0   69.65    2.05
  -8   0   0   68.64    2.08
 -10   0   0   22.25    0.92
   1   1   0    1.27    0.18
   1   1   0    1.07    0.12
  -1   1   0    1.51    0.19
   1   1   0    1.18    0.07
   1   1   0    1.01    0.14
  -1   1   0    1.27    0.18
  -1   1   0    1.34    0.14
  -1   1   0    1.17    0.15
  -1  -1   0    0.98    0.16
  -1  -1   0    1.13    0.14
  -3   1   0    0.11    0.14
  -3   1   0    0.02    0.13
  -3   1   0    0.22    0.18
   3   1   0    0.14    0.09
  -3  -1   0    0.03    0.13
  -3   1   0    0.07    0.14
   3   1   0    0.00    0.09
   3   1   0    0.06    0.09
   3   1   0    0.18    0.17
  -3  -1   0    0.06    0.18
  -5  -1   0    0.62    0.22
   5   1   0    0.79    0.24
   5  -1   0    0.73    0.29
  -5  -1   0    0.97    0.21
  -5   1   0    1.78    0.40
  -5   1   0    0.64    0.19
  -5  -1   0    1.11    0.34
  -5   1   0    0.67    0.23
  -5  -1   0    0.79    0.24
  -5   1   0    1.06    0.22
  -5  -1   0    0.20    0.20
   5  -1   0    0.83    0.39
  -5   1   0    1.05    0.27
  -5   1   0    0.74    0.22
  -5   1   0    0.84    0.37
  -5  -1   0    0.48    0.23
  -5   1   0    0.40    0.18
  -5   1   0    0.98    0.25
   5   1   0    1.08    0.40
  -5  -1   0    0.64    0.36
  -5  -1   0    0.52    0.23
  -7  -1   0    1.08    0.34
   7   1   0    0.64    0.32
  -7  -1   0    0.36    0.16
  -7   1   0    0.38    0.25
  -7   1   0    0.75    0.33
  -7  -1   0    0.35    0.30
  -7   1   0    0.25    0.27
   7  -1   0    0.46    0.60
  -7  -1   0   -0.28    0.23
  -7  -1   0    0.57    0.33
  -7  -1   0   -0.01    0.49
  -7   1   0    0.51    0.33
  -7  -1   0   -0.09    0.28
  -7   1   0    0.31    0.26
  -7  -1   0    0.63    0.28
  -9  -1   0    0.02    0.27
  -9  -1   0    0.51    0.38
  -9  -1   0    0.13    0.21
  -9  -1   0    0.67    0.43
  -9  -1   0   -0.22    0.27
   0  -2   0  763.88   14.82
   0  -2   0  795.79   14.80
   0  -2   0  774.73   14.65
   0   2   0  814.61   14.89
   0   2   0  805.55   14.81
   0   2   0  816.28   14.94
   2  -2   0  604.12   10.73
  -2   2   0  594.72   11.37
  -2   2   0  541.07   11.22
  -2  -2   0  583.60   11.13
  -2  -2   0  559.74   11.34
   2  -2   0  594.04   10.74
   2   2   0  576.94   11.11
  -2   2   0  562.99   11.00
   2  -2   0  579.75   11.08
   2   2   0  602.06   11.41
  -4  -2   0  220.62    5.38
  -4   2   0  215.32    4.43
  -4   2   0  217.16    4.83
  -4   2   0  215.95    5.10
  -4  -2   0  218.65    4.16
  -4  -2   0  217.11    4.42
  -4   2   0  210.78    4.37
  -4  -2   0  222.06    4.53
   4   2   0  212.58    4.35
  -4  -2   0  215.63    4.53
  -4   2   0  209.58    4.38
  -4   2   0  218.86    4.45
  -4   2   0  214.72    4.41
  -4   2   0  214.87    4.28
  -4  -2   0  214.91    4.88
   4   2   0  220.68    4.73
  -4   2   0  209.05    4.39
   4   2   0  215.37    5.23
  -4   2   0  217.31    4.37
  -4  -2   0  219.73    4.58
  -4  -2   0  220.49    4.53
  -4   2   0  220.44    5.01
  -4   2   0  226.08    5.13
  -4   2   0  215.94    4.39
  -6   2   0   97.94    2.33
   6  -2   0  102.97    3.39
  -6   2   0   96.77    2.50
  -6   2   0   98.56    2.46
   6   2   0   94.63    2.71
  -6  -2   0   97.34    2.70
  -6  -2   0   97.65    2.64
  -6  -2   0   95.65    2.13
  -6  -2   0   93.56    3.54
  -6  -2   0   99.08    2.48
  -6  -2   0   96.86    2.62
   6   2   0   89.71    3.32
  -6  -2   0   99.21    2.61
  -8  -2   0   39.50    1.23
  -8  -2   0   37.88    1.46
  -8  -2   0   41.00    1.69
  -8  -2   0   39.60    1.49
   8   2   0   40.50    1.55
  -8  -2   0   41.19    1.75
 -10  -2   0   14.86    0.79
  -1  -3   0   50.07    1.38
  -1   3   0   50.25    1.49
  -1  -3   0   49.60    1.36
   1  -3   0   48.87    1.36
   1   3   0   50.14    1.52
   1   3   0   47.04    1.23
  -1  -3   0   46.59    1.33
  -1   3   0   49.59    1.52
   1  -3   0   49.92    1.27
   1   3   0   47.42    1.38
  -3  -3   0   19.57    0.75
  -3  -3   0   19.86    0.73
   3  -3   0   21.55    0.86
  -3  -3   0   19.64    0.75
  -3   3   0   22.31    1.13
   3   3   0   21.51    0.95
  -3  -3   0   20.65    0.96
   3  -3   0   22.09    0.65
   3   3   0   20.43    0.67
  -3   3   0   21.09    0.75
  -3   3   0   21.35    0.73
  -3  -3   0   21.00    0.63
  -3   3   0   22.07    1.06
  -3  -3   0   19.54    0.68
  -3  -3   0   19.32    1.07
   3   3   0   21.17    1.11
   3  -3   0   20.46    0.64
  -3   3   0   20.42    0.68
  -3   3   0   21.02    0.73
   3  -3   0   20.62    0.90
  -3  -3   0   19.65    0.76
  -5   3   0    6.95    0.89
  -5  -3   0    5.91    0.61
   5   3   0    7.82    0.76
  -5  -3   0    7.04    0.65
   5  -3   0    7.47    0.31
  -5  -3   0    6.83    0.41
  -5   3   0    7.09    0.51
  -5  -3   0    7.26    0.81
  -5  -3   0    7.06    0.52
   5  -3   0    7.68    0.77
  -5  -3   0    5.83    0.59
  -5   3   0    6.70    0.47
  -5   3   0    7.01    0.88
  -5   3   0    7.37    0.52
  -5   3   0    6.42    0.54
  -5  -3   0    5.44    0.85
  -5   3   0    7.81    0.53
  -5  -3   0    5.09    0.55
   5   3   0    6.57    0.51
   5   3   0    6.31    0.89
  -7  -3   0    1.71    0.32
  -7  -3   0    2.48    0.51
  -7  -3   0    2.19    0.44
  -7  -3   0    2.11    0.49
  -7  -3   0    1.67    0.48
  -7  -3   0    2.73    0.44
  -9  -3   0    0.87    0.44
   9   3   0    0.90    0.38
  -9  -3   0    0.83    0.41
  -9  -3   0    0.63    0.33
  -9  -3   0    0.42    0.33
  -9  -3   0    0.24    0.25
   0   4   0  426.73    8.35
   0   4   0  404.36    8.17
   0  -4   0  408.91    8.25
   0  -4   0  423.48    8.23
   0   4   0  415.41    8.48
   0  -4   0  403.40    7.82
   2   4   0  298.91    5.88
   2   4   0  301.76    5.93
  -2  -4   0  309.45    6.41
  -2   4   0  304.36    6.00
  -2   4   0  294.56    5.96
   2   4   0  298.05    6.39
  -2  -4   0  307.53    6.02
   2  -4   0  301.83    6.07
   2   4   0  300.83    6.65
  -2   4   0  300.64    6.71
  -2   4   0  301.69    5.68
  -2  -4   0  302.15    6.45
  -2  -4   0  306.53    5.84
   2  -4   0  304.65    6.31
  -2   4   0  303.82    6.57
  -2   4   0  296.25    5.94
  -2   4   0  298.39    5.90
   4   4   0  163.18    4.06
  -4   4   0  164.27    3.56
   4   4   0  157.87    4.42
  -4  -4   0  157.37    3.64
  -4  -4   0  159.78    3.58
  -4   4   0  155.53    3.53
  -4   4   0  158.07    4.43
  -4   4   0  159.00    3.46
  -4   4   0  158.88    3.46
  -4   4   0  165.38    4.23
   4  -4   0  162.48    3.40
  -4  -4   0  157.18    4.41
  -4  -4   0  163.50    4.12
   4   4   0  160.13    3.42
  -4  -4   0  157.20    3.46
   4  -4   0  159.33    3.93
  -4  -4   0  155.53    3.36
  -4   4   0  162.82    3.63
  -4  -4   0  160.13    3.63
  -6   4   0   78.88    2.29
   6  -4   0   82.42    3.10
  -6  -4   0   76.22    3.29
   6   4   0   76.67    3.15
  -6  -4   0   79.66    2.22
  -6  -4   0   80.73    2.44
  -6  -4   0   79.82    2.36
  -6   4   0   81.97    2.23
   6   4   0   78.19    2.68
  -6  -4   0   76.81    2.14
  -6  -4   0   79.81    2.40
  -6   4   0   79.99    2.22
   6   4   0   78.98    2.32
  -6  -4   0   80.19    2.07
  -8  -4   0   31.88    1.54
  -8  -4   0   34.12    1.52
  -8  -4   0   32.23    1.20
  -8  -4   0   31.96    1.46
  -8  -4   0   33.97    1.36
   8   4   0   32.24    1.43
 -10  -4   0   11.41    0.66
   1  -5   0    0.06    0.16
   1   5   0    0.08    0.21
   1   5   0    0.26    0.14
   1   5   0    0.16    0.12
  -1  -5   0   -0.02    0.14
  -1   5   0    0.20    0.12
  -1  -5   0   -0.09    0.12
  -1  -5   0    0.13    0.17
  -1   5   0    0.16    0.22
   1  -5   0    0.22    0.16
  -1   5   0    0.22    0.14
   1   5   0    0.18    0.18
  -1   5   0    0.05    0.11
  -1  -5   0    0.11    0.13
   1   5   0   -0.20    0.14
  -1  -5   0   -0.02    0.15
  -1   5   0   -0.04    0.08
  -1   5   0    0.05    0.11
  -1   5   0    0.21    0.21
   1  -5   0    0.06    0.13
  -3   5   0    0.50    0.20
  -3  -5   0    0.32    0.20
  -3   5   0    0.07    0.26
  -3  -5   0    0.68    0.24
  -3   5   0    0.44    0.19
   3   5   0    0.76    0.20
   3   5   0    0.70    0.34
   3  -5   0    0.33    0.17
  -3   5   0    0.15    0.16
   3  -5   0    0.48    0.21
  -3  -5   0    0.51    0.30
  -3  -5   0    0.34    0.26
   3   5   0    0.34    0.28
   3  -5   0    0.48    0.26
  -3  -5   0    0.20    0.14
  -3  -5   0    0.65    0.21
  -3  -5   0    0.23    0.17
  -3  -5   0    0.73    0.20
   3   5   0    0.38    0.18
  -3   5   0    1.08    0.42
  -3   5   0    0.22    0.17
  -3   5   0    0.36    0.11
  -5   5   0    0.57    0.27
  -5  -5   0    0.52    0.30
  -5  -5   0    0.16    0.26
  -5  -5   0    0.16    0.22
   5   5   0    0.62    0.46
   5  -5   0    0.26    0.33
  -5   5   0    0.20    0.22
  -5  -5   0    0.26    0.38
  -5   5   0    0.32    0.40
   5   5   0    0.62    0.29
  -5   5   0    0.28    0.23
   5   5   0   -0.03    0.32
  -5  -5   0    0.61    0.45
   5  -5   0    0.33    0.20
  -5  -5   0    0.64    0.27
  -5  -5   0    0.44    0.28
   5   5   0    0.54    0.23
  -5   5   0    0.21    0.22
  -7   5   0    0.24    0.32
  -7   5   0    0.08    0.29
  -7  -5   0   -0.06    0.27
  -7  -5   0    0.28    0.33
  -7  -5   0    0.00    0.23
  -7  -5   0    0.16    0.28
  -7  -5   0    0.54    0.29
  -7  -5   0   -0.39    0.29
   7   5   0    0.28    0.32
  -9  -5   0   -0.12    0.26
   0   6   0  325.75    6.51
   0   6   0  325.38    7.18
   0  -6   0  325.08    7.05
   0   6   0  322.01    6.41
   0   6   0  318.94    6.44
   0   6   0  333.31    6.52
   0  -6   0  330.44    6.56
   0   6   0  327.71    6.37
   0  -6   0  331.97    6.57
   0  -6   0  319.23    7.08
   0   6   0  326.20    7.42
   2   6   0  279.69    5.68
   2   6   0  279.92    5.70
   2  -6   0  275.41    6.09
  -2   6   0  282.45    5.50
  -2  -6   0  273.60    5.50
  -2   6   0  280.89    5.83
  -2   6   0  274.26    6.66
  -2   6   0  281.57    5.75
  -2  -6   0  277.09    5.69
   2  -6   0  283.08    5.68
   2   6   0  276.32    6.75
   2  -6   0  274.84    6.28
  -2   6   0  278.05    6.76
  -2   6   0  285.83    5.79
  -2  -6   0  277.64    6.39
  -2  -6   0  275.07    5.84
  -2   6   0  280.01    5.71
   4   6   0  192.05    4.89
  -4   6   0  178.12    4.05
   4   6   0  183.77    4.15
  -4  -6   0  180.29    4.26
   4  -6   0  170.99    4.57
  -4  -6   0  179.14    4.86
  -4   6   0  184.33    4.17
  -4  -6   0  181.41    5.01
   4   6   0  179.86    3.98
  -4  -6   0  173.96    3.93
  -4   6   0  180.04    3.67
  -4  -6   0  179.74    3.95
   4  -6   0  178.08    4.21
  -4   6   0  185.50    4.28
  -4  -6   0  183.79    4.13
   4   6   0  175.75    5.21
  -4   6   0  179.12    5.30
  -4   6   0  181.81    4.15
  -4  -6   0  178.69    4.03
  -6  -6   0   90.06    2.79
  -6  -6   0   94.60    2.67
  -6   6   0   90.97    2.70
   6   6   0   93.70    2.70
  -6  -6   0   91.47    2.46
  -6   6   0   89.28    2.59
  -6  -6   0   91.14    2.51
  -6  -6   0   97.53    2.79
  -6  -6   0   87.38    2.41
  -6   6   0   93.18    2.65
  -8  -6   0   39.11    1.41
  -8  -6   0   35.65    1.35
  -8  -6   0   39.22    1.66
  -8  -6   0   36.38    1.61
  -8  -6   0   38.64    1.46
   8   6   0   37.42    1.53
  -8  -6   0   39.72    1.58
 -10  -6   0   13.84    0.63
   1   7   0    0.49    0.25
  -1   7   0    0.66    0.23
  -1   7   0    0.23    0.19
   1  -7   0    0.45    0.23
  -1   7   0    0.62    0.36
  -1  -7   0    0.23    0.26
  -1   7   0    0.15    0.17
  -1   7   0    0.64    0.38
  -1  -7   0    0.34    0.23
   1  -7   0    0.20    0.25
  -1  -7   0    0.44    0.22
   1   7   0    0.02    0.30
   1  -7   0    0.59    0.32
   1  -7   0    0.53    0.23
   1   7   0    0.20    0.19
  -1   7   0    0.59    0.21
  -3  -7   0    0.20    0.25
  -3   7   0    0.43    0.42
   3   7   0    0.16    0.20
  -3  -7   0    0.01    0.32
  -3   7   0    0.61    0.28
   3   7   0    0.17    0.34
   3  -7   0    0.13    0.30
   3   7   0   -0.19    0.20
  -3   7   0    0.00    0.39
   3  -7   0    0.61    0.24
  -3   7   0    0.57    0.20
  -3  -7   0    0.60    0.26
  -3  -7   0   -0.05    0.24
  -3   7   0    0.60    0.29
   3  -7   0    0.44    0.28
  -3   7   0    0.05    0.21
  -5  -7   0   -0.08    0.24
  -5  -7   0    0.85    0.34
  -5   7   0    0.02    0.26
   5   7   0    0.42    0.31
  -5   7   0    0.26    0.20
  -5  -7   0    0.39    0.35
  -5  -7   0    0.01    0.28
  -5   7   0    0.52    0.29
   5   7   0    0.16    0.25
  -5   7   0    0.28    0.31
  -5   7   0    0.09    0.28
  -5  -7   0    0.55    0.29
  -7  -7   0   -0.17    0.28
  -7  -7   0   -0.25    0.37
   7   7   0    0.60    0.37
  -7  -7   0    0.18    0.36
  -7   7   0    0.92    0.38
  -7   7   0    0.64    0.38
  -7   7   0    0.09    0.20
  -7  -7   0    1.01    0.43
  -7  -7   0    0.21    0.29
  -7  -7   0    0.51    0.32
  -9  -7   0    0.13    0.25
   0   8   0  112.78    2.80
   0  -8   0  112.17    2.88
   0   8   0  114.16    2.63
   0   8   0  110.53    2.82
   0  -8   0  109.91    3.46
   0  -8   0  110.34    2.86
   0   8   0  113.04    3.85
   2  -8   0   94.88    2.65
  -2  -8   0   98.00    2.59
  -2   8   0  101.47    2.63
  -2   8   0   98.77    2.61
  -2   8   0   96.42    2.40
   2   8   0   95.93    2.57
   2  -8   0  102.08    2.59
  -2   8   0   97.48    3.56
   2   8   0   99.71    2.59
   2  -8   0   94.55    3.03
  -2   8   0  103.01    3.63
   2   8   0   90.69    3.52
  -2  -8   0   99.67    2.74
   2  -8   0   97.55    3.21
  -2   8   0  100.40    2.73
  -2  -8   0  101.49    3.34
  -4   8   0   70.50    2.30
  -4   8   0   68.13    2.11
  -4   8   0   63.24    2.13
  -4   8   0   69.08    1.83
   4  -8   0   70.10    2.20
  -4  -8   0   67.97    2.28
   4   8   0   66.60    2.11
   4   8   0   65.15    2.00
  -6   8   0   33.95    1.12
   6   8   0   35.63    1.50
  -6  -8   0   35.99    1.64
   6  -8   0   33.71    1.44
  -6  -8   0   36.01    1.33
  -6   8   0   36.26    1.52
  -6   8   0   33.38    1.54
  -8  -8   0   16.76    0.79
  -1  -9   0    4.65    0.60
  -1   9   0    4.66    0.50
   1  -9   0    3.72    0.57
   1   9   0    4.65    0.94
  -1  -9   0    3.84    0.75
  -1   9   0    5.06    0.61
   1   9   0    4.89    0.58
   1  -9   0    5.33    0.62
   1  -9   0    4.09    0.78
  -1   9   0    5.00    0.56
  -1   9   0    4.18    0.56
  -1  -9   0    6.78    0.75
  -1   9   0    5.48    1.05
   3   9   0    3.26    0.50
  -3  -9   0    3.32    0.60
   3  -9   0    2.94    0.52
  -3   9   0    3.06    0.51
  -3   9   0    3.44    0.55
   3   9   0    4.03    0.60
  -3   9   0    3.71    0.47
  -3   9   0    2.92    0.54
  -5   9   0    1.66    0.44
  -5   9   0    1.83    0.50
  -5  -9   0    2.15    0.55
   5   9   0    2.01    0.44
  -5   9   0    1.36    0.32
   5  -9   0    1.93    0.47
  -5   9   0    1.96    0.48
   5   9   0    1.38    0.44
   0  10   0   58.15    1.99
   0 -10   0   61.33    2.07
   0 -10   0   62.96    2.08
   2 -10   0   54.18    1.96
  -2  10   0   55.62    1.90
  -2  10   0   50.08    1.65
  -2  10   0   57.17    1.86
  -2  10   0   51.49    1.93
  -2 -10   0   55.24    1.89
  -4  10   0   35.83    1.50
  -4  10   0   34.61    1.28
   4 -10   0   35.29    1.53
   4  10   0   37.21    1.55
  -4 -10   0   36.64    1.63
  -4  10   0   36.64    1.49
   4  10   0   35.31    1.40
  -4  10   0   36.43    1.60
  -1  11   0   -0.01    0.29
  -1 -11   0   -0.43    0.27
   1  11   0   -0.17    0.25
  -1 -11   0   -0.23    0.32
   1 -11   0   -0.19    0.32
   3 -11   0    0.28    0.34
  -3  11   0    0.07    0.31
  -3  11   0   -0.40    0.29
  -3  11   0   -0.11    0.24
  -3  11   0    0.14    0.33
  -3 -11   0    0.02    0.32
   3  11   0    0.21    0.29
   0  12   0   44.40    1.65
  -1   0  -1   13.19    0.48
  -1   0  -1   13.60    0.38
  -1   0   1   13.73    0.44
  -1   0  -1   13.33    0.47
  -1   0   1   13.96    0.41
  -3   0   1    0.64    0.23
  -3   0   1    0.60    0.19
   3   0  -1    0.40    0.09
   3   0   1    0.54    0.10
  -3   0  -1    0.06    0.17
  -3   0  -1    0.83    0.20
   3   0   1    0.56    0.18
   3   0   1    0.47    0.08
   3   0  -1    0.45    0.21
   3   0  -1    0.61    0.09
  -3   0  -1    0.54    0.23
  -3   0   1    0.41    0.16
  -5   0  -1    0.28    0.19
  -5   0  -1    0.34    0.25
  -5   0  -1    0.14    0.15
  -5   0   1    0.20    0.17
  -5   0   1   -0.33    0.20
  -5   0   1   -0.11    0.14
   5   0  -1    0.13    0.14
  -5   0   1    0.22    0.16
  -5   0   1    0.28    0.29
  -5   0  -1    0.56    0.21
  -5   0  -1    0.04    0.17
  -5   0  -1    0.19    0.25
  -5   0  -1    0.10    0.18
   5   0   1    0.22    0.31
  -5   0   1    0.24    0.18
   5   0  -1    0.00    0.28
  -5   0   1    0.15    0.14
  -5   0   1    0.20    0.18
   5   0   1   -0.04    0.13
  -7   0  -1    0.49    0.31
  -7   0  -1    0.79    0.36
  -7   0  -1    0.46    0.28
   7   0  -1    0.42    0.26
  -7   0  -1    0.59    0.32
   7   0  -1    0.51    0.57
  -7   0  -1    0.45    0.52
  -7   0   1    0.54    0.32
  -7   0   1    0.32    0.27
  -7   0   1    0.17    0.29
  -7   0   1    0.47    0.26
   7   0   1    0.47    0.26
  -7   0   1    0.40    0.26
  -7   0  -1    0.27    0.25
  -7   0  -1    0.47    0.32
  -9   0  -1    0.41    0.33
  -9   0  -1    0.55    0.40
  -9   0   1    0.38    0.28
  -9   0   1    0.69    0.39
  -9   0  -1    0.30    0.29
  -9   0  -1    1.17    0.47
  -9   0   1    0.75    0.44
   0  -1  -1   53.68    1.15
   0  -1  -1   54.80    1.14
   0   1  -1   54.21    1.17
   0   1   1   52.11    1.18
   0   1   1   55.36    1.17
   0  -1   1   52.61    1.15
   0  -1  -1   56.50    1.13
   0  -1   1   53.69    1.15
   2   1  -1   35.49    0.88
  -2   1   1   32.78    1.05
  -2   1   1   34.21    1.03
  -2  -1  -1   34.10    1.15
  -2  -1  -1   33.53    0.96
   2   1  -1   34.49    0.76
   2   1  -1   35.11    1.12
  -2   1   1   34.79    1.08
   2   1  -1   34.43    0.91
  -2   1   1   33.24    1.01
  -2  -1   1   35.86    1.04
  -2  -1   1   34.29    1.15
   2   1   1   34.16    0.85
  -2   1  -1   35.45    1.09
  -2   1  -1   32.95    0.95
   2   1   1   35.52    0.88
   2   1   1   34.74    1.15
   2   1   1   34.12    0.92
  -2   1  -1   35.65    1.12
  -2   1  -1   33.84    1.04
  -4   1   1    8.49    0.41
  -4   1   1    8.51    0.44
  -4  -1  -1    8.89    0.51
  -4   1   1    9.08    0.48
  -4   1   1    7.37    0.60
  -4   1   1   10.11    0.76
  -4   1   1    8.66    0.73
  -4  -1  -1    8.82    0.89
  -4  -1  -1    8.67    0.44
  -4  -1  -1    8.43    0.52
  -4   1   1    8.20    0.46
  -4  -1  -1    8.64    0.50
   4   1  -1    9.66    0.75
   4   1  -1    8.17    0.48
  -4  -1  -1    8.42    0.48
  -4  -1  -1    9.05    0.61
  -4   1   1    8.20    0.48
  -4   1   1    8.01    0.45
  -4   1   1    9.04    0.44
  -4   1  -1    8.22    0.42
  -4  -1   1    8.91    0.52
  -4   1  -1    9.86    0.74
   4   1   1    9.59    0.91
  -4   1  -1    8.90    0.46
  -4   1  -1    9.00    0.50
  -4   1  -1    9.49    0.62
  -4  -1   1    9.26    0.51
  -4   1  -1    9.23    0.47
  -4  -1   1    8.56    0.50
  -4   1  -1    8.16    0.40
  -4   1  -1    9.06    0.46
  -4  -1   1    8.55    0.44
  -4   1  -1    8.27    0.47
   4   1   1    8.61    0.50
  -4  -1   1    8.29    0.48
  -4  -1   1    9.34    0.65
  -4  -1   1    8.61    0.44
  -4   1  -1    8.03    0.79
  -4  -1   1    7.32    0.81
   6   1  -1    2.95    0.64
  -6  -1  -1    2.49    0.44
  -6  -1  -1    1.71    0.38
  -6  -1  -1    1.77    0.37
  -6   1   1    2.74    0.42
  -6   1   1    2.39    0.42
   6  -1   1    3.41    0.71
  -6   1   1    2.72    0.38
  -6   1   1    2.09    0.34
  -6  -1  -1    1.80    0.59
   6  -1   1    2.28    0.25
   6   1  -1    1.89    0.33
  -6  -1  -1    1.78    0.32
  -6  -1  -1    2.07    0.41
  -6   1   1    2.30    0.39
  -6   1  -1    1.73    0.34
   6   1   1    3.14    0.73
  -6   1  -1    1.72    0.35
   6   1   1    2.86    0.42
  -6  -1   1    1.67    0.33
  -6   1  -1    2.24    0.34
  -6  -1   1    2.91    0.46
  -6   1  -1    2.70    0.43
  -6  -1   1    2.27    0.41
  -6   1  -1    2.10    0.58
  -6  -1   1    2.37    0.66
  -6  -1   1    2.40    0.43
  -6   1  -1    1.58    0.34
  -6  -1   1    2.47    0.42
  -8  -1  -1    1.06    0.34
  -8   1   1    0.77    0.33
  -8  -1  -1    0.62    0.21
  -8  -1  -1    0.47    0.38
  -8   1   1    0.48    0.33
  -8  -1  -1    0.56    0.33
  -8  -1  -1    0.90    0.39
  -8   1   1    1.07    0.38
  -8  -1   1    0.76    0.23
  -8  -1   1    0.89    0.40
  -8   1  -1    1.29    0.42
  -8   1  -1    1.02    0.35
  -8  -1   1    0.27    0.37
  -8   1  -1    0.76    0.40
  -8  -1   1    0.82    0.33
  -8  -1   1    0.62    0.39
  -8  -1   1    1.31    0.40
  -8   1  -1    1.06    0.32
 -10  -1  -1    0.30    0.26
 -10  -1   1   -0.01    0.24
   1  -2   1   24.09    0.73
  -1  -2  -1   22.78    0.72
   1  -2   1   22.31    0.63
  -1  -2  -1   23.36    0.78
   1  -2   1   22.77    0.53
  -1  -2  -1   23.23    0.71
   1   2  -1   23.50    0.75
   1   2  -1   22.63    0.58
   1   2  -1   23.28    0.83
  -1   2   1   21.95    0.76
   1  -2   1   22.70    0.63
   1  -2  -1   22.98    0.74
   1  -2  -1   22.76    0.62
   1  -2  -1   24.05    0.64
   1  -2  -1   23.17    0.66
  -1  -2   1   24.08    0.78
  -1   2  -1   23.45    0.85
   1   2   1   22.42    0.63
  -1  -2   1   22.64    0.71
   1   2   1   23.30    0.84
  -1  -2   1   23.91    0.76
   1   2   1   24.59    0.78
  -1   2  -1   23.20    0.83
  -3  -2  -1   10.10    0.50
  -3   2   1   10.92    0.64
  -3  -2  -1   10.28    0.50
   3   2  -1   10.64    0.57
  -3  -2  -1    9.62    0.48
  -3  -2  -1   10.56    0.50
  -3   2   1   11.61    0.65
  -3  -2  -1   10.69    0.75
  -3   2   1    9.42    0.66
   3   2  -1   10.37    0.72
  -3  -2  -1   11.32    0.62
  -3   2   1   10.95    0.66
  -3  -2   1    9.82    0.47
  -3  -2   1   10.53    0.49
  -3  -2   1    9.49    0.61
  -3  -2   1    9.17    0.47
  -3   2  -1   10.68    0.70
   3   2   1    9.84    0.31
   3   2   1   10.75    0.59
  -3  -2   1   10.52    0.49
  -3  -2   1    9.52    0.71
   3   2   1   10.19    0.72
  -3   2  -1   11.07    0.71
  -3  -2   1   10.05    0.44
  -3   2  -1   10.49    0.61
  -5   2   1    8.93    0.48
  -5  -2  -1   10.61    1.16
  -5   2   1    9.06    0.51
  -5  -2  -1    9.58    0.62
   5   2  -1    8.84    0.63
  -5  -2  -1    9.11    0.38
  -5   2   1    7.91    0.53
  -5   2   1    8.76    0.55
   5   2  -1    8.91    0.53
  -5  -2  -1    8.97    0.55
   5  -2   1    8.66    0.91
   5   2  -1    9.98    1.05
  -5   2   1    7.88    0.53
  -5  -2  -1    8.59    0.60
  -5   2   1    8.93    0.54
  -5  -2  -1    7.07    0.63
  -5  -2  -1    8.06    0.67
  -5   2   1    8.70    0.90
  -5   2   1    8.85    0.53
  -5  -2  -1    9.05    0.84
  -5   2   1    8.24    0.50
  -5   2   1    8.84    0.50
  -5   2   1    9.44    0.87
  -5   2  -1    9.58    1.01
  -5   2  -1    8.82    0.53
   5   2   1    7.91    0.69
  -5   2  -1    8.16    0.57
  -5   2  -1    8.75    0.52
   5   2   1    8.39    0.47
  -5  -2   1    8.77    0.58
   5  -2  -1    9.31    0.98
  -5   2  -1    9.87    0.53
  -5  -2   1    7.21    0.65
  -5   2  -1    7.92    0.88
  -5  -2   1    7.91    0.99
  -5   2  -1    7.59    0.51
  -5   2  -1    8.80    0.48
  -5  -2   1    8.65    0.61
  -5   2  -1    8.33    0.51
   5   2   1    7.59    0.96
  -5  -2   1    9.00    0.60
  -5   2  -1    8.83    0.50
  -5  -2   1    7.59    0.81
  -5  -2   1    8.57    0.37
  -5   2  -1    9.15    0.53
  -5  -2   1    8.47    0.54
  -7  -2  -1    5.43    0.66
  -7  -2  -1    5.07    0.43
  -7  -2  -1    5.01    0.67
  -7  -2  -1    5.32    0.58
  -7  -2  -1    5.82    0.74
  -7  -2  -1    3.64    0.58
  -7  -2  -1    4.59    0.55
  -7  -2   1    5.01    0.58
  -7  -2   1    4.73    0.42
   7   2   1    5.60    1.05
  -7  -2   1    5.39    0.70
  -7  -2   1    5.65    0.71
  -7  -2   1    4.69    0.65
  -7  -2   1    5.39    0.67
  -7  -2   1    4.33    0.54
   9   2  -1    1.47    0.42
  -9  -2  -1    1.57    0.49
  -9  -2  -1    1.88    0.40
  -9  -2  -1    1.72    0.47
  -9  -2  -1    2.04    0.45
  -9  -2  -1    1.53    0.32
  -9  -2   1    2.41    0.55
  -9  -2   1    2.16    0.42
  -9  -2   1    2.07    0.45
  -9  -2   1    1.95    0.51
   9   2   1    2.13    0.49
   0   3   1  119.21    2.76
   0  -3  -1  121.64    2.66
   0  -3   1  121.25    2.62
   0  -3   1  114.99    2.35
   0   3   1  119.92    2.72
   0   3  -1  114.45    2.60
   0   3   1  114.16    2.61
   0  -3  -1  120.56    2.61
   0  -3   1  120.01    2.65
   0   3  -1  115.29    2.79
   0  -3  -1  116.70    2.43
   0   3  -1  120.23    2.70
  -2   3   1   76.76    2.05
   2  -3   1   71.66    1.71
   2   3  -1   74.88    2.16
  -2   3   1   72.03    2.15
   2  -3   1   76.68    1.70
   2  -3   1   72.78    1.89
  -2  -3  -1   72.99    2.09
   2   3  -1   72.95    1.96
  -2  -3  -1   73.95    1.95
   2  -3   1   72.77    1.64
   2  -3  -1   71.82    1.71
   2  -3  -1   76.63    1.95
   2   3   1   76.49    2.19
  -2  -3   1   79.12    2.12
  -2  -3   1   72.55    1.98
  -2   3  -1   73.65    2.12
   2  -3  -1   72.96    1.73
   2   3   1   73.36    1.99
   2  -3  -1   76.37    1.70
   2   3   1   71.88    1.58
  -4  -3  -1   29.70    0.95
  -4  -3  -1   29.96    0.93
   4   3  -1   33.08    1.54
  -4   3   1   31.63    1.49
  -4  -3  -1   31.11    1.06
  -4  -3  -1   29.18    1.26
  -4   3   1   30.85    1.03
  -4   3   1   29.55    0.98
  -4   3   1   28.17    0.92
   4  -3   1   30.68    0.79
   4   3  -1   29.96    1.22
  -4  -3  -1   29.76    1.07
  -4  -3  -1   28.10    1.49
  -4   3   1   29.36    0.95
  -4  -3  -1   28.64    1.04
  -4   3   1   27.95    0.96
  -4  -3  -1   29.23    0.84
   4   3  -1   30.34    0.94
   4  -3   1   30.23    1.19
  -4   3   1   28.92    0.94
  -4  -3  -1   29.34    1.07
  -4   3   1   28.28    1.32
  -4   3  -1   29.29    1.01
  -4  -3   1   29.58    1.05
   4   3   1   30.19    0.90
  -4   3  -1   30.93    1.49
  -4  -3   1   29.04    1.03
  -4   3  -1   31.19    0.99
  -4  -3   1   28.43    1.48
   4  -3  -1   30.41    1.25
  -4  -3   1   29.65    0.84
  -4  -3   1   29.50    0.95
  -4   3  -1   29.50    0.92
   4  -3  -1   31.17    1.29
  -4   3  -1   30.05    0.99
   4   3   1   27.52    1.48
  -4   3  -1   27.55    0.95
  -4  -3   1   30.04    1.31
   4   3   1   30.06    1.24
  -4  -3   1   29.35    1.07
  -4   3  -1   29.65    1.41
   4  -3  -1   29.04    0.81
   4  -3  -1   29.89    0.79
  -4  -3   1   26.54    1.01
  -6   3   1   12.15    0.68
   6   3  -1   14.94    1.45
   6   3  -1   12.14    0.66
  -6  -3  -1    9.73    0.66
  -6  -3  -1    9.86    1.24
   6   3  -1   10.64    0.95
  -6  -3  -1   10.84    0.79
  -6   3   1   11.86    0.70
  -6  -3  -1   11.39    0.78
  -6  -3  -1   11.56    0.57
  -6   3   1   11.34    0.72
   6  -3   1   11.47    1.22
  -6  -3  -1   11.62    0.83
  -6  -3   1   11.62    0.83
  -6  -3   1   11.59    0.58
  -6   3  -1   10.89    0.66
  -6  -3   1   10.93    0.78
  -6   3  -1   11.60    0.71
   6   3   1   12.79    1.05
  -6  -3   1   10.50    0.68
  -6  -3   1   11.50    0.79
  -6  -3   1    9.69    1.26
   6   3   1   11.35    1.30
  -6  -3   1   12.15    0.81
  -8  -3  -1    4.06    0.67
  -8  -3  -1    3.34    0.43
  -8  -3  -1    4.02    0.55
  -8  -3  -1    4.00    0.63
  -8  -3  -1    3.47    0.54
  -8  -3  -1    2.59    0.53
   8   3  -1    4.38    0.62
  -8  -3   1    3.68    0.56
  -8  -3   1    4.15    0.65
  -8  -3   1    3.92    0.68
  -8  -3   1    3.79    0.44
   8   3   1    3.80    0.59
  -8  -3   1    4.29    0.57
 -10  -3  -1    1.39    0.34
 -10  -3   1    1.65    0.35
  -1   4   1    8.57    0.65
  -1  -4  -1    8.20    0.53
  -1   4   1    7.86    0.41
  -1   4   1    7.78    0.32
  -1  -4  -1    8.44    0.42
  -1   4   1    8.55    0.40
  -1  -4  -1    8.56    0.52
   1   4  -1   10.05    0.70
   1  -4   1    7.25    0.48
   1  -4   1    7.72    0.52
   1   4  -1    7.38    0.46
  -1   4   1    9.50    0.66
  -1  -4  -1    7.63    0.53
   1   4  -1    9.31    0.41
   1   4  -1    6.24    0.56
  -1  -4   1    9.04    0.58
   1  -4  -1    7.75    0.49
  -1  -4   1    7.34    0.47
   1   4   1    9.70    0.60
   1   4   1    7.64    0.38
  -1   4  -1    8.29    0.42
  -1   4  -1    7.42    0.32
  -1  -4   1    9.19    0.44
   1  -4  -1    9.19    0.57
  -1   4  -1    8.58    0.43
   1   4   1    8.91    0.51
  -1  -4   1    8.00    0.52
   1   4   1   10.14    0.69
  -1   4  -1    7.46    0.38
  -1   4  -1    8.26    0.65
  -1   4  -1    8.89    0.66
   3   4  -1    8.29    0.45
  -3  -4  -1    8.62    0.52
   3  -4   1    8.71    0.48
   3   4  -1    8.89    0.91
  -3   4   1    9.10    0.48
  -3  -4  -1    8.75    0.88
  -3   4   1    8.13    0.44
  -3  -4  -1    9.99    0.52
  -3  -4  -1    9.65    0.81
  -3   4   1    9.07    0.85
  -3   4   1    7.86    0.46
  -3   4   1    9.63    0.54
  -3   4   1    7.58    0.43
  -3   4   1    9.19    0.94
  -3   4   1    8.14    0.47
  -3  -4  -1    8.55    0.45
  -3  -4  -1    8.57    0.44
  -3  -4  -1    8.36    0.50
   3  -4   1    9.19    0.64
  -3  -4  -1    8.03    0.48
   3   4  -1    8.36    0.77
   3  -4  -1    9.35    0.49
  -3  -4   1    8.35    0.45
  -3   4  -1    8.45    0.50
  -3  -4   1    9.14    0.53
  -3  -4   1    8.12    0.84
  -3   4  -1    7.66    0.46
  -3   4  -1    8.55    0.48
  -3   4  -1    6.65    0.79
  -3   4  -1    7.55    0.84
   3   4   1    9.63    0.95
  -3   4  -1    8.86    0.52
   3   4   1    8.44    0.44
   3   4   1    7.27    0.71
   3  -4  -1    7.20    0.67
  -3  -4   1    9.09    0.48
   3   4   1    8.96    0.52
  -3  -4   1    8.87    0.44
  -3   4  -1    8.18    0.44
  -3  -4   1   10.18    0.73
  -3  -4   1    7.92    0.49
  -5   4   1    7.12    0.61
  -5  -4  -1    7.46    0.49
  -5  -4  -1    6.82    0.64
  -5   4   1    8.02    0.54
  -5  -4  -1    6.52    0.66
   5   4  -1    7.11    0.98
   5   4  -1    7.40    0.79
  -5  -4  -1    6.93    0.83
   5   4  -1    7.37    0.50
  -5  -4  -1    7.62    0.70
  -5   4   1    6.71    0.62
  -5  -4  -1    7.35    0.55
  -5   4   1    7.99    0.56
   5  -4   1    8.51    0.85
   5  -4   1    8.10    0.43
  -5  -4  -1    6.06    0.94
  -5   4   1    6.78    0.97
  -5  -4   1    5.82    0.91
  -5  -4   1    8.24    0.93
  -5   4  -1    6.94    0.62
  -5   4  -1    7.72    0.99
  -5   4  -1    7.32    0.99
  -5  -4   1    5.89    0.63
  -5  -4   1    7.51    0.68
  -5  -4   1    7.07    0.68
   5  -4  -1    5.68    0.72
   5   4   1    7.23    0.64
   5   4   1    6.14    0.51
  -5   4  -1    6.85    0.62
  -5   4  -1    6.90    0.62
  -5   4  -1    6.64    0.55
  -5  -4   1    6.69    0.46
   5   4   1    5.76    0.73
  -5  -4   1    7.07    0.68
  -5  -4   1    8.14    0.57
   5   4   1    8.58    1.08
  -5   4  -1    7.18    0.60
   5  -4  -1    6.86    0.40
  -7  -4  -1    3.59    0.46
  -7  -4  -1    3.11    0.49
  -7  -4  -1    3.76    0.54
  -7  -4  -1    3.96    0.64
  -7  -4  -1    3.21    0.61
   7   4  -1    4.13    0.62
  -7  -4  -1    2.75    0.53
  -7  -4   1    3.99    0.47
  -7  -4   1    3.38    0.52
  -7  -4   1    3.97    0.61
  -7  -4   1    2.62    0.56
  -7  -4   1    3.88    0.52
  -7  -4   1    3.50    0.61
   7   4   1    4.21    0.60
  -9  -4  -1    1.74    0.40
  -9  -4   1    1.46    0.39
   0   5  -1   14.81    0.53
   0  -5   1   14.85    0.61
   0  -5  -1   13.58    0.75
   0   5   1   14.68    0.58
   0   5   1   14.33    0.55
   0   5   1   14.75    0.58
   0  -5   1   15.54    0.63
   0   5  -1   14.44    0.54
   0   5   1   13.90    0.59
   0   5  -1   14.57    0.58
   0  -5   1   14.92    0.79
   0   5  -1   14.11    0.59
   0   5   1   15.56    0.93
   0  -5   1   14.64    0.80
   0   5   1   14.90    0.85
   0  -5  -1   14.02    0.79
   0   5  -1   15.22    0.85
   0   5  -1   13.28    0.88
   0  -5  -1   14.70    0.61
   0  -5  -1   14.40    0.61
   0   5   1   14.16    0.52
  -2   5   1   10.16    0.49
  -2  -5  -1   10.42    0.57
   2   5  -1   10.28    0.50
  -2   5   1    9.95    0.41
   2   5  -1    8.30    0.86
  -2  -5  -1   10.84    0.74
  -2  -5  -1    9.12    0.44
   2  -5   1   10.22    0.52
  -2  -5  -1    9.78    0.48
  -2   5   1   10.44    0.53
  -2   5   1    9.67    0.55
  -2  -5  -1    9.69    0.47
  -2  -5  -1   10.88    0.53
   2  -5   1   11.23    0.64
   2   5  -1    9.45    0.51
   2  -5   1    7.69    0.73
   2   5  -1   10.21    0.87
  -2   5   1    8.37    0.91
  -2   5   1   10.33    0.95
  -2   5   1   10.61    0.57
  -2  -5  -1    9.69    0.49
  -2   5   1   10.32    0.51
  -2  -5  -1   10.97    0.75
  -2  -5   1   10.15    0.52
  -2   5  -1    9.50    0.53
   2   5   1   11.55    1.06
  -2   5  -1   11.06    1.01
   2  -5  -1   10.99    0.73
  -2   5  -1    9.44    0.52
  -2   5  -1    9.41    0.94
  -2  -5   1   10.35    0.59
  -2  -5   1    8.36    0.77
  -2   5  -1    9.95    0.41
   2  -5  -1   10.48    0.62
   2  -5  -1    8.12    0.47
  -2   5  -1   10.24    0.55
   2   5   1   10.43    0.87
  -2  -5   1   10.03    0.70
  -2  -5   1   10.40    0.48
  -2  -5   1    8.60    0.45
   2   5   1    8.66    0.51
  -2  -5   1    9.57    0.45
   2   5   1    9.97    0.50
  -2  -5   1    9.56    0.48
  -2   5  -1   10.00    0.51
  -4   5   1    3.90    0.25
   4   5  -1    4.64    0.76
  -4  -5  -1    5.19    0.74
  -4  -5  -1    4.11    0.73
   4  -5   1    3.77    0.57
  -4   5   1    4.56    0.48
  -4  -5  -1    4.39    0.44
  -4  -5  -1    4.60    0.51
  -4  -5  -1    4.23    0.47
   4   5  -1    4.85    0.51
  -4   5   1    4.78    0.50
   4   5  -1    4.15    0.43
  -4   5   1    3.80    0.71
   4   5  -1    3.79    0.61
  -4  -5  -1    4.25    0.52
   4  -5   1    5.17    0.50
  -4  -5  -1    4.39    0.43
  -4   5   1    4.95    0.48
  -4   5   1    4.81    0.54
  -4  -5   1    4.55    0.48
   4   5   1    3.75    0.40
  -4   5  -1    3.96    0.48
  -4  -5   1    4.32    0.50
   4   5   1    5.36    0.72
   4  -5  -1    4.15    0.45
  -4   5  -1    4.15    0.26
  -4   5  -1    4.72    0.77
   4  -5  -1    4.21    0.61
  -4   5  -1    4.26    0.49
  -4  -5   1    4.54    0.53
  -4  -5   1    4.34    0.70
  -4  -5   1    4.95    0.45
  -4   5  -1    3.88    0.46
   4   5   1    4.31    0.50
  -4   5  -1    4.34    0.46
  -4  -5   1    4.04    0.44
  -4  -5   1    4.18    0.73
  -4   5  -1    3.79    0.75
   4   5   1    4.30    0.74
  -6  -5  -1    1.71    0.47
   6   5  -1    2.50    0.41
  -6  -5  -1    2.20    0.41
  -6   5   1    1.09    0.61
  -6  -5  -1    2.57    0.49
  -6   5   1    2.22    0.43
  -6   5   1    1.97    0.41
  -6  -5  -1    1.11    0.31
  -6   5   1    2.50    0.48
  -6   5   1    1.72    0.37
   6  -5   1    1.58    0.29
   6   5  -1    1.63    0.42
  -6  -5  -1    2.28    0.51
  -6  -5  -1    1.96    0.40
   6  -5   1    2.96    0.79
  -6  -5   1    1.58    0.37
  -6  -5   1    2.38    0.45
  -6   5  -1    1.64    0.38
   6  -5  -1    1.51    0.29
  -6  -5   1    1.38    0.32
  -6  -5   1    2.43    0.50
  -6   5  -1    1.59    0.40
  -6  -5   1    1.11    0.39
   6   5   1    2.05    0.44
  -6   5  -1    2.25    0.43
  -6  -5   1    1.86    0.44
  -8  -5  -1    0.54    0.41
  -8  -5  -1    0.72    0.33
  -8  -5  -1    0.36    0.42
  -8  -5  -1    0.47    0.29
   8   5  -1    0.98    0.39
  -8  -5  -1    0.90    0.38
  -8  -5  -1    1.32    0.44
  -8  -5   1    0.48    0.39
  -8  -5   1    0.29    0.37
  -8  -5   1    1.04    0.37
  -8  -5   1    0.82    0.31
   8   5   1    0.62    0.36
  -8  -5   1    0.67    0.31
  -8  -5   1    0.52    0.38
 -10  -5  -1    0.02    0.22
 -10  -5   1    0.08    0.22
  -1   6   1    0.13    0.14
  -1   6   1    0.16    0.16
   1  -6   1    0.06    0.21
  -1  -6  -1    0.42    0.25
   1  -6   1    0.32    0.17
   1  -6   1    0.23    0.16
   1  -6   1    0.26    0.22
   1   6  -1    0.32    0.29
  -1   6   1    0.00    0.22
  -1   6   1    0.07    0.23
   1   6  -1    0.18    0.16
  -1   6   1    0.29    0.15
  -1   6   1    0.40    0.14
  -1  -6  -1    0.02    0.17
  -1  -6  -1    0.16    0.17
  -1   6   1    0.41    0.17
   1   6  -1    0.34    0.16
   1   6  -1    0.22    0.16
  -1   6  -1    0.17    0.14
  -1   6  -1   -0.05    0.25
   1   6   1    0.23    0.17
  -1   6  -1    0.14    0.14
   1   6   1    0.15    0.26
  -1   6  -1    0.36    0.14
   1  -6  -1    0.01    0.14
   1   6   1   -0.01    0.19
  -1  -6   1   -0.10    0.18
   1  -6  -1    0.18    0.20
   1  -6  -1    0.30    0.18
  -1   6  -1    0.04    0.14
   1   6   1    0.17    0.14
   1  -6  -1    0.00    0.21
  -1  -6   1    0.11    0.18
  -1  -6   1    0.38    0.19
  -1   6  -1    0.11    0.24
  -3   6   1    0.15    0.17
  -3   6   1   -0.05    0.26
  -3  -6  -1    0.16    0.19
  -3  -6  -1    0.15    0.20
  -3   6   1    0.25    0.21
   3   6  -1    0.19    0.16
  -3  -6  -1   -0.38    0.26
  -3  -6  -1    0.00    0.18
   3  -6   1   -0.07    0.17
  -3  -6  -1   -0.13    0.15
   3  -6   1    0.40    0.20
  -3   6   1   -0.05    0.15
   3   6  -1   -0.01    0.28
   3   6  -1    0.27    0.19
   3  -6   1   -0.15    0.20
  -3   6   1    0.16    0.34
  -3   6   1    0.40    0.23
  -3  -6  -1   -0.01    0.29
   3   6  -1   -0.04    0.29
  -3   6   1    0.14    0.12
  -3  -6  -1   -0.05    0.20
  -3  -6  -1    0.08    0.16
  -3  -6   1   -0.09    0.16
   3  -6  -1   -0.02    0.16
  -3   6  -1    0.19    0.18
  -3   6  -1    0.22    0.21
  -3   6  -1    0.28    0.19
   3   6   1   -0.12    0.27
  -3  -6   1    0.24    0.31
  -3   6  -1    0.02    0.33
   3   6   1   -0.11    0.26
  -3   6  -1    0.18    0.17
  -3  -6   1   -0.14    0.24
  -3  -6   1   -0.08    0.18
   3   6   1   -0.13    0.14
  -3   6  -1    0.37    0.31
  -3   6  -1    0.04    0.13
   3   6   1   -0.13    0.17
  -3  -6   1   -0.30    0.14
   3  -6  -1    0.24    0.24
   3  -6  -1   -0.16    0.16
   5   6  -1    0.32    0.22
  -5  -6  -1    0.07    0.22
   5   6  -1    0.08    0.25
  -5  -6  -1    0.17    0.24
  -5  -6  -1   -0.01    0.22
  -5   6   1    0.05    0.44
  -5  -6  -1    0.15    0.25
   5   6  -1    0.08    0.40
  -5  -6  -1    0.12    0.21
  -5   6   1   -0.03    0.24
  -5   6   1    0.34    0.16
  -5   6   1    0.03    0.24
  -5  -6  -1    0.30    0.30
  -5   6   1    0.07    0.23
  -5   6   1    0.28    0.26
   5   6  -1    0.15    0.45
   5  -6   1    0.14    0.22
  -5  -6  -1    0.00    0.45
  -5   6  -1    0.01    0.24
  -5  -6   1    0.14    0.25
   5  -6  -1    0.00    0.19
  -5  -6   1    0.30    0.30
  -5   6  -1    0.13    0.15
  -5   6  -1    0.28    0.26
   5   6   1    0.02    0.42
   5   6   1    0.07    0.27
  -5  -6   1    0.16    0.47
   5   6   1    0.04    0.21
  -5  -6   1    0.16    0.22
  -5   6  -1    0.11    0.23
  -5  -6   1   -0.19    0.18
  -5  -6   1   -0.09    0.41
   5  -6  -1    0.50    0.40
  -5  -6   1    0.41    0.29
  -5   6  -1    0.35    0.25
   5   6   1    0.58    0.50
  -5   6  -1    0.03    0.42
  -7  -6  -1    0.47    0.39
  -7   6   1   -0.01    0.29
  -7  -6  -1    0.38    0.28
  -7  -6  -1    0.07    0.34
  -7   6   1   -0.05    0.27
   7   6  -1    0.34    0.33
  -7  -6  -1    0.01    0.28
  -7  -6  -1   -0.43    0.29
  -7  -6  -1    0.30    0.27
  -7   6  -1    0.21    0.32
  -7  -6   1    0.09    0.34
  -7  -6   1    0.07    0.25
  -7  -6   1    0.34    0.27
  -7  -6   1    0.75    0.37
  -7  -6   1    0.46    0.32
  -7  -6   1    0.14    0.31
  -7   6  -1   -0.02    0.28
   7   6   1   -0.09    0.32
  -9  -6  -1    0.31    0.27
  -9  -6   1    0.04    0.25
   0  -7   1    6.51    0.57
   0   7   1    6.50    0.83
   0  -7  -1    6.76    0.60
   0   7   1    6.86    0.53
   0   7   1    6.18    0.43
   0   7  -1    6.14    0.91
   0   7  -1    6.65    0.57
   0  -7   1    5.54    0.74
   0  -7  -1    6.51    0.79
   0   7   1    6.09    0.54
   0  -7  -1    6.36    0.73
   0   7  -1    6.68    0.51
   0   7  -1    6.45    0.80
   0   7   1    7.16    0.57
   0  -7   1    5.92    0.73
   0   7   1    7.58    0.96
   0   7   1    6.69    0.57
   0   7  -1    6.46    0.56
   0  -7   1    7.59    0.64
   0   7  -1    5.91    0.42
   0  -7  -1    6.26    0.57
  -2   7   1    4.54    0.41
  -2  -7  -1    5.11    0.75
  -2   7   1    4.88    0.83
  -2  -7  -1    5.29    0.53
  -2   7   1    5.69    0.89
  -2   7   1    6.59    0.64
  -2  -7  -1    5.75    0.59
  -2   7   1    4.25    0.50
   2  -7   1    5.05    0.63
   2   7  -1    4.41    0.48
   2   7  -1    6.12    0.94
   2  -7   1    5.35    0.53
   2  -7   1    3.98    0.64
   2  -7   1    4.61    0.52
   2   7  -1    4.72    0.50
  -2   7   1    5.92    0.57
  -2   7  -1    5.00    0.86
   2   7   1    6.39    0.96
   2   7   1    4.76    0.50
  -2   7  -1    5.32    0.84
  -2   7  -1    4.76    0.50
   2  -7  -1    5.20    0.55
   2  -7  -1    5.00    0.50
  -2  -7   1    5.33    0.53
   2  -7  -1    5.02    0.64
  -2   7  -1    6.25    0.57
  -2   7  -1    5.01    0.56
  -2  -7   1    5.87    0.63
  -2  -7   1    4.31    0.69
  -2   7  -1    4.42    0.41
   2  -7  -1    5.83    0.78
   2   7   1    4.53    0.50
   4   7  -1    1.74    0.38
  -4  -7  -1    3.12    0.42
  -4   7   1    2.61    0.48
   4  -7   1    2.62    0.60
   4   7  -1    2.98    0.43
  -4   7   1    3.51    0.49
  -4  -7  -1    2.46    0.48
  -4   7   1    2.63    0.33
   4   7  -1    3.93    0.88
  -4   7   1    2.30    0.67
  -4  -7  -1    3.47    0.44
  -4   7   1    3.23    0.53
   4  -7   1    2.41    0.47
  -4  -7  -1    3.88    0.78
  -4   7  -1    2.68    0.33
   4   7   1    3.61    0.45
   4  -7  -1    1.76    0.55
   4  -7  -1    3.01    0.51
  -4   7  -1    2.85    0.45
  -4   7  -1    2.58    0.45
  -4  -7   1    3.05    0.70
   4   7   1    3.08    0.77
   4   7   1    3.38    0.50
  -4   7  -1    3.05    0.50
  -4   7  -1    3.20    0.54
  -4  -7   1    3.27    0.43
  -4   7  -1    2.52    0.72
  -4  -7   1    2.65    0.40
  -4  -7   1    2.94    0.52
   6   7  -1    1.47    0.37
  -6  -7  -1    1.30    0.37
  -6  -7  -1    1.84    0.51
  -6  -7  -1    1.56    0.44
   6   7  -1    1.08    0.40
  -6  -7  -1    1.86    0.39
  -6   7   1    1.45    0.45
  -6   7   1    1.58    0.42
  -6   7   1    1.62    0.28
  -6   7   1    1.34    0.38
  -6  -7  -1    1.65    0.41
  -6  -7  -1    1.23    0.45
  -6   7  -1    1.88    0.42
  -6  -7   1    0.91    0.37
  -6   7  -1    1.57    0.44
   6   7   1    1.73    0.48
  -6  -7   1    1.67    0.39
  -6  -7   1    1.01    0.34
   6  -7  -1    1.40    0.39
  -6  -7   1    1.77    0.50
  -6  -7   1    1.88    0.50
  -6   7  -1    1.39    0.26
  -6   7  -1    1.49    0.42
  -6  -7   1    1.88    0.41
  -8  -7  -1    0.79    0.31
  -8  -7   1    0.39    0.27
   1   8  -1    4.30    0.86
  -1   8   1    2.88    0.69
  -1   8   1    4.25    0.43
  -1   8   1    3.65    0.47
  -1  -8  -1    2.75    0.47
   1   8  -1    4.00    0.52
   1   8  -1    3.49    0.47
   1  -8   1    3.55    0.51
  -1   8   1    3.25    0.48
   1  -8   1    4.19    0.51
  -1  -8  -1    2.30    0.57
  -1   8   1    3.85    0.47
   1  -8   1    3.42    0.64
  -1   8   1    4.07    0.82
  -1  -8  -1    3.90    0.51
   1  -8   1    3.21    0.63
   1   8   1    4.09    0.85
  -1   8  -1    4.28    0.54
   1  -8  -1    2.96    0.62
   1  -8  -1    3.59    0.48
  -1  -8   1    3.45    0.65
  -1   8  -1    4.17    0.80
  -1   8  -1    2.82    0.44
   1   8   1    3.88    0.51
  -1   8  -1    4.87    0.52
   1   8   1    3.54    0.47
   1  -8  -1    3.79    0.51
   1  -8  -1    3.40    0.62
  -1  -8   1    4.20    0.51
  -1   8  -1    4.25    0.43
  -1  -8   1    3.92    0.54
  -3   8   1    2.75    0.48
  -3   8   1    3.93    0.55
   3  -8   1    3.31    0.48
   3   8  -1    3.39    0.83
  -3  -8  -1    3.66    0.53
  -3   8   1    2.65    0.49
   3   8  -1    2.74    0.47
  -3   8   1    2.52    0.36
   3  -8   1    2.32    0.45
   3  -8   1    3.64    0.72
  -3   8   1    4.00    0.87
  -3  -8  -1    3.30    0.71
  -3  -8  -1    3.51    0.57
   3  -8   1    3.36    0.58
   3   8  -1    3.16    0.47
  -3   8  -1    2.81    0.51
   3   8   1    2.69    0.48
   3  -8  -1    3.65    0.72
  -3   8  -1    4.87    0.99
  -3   8  -1    3.38    0.49
   3   8   1    2.80    0.80
   3   8   1    2.66    0.43
  -3  -8   1    2.33    0.49
  -3   8  -1    3.10    0.39
   3  -8  -1    2.44    0.46
   3  -8  -1    2.81    0.55
  -3   8  -1    3.27    0.49
  -3  -8   1    3.23    0.69
  -5   8   1    2.45    0.52
  -5   8   1    2.25    0.34
  -5  -8  -1    1.00    0.42
  -5   8   1    2.23    0.47
  -5   8   1    1.94    0.47
   5  -8   1    1.61    0.42
   5   8  -1    2.01    0.46
   5   8  -1    2.14    0.43
  -5   8  -1    1.77    0.48
   5   8   1    2.77    0.47
  -5   8  -1    1.84    0.33
  -5  -8   1    1.90    0.41
   5   8   1    1.58    0.45
   5  -8  -1    2.43    0.49
  -5  -8   1    2.04    0.52
  -5   8  -1    2.06    0.47
  -5   8  -1    2.20    0.45
  -7  -8  -1    0.56    0.34
   7   8  -1    1.19    0.42
  -7  -8  -1    1.08    0.34
  -7  -8  -1    0.60    0.44
  -7  -8   1    1.26    0.38
   7   8   1    1.47    0.44
  -7   8  -1    0.91    0.39
   0  -9   1   13.45    1.32
   0   9   1   14.54    0.86
   0  -9   1   14.52    0.90
   0   9  -1   14.87    0.87
   0  -9   1   14.53    0.89
   0  -9  -1   13.94    1.34
   0   9  -1   17.24    1.73
   0  -9  -1   13.95    0.87
   0   9   1   13.10    1.49
   0  -9  -1   15.34    0.92
   0   9  -1   15.68    0.87
   2  -9   1   14.08    0.84
  -2   9   1   12.38    0.87
   2   9  -1   12.68    0.87
   2  -9   1   11.30    0.95
  -2   9   1   12.58    0.83
  -2   9   1   11.71    0.69
   2   9  -1   14.06    0.84
  -2  -9  -1   12.41    0.88
  -2  -9  -1   12.88    0.85
  -2   9   1   11.93    0.80
  -2  -9   1   13.42    0.91
  -2   9  -1   11.95    0.82
  -2  -9   1   13.32    0.86
  -2   9  -1   11.94    0.79
   2   9   1   11.88    0.79
   2  -9  -1   13.48    0.89
   2   9   1   12.56    0.96
  -2   9  -1   13.51    0.89
  -4   9   1    9.46    0.91
  -4   9   1    6.87    0.61
  -4  -9  -1    8.28    0.89
  -4   9   1    8.12    0.86
   4   9  -1    9.07    0.84
  -4   9   1    7.97    0.80
   4   9  -1    8.47    0.77
   4  -9   1    9.09    0.88
  -4   9  -1    7.08    0.81
   4  -9  -1    8.75    0.86
   4   9   1    8.82    0.75
   4   9   1    8.45    0.83
  -4   9  -1    9.33    0.89
  -4  -9   1    8.80    0.92
  -4   9  -1    8.22    0.59
  -4   9  -1    8.96    0.83
  -6   9   1    5.16    0.70
  -6  -9  -1    3.83    0.66
  -6   9   1    2.69    0.49
   6   9  -1    5.93    0.71
   6  -9   1    3.21    0.54
  -6   9   1    3.60    0.43
   6  -9  -1    4.65    0.62
  -6  -9   1    4.10    0.68
   6   9   1    2.92    0.55
  -6   9  -1    4.17    0.60
  -6   9  -1    3.80    0.62
  -6   9  -1    4.03    0.44
   1 -10   1    2.04    0.49
   1 -10   1    1.56    0.44
  -1 -10  -1    1.78    0.48
  -1 -10  -1    1.82    0.45
  -1  10   1    1.37    0.38
   1  10  -1    2.36    0.46
  -1  10   1    1.75    0.44
  -1 -10   1    1.23    0.41
   1 -10  -1    1.72    0.43
  -1 -10   1    1.74    0.44
   1 -10  -1    1.75    0.45
  -1  10  -1    1.40    0.41
   1  10   1    0.85    0.36
  -1  10  -1    1.64    0.44
  -3 -10  -1    1.30    0.44
   3 -10   1    1.39    0.43
  -3  10   1    1.25    0.40
   3  10  -1    1.13    0.37
  -3  10   1    0.61    0.33
  -3  10   1    1.85    0.43
  -3  10   1    1.19    0.32
   3 -10  -1    0.73    0.38
   3  10   1    0.89    0.33
  -3  10  -1    1.46    0.34
  -3 -10   1    1.46    0.45
  -3  10  -1    0.85    0.39
  -3  10  -1    1.55    0.42
  -3  10  -1    0.95    0.36
   3  10   1    1.41    0.49
  -5  10   1    0.46    0.34
  -5  10   1    0.64    0.34
   5  10  -1    1.10    0.36
   5  10  -1    0.71    0.45
   5 -10   1    1.31    0.40
  -5  10   1    0.41    0.24
  -5 -10  -1    0.84    0.43
  -5  10   1    1.01    0.41
  -5  10  -1    0.86    0.40
   5 -10  -1    0.74    0.36
   5  10   1    0.43    0.45
  -5  10  -1    0.85    0.38
  -5  10  -1    0.70    0.27
  -5 -10   1    0.46    0.40
   0 -11  -1    2.34    0.51
   0 -11  -1    3.40    0.58
   0 -11   1    3.64    0.62
   0 -11   1    2.16    0.50
   0  11  -1    3.07    0.54
   0  11   1    3.03    0.54
   2 -11   1    2.15    0.51
  -2  11   1    2.26    0.48
  -2  11   1    1.83    0.44
   2  11  -1    2.34    0.48
  -2 -11  -1    2.13    0.51
  -2  11  -1    2.27    0.50
  -2 -11   1    3.52    0.60
  -2  11  -1    2.53    0.52
   2 -11  -1    2.10    0.49
   2  11   1    1.96    0.44
  -1  12   1    0.19    0.34
   1  12  -1    0.46    0.31
  -1  12  -1    0.35    0.32
   1  12   1    0.20    0.31
   0   0  -2   97.96    1.89
   0   0  -2   98.10    1.95
   0   0  -2   95.89    1.90
   0   0   2   94.85    1.85
   0   0   2  100.07    1.95
  -2   0   2   43.24    1.30
   2   0   2   43.38    0.90
   2   0  -2   42.51    0.92
  -2   0   2   42.37    1.19
   2   0  -2   44.31    0.93
  -2   0  -2   43.19    1.06
   2   0   2   42.27    1.15
  -2   0  -2   43.28    1.28
   2   0  -2   42.54    1.18
  -2   0   2   41.01    1.10
   2   0   2   45.15    0.93
  -2   0  -2   42.66    1.31
   4   0   2   12.19    0.45
  -4   0  -2   10.96    0.51
  -4   0  -2   10.38    0.49
  -4   0   2   11.61    0.64
  -4   0   2   10.56    0.56
  -4   0  -2   12.19    0.51
   4   0  -2   11.21    0.78
  -4   0   2   11.57    0.85
  -4   0   2   10.87    0.54
  -4   0   2   12.87    0.76
  -4   0  -2   10.73    0.56
  -4   0  -2   10.79    0.83
  -4   0   2   11.63    0.49
  -4   0  -2   11.36    0.56
  -4   0  -2   11.55    0.66
  -4   0  -2   10.96    0.54
   4   0   2   11.37    0.66
   4   0   2   12.32    0.89
  -4   0   2   10.96    0.52
  -4   0   2   11.22    0.56
   4   0  -2   10.74    0.46
   4   0  -2   11.09    0.44
  -4   0   2   11.55    0.50
   4   0   2   11.06    0.47
  -6   0  -2    2.87    0.45
  -6   0   2    3.02    0.46
  -6   0  -2    2.54    0.37
  -6   0   2    2.46    0.42
  -6   0   2    3.36    0.42
  -6   0  -2    4.16    0.81
  -6   0   2    3.57    0.74
  -6   0   2    3.70    0.67
   6   0  -2    3.04    0.36
  -6   0  -2    2.69    0.41
  -6   0   2    3.20    0.48
  -6   0  -2    3.45    0.49
  -6   0   2    2.77    0.38
   6   0   2    4.15    0.80
  -6   0  -2    2.86    0.45
   6   0   2    2.71    0.36
  -8   0  -2    0.92    0.32
  -8   0   2    0.92    0.42
  -8   0  -2    0.38    0.36
  -8   0   2    0.95    0.33
  -8   0   2    1.48    0.47
  -8   0  -2    0.67    0.32
  -8   0   2    0.65    0.33
  -8   0  -2    1.03    0.40
  -8   0   2    1.35    0.45
 -10   0   2    0.21    0.25
 -10   0  -2    0.40    0.27
   1  -1   2  814.85   16.63
   1  -1   2  936.14   16.84
  -1  -1  -2  933.58   16.93
  -1   1   2  927.37   16.92
  -1   1   2  814.45   16.71
  -1  -1  -2  958.86   16.73
  -1   1   2  885.15   16.85
   1   1  -2  929.44   16.88
   1   1  -2  934.87   16.78
   1  -1   2  956.45   16.81
  -1  -1   2  900.46   16.84
  -1   1  -2  793.85   16.91
  -1  -1   2  940.87   16.92
   1   1   2  885.88   16.94
  -1   1  -2  856.37   16.92
   1   1   2  840.83   16.86
   1  -1  -2  926.44   16.65
   1  -1  -2  958.68   16.86
   1  -1  -2  945.76   16.66
   1   1   2  894.07   16.81
  -1  -1   2  957.53   16.69
  -1   1  -2  938.19   16.75
   3   1  -2  345.45    6.80
  -3  -1  -2  352.31    7.45
   3   1  -2  345.85    6.86
  -3   1   2  350.23    7.29
  -3   1   2  349.20    7.12
  -3   1   2  358.73    7.20
   3   1  -2  352.14    7.27
  -3   1   2  342.94    7.14
  -3  -1  -2  352.86    6.98
  -3   1  -2  354.84    7.24
   3   1   2  360.40    7.44
   3   1   2  351.69    6.88
   3   1   2  351.45    6.80
  -3  -1   2  352.43    7.45
   3   1   2  355.04    6.91
  -3   1  -2  355.92    7.28
  -3   1  -2  352.38    7.38
  -3  -1   2  352.65    7.17
  -3   1  -2  357.90    6.97
  -5   1   2  134.29    2.97
  -5   1   2  138.45    3.04
   5  -1   2  135.86    3.91
  -5  -1  -2  137.79    3.14
   5  -1   2  136.85    3.62
  -5   1   2  141.50    3.19
  -5  -1  -2  132.88    4.04
   5  -1   2  135.21    2.81
  -5  -1  -2  137.90    3.41
  -5   1   2  139.29    3.14
  -5   1   2  141.32    3.64
   5   1  -2  137.49    3.17
  -5  -1  -2  136.43    3.21
  -5  -1  -2  135.15    3.24
  -5   1   2  137.19    3.06
  -5  -1  -2  139.81    3.04
  -5   1   2  139.91    3.15
  -5  -1  -2  134.35    3.18
  -5  -1  -2  137.27    3.06
  -5   1   2  137.52    3.04
   5   1  -2  135.65    3.80
  -5   1   2  137.60    3.90
  -5  -1   2  134.94    3.13
  -5  -1   2  133.99    3.62
  -5  -1   2  139.03    3.19
  -5   1  -2  138.04    3.08
  -5   1  -2  138.26    3.10
  -5  -1   2  134.50    3.20
  -5  -1   2  129.40    4.01
  -5  -1   2  138.94    3.26
  -5  -1   2  135.34    3.06
   5  -1  -2  140.68    2.79
   5   1   2  138.13    4.01
  -5   1  -2  133.96    3.87
  -5  -1   2  138.32    3.04
  -5   1  -2  140.91    3.01
  -5   1  -2  139.31    3.16
  -5   1  -2  132.78    3.16
  -5   1  -2  139.67    3.05
   5   1   2  139.02    3.23
   5  -1  -2  149.60    3.79
  -5   1  -2  136.99    3.39
  -7  -1  -2   58.46    2.02
  -7  -1  -2   57.11    1.93
  -7   1   2   55.36    1.68
  -7  -1  -2   59.51    1.82
  -7  -1  -2   58.20    1.88
  -7   1   2   60.26    1.89
  -7  -1  -2   57.92    1.98
  -7   1   2   58.43    1.70
  -7   1   2   63.34    1.95
  -7  -1  -2   59.01    1.41
  -7  -1  -2   59.15    2.86
  -7  -1  -2   55.75    1.75
  -7   1   2   58.18    1.95
   7   1  -2   55.13    1.85
   7   1  -2   57.76    2.90
  -7  -1   2   59.88    1.80
  -7   1  -2   60.83    1.96
  -7  -1   2   56.00    1.75
  -7   1  -2   60.29    1.89
  -7   1  -2   59.02    1.75
  -7  -1   2   59.70    1.41
   7  -1  -2   57.91    2.77
  -7  -1   2   59.08    1.95
  -7  -1   2   57.30    2.02
  -7   1  -2   54.22    1.66
  -7  -1   2   57.28    1.96
   7   1   2   53.83    2.64
   7   1   2   59.80    1.88
  -7   1  -2   60.07    1.92
  -9  -1  -2   22.43    1.03
   9   1  -2   23.69    1.12
  -9  -1  -2   21.49    1.23
  -9  -1  -2   21.22    1.05
  -9  -1  -2   19.58    0.79
  -9  -1  -2   18.65    1.10
  -9   1   2   21.23    0.97
  -9  -1   2   21.76    1.23
  -9  -1   2   20.51    0.81
  -9  -1   2   21.85    1.18
  -9  -1   2   21.59    1.04
  -9  -1   2   22.65    1.04
   0  -2   2   59.99    1.42
   0  -2   2   60.68    1.40
   0  -2  -2   61.46    1.41
   0   2   2   60.93    1.47
   0   2  -2   60.32    1.54
   0   2  -2   58.92    1.45
   0   2  -2   62.26    1.28
   0  -2  -2   59.91    1.36
   0   2   2   57.60    1.47
   0  -2  -2   58.60    1.41
   0   2  -2   62.42    1.45
   0   2   2   62.05    1.44
  -2  -2  -2   33.09    1.20
  -2   2   2   33.87    1.09
  -2   2   2   34.88    1.07
   2   2  -2   32.01    1.16
   2  -2   2   33.17    0.79
  -2   2   2   32.91    1.18
   2  -2   2   34.42    0.82
   2  -2   2   33.35    0.98
  -2  -2  -2   34.61    1.02
   2   2  -2   34.03    1.04
   2   2   2   31.97    1.20
  -2   2  -2   33.08    0.97
   2   2   2   32.11    0.84
   2   2   2   34.53    1.07
  -2   2  -2   33.40    1.20
   2  -2  -2   32.25    0.81
   2  -2  -2   34.35    1.06
   2  -2  -2   34.64    0.81
  -2  -2   2   35.58    1.11
  -2  -2   2   34.54    1.20
  -2   2  -2   34.44    1.21
  -4  -2  -2    8.89    0.53
  -4   2   2    8.99    0.49
  -4  -2  -2    9.87    0.57
   4   2  -2   10.05    0.94
  -4  -2  -2    9.66    0.56
  -4   2   2    8.98    0.46
  -4   2   2    9.82    0.51
  -4   2   2    9.88    0.50
  -4  -2  -2    9.53    0.36
  -4  -2  -2    9.35    0.94
  -4   2   2   10.02    0.71
  -4   2   2    9.27    0.47
  -4   2   2    9.99    0.48
  -4  -2  -2    9.74    0.49
  -4   2   2   11.05    0.53
  -4   2   2   11.18    0.75
  -4   2   2    9.46    0.74
  -4  -2  -2   10.96    0.68
  -4   2   2    9.28    0.47
   4  -2   2    9.52    0.59
  -4  -2  -2    9.02    0.47
  -4  -2  -2    8.63    0.53
   4   2  -2    8.79    0.58
  -4   2  -2    9.65    0.49
  -4  -2   2    9.27    0.36
  -4   2  -2   10.16    0.52
   4   2   2    9.75    0.43
  -4  -2   2    9.07    0.54
  -4  -2   2   10.80    1.03
  -4  -2   2    9.06    0.53
  -4   2  -2    9.29    0.52
  -4   2  -2    9.80    0.77
  -4   2  -2    9.56    0.45
  -4   2  -2   10.01    0.49
   4   2   2    8.17    0.58
  -4   2  -2    8.94    0.46
   4   2   2   10.85    1.04
  -4  -2   2    9.37    0.53
   4  -2  -2   10.21    0.76
  -4   2  -2    8.59    0.87
  -4  -2   2   10.05    0.50
  -4   2  -2    9.74    0.49
  -4   2  -2    9.65    0.71
  -4  -2   2    8.52    0.78
  -4   2  -2    9.26    0.44
  -4  -2   2    9.44    0.56
   6   2  -2    2.77    0.47
   6  -2   2    3.16    0.73
   6   2  -2    3.33    0.67
  -6  -2  -2    2.57    0.48
  -6  -2  -2    3.23    0.50
  -6   2   2    3.52    0.44
  -6   2   2    2.98    0.43
   6   2  -2    3.05    0.40
  -6  -2  -2    2.72    0.70
  -6   2   2    3.67    0.66
  -6  -2  -2    3.67    0.46
  -6   2   2    2.76    0.43
  -6  -2  -2    2.42    0.27
  -6   2   2    2.69    0.41
  -6  -2  -2    2.44    0.43
  -6  -2  -2    3.00    0.49
  -6  -2   2    1.56    0.52
  -6  -2   2    3.14    0.31
  -6   2  -2    2.88    0.42
  -6   2  -2    2.94    0.38
  -6   2  -2    3.21    0.45
   6   2   2    2.77    0.50
  -6  -2   2    2.75    0.46
  -6  -2   2    3.09    0.50
  -6   2  -2    3.04    0.42
  -6   2  -2    3.37    0.47
  -6  -2   2    2.37    0.44
  -6  -2   2    3.13    0.47
   6  -2  -2    2.24    0.66
  -6  -2   2    3.01    0.43
   6   2   2    3.42    0.75
  -6  -2   2    2.95    0.72
  -8  -2  -2    1.15    0.36
  -8  -2  -2    0.92    0.43
  -8  -2  -2    0.74    0.35
  -8  -2  -2    0.53    0.42
  -8  -2  -2    0.38    0.36
  -8  -2  -2    0.65    0.25
  -8  -2   2    0.59    0.42
  -8  -2   2    0.78    0.25
   8   2   2    0.38    0.34
  -8  -2   2    0.71    0.34
  -8  -2   2    0.78    0.34
  -8  -2   2    0.86    0.42
  -8  -2   2    0.32    0.35
 -10  -2  -2    0.37    0.27
 -10  -2   2    0.64    0.29
   1   3  -2  505.20    9.89
   1  -3   2  508.09    9.63
  -1  -3  -2  499.41    9.64
   1   3  -2  500.62    9.69
  -1  -3  -2  498.58    9.68
   1   3  -2  494.14    9.46
  -1   3   2  512.54    9.92
   1  -3   2  515.92    9.55
  -1   3   2  505.87    9.74
  -1  -3  -2  487.54    9.62
  -1  -3   2  502.43    9.71
  -1   3  -2  504.27    9.92
   1   3   2  495.36    9.87
   1  -3  -2  505.20    9.68
  -1  -3   2  479.17    9.62
   1   3   2  487.71    9.56
  -1  -3   2  497.98    9.63
   1  -3  -2  454.26    9.34
   1   3   2  512.81    9.76
   1  -3  -2  505.79    9.54
  -3  -3  -2  245.63    4.93
  -3  -3  -2  250.83    5.35
  -3  -3  -2  247.75    4.98
  -3   3   2  249.98    4.97
   3   3  -2  248.67    5.69
  -3   3   2  254.05    5.45
   3   3  -2  249.36    5.38
   3  -3   2  258.54    4.91
  -3   3   2  254.62    4.98
  -3  -3  -2  251.54    5.76
   3  -3   2  249.49    4.94
   3   3  -2  249.84    4.96
  -3   3   2  253.15    5.01
   3  -3   2  254.03    5.27
  -3   3   2  242.50    4.94
  -3  -3  -2  251.52    5.07
  -3   3   2  254.03    5.75
  -3   3   2  251.14    5.07
  -3  -3  -2  248.39    5.03
  -3  -3  -2  257.70    4.86
  -3  -3  -2  249.54    5.08
   3   3   2  248.76    5.42
  -3  -3   2  244.01    5.05
  -3   3  -2  248.51    5.03
  -3   3  -2  252.58    5.16
  -3   3  -2  249.69    5.04
  -3  -3   2  254.21    5.74
   3  -3  -2  241.92    4.94
  -3  -3   2  246.92    5.05
  -3  -3   2  246.72    5.06
  -3   3  -2  248.89    5.73
  -3   3  -2  237.51    4.89
  -3   3  -2  245.77    5.02
  -3  -3   2  245.49    5.03
   3  -3  -2  252.90    5.31
  -3   3  -2  253.01    5.71
  -3   3  -2  247.98    5.01
  -3  -3   2  244.53    4.95
   3  -3  -2  254.69    5.42
   3  -3  -2  253.43    4.91
  -3  -3   2  252.32    4.85
  -3  -3   2  254.66    5.52
   5   3  -2  115.04    3.09
   5   3  -2  114.38    3.56
  -5   3   2  111.69    2.68
   5  -3   2  114.77    2.37
  -5  -3  -2  117.05    2.92
  -5  -3  -2  117.18    2.88
  -5  -3  -2  115.47    3.78
  -5  -3  -2  114.58    2.71
   5   3  -2  113.19    2.67
  -5   3   2  111.34    2.78
  -5   3   2  117.28    2.72
  -5  -3  -2  115.95    2.51
  -5   3   2  116.63    3.54
  -5  -3  -2  117.99    2.92
   5  -3   2  113.38    3.01
   5  -3   2  113.02    3.49
  -5   3   2  112.39    2.69
  -5   3   2  114.92    2.67
  -5   3  -2  112.53    2.73
   5   3   2  114.63    3.71
  -5   3  -2  114.57    3.56
  -5  -3   2  116.13    2.51
  -5  -3   2  114.07    2.91
   5  -3  -2  116.06    2.37
  -5  -3   2  112.09    3.74
   5   3   2  115.01    3.15
  -5   3  -2  114.33    2.75
  -5  -3   2  111.01    2.82
  -5  -3   2  113.94    2.86
  -5  -3   2  115.39    2.73
  -5  -3   2  117.23    2.88
  -5   3  -2  110.03    2.70
  -5  -3   2  118.34    3.36
  -5   3  -2  114.01    2.76
   5  -3  -2  115.65    3.21
  -7  -3  -2   52.53    1.91
  -7  -3  -2   54.98    1.75
  -7  -3  -2   52.50    1.70
  -7  -3  -2   50.62    1.49
  -7  -3  -2   52.53    1.88
  -7  -3  -2   50.06    1.93
  -7  -3   2   52.23    1.69
  -7  -3   2   51.99    1.72
  -7  -3   2   54.34    1.97
  -7  -3   2   47.47    1.79
   7   3   2   51.51    1.80
  -7  -3   2   48.36    1.84
  -7  -3   2   50.75    1.48
  -7  -3   2   49.08    1.86
  -9  -3  -2   19.35    0.99
   9   3  -2   18.13    1.03
  -9  -3  -2   18.62    0.84
  -9  -3  -2   17.89    1.07
  -9  -3  -2   18.55    0.98
  -9  -3  -2   19.55    1.17
  -9  -3   2   16.62    0.95
  -9  -3   2   18.02    1.08
  -9  -3   2   17.79    0.95
  -9  -3   2   16.88    1.11
   0  -4   2   26.15    0.98
   0   4   2   25.75    1.07
   0   4  -2   23.87    0.65
   0   4   2   25.10    0.94
   0  -4   2   26.07    0.96
   0   4  -2   26.18    1.03
   0  -4  -2   24.67    0.97
   0   4  -2   26.83    1.13
   0   4   2   25.33    1.04
   0  -4  -2   25.44    0.95
   0  -4  -2   25.14    0.79
   0   4  -2   25.83    0.97
   2   4  -2   15.87    0.84
  -2   4   2   16.96    0.47
   2   4  -2   17.55    0.63
  -2   4   2   15.78    0.60
  -2   4   2   16.03    0.63
  -2   4   2   15.36    0.62
   2   4  -2   17.07    0.98
  -2   4   2   15.79    0.65
  -2  -4  -2   17.37    0.58
  -2  -4  -2   16.72    0.83
  -2  -4  -2   17.05    0.91
  -2  -4  -2   16.54    0.63
  -2   4   2   16.26    0.97
   2   4  -2   16.87    0.62
  -2  -4  -2   16.60    0.67
  -2   4   2   17.06    0.90
   2  -4   2   18.14    0.81
   2  -4   2   17.18    0.71
  -2   4  -2   16.80    0.60
   2  -4  -2   15.88    0.70
   2   4   2   16.00    0.86
  -2  -4   2   17.37    0.88
  -2   4  -2   17.19    0.99
  -2  -4   2   16.41    0.67
   2  -4  -2   18.27    0.87
  -2   4  -2   16.66    0.48
  -2   4  -2   14.83    0.62
   2   4   2   16.71    0.64
  -2   4  -2   15.84    0.62
  -2  -4   2   16.48    0.57
   2   4   2   17.20    0.99
  -2   4  -2   15.95    0.64
   2   4   2   16.88    0.58
   2   4   2   17.77    0.65
  -2   4  -2   17.04    1.00
  -2  -4   2   17.21    0.58
  -2  -4   2   16.63    0.87
  -2   4  -2   16.05    0.65
   4   4  -2    5.82    0.81
  -4  -4  -2    6.37    0.72
  -4  -4  -2    4.88    0.44
   4   4  -2    5.99    0.68
  -4  -4  -2    5.83    0.56
  -4   4   2    5.73    0.54
  -4   4   2    6.16    0.51
  -4   4   2    8.04    0.98
  -4  -4  -2    6.92    0.62
  -4  -4  -2    7.34    0.92
  -4   4   2    5.58    0.50
   4  -4   2    6.27    0.66
  -4   4   2    6.64    0.47
  -4  -4  -2    5.85    0.41
   4   4  -2    6.93    0.45
  -4  -4  -2    6.69    0.54
  -4   4   2    7.05    0.78
   4  -4   2    6.24    0.41
  -4  -4  -2    6.33    0.56
  -4   4   2    7.40    0.48
  -4   4  -2    6.82    0.44
  -4  -4   2    5.75    0.54
  -4   4  -2    5.75    0.53
   4   4   2    6.06    0.54
  -4   4  -2    6.35    0.53
  -4   4  -2    6.01    0.82
   4  -4  -2    6.43    0.42
   4   4   2    6.16    0.88
   4  -4  -2    5.28    0.64
  -4  -4   2    5.59    0.54
  -4   4  -2    6.31    0.55
  -4  -4   2    5.32    0.53
  -4  -4   2    6.50    0.47
  -4  -4   2    6.37    0.41
   4   4   2    6.28    0.41
  -4  -4   2    5.54    0.72
  -4   4  -2    5.26    0.79
  -4  -4   2    4.89    0.75
  -4   4  -2    6.04    0.52
   4   4   2    5.95    0.70
  -4  -4   2    5.26    0.53
  -6   4   2    2.36    0.44
   6  -4   2    2.50    0.29
  -6  -4  -2    2.20    0.40
  -6  -4  -2    2.21    0.41
  -6   4   2    2.40    0.72
   6  -4   2    3.71    0.82
  -6  -4  -2    2.15    0.49
  -6  -4  -2    3.21    0.83
  -6  -4  -2    2.09    0.35
  -6  -4  -2    2.61    0.52
   6   4  -2    1.94    0.52
  -6   4   2    2.56    0.41
  -6   4   2    1.97    0.38
   6   4  -2    2.15    0.69
  -6  -4  -2    2.66    0.49
   6   4  -2    1.73    0.34
  -6  -4   2    3.00    0.51
  -6   4  -2    2.43    0.43
   6   4   2    1.87    0.53
   6   4   2    2.58    0.46
  -6  -4   2    2.04    0.39
  -6   4  -2    2.26    0.40
  -6  -4   2    1.93    0.45
   6  -4  -2    2.11    0.55
   6  -4  -2    2.76    0.28
  -6  -4   2    2.44    0.71
  -6   4  -2    2.12    0.39
  -6  -4   2    2.20    0.34
  -6  -4   2    1.61    0.42
   6   4   2    1.80    0.66
  -6  -4   2    1.59    0.35
  -8  -4  -2    0.89    0.34
  -8  -4  -2    1.00    0.39
  -8  -4  -2    0.95    0.38
  -8  -4  -2    1.15    0.45
  -8  -4  -2    0.87    0.44
   8   4  -2    0.86    0.39
  -8  -4  -2    0.48    0.29
  -8  -4   2    1.12    0.37
  -8  -4   2    1.71    0.44
  -8  -4   2    0.31    0.38
   8   4   2    1.29    0.42
  -8  -4   2    0.73    0.29
  -8  -4   2    0.77    0.39
 -10  -4  -2    0.37    0.25
 -10  -4   2    0.06    0.22
   1   5  -2  232.02    4.69
   1   5  -2  233.05    4.70
  -1   5   2  232.09    4.72
   1   5  -2  243.45    5.06
  -1   5   2  227.61    4.74
  -1   5   2  228.40    5.47
  -1   5   2  235.52    4.75
   1   5  -2  234.34    4.74
  -1  -5  -2  243.63    5.27
   1  -5   2  230.47    4.78
   1   5  -2  239.13    5.22
   1  -5   2  240.00    5.14
   1  -5   2  234.74    5.20
  -1   5   2  239.32    5.43
  -1  -5  -2  227.02    4.77
  -1   5   2  230.15    4.79
   1   5  -2  240.15    5.58
  -1  -5  -2  243.37    5.07
  -1   5   2  236.30    4.61
  -1  -5  -2  237.58    4.81
  -1  -5  -2  231.55    5.17
  -1  -5   2  232.40    5.18
   1   5   2  239.93    5.27
   1  -5  -2  235.94    5.11
   1  -5  -2  240.14    5.25
  -1   5  -2  240.15    4.63
  -1   5  -2  239.85    5.57
  -1   5  -2  236.46    4.74
  -1  -5   2  228.85    5.23
  -1   5  -2  232.88    4.82
  -1   5  -2  234.53    4.81
  -1   5  -2  238.53    5.47
   1  -5  -2  233.57    4.80
   1   5   2  236.89    5.13
   1   5   2  234.94    4.75
  -1  -5   2  227.24    4.72
  -1  -5   2  233.04    4.83
  -1  -5   2  240.05    4.92
  -1   5  -2  234.05    4.73
   1   5   2  237.02    4.73
   1   5   2  232.02    5.48
   1  -5  -2  229.59    4.70
  -3   5   2  159.82    3.55
   3   5  -2  153.63    3.44
  -3   5   2  152.83    3.34
   3  -5   2  155.56    3.43
  -3   5   2  157.79    3.47
   3   5  -2  156.28    3.99
  -3  -5  -2  153.59    3.54
   3  -5   2  156.18    3.83
  -3   5   2  154.98    4.39
  -3  -5  -2  156.62    3.97
  -3  -5  -2  157.72    3.33
   3   5  -2  152.96    4.31
   3   5  -2  158.68    3.40
  -3  -5  -2  155.74    3.30
  -3   5   2  153.94    3.43
  -3   5   2  157.37    3.10
  -3  -5  -2  154.74    3.43
  -3  -5  -2  152.23    3.38
  -3  -5  -2  158.99    4.19
  -3   5   2  147.91    3.44
  -3  -5  -2  155.52    3.45
   3  -5   2  151.97    3.57
  -3   5   2  162.64    4.08
  -3  -5   2  157.44    3.34
   3   5   2  153.79    4.31
  -3   5  -2  160.32    4.40
   3   5   2  157.00    3.34
  -3   5  -2  152.90    3.37
  -3   5  -2  157.74    3.12
  -3  -5   2  150.05    3.41
  -3  -5   2  158.73    3.33
  -3  -5   2  156.72    3.56
  -3   5  -2  156.38    4.35
  -3  -5   2  154.43    3.38
  -3  -5   2  157.11    4.12
   3  -5  -2  155.74    3.59
  -3   5  -2  161.72    3.56
  -3   5  -2  148.63    3.45
   3  -5  -2  155.94    3.94
   3   5   2  159.03    4.05
  -3   5  -2  154.80    3.50
   3   5   2  155.71    3.47
  -3  -5   2  155.65    4.05
   5   5  -2   82.61    2.38
  -5  -5  -2   88.07    2.48
  -5  -5  -2   88.69    2.41
   5   5  -2   87.19    2.24
   5   5  -2   83.98    3.21
  -5  -5  -2   85.09    2.48
  -5   5   2   84.16    3.26
   5  -5   2   86.31    2.21
  -5   5   2   84.11    2.28
  -5   5   2   87.56    2.31
   5   5  -2   87.82    2.90
  -5  -5  -2   83.60    2.17
  -5  -5  -2   84.90    2.24
  -5   5   2   84.18    2.42
  -5  -5  -2   79.00    3.18
  -5   5   2   82.88    2.34
   5   5   2   85.98    2.91
  -5   5  -2   84.56    2.40
  -5  -5   2   84.57    2.97
  -5  -5   2   86.48    2.49
   5  -5  -2   87.07    2.22
  -5   5  -2   86.30    2.37
  -5  -5   2   88.99    2.30
  -5  -5   2   83.86    2.42
  -5   5  -2   86.82    2.22
  -5   5  -2   85.10    2.27
  -5  -5   2   85.51    3.26
  -5  -5   2   84.70    2.20
  -5  -5   2   85.07    2.37
   5   5   2   86.09    2.39
   5  -5  -2   85.76    2.81
   5   5   2   86.19    3.30
  -5   5  -2   85.29    2.37
  -7  -5  -2   37.48    1.68
  -7   5   2   43.07    1.62
  -7  -5  -2   39.09    1.46
  -7  -5  -2   38.19    1.38
  -7  -5  -2   40.01    1.63
   7   5  -2   38.95    1.60
  -7  -5  -2   39.98    1.70
  -7   5   2   40.34    1.50
  -7  -5  -2   38.74    1.49
  -7  -5   2   38.90    1.50
  -7  -5   2   41.93    1.71
  -7   5  -2   41.04    1.53
  -7  -5   2   37.21    1.37
   7   5   2   39.52    1.59
  -7  -5   2   40.52    1.71
  -7   5  -2   38.66    1.50
  -7  -5   2   37.09    1.58
  -7  -5   2   41.13    1.48
  -9  -5  -2   14.91    0.83
  -9  -5   2   13.83    0.81
   0   6   2    9.51    0.93
   0  -6  -2    8.52    0.80
   0  -6  -2   10.92    0.59
   0   6   2    9.29    0.54
   0  -6  -2    8.83    0.80
   0  -6  -2   10.08    0.56
   0   6   2   10.89    0.55
   0   6  -2   10.91    0.81
   0   6   2   10.35    0.80
   0   6   2   10.44    0.54
   0   6  -2    9.80    0.53
   0  -6   2   11.05    0.61
   0  -6   2   10.03    0.88
   0   6  -2   10.26    0.48
   0   6   2   10.30    0.49
   0  -6   2    9.29    0.54
   0   6  -2    9.37    0.49
   0   6   2    9.79    0.50
   0   6  -2   10.87    1.08
   0   6  -2   10.76    0.57
   0  -6   2    8.72    0.78
   2   6  -2    7.75    0.50
  -2  -6  -2    6.31    0.57
   2  -6   2    7.23    0.68
   2   6  -2    7.54    0.49
  -2   6   2    9.92    0.57
  -2   6   2    7.32    0.49
  -2  -6  -2    7.48    0.81
  -2  -6  -2    8.62    0.55
   2   6  -2    7.43    0.92
   2  -6   2    8.19    0.81
  -2   6   2    7.15    0.49
  -2   6   2    6.94    0.41
  -2   6   2    8.06    0.56
  -2   6   2    7.10    0.85
  -2   6   2    7.08    0.91
   2  -6   2    7.72    0.52
  -2   6  -2    7.56    0.52
  -2   6  -2    8.55    0.59
  -2  -6   2    7.53    0.46
   2  -6  -2    6.98    0.76
  -2   6  -2    7.49    0.42
   2  -6  -2    7.68    0.71
  -2  -6   2    8.54    0.59
  -2  -6   2    7.07    0.49
   2   6   2    7.85    0.96
   2  -6  -2    7.32    0.47
   2   6   2    8.59    0.51
   2  -6  -2    7.75    0.52
  -2  -6   2    5.86    0.71
  -2   6  -2    7.41    0.53
  -2   6  -2    6.93    0.88
  -2   6  -2    7.30    0.95
  -2   6  -2    7.17    0.50
   2   6   2    8.54    0.55
   4  -6   2    3.76    0.50
  -4  -6  -2    4.21    0.51
   4   6  -2    5.61    0.79
  -4   6   2    3.97    0.50
  -4  -6  -2    3.43    0.49
   4   6  -2    3.11    0.69
  -4  -6  -2    4.47    0.46
   4  -6   2    4.71    0.51
  -4   6   2    4.78    0.53
  -4   6   2    3.50    0.51
  -4  -6  -2    4.06    0.80
  -4  -6  -2    3.45    0.52
  -4  -6  -2    4.50    0.73
   4  -6   2    4.38    0.65
   4   6  -2    3.73    0.45
  -4   6   2    3.61    0.32
  -4  -6  -2    4.06    0.45
  -4   6   2    3.19    0.73
  -4   6   2    3.82    0.50
   4   6  -2    3.34    0.46
  -4   6  -2    3.81    0.33
  -4  -6   2    3.91    0.43
  -4   6  -2    4.32    0.53
  -4  -6   2    3.40    0.71
   4  -6  -2    2.89    0.57
   4   6   2    3.68    0.43
  -4   6  -2    3.29    0.48
   4   6   2    4.24    0.52
  -4   6  -2    4.09    0.47
  -4   6  -2    3.96    0.79
   4   6   2    3.31    0.63
  -4   6  -2    3.25    0.75
  -4  -6   2    4.09    0.57
  -4  -6   2    3.44    0.42
  -4  -6   2    3.52    0.46
  -4  -6   2    3.84    0.70
  -4  -6   2    3.54    0.49
  -4   6  -2    4.16    0.54
   4  -6  -2    3.77    0.51
   4   6   2    2.83    0.69
  -6   6   2    1.85    0.43
  -6  -6  -2    2.22    0.43
  -6   6   2    1.77    0.41
  -6  -6  -2    1.11    0.34
  -6  -6  -2    1.82    0.48
  -6  -6  -2    1.74    0.44
  -6  -6  -2    1.78    0.38
  -6   6   2    1.44    0.42
   6   6  -2    1.29    0.35
  -6   6   2    1.41    0.24
   6   6  -2    1.51    0.43
  -6   6   2    2.06    0.42
  -6  -6  -2    1.31    0.44
  -6  -6   2    1.59    0.36
  -6  -6   2    1.33    0.37
  -6   6  -2    1.49    0.41
  -6  -6   2    2.12    0.40
  -6  -6   2    1.77    0.45
  -6  -6   2    1.41    0.45
  -6   6  -2    1.91    0.26
   6   6   2    2.52    0.51
  -6  -6   2    2.33    0.52
  -6   6  -2    2.13    0.45
  -6   6  -2    1.08    0.37
  -8  -6  -2    0.90    0.40
  -8  -6  -2    0.17    0.28
  -8  -6  -2    0.93    0.44
  -8  -6  -2    1.12    0.35
  -8  -6  -2    0.50    0.34
   8   6  -2    0.41    0.36
  -8  -6  -2    0.21    0.37
  -8  -6   2    0.52    0.42
  -8  -6   2    0.72    0.34
  -8  -6   2    0.81    0.45
  -8  -6   2    0.53    0.35
  -8  -6   2    0.75    0.32
  -8  -6   2    0.78    0.33
   8   6   2    1.01    0.38
 -10  -6  -2    0.08    0.21
 -10  -6   2    0.09    0.21
   1   7  -2  127.71    2.91
  -1   7   2  125.44    2.91
   1  -7   2  123.69    3.02
  -1   7   2  124.00    2.93
  -1   7   2  129.15    3.03
   1  -7   2  120.82    3.42
  -1   7   2  128.93    3.00
  -1   7   2  127.75    2.82
   1   7  -2  130.81    3.00
  -1  -7  -2  123.42    3.56
  -1  -7  -2  124.21    3.04
   1  -7   2  124.11    3.53
   1  -7   2  125.42    3.01
  -1   7   2  125.58    3.79
  -1   7   2  126.64    3.83
   1   7  -2  116.32    3.84
  -1  -7  -2  122.15    3.01
   1   7  -2  126.09    2.89
  -1   7  -2  124.76    3.77
  -1   7  -2  124.90    3.93
  -1  -7   2  129.88    3.10
  -1   7  -2  126.70    2.97
   1  -7  -2  126.49    3.04
   1   7   2  126.76    2.97
  -1   7  -2  124.89    2.91
  -1  -7   2  127.52    3.63
   1   7   2  128.51    2.96
  -1   7  -2  127.38    3.05
   1  -7  -2  126.78    2.93
   1  -7  -2  122.00    3.53
  -1   7  -2  128.06    2.82
   1   7   2  120.72    3.83
  -1  -7   2  124.33    2.95
   1  -7  -2  121.73    3.44
   3   7  -2   98.46    2.49
  -3   7   2   95.78    2.55
   3  -7   2   94.93    3.01
   3  -7   2   97.99    2.84
   3  -7   2   98.86    2.49
   3   7  -2   96.29    2.48
  -3   7   2   99.53    2.55
  -3  -7  -2   95.05    2.64
  -3   7   2   95.56    2.65
  -3   7   2   86.39    3.41
  -3  -7  -2   97.70    3.15
  -3   7   2   93.58    2.23
   3   7  -2   90.31    3.44
  -3  -7  -2   94.97    2.50
  -3  -7   2   92.07    2.64
   3   7   2   91.35    2.40
   3   7   2   91.70    3.43
   3  -7  -2   94.40    2.55
  -3  -7   2  100.20    3.24
   3   7   2   94.96    2.53
  -3   7  -2   94.09    2.54
  -3   7  -2   91.50    3.43
  -3   7  -2   94.35    2.47
   3  -7  -2   90.61    2.78
  -3   7  -2   95.85    2.59
  -3  -7   2   96.86    2.33
  -3   7  -2   98.74    2.26
   3  -7  -2   93.98    3.05
  -3   7  -2   94.20    3.51
  -3   7  -2   96.25    2.64
   5   7  -2   59.34    1.95
  -5   7   2   58.37    1.95
  -5   7   2   58.67    1.88
  -5  -7  -2   53.41    1.72
  -5  -7  -2   53.03    1.89
  -5   7   2   55.75    1.50
  -5  -7  -2   56.52    1.71
   5   7  -2   57.07    1.79
  -5  -7  -2   57.21    2.06
  -5  -7  -2   58.12    1.85
  -5   7   2   56.07    2.01
   5   7   2   55.37    1.91
  -5   7  -2   56.21    2.00
   5  -7  -2   55.90    1.87
  -5  -7   2   57.88    1.79
  -5   7  -2   60.41    1.98
  -5  -7   2   55.91    1.88
  -5   7  -2   55.40    1.51
  -5   7  -2   53.76    1.91
  -5  -7   2   54.69    2.04
  -5  -7   2   56.17    1.82
  -5   7  -2   55.71    1.80
  -7   7   2   24.02    0.85
  -7   7   2   26.96    1.25
  -7  -7  -2   27.96    1.28
  -7  -7  -2   26.55    1.38
  -7   7   2   25.26    1.29
  -7  -7  -2   28.28    1.37
  -7  -7  -2   24.93    1.13
  -7  -7  -2   27.07    1.14
   7   7  -2   24.16    1.25
  -7  -7  -2   26.68    1.15
  -7  -7   2   26.32    1.18
  -7   7  -2   23.84    1.21
  -7   7  -2   27.18    1.31
  -7  -7   2   25.76    1.32
  -7  -7   2   25.59    1.13
  -7  -7   2   23.08    1.30
   7   7   2   27.90    1.30
  -7  -7   2   23.82    1.23
  -7   7  -2   25.26    0.87
  -7  -7   2   27.33    1.11
  -9  -7  -2   11.46    0.63
  -9  -7   2   10.84    0.63
   0   8  -2    5.13    0.92
   0  -8   2    4.55    0.54
   0  -8   2    5.28    0.77
   0  -8  -2    4.47    0.55
   0   8  -2    4.66    0.51
   0   8   2    4.43    0.44
   0   8   2    4.95    0.53
   0  -8  -2    5.81    0.82
   0  -8  -2    5.78    0.60
   0   8   2    4.71    0.52
   0   8   2    5.42    0.55
   0  -8   2    5.31    0.61
   0   8  -2    4.99    0.46
   0   8  -2    4.24    0.51
   0   8   2    4.24    0.82
  -2  -8  -2    4.78    0.60
  -2  -8  -2    3.66    0.73
   2   8  -2    3.79    0.49
   2  -8   2    4.49    0.69
  -2   8   2    4.04    0.44
   2   8  -2    3.31    0.47
  -2   8   2    4.76    0.90
  -2   8   2    4.20    0.52
  -2   8   2    4.22    0.55
   2   8  -2    1.93    0.63
   2  -8   2    3.35    0.51
   2  -8   2    4.25    0.73
   2  -8   2    4.38    0.53
  -2   8   2    3.85    0.51
  -2  -8  -2    4.08    0.54
  -2  -8   2    3.67    0.56
   2   8   2    3.14    0.78
  -2   8  -2    4.61    0.86
   2  -8  -2    4.16    0.56
  -2   8  -2    4.47    0.59
   2  -8  -2    5.94    0.85
   2   8   2    4.96    0.54
  -2   8  -2    4.06    0.52
  -2  -8   2    4.00    0.51
   2  -8  -2    3.57    0.62
   2   8   2    3.55    0.52
  -2   8  -2    4.77    0.94
  -2   8  -2    4.26    0.45
  -2  -8   2    3.25    0.65
  -2   8  -2    3.80    0.50
   4   8  -2    2.77    0.45
  -4  -8  -2    2.61    0.54
  -4   8   2    2.39    0.49
   4   8  -2    2.64    0.49
  -4   8   2    2.12    0.44
  -4   8   2    3.08    0.53
  -4   8   2    2.11    0.34
  -4   8  -2    2.07    0.35
  -4  -8   2    2.88    0.43
   4   8   2    2.22    0.41
  -4   8  -2    2.42    0.45
   4  -8  -2    2.39    0.46
  -4   8  -2    2.29    0.50
   4   8   2    2.53    0.49
  -4  -8   2    1.55    0.47
  -4   8  -2    1.46    0.42
   6   8  -2    1.03    0.37
  -6   8   2    1.06    0.26
  -6   8   2    1.47    0.42
  -6   8   2    1.37    0.41
  -6  -8  -2    1.67    0.41
   6  -8   2    1.53    0.41
   6   8  -2    1.26    0.42
  -6   8   2    1.30    0.46
  -6  -8  -2    0.72    0.44
   6  -8  -2    0.95    0.38
  -6   8  -2    1.17    0.41
   6   8   2    1.29    0.44
  -6   8  -2    0.68    0.38
  -6   8  -2    1.52    0.28
  -6  -8   2    1.81    0.51
  -6  -8   2    1.12    0.37
  -8  -8  -2    0.03    0.26
  -8  -8   2    0.54    0.29
   1   9  -2   74.17    2.17
  -1  -9  -2   70.86    2.19
  -1  -9  -2   69.70    2.17
  -1   9   2   67.08    2.03
   1  -9   2   67.93    2.17
  -1   9   2   69.28    2.14
   1  -9   2   70.54    2.18
  -1   9   2   71.56    2.17
   1  -9  -2   69.95    2.09
  -1  -9   2   73.39    2.17
   1   9   2   69.63    3.08
  -1   9  -2   75.21    3.20
   1  -9  -2   69.31    2.18
  -1   9  -2   73.98    2.22
  -1   9  -2   70.34    2.03
  -1   9  -2   72.86    2.17
  -1   9  -2   69.63    1.94
   1   9   2   68.66    2.10
  -1  -9   2   70.33    2.25
   1   9   2   70.43    2.09
  -3   9   2   55.66    1.90
   3  -9   2   55.30    1.83
   3   9  -2   54.20    1.84
  -3  -9  -2   53.46    1.99
  -3   9   2   56.95    1.91
   3  -9   2   56.67    1.96
  -3   9   2   55.43    1.99
  -3   9   2   55.05    1.66
   3   9  -2   53.24    1.80
  -3  -9  -2   54.66    1.89
  -3   9  -2   55.23    1.67
   3   9   2   56.29    1.92
  -3   9  -2   56.05    2.01
   3   9   2   53.54    1.79
  -3   9  -2   54.22    1.86
  -3  -9   2   55.71    2.03
   3  -9  -2   54.25    1.93
  -3   9  -2   56.66    1.91
   5   9  -2   33.34    1.41
   5   9  -2   31.65    1.30
  -5  -9  -2   30.27    1.49
   5  -9   2   31.41    1.43
  -5   9   2   31.21    1.41
  -5   9   2   33.23    1.41
  -5   9   2   31.52    1.14
  -5   9   2   31.76    1.49
  -5  -9   2   30.08    1.50
   5   9   2   32.16    1.43
  -5   9  -2   30.41    1.47
   5  -9  -2   32.65    1.42
  -5   9  -2   31.59    1.14
  -5   9  -2   33.15    1.46
   0 -10   2    3.26    0.55
   0 -10  -2    2.10    0.48
   0 -10   2    2.87    0.54
   0  10   2    2.80    0.49
   0  10  -2    3.17    0.53
   0 -10  -2    3.62    0.55
   2 -10   2    3.54    0.56
  -2 -10  -2    2.84    0.56
   2 -10   2    2.41    0.51
  -2  10   2    2.70    0.51
  -2  10   2    2.31    0.41
  -2 -10  -2    2.66    0.54
  -2  10   2    3.09    0.53
   2  10  -2    2.47    0.46
  -2  10   2    3.53    0.57
  -2  10  -2    1.66    0.40
   2  10   2    2.48    0.48
  -2 -10   2    2.54    0.55
  -2  10  -2    3.32    0.57
   2  10   2    1.95    0.46
   2 -10  -2    3.84    0.61
  -2  10  -2    3.03    0.53
  -2  10  -2    1.75    0.37
  -4  10   2    1.20    0.43
   4  10  -2    2.02    0.42
  -4  10   2    1.21    0.33
   4  10  -2    1.25    0.50
   4 -10   2    1.46    0.43
  -4  10   2    1.72    0.46
  -4 -10  -2    1.99    0.53
  -4  10   2    2.04    0.46
  -4 -10   2    1.55    0.49
   4 -10  -2    1.42    0.44
  -4  10  -2    1.37    0.41
   4  10   2    1.83    0.42
  -4  10  -2    1.19    0.33
  -4  10  -2    1.56    0.44
  -4  10  -2    1.10    0.42
   4  10   2    1.12    0.49
   1 -11   2   38.56    1.56
   1 -11   2   36.24    1.50
  -1  11   2   34.91    1.47
   1  11  -2   35.21    1.47
  -1 -11  -2   34.02    1.48
  -1 -11  -2   32.54    1.47
  -1 -11   2   36.04    1.47
  -1 -11   2   35.36    1.54
   1  11   2   35.47    1.46
  -1  11  -2   33.85    1.46
   1 -11  -2   35.17    1.53
  -1  11  -2   34.85    1.47
  -3  11   2   27.23    1.10
  -3 -11  -2   29.18    1.39
  -3  11   2   28.30    1.33
  -3  11   2   28.29    1.26
   3 -11   2   27.25    1.33
  -3  11   2   26.20    1.26
  -3  11  -2   28.95    1.37
  -3  11  -2   28.77    1.28
  -3  11  -2   28.18    1.27
   3 -11  -2   26.95    1.33
   3  11   2   28.23    1.23
  -3 -11   2   28.45    1.38
  -3  11  -2   26.53    1.10
   0 -12  -2    1.44    0.43
   0  12   2    1.87    0.45
   0  12  -2    1.81    0.45
   1   0  -3  163.79    3.41
   1   0   3  165.35    3.21
   1   0  -3  166.68    3.18
  -1   0   3  163.89    3.27
   1   0   3  164.60    3.34
  -1   0  -3  157.85    3.39
  -1   0  -3  167.18    3.07
   1   0   3  163.24    3.18
   1   0  -3  167.35    3.21
   1   0  -3  166.95    3.21
  -1   0   3  163.86    3.32
  -1   0  -3  168.19    3.37
  -3   0   3   70.81    2.12
  -3   0   3   69.90    1.96
   3   0   3   74.43    1.61
  -3   0  -3   73.01    1.73
   3   0  -3   73.26    1.94
   3   0   3   71.47    1.55
   3   0  -3   69.72    1.56
  -3   0  -3   73.38    2.14
  -3   0   3   68.07    1.78
   3   0  -3   71.77    1.57
  -3   0  -3   71.63    2.10
   3   0   3   72.14    1.89
  -5   0   3   21.02    0.89
  -5   0   3   22.13    0.94
  -5   0  -3   22.67    0.84
  -5   0   3   22.64    0.86
  -5   0   3   21.76    0.92
  -5   0  -3   23.51    0.95
   5   0   3   22.48    0.85
   5   0  -3   22.50    1.22
  -5   0  -3   22.41    0.91
  -5   0  -3   23.44    1.37
   5   0  -3   22.88    0.81
  -5   0  -3   22.88    0.86
   5   0   3   24.06    1.44
  -5   0  -3   23.34    0.87
  -5   0   3   20.91    0.82
  -5   0  -3   25.78    0.98
  -5   0   3   22.30    0.82
  -5   0   3   21.74    1.35
  -5   0   3   22.20    1.20
  -7   0  -3    8.44    0.82
  -7   0  -3    8.49    0.82
  -7   0  -3   11.61    1.41
  -7   0   3    9.10    0.85
  -7   0   3    9.40    0.66
   7   0   3    9.81    0.63
  -7   0   3   10.32    0.69
  -7   0  -3   10.31    0.72
   7   0  -3    8.47    1.29
  -7   0   3    9.03    0.83
   7   0  -3    8.81    0.62
  -7   0  -3    8.36    0.63
   7   0   3   11.32    1.37
  -7   0  -3    8.90    0.81
  -7   0   3    8.99    0.83
  -9   0   3    3.24    0.49
  -9   0  -3    3.58    0.62
  -9   0  -3    3.94    0.49
  -9   0  -3    3.09    0.57
  -9   0  -3    3.68    0.53
  -9   0   3    3.56    0.59
  -9   0   3    4.32    0.68
   0  -1   3   91.68    1.98
   0  -1  -3   94.10    1.91
   0  -1   3   89.77    1.94
   0   1  -3   96.31    1.95
   0  -1  -3   94.37    2.00
   0   1  -3   93.48    1.96
   0   1   3   98.18    1.99
   0   1   3   96.57    1.92
   0  -1   3   89.97    1.91
   2   1  -3   57.35    1.35
   2   1  -3   55.23    1.35
  -2   1   3   57.07    1.53
   2   1  -3   55.64    1.52
   2  -1   3   57.49    1.18
  -2   1   3   58.67    1.57
  -2  -1  -3   56.51    1.63
  -2   1   3   54.51    1.38
  -2  -1  -3   54.62    1.32
   2  -1   3   57.69    1.17
   2  -1  -3   57.98    1.19
   2   1   3   58.08    1.40
  -2   1  -3   56.28    1.65
   2   1   3   58.30    1.67
  -2  -1   3   54.46    1.22
  -2   1  -3   56.25    1.50
  -2  -1   3   57.53    1.65
  -2  -1   3   57.73    1.53
   2  -1  -3   56.07    1.19
   2   1   3   57.79    1.34
   2  -1  -3   58.25    1.60
   2   1   3   57.91    1.41
  -4  -1  -3   28.37    0.95
  -4  -1  -3   26.80    0.90
  -4   1   3   28.34    0.87
  -4   1   3   26.98    0.92
  -4   1   3   26.89    0.92
   4  -1   3   28.67    0.73
  -4  -1  -3   27.11    1.03
  -4   1   3   27.03    0.81
  -4  -1  -3   28.40    0.98
  -4  -1  -3   30.11    0.89
   4   1  -3   27.21    1.23
  -4  -1  -3   27.91    0.96
  -4   1   3   27.00    1.19
   4  -1   3   28.07    0.70
  -4   1   3   28.18    0.89
  -4  -1  -3   27.64    1.39
   4   1  -3   27.74    0.95
  -4   1   3   27.10    0.91
  -4  -1  -3   25.93    0.87
   4  -1   3   27.93    1.21
  -4   1   3   28.40    1.18
  -4  -1   3   26.78    0.89
  -4   1  -3   26.96    0.88
  -4   1  -3   27.96    0.91
  -4   1  -3   28.01    1.03
  -4   1  -3   27.36    1.29
  -4  -1   3   27.50    0.95
  -4  -1   3   26.29    0.85
   4   1   3   28.97    1.00
  -4   1  -3   28.42    0.85
  -4   1  -3   27.81    0.84
  -4   1  -3   27.59    0.89
   4   1   3   26.32    1.35
   4   1   3   28.47    1.02
  -4   1  -3   30.02    0.98
  -4  -1   3   27.40    0.97
  -4  -1   3   26.66    0.86
   4  -1  -3   26.26    1.15
   4  -1  -3   28.26    0.73
  -4  -1   3   27.54    0.93
  -4  -1   3   30.12    1.43
  -4   1  -3   26.55    0.83
  -4  -1   3   27.63    1.21
  -4   1  -3   28.16    1.37
   6   1  -3   18.58    0.89
  -6  -1  -3   18.30    0.56
   6  -1   3   17.60    0.69
  -6  -1  -3   19.27    0.92
  -6   1   3   19.01    0.91
  -6   1   3   19.15    1.23
  -6  -1  -3   18.30    1.42
  -6   1   3   18.73    0.96
  -6  -1  -3   18.75    0.86
  -6   1   3   18.54    0.92
  -6  -1  -3   18.94    0.99
  -6  -1  -3   17.01    0.94
  -6  -1  -3   17.11    0.92
   6  -1   3   19.52    1.42
   6   1  -3   20.74    1.35
  -6   1   3   17.53    0.77
  -6   1   3   18.16    0.83
  -6  -1   3   18.67    0.95
   6   1   3   17.99    0.92
  -6  -1   3   19.33    1.00
  -6  -1   3   19.03    0.86
  -6  -1   3   18.49    0.56
   6  -1  -3   17.19    1.37
  -6   1  -3   17.24    0.91
  -6   1  -3   17.84    0.91
  -6  -1   3   18.19    0.95
  -6   1  -3   19.26    0.83
   6  -1  -3   18.69    0.69
   6   1   3   20.36    1.48
  -6  -1   3   16.39    0.78
  -6   1  -3   18.52    0.86
  -6   1  -3   19.51    0.91
  -6   1  -3   16.50    1.29
  -6  -1   3   18.13    0.89
  -6  -1   3   17.61    1.19
  -8  -1  -3   10.00    0.99
  -8   1   3    8.74    0.86
  -8   1   3    9.05    0.74
  -8   1   3    8.02    0.80
  -8  -1  -3    7.28    0.48
  -8   1   3   10.46    0.91
  -8  -1  -3    8.20    0.74
  -8  -1  -3    6.50    0.69
  -8  -1  -3    8.07    0.84
  -8  -1  -3    8.16    0.85
  -8  -1   3    8.43    0.90
  -8  -1   3    8.96    0.87
  -8  -1   3    7.87    0.49
  -8   1  -3   10.14    0.89
  -8  -1   3    9.06    0.78
  -8  -1   3    8.44    0.75
  -8   1  -3   10.01    0.71
  -8   1  -3    8.62    0.88
  -8  -1   3    7.39    0.81
 -10  -1  -3    3.44    0.44
 -10  -1   3    2.83    0.41
  -1  -2  -3  312.61    6.02
   1  -2   3  309.12    6.01
   1  -2   3  303.16    5.99
   1   2  -3  318.33    6.12
  -1   2   3  310.48    6.01
  -1  -2  -3  312.79    6.20
   1   2  -3  316.64    6.23
  -1  -2  -3  307.46    6.05
   1  -2   3  310.88    5.96
  -1   2   3  313.93    6.28
  -1   2  -3  297.28    6.29
   1  -2  -3  301.83    6.00
  -1  -2   3  312.03    5.90
   1   2   3  307.38    6.05
  -1  -2   3  316.90    6.15
   1  -2  -3  320.26    5.98
   1   2   3  312.32    6.27
  -1  -2   3  311.27    6.15
   1  -2  -3  309.02    6.05
  -1   2  -3  313.17    6.30
   1  -2  -3  310.02    6.12
  -1  -2   3  305.90    6.06
  -1   2  -3  306.21    5.84
   1   2   3  311.82    6.16
   3  -2   3  128.78    2.81
  -3  -2  -3  125.41    2.70
  -3   2   3  131.69    3.24
   3  -2   3  131.51    2.53
  -3  -2  -3  127.97    2.88
  -3   2   3  124.32    2.65
  -3   2   3  127.91    3.08
  -3   2   3  125.38    2.70
   3   2  -3  124.99    2.89
   3  -2   3  126.56    2.49
  -3  -2  -3  125.53    3.32
  -3  -2  -3  124.66    2.74
  -3  -2  -3  127.03    2.49
  -3  -2  -3  122.86    2.61
  -3   2   3  130.53    2.96
   3   2  -3  122.48    3.15
  -3   2  -3  123.08    2.67
   3  -2  -3  126.88    2.51
  -3  -2   3  124.66    2.63
   3   2   3  119.19    3.29
  -3  -2   3  125.65    3.10
   3  -2  -3  124.10    3.09
  -3   2  -3  122.88    2.69
  -3  -2   3  122.17    2.63
  -3   2  -3  123.84    3.22
  -3  -2   3  121.94    2.71
  -3   2  -3  124.41    2.71
  -3  -2   3  119.87    2.72
  -3   2  -3  128.96    3.01
  -3  -2   3  126.61    3.29
  -3   2  -3  122.46    3.27
   3   2   3  128.69    2.95
   3   2   3  124.91    2.66
  -3  -2   3  122.58    2.71
  -3  -2   3  123.19    2.47
   3  -2  -3  126.05    2.52
  -5   2   3   47.97    1.41
  -5  -2  -3   47.11    2.17
  -5  -2  -3   48.62    1.19
   5  -2   3   49.10    1.97
  -5   2   3   47.58    1.87
  -5  -2  -3   48.85    1.43
  -5  -2  -3   46.90    1.55
  -5  -2  -3   48.96    1.56
  -5  -2  -3   49.63    1.42
  -5  -2  -3   47.97    1.53
  -5   2   3   49.14    1.46
   5   2  -3   50.85    2.03
  -5  -2  -3   49.55    1.51
  -5   2   3   49.32    1.37
   5   2  -3   50.11    1.64
  -5   2   3   50.00    1.47
  -5   2   3   50.42    1.45
   5  -2   3   49.64    1.17
  -5   2   3   49.27    1.48
   5   2  -3   48.37    1.41
  -5   2   3   48.57    1.92
  -5   2  -3   47.90    1.51
   5  -2  -3   50.32    1.16
  -5   2  -3   49.01    1.43
  -5   2  -3   51.09    1.98
  -5  -2   3   50.20    1.19
  -5  -2   3   49.86    1.55
  -5  -2   3   53.04    1.97
  -5  -2   3   48.28    1.58
  -5  -2   3   49.03    1.50
   5   2   3   52.65    1.73
  -5   2  -3   50.54    1.40
  -5  -2   3   48.65    1.55
  -5   2  -3   51.00    1.49
  -5  -2   3   50.90    1.45
   5  -2  -3   48.70    2.03
  -5   2  -3   49.23    1.34
  -5   2  -3   50.59    2.12
  -5  -2   3   49.97    2.22
  -5   2  -3   51.52    1.42
   5   2   3   48.46    2.16
  -7  -2  -3   19.55    1.14
  -7  -2  -3   20.47    1.11
  -7  -2  -3   20.76    0.99
  -7   2   3   18.42    1.01
  -7  -2  -3   20.77    0.79
  -7  -2  -3   19.10    0.98
  -7  -2  -3   21.47    1.14
  -7  -2   3   22.09    1.20
  -7  -2   3   19.93    1.09
  -7   2  -3   19.68    1.04
  -7  -2   3   19.26    0.96
  -7  -2   3   20.82    0.99
  -7  -2   3   22.14    1.16
   7   2   3   20.80    1.02
  -7  -2   3   20.97    0.79
  -7   2  -3   21.28    0.94
   9   2  -3    6.12    0.71
  -9  -2  -3    7.45    0.70
  -9  -2  -3    7.48    0.80
  -9  -2  -3    7.82    0.74
  -9  -2  -3    6.42    0.54
  -9  -2  -3    7.00    0.85
  -9  -2   3    7.16    0.71
  -9  -2   3    5.38    0.72
  -9  -2   3    7.05    0.57
  -9  -2   3    5.64    0.76
  -9  -2   3    7.63    0.69
   0  -3  -3  136.01    2.96
   0   3   3  138.75    3.05
   0   3  -3  127.86    2.96
   0  -3   3  138.63    2.97
   0   3  -3  138.09    3.18
   0   3  -3  133.53    3.03
   0  -3  -3  137.13    2.88
   0  -3   3  136.65    2.98
   0   3  -3  127.53    2.69
   0  -3  -3  138.60    2.98
   0   3   3  133.21    2.97
   0   3   3  135.25    3.09
  -2   3   3   97.08    2.34
  -2  -3  -3   96.67    2.56
   2  -3   3   93.61    2.17
   2   3  -3   90.69    2.36
  -2  -3  -3   99.77    2.34
  -2   3   3   91.35    2.11
  -2   3   3   95.21    2.63
  -2  -3  -3   93.66    2.24
   2  -3   3   96.77    2.14
   2   3  -3   93.28    2.54
   2  -3   3   99.01    2.28
   2  -3  -3   93.88    2.38
   2  -3  -3   98.47    2.15
  -2  -3   3   98.25    2.47
   2   3   3   91.97    2.12
   2   3   3   95.63    2.09
  -2   3  -3   91.99    2.10
  -2   3  -3   94.35    2.62
  -2   3  -3   90.47    2.00
   2   3   3   94.64    2.44
  -2   3  -3   96.42    2.63
  -2  -3   3   94.31    2.27
  -2  -3   3   99.52    2.53
   2  -3  -3   97.40    2.25
   2  -3  -3   94.86    2.19
   2   3   3   94.68    2.62
  -4  -3  -3   60.07    1.71
  -4   3   3   60.30    1.59
  -4   3   3   59.92    1.55
  -4  -3  -3   59.11    1.59
  -4  -3  -3   62.96    2.36
  -4   3   3   59.82    1.59
  -4   3   3   61.52    1.95
  -4  -3  -3   61.65    1.45
  -4  -3  -3   60.80    1.57
   4   3  -3   63.26    1.93
  -4   3   3   60.51    1.66
  -4  -3  -3   59.55    1.70
   4  -3   3   61.21    1.45
  -4   3   3   64.01    2.26
   4   3  -3   61.06    1.58
  -4  -3  -3   61.10    1.90
   4   3  -3   63.84    2.23
  -4   3   3   58.44    1.58
   4  -3   3   59.66    1.78
  -4  -3  -3   59.83    1.67
  -4  -3   3   62.62    2.33
   4   3   3   61.05    1.46
  -4  -3   3   60.81    1.68
   4   3   3   60.96    1.96
  -4   3  -3   58.42    2.21
  -4   3  -3   59.37    1.63
   4   3   3   60.04    1.62
   4   3   3   58.18    2.29
  -4  -3   3   57.41    2.03
   4  -3  -3   63.47    2.00
  -4  -3   3   59.27    1.65
  -4   3  -3   61.42    1.65
  -4  -3   3   61.45    1.70
  -4  -3   3   61.72    1.44
  -4  -3   3   58.49    1.57
  -4  -3   3   59.29    1.69
   4  -3  -3   59.28    1.99
   4  -3  -3   62.10    1.45
  -4   3  -3   59.71    1.45
  -4   3  -3   60.94    1.62
  -4   3  -3   59.54    1.62
  -4   3  -3   57.33    1.47
  -4   3  -3   61.78    2.24
  -6   3   3   35.32    1.22
  -6  -3  -3   34.19    1.09
  -6  -3  -3   32.79    1.36
  -6   3   3   37.20    1.31
  -6  -3  -3   34.51    2.05
  -6   3   3   36.07    1.27
  -6   3   3   35.85    1.33
  -6  -3  -3   35.38    1.27
   6   3  -3   35.62    1.90
   6  -3   3   36.54    1.90
   6   3  -3   32.84    1.50
  -6  -3  -3   33.35    1.40
  -6  -3  -3   33.53    1.43
   6   3  -3   34.96    1.23
   6  -3  -3   34.05    1.64
  -6  -3   3   35.94    1.80
  -6  -3   3   33.51    1.27
  -6   3  -3   34.60    1.30
  -6   3  -3   35.78    1.26
   6   3   3   35.36    1.34
  -6  -3   3   34.26    1.43
   6   3   3   34.26    1.58
  -6  -3   3   32.98    1.38
  -6  -3   3   32.66    2.00
   6   3   3   33.99    2.02
  -6  -3   3   34.44    1.37
  -6  -3   3   35.32    1.41
  -6   3  -3   33.03    1.27
  -6  -3   3   34.81    1.09
  -6   3  -3   35.50    1.93
  -8  -3  -3   13.97    0.88
  -8  -3  -3   13.16    0.86
  -8  -3  -3   13.04    1.10
   8   3  -3   13.25    0.91
  -8  -3  -3   13.44    0.96
  -8  -3  -3   14.54    0.74
  -8  -3  -3   14.33    1.04
  -8  -3   3   12.00    1.10
  -8  -3   3   15.30    0.89
  -8  -3   3   13.63    0.86
  -8  -3   3   14.55    0.75
   8   3   3   14.24    0.90
  -8  -3   3   13.11    0.95
 -10  -3  -3    4.99    0.51
 -10  -3   3    5.75    0.54
   1  -4   3  141.80    3.21
  -1  -4  -3  141.14    3.29
   1   4  -3  141.70    3.57
  -1  -4  -3  142.33    3.29
  -1   4   3  143.18    2.96
   1  -4   3  147.31    3.30
  -1   4   3  141.70    2.83
  -1   4   3  142.64    3.00
  -1   4   3  146.32    3.59
   1  -4   3  141.12    3.00
  -1  -4  -3  151.24    3.32
   1   4  -3  143.71    3.34
   1   4  -3  141.01    2.95
   1   4  -3  144.22    3.14
  -1   4   3  143.79    2.98
  -1   4   3  144.32    3.40
  -1  -4   3  144.78    3.30
   1   4   3  138.50    2.97
  -1   4  -3  143.36    3.61
  -1  -4   3  146.63    3.18
  -1   4  -3  138.03    2.95
   1   4   3  138.76    3.49
   1  -4  -3  144.49    3.24
  -1  -4   3  137.03    3.01
   1  -4  -3  145.63    2.95
  -1   4  -3  139.80    3.01
  -1   4  -3  141.08    3.52
   1   4   3  143.53    3.27
  -1  -4   3  144.76    3.37
   1  -4  -3  136.50    2.98
   1   4   3  144.92    3.39
   1  -4  -3  137.57    3.31
  -1   4  -3  141.60    2.85
  -3  -4  -3   81.67    2.00
  -3  -4  -3   82.46    1.89
  -3   4   3   83.59    1.99
  -3  -4  -3   81.38    1.90
  -3   4   3   80.29    1.63
  -3  -4  -3   82.47    2.08
  -3  -4  -3   83.91    2.05
  -3   4   3   86.15    2.74
  -3  -4  -3   81.69    1.99
   3  -4   3   83.37    2.04
   3   4  -3   82.63    2.64
  -3  -4  -3   80.89    2.34
   3   4  -3   86.84    1.98
   3   4  -3   82.28    2.39
  -3  -4  -3   83.54    2.65
  -3   4   3   82.02    1.98
  -3   4   3   81.55    2.35
  -3   4   3   80.09    1.95
  -3   4   3   84.13    2.02
  -3   4   3   81.39    2.07
   3  -4   3   80.96    2.24
  -3  -4   3   82.56    1.89
  -3  -4   3   84.28    1.95
   3  -4  -3   79.17    2.36
  -3   4  -3   84.57    2.76
  -3   4  -3   87.08    2.76
  -3   4  -3   80.98    2.03
  -3   4  -3   83.13    1.92
   3   4   3   81.54    2.44
  -3   4  -3   82.15    1.64
   3   4   3   82.60    2.02
   3   4   3   82.02    1.88
  -3   4  -3   80.28    2.01
  -3   4  -3   84.15    2.06
  -3  -4   3   85.28    2.06
   3   4   3   81.86    2.69
  -3  -4   3   82.28    2.07
  -3  -4   3   82.14    2.01
   3  -4  -3   84.54    2.05
  -3   4  -3   80.46    2.04
  -3  -4   3   80.07    2.45
  -3  -4   3   86.87    2.63
  -3  -4   3   84.15    2.00
  -5  -4  -3   41.76    1.44
  -5  -4  -3   39.20    1.48
  -5  -4  -3   39.99    1.31
   5   4  -3   39.00    1.69
  -5  -4  -3   40.43    1.48
  -5   4   3   40.79    1.33
  -5  -4  -3   38.99    1.21
   5   4  -3   40.30    1.30
  -5   4   3   39.80    1.33
   5   4  -3   39.70    1.96
   5  -4   3   40.22    1.20
  -5  -4  -3   42.25    2.13
   5  -4   3   42.27    2.03
  -5   4   3   37.84    1.95
  -5   4   3   38.31    1.40
  -5   4   3   40.39    1.30
  -5   4   3   41.83    1.36
   5   4   3   41.31    1.41
  -5  -4   3   37.60    1.43
  -5   4  -3   42.41    1.42
  -5  -4   3   40.95    2.08
   5   4   3   40.36    1.76
  -5   4  -3   40.66    1.37
   5  -4  -3   41.94    1.76
  -5   4  -3   39.67    1.38
  -5   4  -3   40.66    1.37
  -5   4  -3   39.89    2.00
  -5  -4   3   43.17    1.50
  -5  -4   3   42.09    1.48
  -5  -4   3   40.95    1.44
   5   4   3   39.54    2.05
  -5  -4   3   42.69    1.36
   5  -4  -3   41.04    1.20
  -5  -4   3   40.25    1.22
  -5  -4   3   41.18    1.86
  -7   4   3   17.18    0.98
  -7  -4  -3   15.00    0.89
  -7  -4  -3   17.22    0.96
  -7  -4  -3   16.22    0.82
   7   4  -3   17.48    1.02
  -7  -4  -3   16.98    1.03
  -7  -4  -3   17.56    1.11
  -7  -4  -3   19.26    1.14
   7   4   3   16.31    0.97
  -7  -4   3   15.36    1.00
  -7  -4   3   15.96    0.81
  -7   4  -3   16.64    0.96
  -7  -4   3   16.83    0.91
  -7  -4   3   19.52    1.15
  -7  -4   3   16.77    0.95
  -7  -4   3   17.43    1.06
  -9  -4  -3    5.77    0.63
  -9  -4   3    6.86    0.66
   0  -5  -3   23.21    0.83
   0   5  -3   22.43    0.80
   0  -5   3   22.70    1.05
   0  -5  -3   24.40    1.06
   0   5   3   23.94    0.78
   0  -5   3   23.80    0.83
   0   5   3   23.45    0.75
   0  -5   3   21.66    0.99
   0  -5  -3   25.04    0.84
   0   5  -3   22.19    0.71
   0  -5  -3   24.22    1.02
   0   5  -3   24.66    0.79
   0   5   3   23.54    1.12
   0  -5  -3   22.15    0.77
   0   5   3   23.09    0.80
   0   5   3   23.06    0.77
   0   5   3   23.62    1.15
   0   5  -3   23.33    0.73
   0   5   3   23.99    0.72
   0   5  -3   22.91    1.06
  -2  -5  -3   22.16    0.77
  -2  -5  -3   21.68    0.80
  -2   5   3   22.13    1.27
  -2   5   3   22.34    0.67
   2  -5   3   22.48    0.96
   2  -5   3   21.68    0.83
   2   5  -3   23.98    1.14
  -2  -5  -3   22.88    0.88
   2   5  -3   22.05    0.80
  -2   5   3   22.53    0.83
  -2  -5  -3   21.54    1.11
  -2   5   3   23.07    0.82
  -2   5   3   22.63    0.80
  -2   5   3   22.37    1.13
  -2  -5  -3   21.63    0.83
   2   5  -3   22.07    0.80
   2  -5   3   22.90    1.05
  -2  -5  -3   22.25    0.71
   2   5  -3   23.71    1.29
  -2  -5  -3   22.81    0.76
  -2   5   3   23.25    0.87
  -2  -5  -3   22.16    1.08
   2  -5  -3   23.39    0.99
   2   5   3   22.92    0.84
  -2   5  -3   23.52    0.69
  -2  -5   3   22.41    0.75
   2   5   3   21.84    0.76
  -2   5  -3   22.72    0.84
  -2   5  -3   22.90    0.80
  -2  -5   3   21.85    0.87
   2  -5  -3   22.50    0.74
  -2   5  -3   23.51    1.29
   2   5   3   23.84    1.17
  -2  -5   3   23.14    1.14
  -2  -5   3   23.70    0.76
  -2   5  -3   21.45    0.85
   2   5   3   22.37    1.25
  -2   5  -3   23.10    0.88
  -2  -5   3   23.23    0.78
   2  -5  -3   22.28    1.08
  -2  -5   3   22.49    1.06
  -2   5  -3   23.77    1.33
   4  -5   3   17.20    0.83
   4   5  -3   18.43    0.86
  -4  -5  -3   20.98    0.99
  -4  -5  -3   19.05    0.91
  -4  -5  -3   18.80    0.87
  -4  -5  -3   18.96    0.79
  -4   5   3   17.84    0.83
  -4  -5  -3   17.39    0.84
  -4  -5  -3   19.09    0.78
   4  -5   3   19.84    1.06
  -4  -5  -3   19.92    1.16
  -4  -5  -3   17.73    1.29
  -4   5   3   17.64    0.85
   4   5  -3   19.07    0.82
   4   5  -3   18.15    1.13
  -4   5   3   18.42    0.83
  -4   5   3   19.88    1.40
   4   5  -3   17.95    1.30
  -4   5   3   17.76    0.88
  -4   5   3   18.57    0.56
  -4   5  -3   17.98    0.83
  -4   5  -3   18.38    0.79
   4   5   3   17.96    1.33
   4  -5  -3   18.22    0.85
  -4   5  -3   18.34    0.88
  -4   5  -3   19.58    1.36
   4   5   3   19.14    1.18
  -4  -5   3   17.79    1.19
  -4  -5   3   18.73    0.77
  -4   5  -3   19.37    0.89
   4   5   3   18.33    0.74
   4   5   3   18.88    0.88
  -4  -5   3   21.24    0.91
  -4   5  -3   17.51    1.32
  -4   5  -3   18.26    0.57
  -4  -5   3   18.70    1.29
  -4  -5   3   17.10    0.90
  -4  -5   3   17.92    0.80
  -4   5  -3   18.00    0.88
  -4  -5   3   19.06    0.86
   4  -5  -3   19.64    1.14
  -6  -5  -3   11.69    0.70
   6   5  -3   11.49    0.72
  -6  -5  -3   11.22    0.93
  -6  -5  -3   12.59    0.91
  -6  -5  -3   12.23    0.77
  -6   5   3   11.57    0.77
  -6   5   3   10.70    0.81
  -6   5   3   12.00    0.78
  -6  -5  -3   10.76    0.73
  -6  -5  -3   12.47    1.05
   6   5  -3    8.18    0.80
  -6  -5   3   11.50    0.72
  -6   5  -3   11.49    0.79
  -6  -5   3   12.01    0.85
  -6  -5   3   11.87    0.78
   6   5   3   10.52    0.88
  -6  -5   3   10.33    0.94
  -6  -5   3   11.51    1.29
  -6   5  -3   10.61    0.76
  -6   5  -3   11.81    0.80
  -6  -5   3   11.35    0.69
   6  -5  -3   11.00    1.15
  -6  -5   3   11.08    0.97
   8   5  -3    6.42    0.73
  -8  -5  -3    4.94    0.59
  -8  -5  -3    4.38    0.53
  -8  -5  -3    4.50    0.70
  -8  -5  -3    3.69    0.59
  -8  -5  -3    4.88    0.61
  -8  -5  -3    4.39    0.68
  -8  -5   3    5.15    0.63
  -8  -5   3    4.32    0.66
   8   5   3    3.95    0.61
  -8  -5   3    4.66    0.54
  -8  -5   3    4.19    0.55
  -8  -5   3    5.27    0.69
 -10  -5  -3    2.36    0.36
 -10  -5   3    2.31    0.35
   1  -6   3   33.65    1.40
  -1   6   3   31.39    1.04
  -1   6   3   32.90    1.58
   1   6  -3   33.38    1.07
   1   6  -3   32.47    1.01
  -1   6   3   31.49    1.05
  -1   6   3   30.87    1.50
   1  -6   3   32.53    1.34
   1   6  -3   32.74    1.04
  -1  -6  -3   31.94    1.41
  -1   6   3   31.71    1.05
  -1   6   3   32.30    0.95
  -1   6   3   33.19    1.10
   1   6  -3   32.20    1.60
  -1  -6  -3   32.31    1.11
  -1  -6  -3   31.97    1.10
   1  -6   3   32.05    1.10
   1   6   3   31.61    1.08
  -1   6  -3   33.39    1.57
  -1   6  -3   33.77    1.66
   1  -6  -3   34.26    1.44
  -1  -6   3   34.84    1.07
   1  -6  -3   31.49    1.32
   1   6   3   32.33    1.36
   1   6   3   32.76    1.04
  -1  -6   3   32.81    1.15
   1   6   3   31.62    1.56
  -1   6  -3   33.92    1.11
  -1   6  -3   33.00    1.06
  -1   6  -3   33.16    1.13
  -1   6  -3   32.57    0.96
   1  -6  -3   33.56    1.13
  -1  -6   3   31.91    1.43
  -1   6  -3   30.78    1.04
   1  -6  -3   32.38    1.02
  -3  -6  -3   21.59    0.99
   3   6  -3   22.46    0.91
   3   6  -3   21.86    0.91
  -3   6   3   23.10    0.75
  -3   6   3   21.99    0.95
  -3  -6  -3   21.66    0.87
  -3  -6  -3   22.25    0.95
  -3  -6  -3   22.46    0.86
  -3   6   3   22.38    0.95
  -3  -6  -3   22.09    1.33
  -3  -6  -3   22.34    0.93
   3  -6   3   23.75    0.96
  -3  -6  -3   22.40    0.82
   3   6  -3   20.87    1.42
   3  -6   3   23.25    1.19
  -3  -6  -3   21.11    1.21
  -3   6   3   21.26    0.99
   3  -6   3   23.57    1.09
  -3   6   3   20.63    1.45
   3  -6  -3   22.78    1.07
   3   6   3   23.09    0.97
  -3  -6   3   22.43    1.02
   3  -6  -3   19.82    1.18
  -3   6  -3   21.94    0.97
   3   6   3   21.80    0.86
  -3   6  -3   23.33    1.02
   3   6   3   26.43    1.57
  -3   6  -3   21.80    0.95
  -3   6  -3   22.33    1.49
  -3  -6   3   23.59    1.33
  -3   6  -3   23.20    0.91
  -3   6  -3   19.30    1.38
  -3  -6   3   21.90    0.85
  -3   6  -3   21.71    0.75
  -3  -6   3   23.34    0.86
  -5  -6  -3   13.55    0.75
  -5  -6  -3   12.17    1.38
   5   6  -3   12.96    0.76
   5  -6   3   11.74    0.77
  -5   6   3   11.08    0.81
  -5  -6  -3   11.09    0.80
  -5  -6  -3   13.25    0.90
   5  -6   3   11.97    1.40
  -5   6   3   12.31    0.82
  -5   6   3   11.86    0.76
   5   6  -3   11.70    0.80
  -5  -6  -3   11.61    0.70
  -5   6   3   12.19    0.51
  -5   6   3   13.70    1.52
  -5  -6  -3   11.53    0.71
  -5  -6  -3   12.87    0.89
   5   6  -3   12.94    1.47
   5  -6   3   12.37    0.77
  -5   6  -3   10.96    0.52
   5  -6  -3   11.70    0.76
   5   6   3   11.49    0.80
   5  -6  -3   11.16    1.13
  -5  -6   3   10.64    0.93
  -5  -6   3   10.33    1.20
  -5  -6   3   12.57    0.83
   5   6   3   12.93    1.48
  -5   6  -3   14.08    0.87
  -5  -6   3   12.75    0.73
  -5  -6   3   12.35    0.75
  -5   6  -3   10.96    0.81
   5   6   3   13.90    1.31
  -5  -6   3   13.37    0.82
  -5  -6   3   12.29    0.70
  -5   6  -3   12.43    0.82
  -7   6   3    5.86    0.69
  -7  -6  -3    5.95    0.78
  -7  -6  -3    7.42    0.68
  -7  -6  -3    5.50    0.72
  -7  -6  -3    5.59    0.65
  -7  -6  -3    4.73    0.57
  -7   6   3    6.22    0.75
  -7  -6  -3    6.62    0.85
   7   6  -3    4.85    0.66
  -7  -6   3    5.96    0.67
  -7  -6   3    5.46    0.60
  -7   6  -3    6.88    0.75
  -7  -6   3    8.04    0.89
  -7   6  -3    5.84    0.69
  -7   6  -3    5.99    0.72
  -7  -6   3    6.13    0.80
  -7  -6   3    5.44    0.71
   7   6   3    6.83    0.76
  -7  -6   3    6.44    0.65
  -9  -6  -3    2.25    0.40
  -9  -6   3    2.49    0.40
   0   7   3   14.77    0.72
   0   7   3   15.93    0.71
   0  -7   3   13.94    0.96
   0   7  -3   15.36    0.73
   0   7   3   11.37    1.14
   0   7   3   15.17    0.64
   0   7   3   14.73    1.07
   0  -7  -3   16.77    1.04
   0   7  -3   15.39    0.76
   0   7   3   16.33    0.75
   0  -7  -3   14.46    0.99
   0   7  -3   15.54    1.05
   0  -7   3   14.04    0.99
   0   7   3   13.74    0.71
   0  -7  -3   15.80    0.76
   0  -7   3   14.30    0.74
   0   7  -3   10.68    1.17
   0  -7  -3   15.10    0.78
   0   7  -3   15.67    0.66
   0  -7   3   16.20    0.82
   2   7  -3   14.06    0.74
  -2   7   3   14.96    0.65
   2  -7   3   15.82    0.80
   2  -7   3   15.39    0.97
   2   7  -3   14.18    0.73
  -2  -7  -3   14.81    1.24
  -2  -7  -3   14.22    0.81
  -2   7   3   14.87    0.78
  -2   7   3   15.45    0.83
  -2  -7  -3   14.25    0.79
  -2   7   3   14.66    0.76
  -2   7   3   16.58    1.30
   2   7  -3   13.16    1.34
   2  -7   3   14.56    1.02
   2   7   3   16.05    1.47
  -2   7  -3   15.10    0.83
  -2  -7   3   11.96    1.12
  -2   7  -3   13.46    0.75
  -2  -7   3   16.03    0.77
  -2   7  -3   15.61    0.78
   2  -7  -3   15.21    0.81
  -2   7  -3   14.72    1.20
  -2   7  -3   13.22    1.37
   2  -7  -3   14.71    1.04
   2   7   3   15.95    0.76
   2  -7  -3   16.24    1.01
  -2  -7   3   14.96    0.86
  -2   7  -3   14.95    0.67
   2   7   3   14.39    0.79
  -2   7  -3   12.99    0.77
   4   7  -3   11.40    0.76
  -4   7   3   10.16    0.71
   4   7  -3    9.71    1.25
  -4  -7  -3   10.60    0.65
  -4   7   3   10.07    1.34
  -4  -7  -3   10.05    0.91
   4  -7   3   10.51    0.70
  -4  -7  -3   11.12    0.77
  -4   7   3   10.71    0.55
   4   7  -3   11.05    0.71
   4  -7   3   12.21    0.99
  -4   7   3   10.91    0.80
  -4  -7  -3   12.49    0.71
   4  -7   3   11.61    1.11
  -4   7   3   10.38    0.76
  -4  -7  -3   12.52    1.23
   4  -7  -3    9.19    0.86
  -4   7  -3   11.34    0.81
  -4   7  -3   11.16    0.72
   4  -7  -3   11.27    0.76
  -4  -7   3    9.73    1.15
   4   7   3   10.88    0.67
   4   7   3   11.29    0.78
  -4  -7   3   11.38    0.68
  -4  -7   3   12.43    0.70
  -4   7  -3   10.68    0.77
   4  -7  -3   10.77    1.11
  -4   7  -3   12.18    0.60
  -4  -7   3   12.27    0.86
   4   7   3   10.64    1.36
  -4   7  -3   13.13    0.86
  -6   7   3    6.83    0.76
  -6   7   3    7.20    0.79
  -6   7   3    7.25    0.75
  -6   7   3    6.10    0.44
  -6  -7  -3    6.34    0.65
   6   7  -3    6.71    0.76
  -6  -7  -3    6.15    0.70
  -6  -7  -3    7.56    0.67
  -6  -7  -3    6.68    0.66
  -6  -7  -3    5.43    0.76
   6   7  -3    5.68    0.61
  -6  -7  -3    6.77    0.80
  -6   7  -3    6.76    0.47
  -6   7  -3    6.46    0.75
  -6  -7   3    5.88    0.65
  -6  -7   3    6.54    0.66
  -6   7  -3    5.58    0.71
  -6  -7   3    6.84    0.63
   6   7   3    5.49    0.70
  -6  -7   3    6.37    0.72
  -6  -7   3    6.89    0.80
  -6  -7   3    6.19    0.79
  -6   7  -3    7.17    0.79
   6  -7  -3    6.44    0.69
  -8  -7  -3    2.90    0.45
  -8  -7   3    2.93    0.44
  -1  -8  -3   39.29    1.47
  -1   8   3   40.35    1.38
  -1   8   3   42.13    1.29
   1  -8   3   41.62    1.47
   1  -8   3   42.00    1.91
  -1   8   3   43.91    2.13
  -1  -8  -3   43.77    1.50
  -1   8   3   43.88    1.48
   1   8  -3   41.81    2.22
  -1   8   3   39.88    1.38
   1   8  -3   41.48    1.39
   1  -8   3   40.32    1.82
  -1   8   3   41.24    1.44
   1  -8   3   40.77    1.48
  -1  -8  -3   41.97    1.92
   1   8  -3   38.06    1.40
  -1  -8   3   40.83    1.94
  -1   8  -3   43.10    1.39
   1   8   3   43.09    2.16
  -1   8  -3   40.98    1.29
  -1  -8   3   40.57    1.53
   1   8   3   42.55    1.46
   1  -8  -3   39.27    1.47
   1  -8  -3   42.95    1.41
   1  -8  -3   39.37    1.87
  -1  -8   3   40.72    1.43
  -1   8  -3   41.40    2.03
  -1   8  -3   42.81    1.50
  -1   8  -3   38.84    1.41
   1  -8  -3   41.42    1.85
   1   8   3   40.75    1.42
  -1   8  -3   37.10    2.11
  -3   8   3   30.57    1.08
  -3   8   3   32.89    2.04
   3   8  -3   32.64    2.03
   3  -8   3   29.81    1.61
  -3   8   3   31.85    1.37
  -3  -8  -3   32.07    1.77
  -3   8   3   30.64    1.30
   3   8  -3   29.40    1.23
  -3  -8  -3   30.42    1.36
   3  -8   3   31.75    1.55
   3  -8   3   31.29    1.25
  -3  -8  -3   29.15    1.29
   3   8  -3   31.94    1.26
  -3   8   3   30.48    1.28
   3  -8  -3   29.50    1.29
  -3   8  -3   31.15    2.05
   3   8   3   31.42    1.19
  -3   8  -3   28.02    1.25
   3  -8  -3   28.50    1.49
  -3  -8   3   28.09    1.70
  -3   8  -3   29.26    1.34
  -3   8  -3   29.68    1.09
  -3   8  -3   28.76    1.22
   3   8   3   30.42    1.97
   3  -8  -3   33.45    1.75
  -3  -8   3   31.28    1.40
   3   8   3   29.37    1.28
  -5   8   3   18.20    0.79
   5   8  -3   18.78    0.97
  -5   8   3   18.36    1.01
   5   8  -3   18.02    1.04
  -5  -8  -3   15.17    1.05
  -5   8   3   16.09    1.00
  -5   8   3   17.35    1.09
  -5  -8   3   18.28    1.16
   5   8   3   19.30    1.08
  -5   8  -3   17.33    0.78
  -5   8  -3   17.81    1.06
  -5   8  -3   16.68    1.09
   5  -8  -3   16.57    0.97
  -5  -8   3   15.94    0.90
  -7  -8  -3    9.99    0.67
   7   8   3    9.04    0.82
  -7  -8   3    8.35    0.73
   0   9   3   24.44    1.07
   0  -9  -3   22.59    1.14
   0   9   3   24.02    1.10
   0  -9  -3   22.16    1.48
   0  -9   3   21.23    1.13
   0   9  -3   21.59    1.07
   0   9  -3   23.02    1.08
   0   9  -3   18.32    1.80
   0  -9   3   18.83    1.59
   0  -9  -3   22.17    1.07
   0  -9   3   23.91    1.09
  -2   9   3   16.85    1.00
  -2   9   3   20.64    1.06
   2   9  -3   19.68    1.01
   2  -9   3   18.78    1.02
  -2  -9  -3   20.30    1.08
   2  -9   3   18.93    1.04
  -2  -9  -3   20.14    1.09
  -2   9   3   22.07    1.05
  -2   9   3   19.89    0.90
  -2   9  -3   19.75    1.09
  -2  -9   3   18.32    1.09
  -2   9  -3   19.63    1.01
  -2   9  -3   18.13    0.99
   2   9   3   21.58    1.11
   2   9   3   19.42    0.99
  -2   9  -3   20.91    0.92
   2  -9  -3   19.88    1.08
  -4   9   3   12.31    0.72
   4  -9   3   14.74    0.97
  -4   9   3   13.66    0.96
  -4  -9  -3   14.09    1.02
  -4   9   3   12.82    0.91
   4   9  -3   13.87    0.87
  -4   9   3   13.32    0.89
   4   9  -3   14.32    0.91
   4   9   3   16.74    1.04
  -4   9  -3   14.57    0.93
  -4   9  -3   13.12    0.74
   4   9   3   13.17    0.81
   4  -9  -3   13.93    0.93
  -4  -9   3   13.90    1.01
  -4   9  -3   14.12    0.99
  -4   9  -3   14.17    0.89
  -6  -9  -3    6.99    0.84
   6   9  -3    7.81    0.73
  -6   9   3    6.93    0.56
  -6   9   3    7.15    0.71
  -6   9   3    6.15    0.75
  -6   9   3    7.68    0.77
  -6   9  -3    6.70    0.75
  -6   9  -3    6.80    0.56
  -6  -9   3    8.03    0.88
  -6   9  -3    8.27    0.85
   6   9   3    8.28    0.84
   1 -10   3   21.25    1.15
  -1 -10  -3   24.74    1.22
  -1  10   3   24.07    1.18
  -1  10   3   23.28    1.14
  -1 -10  -3   22.20    1.18
   1  10  -3   26.22    1.22
   1 -10   3   25.46    1.24
  -1 -10   3   23.69    1.17
   1  10   3   23.31    1.14
  -1  10  -3   24.70    1.20
  -1  10  -3   24.13    1.20
  -1 -10   3   23.41    1.25
   1 -10  -3   24.04    1.24
  -3  10   3   17.01    1.01
  -3 -10  -3   18.38    1.07
  -3  10   3   17.36    1.03
  -3  10   3   17.15    0.86
  -3  10   3   18.13    1.10
  -3 -10  -3   18.26    1.11
   3  10  -3   18.89    1.02
   3 -10   3   19.17    1.09
  -3  10  -3   16.72    1.08
  -3  10  -3   17.75    1.01
  -3  10  -3   17.02    1.02
   3  10   3   16.19    0.93
   3  10   3   17.13    1.06
  -3 -10   3   18.57    1.15
  -3  10  -3   16.95    0.88
   3 -10  -3   19.38    1.09
  -5  10   3   12.30    0.85
  -5  10   3    9.61    0.87
   5  10  -3   10.94    0.76
  -5  10   3   12.44    0.91
  -5  10   3   11.08    0.66
   5 -10   3    9.60    0.87
  -5  10  -3   10.16    0.64
   5  10   3    7.92    0.85
  -5 -10   3   10.54    0.99
  -5  10  -3   10.71    0.92
  -5  10  -3   10.44    0.94
   0 -11   3    2.43    0.51
   0  11   3    3.47    0.57
   0  11  -3    2.69    0.52
   0 -11  -3    3.46    0.60
  -2 -11  -3    2.78    0.55
   2 -11   3    3.49    0.57
  -2  11   3    4.31    0.62
   2 -11   3    2.39    0.50
  -2  11   3    1.81    0.47
  -2 -11  -3    3.76    0.61
   2  11  -3    3.39    0.53
   2  11   3    2.08    0.47
  -2 -11   3    3.14    0.58
   2 -11  -3    3.19    0.57
  -2  11  -3    2.69    0.54
  -2  11  -3    3.25    0.55
   0   0   4  150.12    3.05
   0   0   4  153.09    2.95
   0   0  -4  152.02    3.00
   0   0   4  152.99    3.12
   0   0  -4  156.55    3.13
   0   0  -4  150.91    3.04
  -2   0  -4  112.19    2.30
   2   0  -4  111.79    2.38
  -2   0   4  116.24    2.65
   2   0   4  117.17    2.40
  -2   0   4  116.38    2.53
  -2   0  -4  120.98    2.73
   2   0  -4  115.28    2.78
   2   0   4  112.24    2.35
   2   0  -4  118.66    2.40
  -2   0  -4  111.03    2.78
   2   0   4  116.77    2.64
   2   0  -4  116.06    2.47
  -4   0   4   35.32    1.10
  -4   0   4   36.38    1.56
  -4   0  -4   37.57    1.58
  -4   0  -4   33.78    1.01
  -4   0   4   34.08    1.03
   4   0   4   34.81    1.31
   4   0  -4   35.68    1.01
  -4   0   4   34.63    1.39
  -4   0  -4   37.76    1.15
   4   0  -4   34.72    1.33
  -4   0  -4   35.83    1.11
  -4   0   4   35.06    1.12
  -4   0  -4   33.62    1.10
  -4   0   4   34.74    1.01
  -4   0   4   35.89    1.22
  -4   0   4   35.40    0.99
   4   0   4   36.02    1.06
  -4   0  -4   33.79    1.00
  -4   0  -4   35.47    1.06
  -4   0   4   37.59    1.12
  -4   0  -4   36.94    1.10
  -6   0   4   13.95    0.76
  -6   0  -4   15.82    1.49
   6   0  -4   12.42    1.36
  -6   0  -4   14.41    0.75
   6   0   4   13.65    0.73
  -6   0  -4   15.12    0.76
  -6   0  -4   14.79    0.82
  -6   0   4   13.84    0.81
   6   0   4   13.18    1.39
  -6   0   4   15.21    0.86
  -6   0   4   14.21    0.72
  -6   0  -4   13.57    0.83
  -6   0   4   14.15    0.85
  -6   0   4   15.11    1.30
  -6   0  -4   14.13    0.75
  -6   0  -4   16.55    0.90
   6   0  -4   14.06    0.73
  -8   0  -4    7.62    0.83
  -8   0   4    6.23    0.75
  -8   0  -4    7.12    0.67
  -8   0   4    6.64    0.77
  -8   0   4    6.73    0.67
  -8   0  -4    5.69    0.74
  -8   0   4    5.45    0.60
  -8   0  -4    4.73    0.67
  -8   0  -4    7.16    0.70
  -8   0   4    5.34    0.72
 -10   0   4    2.35    0.38
   1  -1   4  452.13    8.44
  -1   1   4  446.39    8.35
   1  -1   4  450.67    8.80
  -1  -1  -4  455.61    8.57
   1   1  -4  458.47    8.65
  -1   1   4  469.51    8.79
  -1  -1  -4  464.44    8.80
   1  -1   4  429.08    8.55
  -1  -1  -4  459.90    8.45
   1  -1   4  461.55    8.54
   1   1  -4  453.23    8.64
  -1   1   4  440.29    8.69
   1   1  -4  457.80    8.80
   1  -1  -4  443.89    8.57
   1   1   4  452.60    8.68
   1   1   4  441.34    8.77
   1   1   4  448.42    8.69
  -1  -1   4  453.31    8.70
  -1   1  -4  458.44    8.63
   1  -1  -4  470.36    8.77
  -1  -1   4  453.16    8.54
   1  -1  -4  471.74    8.57
   3  -1   4  172.26    3.32
  -3  -1  -4  169.78    3.52
  -3   1   4  165.18    3.46
   3   1  -4  170.75    3.54
  -3   1   4  168.47    3.88
   3  -1   4  171.16    3.33
   3  -1   4  169.78    3.92
   3   1  -4  172.07    3.85
  -3   1   4  171.10    3.85
  -3  -1  -4  174.21    4.11
  -3  -1  -4  171.93    3.49
  -3   1   4  161.19    3.42
  -3  -1  -4  169.67    3.52
  -3  -1  -4  162.07    3.50
   3   1  -4  171.60    3.57
  -3   1  -4  171.88    3.51
   3  -1  -4  169.43    3.67
   3  -1  -4  166.62    4.02
   3   1   4  168.04    4.11
   3   1   4  165.72    3.60
   3   1   4  164.86    3.50
   3  -1  -4  172.42    3.34
   3  -1  -4  174.33    3.36
  -3   1  -4  174.04    3.94
  -3   1  -4  162.93    3.49
  -3  -1   4  162.95    3.47
  -3   1  -4  174.36    4.14
  -3  -1   4  165.89    3.40
   3   1   4  174.82    3.69
  -3  -1   4  164.22    3.86
  -3  -1   4  161.83    3.41
  -3  -1   4  166.25    4.07
  -5   1   4   66.93    1.63
  -5   1   4   65.30    1.80
  -5   1   4   67.58    2.26
   5   1  -4   67.30    2.29
  -5  -1  -4   65.82    1.36
   5  -1   4   64.30    1.61
  -5   1   4   66.48    1.81
  -5   1   4   64.31    1.82
  -5  -1  -4   63.02    1.80
  -5   1   4   62.16    1.70
  -5  -1  -4   63.63    1.85
  -5  -1  -4   61.36    2.49
  -5  -1  -4   65.47    1.73
  -5   1   4   63.57    1.71
   5   1  -4   61.23    1.79
  -5  -1  -4   63.70    1.75
   5  -1   4   67.05    2.22
  -5  -1  -4   63.90    1.86
  -5  -1  -4   64.82    1.71
  -5   1  -4   63.92    1.67
   5   1   4   65.07    2.55
  -5  -1   4   63.16    1.71
  -5   1  -4   64.87    1.76
  -5   1  -4   66.85    2.43
  -5  -1   4   65.43    1.86
  -5  -1   4   65.45    1.35
  -5  -1   4   64.68    2.26
  -5  -1   4   64.45    1.72
  -5   1  -4   62.75    1.83
   5   1   4   62.06    1.86
   5  -1  -4   69.59    2.55
  -5  -1   4   66.91    1.89
  -5   1  -4   66.75    1.79
  -5  -1   4   65.31    1.70
  -5  -1   4   63.20    2.50
   5  -1  -4   66.45    1.59
  -5   1  -4   62.92    2.46
  -5   1  -4   64.18    1.73
  -5  -1   4   63.20    1.81
  -7  -1  -4   26.56    1.31
  -7  -1  -4   25.67    0.84
  -7  -1  -4   25.37    1.12
   7   1  -4   26.18    1.10
  -7   1   4   26.30    1.21
  -7   1   4   26.27    1.05
  -7  -1  -4   25.91    1.22
  -7   1   4   26.73    1.12
   7  -1   4   24.49    1.81
  -7  -1  -4   26.02    1.10
  -7   1   4   28.01    1.25
  -7  -1  -4   25.27    1.26
   7  -1   4   26.33    0.92
  -7   1   4   25.46    1.21
   7  -1  -4   27.61    0.91
   7   1   4   26.09    1.88
  -7   1  -4   27.97    1.12
  -7   1  -4   27.24    1.24
   7  -1  -4   26.46    1.88
  -7  -1   4   27.04    0.84
  -7   1  -4   28.45    1.29
  -7   1  -4   25.69    1.15
  -7  -1   4   25.89    1.10
  -7  -1   4   26.24    1.26
  -7  -1   4   27.76    1.15
  -7  -1   4   27.72    1.27
  -7  -1   4   28.02    1.35
   7   1   4   27.02    1.12
  -9  -1  -4    9.01    0.56
  -9  -1  -4    9.96    0.92
  -9   1   4    9.62    0.67
  -9  -1  -4    9.79    0.70
  -9  -1  -4    8.82    0.93
  -9  -1  -4    8.25    0.74
  -9  -1   4    9.64    0.73
  -9  -1   4   10.01    0.96
  -9  -1   4   10.40    0.74
  -9  -1   4   10.31    0.93
  -9  -1   4   10.54    0.57
   0   2  -4  400.27    7.60
   0   2   4  385.39    7.72
   0  -2  -4  391.65    7.68
   0  -2  -4  411.26    7.74
   0   2   4  404.11    7.68
   0  -2  -4  406.61    7.67
   0   2  -4  392.91    7.71
   0   2  -4  409.88    7.89
   0  -2   4  398.07    7.69
   0  -2   4  388.41    7.74
   0   2   4  407.33    7.84
   0  -2   4  400.76    7.67
  -2   2   4  233.77    5.18
  -2   2   4  240.21    5.08
   2   2  -4  242.51    4.96
   2   2  -4  241.95    5.10
   2  -2   4  242.55    4.70
  -2   2   4  232.49    4.78
  -2  -2  -4  240.86    4.83
   2  -2   4  242.35    4.74
   2  -2   4  241.88    4.78
   2  -2  -4  236.41    4.74
   2   2   4  236.32    4.85
  -2   2  -4  238.34    4.86
   2   2   4  245.21    5.03
   2  -2  -4  240.29    5.04
   2   2   4  244.03    5.27
  -2  -2   4  242.63    5.09
  -2   2  -4  243.07    5.24
   2  -2  -4  243.31    4.73
  -2  -2   4  244.55    5.20
  -2   2  -4  243.16    5.30
  -4  -2  -4   96.97    2.01
  -4   2   4   99.72    2.84
  -4   2   4   94.74    2.18
  -4   2   4   95.35    2.23
  -4   2   4   95.56    2.73
  -4   2   4   94.90    2.27
   4  -2   4   98.49    2.07
   4  -2   4  101.57    2.87
   4  -2   4   99.09    2.06
  -4   2   4   95.86    2.24
   4   2  -4   93.40    2.78
  -4  -2  -4   96.81    2.26
  -4  -2  -4   95.05    2.32
  -4  -2  -4   96.39    2.36
  -4  -2  -4   94.75    2.36
  -4  -2  -4   90.85    2.98
  -4  -2  -4   99.95    2.29
  -4  -2  -4   98.18    2.44
  -4   2   4   96.59    2.28
  -4  -2  -4   95.99    2.20
   4   2  -4   96.98    2.49
  -4   2   4   93.81    2.21
   4  -2   4   98.14    2.36
  -4  -2   4   94.69    2.26
  -4  -2   4   97.14    3.03
  -4   2  -4   95.33    2.15
  -4   2  -4   94.00    2.14
  -4  -2   4   94.29    2.32
  -4  -2   4   96.58    2.22
  -4  -2   4   98.19    2.78
  -4   2  -4   97.96    3.01
  -4   2  -4  101.43    2.74
  -4  -2   4   95.99    2.36
  -4   2  -4   95.73    2.23
   4  -2  -4   96.81    2.09
   4  -2  -4   98.94    2.08
  -4   2  -4  100.06    2.33
  -4  -2   4   97.23    2.22
  -4   2  -4   94.82    2.19
   4  -2  -4   87.73    2.77
   4   2   4   95.40    2.53
  -4  -2   4   95.77    2.32
   4   2   4   96.70    3.04
  -4   2  -4   90.51    2.18
  -4  -2   4   95.06    2.00
  -4   2  -4   95.03    2.28
   6   2  -4   44.82    1.40
  -6   2   4   43.06    1.41
  -6  -2  -4   36.48    2.10
   6  -2   4   40.78    1.13
  -6  -2  -4   43.74    1.60
   6   2  -4   41.99    1.97
  -6   2   4   43.72    1.44
  -6   2   4   39.98    1.36
   6   2  -4   40.42    1.60
  -6  -2  -4   41.11    1.38
  -6  -2  -4   41.84    1.52
  -6  -2  -4   41.49    1.14
  -6   2   4   39.73    1.84
  -6  -2  -4   39.08    1.52
  -6   2   4   39.16    1.43
  -6   2   4   43.64    1.47
  -6  -2   4   40.39    1.56
   6   2   4   41.95    1.64
   6   2   4   39.08    1.38
  -6   2  -4   40.48    1.30
   6  -2  -4   42.03    1.09
  -6   2  -4   41.51    1.49
  -6   2  -4   44.22    1.44
  -6  -2   4   47.07    2.02
  -6  -2   4   40.66    1.50
   6   2   4   40.54    2.17
  -6  -2   4   40.39    1.52
  -6  -2   4   41.70    1.13
   6  -2  -4   36.61    1.97
  -6  -2   4   38.63    1.40
  -6  -2   4   40.24    1.39
  -8  -2  -4   15.40    0.73
  -8  -2  -4   17.13    1.08
  -8  -2  -4   15.48    1.09
  -8  -2  -4   16.87    0.94
  -8  -2  -4   15.67    0.93
  -8  -2  -4   15.67    1.03
  -8  -2   4   15.81    0.73
   8   2   4   15.93    0.93
  -8  -2   4   14.07    1.02
  -8  -2   4   15.56    0.91
  -8  -2   4   14.85    1.06
  -8  -2   4   15.91    1.02
  -8  -2   4   16.46    0.94
 -10  -2  -4    5.15    0.53
 -10  -2   4    4.94    0.53
  -1  -3  -4   87.43    2.14
  -1  -3  -4   90.27    2.12
   1  -3   4   88.44    2.09
   1   3  -4   85.60    2.16
   1  -3   4   92.13    2.12
  -1   3   4   85.92    2.11
   1   3  -4   90.69    2.24
   1   3  -4   89.18    2.35
  -1  -3  -4   90.60    2.24
   1   3   4   90.62    2.32
  -1   3  -4   88.25    2.41
   1   3   4   88.58    2.26
  -1  -3   4   86.94    2.16
   1  -3  -4   88.13    2.08
  -1  -3   4   90.47    2.23
   1  -3  -4   89.91    2.19
  -1   3  -4   90.77    2.38
   1  -3  -4   86.76    2.05
  -1  -3   4   85.55    1.99
   1   3   4   91.53    2.18
   3   3  -4   39.33    1.39
  -3   3   4   38.96    1.07
  -3  -3  -4   38.00    1.13
  -3  -3  -4   39.20    1.07
   3   3  -4   41.27    1.56
  -3   3   4   42.66    1.67
  -3  -3  -4   41.02    1.20
   3   3  -4   37.67    1.09
   3  -3   4   39.19    1.24
  -3  -3  -4   40.91    1.16
  -3  -3  -4   40.94    1.02
  -3  -3  -4   40.27    1.20
  -3   3   4   38.75    1.12
  -3   3   4   40.65    1.31
  -3  -3  -4   40.45    1.32
  -3  -3  -4   40.71    1.64
   3  -3   4   40.52    1.11
  -3   3   4   38.85    1.11
  -3   3   4   41.44    1.18
  -3   3   4   38.37    1.11
  -3  -3   4   40.61    1.01
   3   3   4   38.43    1.63
  -3   3  -4   40.24    1.14
  -3   3  -4   36.32    1.13
   3  -3  -4   40.71    1.39
  -3   3  -4   37.68    1.61
  -3   3  -4   41.46    1.25
  -3  -3   4   40.99    1.16
  -3   3  -4   38.32    1.60
  -3   3  -4   38.95    1.14
  -3  -3   4   39.76    1.15
  -3  -3   4   39.86    1.16
   3  -3  -4   39.76    1.15
   3  -3  -4   39.32    1.42
   3   3   4   39.74    1.13
  -3  -3   4   40.49    1.62
  -3   3  -4   37.91    1.15
  -3  -3   4   40.71    1.10
  -3  -3   4   40.26    1.50
  -3  -3   4   38.89    1.17
   3   3   4   41.28    1.46
   3  -3  -4   41.63    1.12
  -5  -3  -4   16.87    0.79
  -5   3   4   16.26    0.82
  -5   3   4   16.21    0.75
  -5   3   4   15.61    0.76
  -5  -3  -4   16.60    0.84
  -5  -3  -4   17.76    1.34
   5   3  -4   16.54    0.98
   5   3  -4   16.34    1.18
   5   3  -4   15.91    0.75
   5  -3   4   18.20    1.25
   5  -3   4   15.95    0.62
  -5  -3  -4   15.27    0.75
  -5   3   4   15.24    0.78
  -5   3   4   17.31    1.21
  -5  -3  -4   15.51    0.64
  -5  -3  -4   15.15    0.86
  -5  -3  -4   15.94    0.87
  -5   3  -4   15.36    0.69
  -5   3  -4   15.96    0.77
  -5   3  -4   16.17    1.24
  -5  -3   4   17.30    0.83
   5   3   4   15.32    1.49
   5   3   4   15.40    0.80
  -5   3  -4   16.76    0.83
  -5  -3   4   14.75    1.42
  -5   3  -4   16.10    0.80
  -5  -3   4   16.05    0.85
   5  -3  -4   16.99    0.62
  -5  -3   4   17.30    0.78
   5  -3  -4   16.66    1.04
  -5  -3   4   17.20    0.89
  -5  -3   4   17.00    1.12
  -5  -3   4   16.28    0.64
   5   3   4   15.82    0.99
  -5  -3   4   16.77    0.87
  -5   3  -4   16.72    0.78
  -7   3   4    8.06    0.71
  -7  -3  -4    7.73    0.87
  -7  -3  -4    6.53    0.54
  -7  -3  -4    7.19    0.69
  -7  -3  -4    7.64    0.81
  -7  -3  -4    6.70    0.69
   7   3  -4    6.51    0.64
  -7  -3  -4    8.59    0.88
  -7   3  -4    7.28    0.75
  -7  -3   4    8.21    0.85
   7   3   4    8.77    0.80
  -7  -3   4    7.71    0.52
  -7   3  -4    6.58    0.71
  -7  -3   4    6.11    0.74
  -7  -3   4    6.81    0.81
  -7  -3   4    7.27    0.70
  -7  -3   4    9.08    0.67
  -9  -3  -4    2.55    0.40
  -9  -3  -4    3.33    0.49
  -9  -3  -4    2.52    0.53
  -9  -3  -4    2.50    0.54
  -9  -3  -4    3.29    0.53
  -9  -3   4    3.42    0.44
  -9  -3   4    3.07    0.51
  -9  -3   4    2.96    0.57
  -9  -3   4    2.94    0.59
  -9  -3   4    2.64    0.45
   0   4   4  182.74    4.10
   0   4   4  182.44    4.18
   0   4   4  181.78    3.64
   0   4  -4  179.89    4.01
   0   4   4  181.46    4.01
   0  -4   4  181.44    4.03
   0  -4  -4  182.51    4.02
   0  -4  -4  183.78    4.00
   0  -4   4  187.91    4.01
   0  -4  -4  178.68    3.85
   0  -4  -4  177.29    3.69
   0   4  -4  187.24    4.11
   0   4  -4  176.37    3.64
   0   4  -4  181.74    4.31
   0  -4   4  177.98    3.72
   0   4  -4  177.23    3.57
  -2   4   4  136.02    3.22
  -2  -4  -4  136.11    2.92
   2  -4   4  135.88    3.16
  -2   4   4  136.48    2.92
  -2  -4  -4  135.43    2.81
  -2  -4  -4  134.44    3.22
  -2  -4  -4  134.00    2.94
   2   4  -4  138.92    3.33
  -2   4   4  137.92    2.90
  -2   4   4  132.12    2.88
  -2   4   4  136.77    2.90
  -2  -4  -4  133.50    3.43
  -2   4   4  130.90    3.59
   2   4  -4  135.44    2.88
  -2   4   4  131.56    2.65
   2   4  -4  137.49    3.56
   2  -4   4  133.33    3.06
  -2  -4  -4  129.57    2.85
  -2  -4  -4  131.26    2.90
  -2   4   4  130.93    2.95
   2   4   4  139.00    3.06
   2   4   4  134.19    3.38
  -2   4  -4  134.16    2.69
  -2   4  -4  139.07    3.65
   2  -4  -4  137.08    3.00
   2   4   4  134.27    2.91
   2  -4  -4  134.17    3.30
   2  -4  -4  135.43    3.08
  -2   4  -4  137.33    3.64
  -2  -4   4  134.47    2.82
  -2  -4   4  132.39    2.95
  -2   4  -4  135.16    2.96
  -2   4  -4  130.87    2.81
  -2  -4   4  136.53    3.38
  -2   4  -4  135.27    2.95
  -2  -4   4  132.31    2.79
  -2  -4   4  139.29    3.35
  -2   4  -4  136.44    2.94
   2   4   4  136.43    3.56
   2   4   4  130.21    2.78
  -2  -4   4  131.09    2.88
  -2   4  -4  137.01    2.93
  -4   4   4   70.86    1.87
   4   4  -4   67.81    2.25
  -4  -4  -4   67.68    1.86
  -4   4   4   70.08    1.81
  -4  -4  -4   70.18    1.78
  -4   4   4   68.86    1.83
   4  -4   4   71.50    1.83
   4   4  -4   69.55    1.82
  -4  -4  -4   67.77    2.62
  -4  -4  -4   71.25    1.99
  -4  -4  -4   69.07    1.95
  -4  -4  -4   70.32    2.19
  -4   4   4   69.50    1.84
  -4   4   4   70.96    1.95
  -4  -4  -4   70.59    1.91
   4   4  -4   68.45    2.51
  -4  -4  -4   72.56    1.74
  -4   4   4   66.59    2.57
   4  -4   4   71.30    2.08
   4  -4  -4   70.24    1.82
  -4   4  -4   70.75    2.63
  -4  -4   4   72.09    1.94
   4   4   4   68.13    2.30
  -4  -4   4   71.95    2.60
  -4  -4   4   68.90    1.93
  -4   4  -4   69.13    1.89
  -4   4  -4   66.89    1.89
  -4  -4   4   68.29    2.39
  -4  -4   4   70.87    1.91
   4   4   4   67.26    1.87
  -4  -4   4   72.37    1.74
   4   4   4   70.39    2.63
  -4  -4   4   70.07    1.82
  -4   4  -4   70.49    1.90
   4  -4  -4   70.87    2.31
  -4   4  -4   67.87    1.88
  -4  -4   4   68.93    1.93
  -6   4   4   32.25    1.25
   6   4  -4   33.03    1.90
  -6   4   4   33.57    1.35
  -6  -4  -4   33.56    1.45
  -6  -4  -4   33.84    1.27
   6   4  -4   32.57    1.22
   6   4  -4   35.29    1.71
  -6  -4  -4   30.88    1.41
   6   4  -4   31.42    2.07
  -6  -4  -4   33.24    1.25
  -6  -4  -4   34.08    1.15
  -6   4   4   31.96    1.24
  -6   4   4   31.03    1.89
   6  -4   4   34.42    1.07
  -6  -4  -4   34.59    2.12
  -6  -4  -4   33.18    1.39
   6  -4   4   33.66    1.94
   6   4   4   33.89    1.67
  -6  -4   4   32.32    1.21
   6   4   4   32.74    1.33
  -6  -4   4   33.48    1.40
  -6  -4   4   34.56    1.44
   6  -4  -4   34.26    1.71
  -6   4  -4   30.86    1.29
  -6   4  -4   31.89    1.27
  -6  -4   4   33.46    1.84
  -6  -4   4   33.77    1.43
  -6  -4   4   33.20    1.14
  -6  -4   4   31.88    1.36
  -6  -4   4   32.57    1.28
   6  -4  -4   32.52    1.00
  -6   4  -4   35.95    2.03
  -6   4  -4   35.23    1.31
   6   4   4   30.08    1.98
  -6   4  -4   34.02    1.34
  -8  -4  -4   11.99    1.01
  -8  -4  -4   13.02    0.86
  -8  -4  -4   13.09    0.75
  -8  -4  -4   13.56    0.87
   8   4  -4   13.15    1.07
  -8  -4  -4   11.57    1.05
  -8  -4  -4   12.46    1.06
  -8  -4   4   12.75    0.75
  -8  -4   4   12.46    0.83
   8   4   4   12.81    0.88
  -8  -4   4   13.70    1.11
  -8  -4   4   11.28    0.82
  -8  -4   4   13.20    1.14
 -10  -4  -4    4.40    0.47
 -10  -4   4    4.11    0.46
  -1   5   4  113.45    2.42
   1   5  -4  115.80    2.56
   1   5  -4  112.12    2.47
   1  -5   4  115.93    2.91
   1   5  -4  116.40    3.30
  -1   5   4  114.06    3.05
  -1   5   4  112.45    2.55
  -1   5   4  113.46    2.58
   1  -5   4  114.28    2.61
  -1  -5  -4  119.04    2.61
   1  -5   4  113.58    2.93
  -1  -5  -4  112.23    2.59
  -1   5   4  118.17    3.29
  -1   5   4  115.10    2.56
  -1  -5  -4  114.57    2.96
   1   5  -4  116.94    2.56
  -1  -5  -4  117.99    2.91
  -1   5   4  110.89    2.55
  -1  -5  -4  114.14    2.95
   1  -5  -4  114.94    2.91
  -1  -5   4  112.57    3.00
  -1   5  -4  113.94    3.21
   1   5   4  116.49    2.58
  -1   5  -4  112.77    2.59
  -1  -5   4  112.50    2.42
   1  -5  -4  113.31    2.47
   1   5   4  116.08    2.52
   1  -5  -4  113.75    2.98
   1   5   4  116.65    2.97
  -1  -5   4  115.33    2.95
  -1   5  -4  115.70    2.63
  -1   5  -4  120.07    2.57
  -1  -5   4  112.02    2.51
   1  -5  -4  115.89    2.60
  -1   5  -4  114.69    2.53
  -1   5  -4  116.01    2.45
  -1  -5   4  116.62    2.65
  -1  -5   4  115.77    2.76
  -1   5  -4  115.01    3.32
   1   5   4  113.79    3.17
  -3   5   4   74.19    2.72
  -3   5   4   75.54    1.98
  -3  -5  -4   74.64    1.80
  -3  -5  -4   76.85    2.60
  -3   5   4   76.48    2.05
  -3   5   4   76.99    1.95
  -3  -5  -4   74.01    1.97
  -3   5   4   73.42    1.91
   3   5  -4   75.67    1.92
   3   5  -4   72.29    2.62
  -3  -5  -4   77.13    2.04
  -3   5   4   76.55    1.65
  -3   5   4   73.65    1.92
  -3  -5  -4   75.06    1.98
  -3  -5  -4   79.59    2.38
  -3  -5  -4   77.31    1.85
   3  -5   4   76.89    2.11
  -3  -5  -4   77.13    1.93
   3   5  -4   74.29    1.93
   3  -5   4   76.52    2.24
   3   5  -4   74.85    2.40
  -3   5  -4   74.06    1.85
  -3  -5   4   75.10    1.89
  -3   5  -4   71.66    1.99
  -3  -5   4   78.52    1.86
  -3  -5   4   73.22    1.86
   3   5   4   75.66    1.82
  -3  -5   4   74.99    2.03
   3   5   4   76.36    1.98
  -3   5  -4   74.43    2.76
  -3   5  -4   75.26    2.01
  -3  -5   4   74.25    1.92
  -3   5  -4   72.56    2.69
  -3  -5   4   77.55    2.51
  -3   5  -4   75.20    1.67
   3  -5  -4   72.91    2.08
  -3   5  -4   72.87    1.97
  -3  -5   4   70.86    2.45
   3   5   4   78.10    2.51
   3   5   4   74.34    2.69
   3  -5  -4   73.86    2.37
  -5  -5  -4   38.26    1.28
   5  -5   4   38.25    2.06
  -5   5   4   39.96    1.39
   5  -5   4   37.80    1.33
  -5  -5  -4   41.07    1.47
  -5   5   4   40.07    1.50
  -5  -5  -4   39.27    1.34
  -5   5   4   41.95    1.44
  -5  -5  -4   39.11    2.12
   5   5  -4   37.55    2.02
  -5   5   4   39.16    1.33
  -5  -5  -4   36.48    1.48
   5   5  -4   41.97    1.38
  -5   5   4   39.61    2.13
  -5  -5  -4   38.31    1.50
   5   5   4   39.10    1.45
   5   5   4   38.72    1.84
  -5   5  -4   40.46    1.45
  -5  -5   4   39.23    1.51
  -5  -5   4   41.50    1.98
  -5   5  -4   39.26    1.46
  -5   5  -4   40.81    1.44
  -5  -5   4   38.62    1.28
   5  -5  -4   41.09    1.34
   5  -5  -4   36.67    1.76
  -5  -5   4   40.84    1.48
  -5   5  -4   41.07    1.48
  -5  -5   4   40.29    1.38
  -5  -5   4   41.02    1.51
   5   5   4   39.87    2.17
  -5   5  -4   40.98    2.14
   7   5  -4   18.41    1.08
   7   5  -4   17.46    0.92
  -7   5   4   16.77    0.95
  -7  -5  -4   19.34    0.99
  -7  -5  -4   17.31    1.13
  -7  -5  -4   16.72    1.11
  -7  -5  -4   16.55    0.88
  -7   5   4   15.46    0.94
  -7   5   4   16.14    1.00
  -7  -5  -4   17.83    0.97
  -7  -5  -4   18.50    1.09
  -7   5  -4   18.36    1.03
  -7  -5   4   18.77    1.08
  -7  -5   4   16.01    0.87
   7   5   4   17.47    1.04
  -7  -5   4   17.07    0.93
  -7  -5   4   16.54    0.96
  -7   5  -4   19.31    1.02
  -7  -5   4   16.97    1.09
  -7  -5   4   18.82    1.15
  -9  -5  -4    6.68    0.63
  -9  -5   4    5.85    0.61
   0   6  -4   32.25    1.40
   0   6  -4   30.60    1.04
   0  -6  -4   29.17    1.00
   0   6   4   30.69    0.98
   0   6  -4   29.72    1.55
   0  -6   4   28.44    1.28
   0  -6  -4   29.24    1.30
   0  -6  -4   30.53    1.05
   0   6   4   29.00    0.98
   0   6  -4   28.70    0.99
   0   6   4   29.68    0.90
   0   6   4   27.76    0.94
   0  -6  -4   32.55    1.37
   0   6   4   30.95    1.03
   0   6   4   30.39    1.44
   0  -6   4   32.28    1.38
   0   6  -4   29.32    0.93
   0  -6   4   28.73    1.00
   0  -6   4   29.40    1.07
   0   6   4   31.64    1.46
   0   6  -4   30.34    0.92
   2   6  -4   22.75    0.87
  -2  -6  -4   25.78    1.27
   2   6  -4   24.87    1.48
  -2  -6  -4   22.75    0.96
  -2  -6  -4   24.81    0.97
  -2   6   4   22.80    0.96
  -2   6   4   23.93    1.29
  -2   6   4   22.48    1.41
   2  -6   4   25.42    0.97
   2  -6   4   23.07    1.12
   2   6  -4   24.62    0.93
  -2   6   4   22.51    0.90
  -2   6   4   24.14    0.78
  -2  -6  -4   24.09    1.23
   2  -6   4   24.58    1.20
  -2   6   4   24.55    0.93
  -2   6   4   23.37    0.93
   2   6   4   25.17    0.89
  -2  -6   4   23.59    0.82
   2   6   4   24.42    0.96
  -2  -6   4   23.95    1.01
   2  -6  -4   23.85    0.94
  -2   6  -4   23.20    0.79
  -2   6  -4   24.36    0.98
   2  -6  -4   23.52    1.12
   2  -6  -4   22.24    1.19
  -2   6  -4   23.04    0.89
  -2   6  -4   22.52    1.43
  -2   6  -4   22.97    0.92
  -2   6  -4   23.43    0.98
  -2  -6   4   23.35    1.29
  -2   6  -4   24.31    1.43
   2   6   4   23.29    1.40
   4   6  -4   17.80    1.26
   4  -6   4   14.83    0.87
   4   6  -4   15.08    1.44
  -4   6   4   14.36    0.58
   4   6  -4   15.01    0.79
  -4   6   4   13.68    0.77
   4  -6   4   15.86    1.02
  -4  -6  -4   15.00    0.91
  -4  -6  -4   14.63    0.74
  -4  -6  -4   13.74    0.78
   4   6  -4   12.85    1.36
  -4   6   4   14.72    0.87
  -4  -6  -4   14.50    1.37
  -4  -6  -4   15.09    0.87
  -4  -6  -4   15.13    0.72
   4   6  -4   14.86    0.83
  -4   6   4   14.64    0.83
  -4  -6  -4   13.85    0.81
   4  -6   4   14.89    0.82
  -4   6   4   13.90    1.43
  -4  -6   4   14.90    0.87
  -4   6  -4   14.56    0.84
  -4  -6   4   14.41    0.79
  -4   6  -4   14.74    1.49
   4  -6  -4   15.59    1.11
   4   6   4   13.51    1.24
   4  -6  -4   15.06    0.80
  -4   6  -4   13.86    0.84
  -4  -6   4   15.97    0.79
   4  -6  -4   14.01    0.84
   4   6   4   16.38    1.55
  -4  -6   4   13.88    1.31
   4   6   4   13.82    0.82
  -4  -6   4   15.48    0.84
  -4   6  -4   14.68    0.74
  -4   6  -4   15.79    0.87
  -4  -6   4   16.59    0.76
   4   6   4   15.07    0.71
  -4   6  -4   14.99    0.61
  -6  -6  -4    7.38    0.69
  -6  -6  -4    7.64    0.87
  -6   6   4    7.14    0.42
  -6  -6  -4    8.90    0.85
   6   6  -4    8.59    0.76
  -6  -6  -4    9.73    0.95
  -6   6   4    7.94    0.78
  -6   6   4    8.25    0.86
  -6  -6  -4    8.24    0.71
  -6   6   4    9.17    0.81
   6   6  -4    8.48    0.83
  -6  -6  -4    8.88    0.72
  -6  -6   4    8.05    0.69
   6   6   4    8.09    0.80
  -6   6  -4    7.94    0.80
  -6  -6   4    8.09    0.81
  -6   6  -4    7.77    0.78
  -6  -6   4    8.42    0.88
  -6  -6   4    7.02    0.65
  -6   6  -4    8.65    0.84
  -6  -6   4    8.70    0.87
  -6  -6   4    8.20    0.77
  -6   6  -4    7.97    0.46
   8   6  -4    3.42    0.57
  -8  -6  -4    2.70    0.47
  -8  -6  -4    4.27    0.57
  -8  -6  -4    3.77    0.64
  -8  -6   4    3.66    0.52
   8   6   4    4.54    0.62
  -8  -6   4    3.18    0.55
  -8  -6   4    3.39    0.49
  -8  -6   4    3.83    0.64
  -8  -6   4    2.91    0.46
 -10  -6  -4    1.27    0.28
 -10  -6   4    1.90    0.30
  -1   7   4   64.10    1.79
  -1   7   4   63.65    2.50
   1   7  -4   61.31    2.56
  -1   7   4   64.71    1.77
   1   7  -4   63.88    1.79
  -1   7   4   64.42    1.81
  -1   7   4   59.02    2.34
  -1  -7  -4   62.23    2.27
  -1   7   4   60.32    1.73
   1   7  -4   63.72    1.75
   1  -7   4   60.11    1.79
  -1  -7  -4   62.33    1.83
   1  -7   4   61.70    1.82
  -1  -7  -4   61.83    1.80
   1  -7   4   61.88    2.23
   1  -7   4   64.22    2.20
  -1   7   4   63.81    1.64
  -1   7  -4   60.13    1.83
  -1   7  -4   63.13    1.74
  -1   7  -4   61.11    1.76
  -1  -7   4   60.40    2.28
   1  -7  -4   58.75    2.15
   1  -7  -4   62.26    1.83
  -1   7  -4   65.84    1.66
   1   7   4   62.51    2.49
  -1   7  -4   63.20    2.60
  -1   7  -4   60.50    2.39
  -1  -7   4   64.90    1.90
   1   7   4   64.56    1.76
   1  -7  -4   56.88    2.20
  -1  -7   4   59.91    1.73
   1   7   4   60.99    1.80
   1  -7  -4   63.02    1.70
  -3  -7  -4   46.28    2.01
   3   7  -4   45.32    1.49
   3  -7   4   45.55    1.79
  -3   7   4   47.33    1.56
   3   7  -4   49.03    2.38
  -3   7   4   44.39    2.31
   3  -7   4   49.62    1.57
  -3  -7  -4   48.91    1.61
  -3   7   4   43.27    1.29
   3   7  -4   46.62    1.51
   3  -7   4   45.30    1.89
  -3   7   4   46.91    1.58
  -3   7   4   45.92    1.63
  -3  -7  -4   46.82    1.64
   3  -7  -4   46.22    1.81
  -3  -7   4   46.71    1.42
  -3   7  -4   48.03    2.41
   3  -7  -4   44.90    1.55
  -3   7  -4   45.93    1.34
   3   7   4   45.59    1.57
  -3  -7   4   45.56    2.08
   3  -7  -4   46.31    2.00
  -3   7  -4   45.32    1.56
  -3   7  -4   48.01    1.64
  -3  -7   4   47.51    1.68
   3   7   4   49.18    1.47
  -3   7  -4   45.80    1.65
   3   7   4   43.56    2.22
  -3   7  -4   44.74    1.48
  -5   7   4   26.91    1.21
   5   7  -4   26.21    1.14
  -5  -7  -4   25.91    1.25
  -5   7   4   28.02    1.34
  -5   7   4   25.82    1.24
   5  -7   4   27.10    1.19
  -5  -7  -4   24.36    1.04
  -5  -7  -4   24.99    1.16
  -5  -7  -4   25.99    1.11
  -5  -7  -4   27.35    1.08
   5   7  -4   23.56    1.18
  -5   7   4   25.74    0.91
  -5  -7  -4   25.34    1.31
  -5  -7   4   28.05    1.36
  -5  -7   4   26.43    1.13
   5  -7  -4   24.83    1.15
  -5   7  -4   26.52    1.26
   5   7   4   27.54    1.26
  -5   7  -4   26.05    0.93
  -5   7  -4   27.77    1.27
  -5   7  -4   26.71    1.31
  -7  -7  -4   12.23    0.78
  -7  -7  -4   12.82    1.10
  -7  -7  -4   12.54    0.75
  -7   7   4   10.92    0.56
  -7   7   4   11.20    0.97
  -7  -7  -4   11.50    0.78
   7   7  -4   11.58    0.97
  -7   7   4   11.27    0.83
  -7   7  -4   11.30    0.58
  -7  -7   4   13.75    1.12
  -7  -7   4   11.29    0.80
  -7   7  -4   12.32    0.87
  -7   7  -4   12.45    0.90
  -7  -7   4   10.32    0.74
   7   7   4   11.07    0.96
  -7  -7   4   11.39    1.00
  -7   7  -4   10.53    0.92
  -7  -7   4   11.66    0.95
  -7  -7   4   12.61    0.77
  -9  -7  -4    4.40    0.46
  -9  -7   4    4.68    0.46
   0  -8   4   48.06    1.60
   0   8  -4   50.35    2.46
   0   8   4   52.59    1.63
   0   8   4   49.00    1.42
   0  -8  -4   47.84    2.10
   0   8  -4   48.80    1.60
   0   8   4   50.36    2.31
   0   8   4   49.86    1.49
   0   8   4   50.33    1.60
   0   8  -4   50.05    1.45
   0   8  -4   47.94    1.61
   0  -8   4   49.34    1.68
   0  -8   4   47.62    2.09
   0  -8  -4   47.98    1.58
   0  -8  -4   49.47    1.67
   2  -8   4   38.56    1.82
  -2   8   4   45.62    1.54
  -2   8   4   42.68    1.57
  -2   8   4   41.18    2.23
  -2  -8  -4   42.20    1.99
  -2   8   4   45.48    1.55
  -2   8   4   41.90    1.34
   2  -8   4   43.88    1.55
   2  -8   4   46.38    1.60
   2   8  -4   39.74    2.23
   2   8  -4   44.71    1.53
  -2  -8  -4   43.60    1.58
   2  -8   4   43.72    1.97
  -2  -8  -4   43.27    1.57
   2  -8  -4   44.92    1.92
  -2  -8   4   37.82    1.95
   2   8   4   43.93    1.58
  -2   8  -4   41.11    1.47
   2   8   4   43.84    1.46
  -2   8  -4   44.03    1.38
  -2   8  -4   45.95    1.53
  -2   8  -4   45.70    2.40
   2  -8  -4   40.70    1.96
  -2  -8   4   44.08    1.66
   2   8   4   43.10    2.25
  -2   8  -4   42.97    1.61
   2  -8  -4   42.27    1.55
   4   8  -4   26.88    1.22
  -4  -8  -4   29.45    1.30
   4  -8   4   26.67    1.19
  -4  -8  -4   27.36    1.37
  -4   8   4   28.73    1.31
  -4   8   4   28.51    1.04
  -4   8   4   26.79    1.34
   4   8  -4   27.45    1.20
  -4   8   4   26.17    1.23
  -4   8  -4   27.58    1.28
  -4  -8   4   30.49    1.44
  -4   8  -4   27.04    1.34
  -4   8  -4   26.44    1.19
  -4   8  -4   28.95    1.05
  -4   8  -4   30.38    1.34
  -4  -8   4   26.28    1.11
   4   8   4   28.86    1.14
   4  -8  -4   30.06    1.30
   4   8   4   31.30    1.34
  -6  -8  -4   12.61    1.10
  -6   8   4   14.09    0.91
   6   8  -4   13.96    0.85
  -6   8   4   12.57    0.96
  -6   8   4   14.74    0.70
  -6   8   4   13.78    0.93
   6   8  -4   15.56    0.98
   6   8   4   15.14    1.00
  -6   8  -4   14.74    1.01
  -6   8  -4   13.53    0.94
  -6  -8   4   14.93    0.88
  -6   8  -4   14.52    0.71
  -6  -8   4   14.71    1.04
   6  -8  -4   13.61    0.87
  -8  -8  -4    7.12    0.59
   1  -9   4   11.90    0.83
  -1  -9  -4   10.35    0.87
  -1   9   4   11.81    0.80
   1  -9   4   11.59    0.81
  -1   9   4   11.36    0.78
   1   9  -4   12.28    0.80
  -1   9   4   10.86    0.73
  -1  -9  -4   12.50    0.85
  -1   9   4   11.35    0.67
   1   9   4   11.31    0.79
   1  -9  -4   12.32    0.85
  -1   9  -4   12.51    0.85
  -1  -9   4   13.09    0.90
  -1   9  -4   12.23    0.70
  -1  -9   4   12.62    0.80
  -1   9  -4   11.50    0.74
   1   9   4   11.17    1.40
  -1   9  -4   11.51    0.79
   1   9   4   11.88    0.78
   3   9  -4    9.70    0.84
  -3   9   4    9.25    0.86
   3  -9   4    8.73    0.85
  -3   9   4    9.18    0.83
  -3  -9  -4    8.25    0.84
  -3   9   4    9.44    0.63
  -3  -9  -4    9.30    0.86
  -3   9   4    8.76    0.86
   3  -9   4    8.38    0.79
  -3   9  -4    7.57    0.77
  -3  -9   4    9.64    0.93
  -3   9  -4    7.70    0.82
   3  -9  -4    8.60    0.85
  -3   9  -4    7.92    0.66
   3   9   4    9.48    0.91
  -3   9  -4    9.16    0.81
   3   9   4    9.66    0.79
  -5   9   4    5.04    0.70
  -5   9   4    5.26    0.70
   5   9  -4    5.38    0.62
   5  -9   4    6.35    0.75
  -5  -9  -4    6.33    0.81
  -5   9   4    4.79    0.50
  -5   9   4    7.79    0.80
   5   9  -4    5.94    0.72
  -5   9  -4    4.53    0.49
  -5  -9   4    5.64    0.77
   5  -9  -4    5.46    0.68
  -5   9  -4    4.56    0.63
  -5   9  -4    5.80    0.76
   5   9   4    4.86    0.68
   0 -10   4   25.35    1.23
   0 -10   4   27.06    1.32
   0  10  -4   27.58    1.25
   0  10   4   26.12    1.24
   0  10  -4   26.01    1.23
   0 -10  -4   27.32    1.32
  -2 -10  -4   26.49    1.27
  -2  10   4   21.69    1.10
   2 -10   4   22.67    1.20
  -2  10   4   23.89    1.20
  -2  10   4   23.48    1.02
  -2 -10  -4   23.60    1.22
   2  10  -4   25.53    1.20
  -2  10   4   20.38    1.13
   2 -10   4   24.16    1.20
   2 -10  -4   22.77    1.21
   2  10   4   23.96    1.14
  -2  10  -4   24.86    1.16
  -2 -10   4   20.99    1.23
  -2  10  -4   22.86    1.15
  -2  10  -4   23.84    1.23
  -2  10  -4   21.87    1.00
   2  10   4   24.52    1.20
  -4  10   4   15.92    0.82
  -4  10   4   14.33    0.95
  -4  10   4   17.10    1.08
  -4 -10  -4   16.01    1.07
   4 -10   4   14.69    0.99
   4  10  -4   16.52    0.93
   4  10   4   16.14    1.04
  -4 -10   4   15.76    1.07
   4 -10  -4   16.51    1.01
  -4  10  -4   14.58    0.94
  -1 -11  -4   16.95    1.07
   1 -11   4   16.99    1.04
  -1  11   4   16.78    1.00
   1  11  -4   17.86    1.02
   1 -11   4   16.52    1.03
   1 -11  -4   16.83    1.06
  -1  11  -4   15.48    0.99
  -1  11  -4   18.50    1.04
   1  11   4   16.99    0.98
  -1 -11   4   17.92    1.09
   3 -11   4   14.07    0.94
   3  11  -4   15.11    0.91
  -3  11   4   11.68    0.74
  -3  11   4   12.27    0.90
  -3  11   4   13.36    0.89
  -3 -11  -4   14.01    0.98
   3  11   4   13.47    0.91
  -3  11  -4   14.37    0.97
  -3 -11   4   13.10    1.10
  -3  11  -4   13.62    0.89
  -3  11  -4   13.02    0.87
   3 -11  -4   13.22    0.84
   3  11   4   10.83    0.77
   0  12   4    4.58    0.61
   0  12  -4    5.31    0.65
   1   0   5  249.41    4.94
  -1   0  -5  248.36    4.93
   1   0  -5  245.79    4.60
  -1   0  -5  235.24    4.93
  -1   0   5  239.33    4.84
   1   0   5  235.73    4.77
   1   0  -5  243.44    4.99
  -1   0   5  239.88    4.84
   1   0  -5  249.30    4.78
  -3   0  -5   96.79    2.62
  -3   0   5   92.98    2.12
   3   0   5   98.90    2.17
   3   0  -5   92.36    2.67
  -3   0  -5   96.75    2.05
  -3   0   5   92.38    2.13
   3   0   5   94.11    2.09
  -3   0   5   96.89    2.32
  -3   0  -5   90.39    2.65
   3   0  -5   95.56    2.12
  -3   0  -5   90.70    2.14
   3   0  -5   97.22    2.30
   3   0  -5   96.50    2.13
   3   0   5   96.97    2.44
  -3   0   5   93.14    2.07
  -3   0   5   91.88    2.12
  -3   0   5   94.99    2.51
  -5   0   5   55.18    1.55
  -5   0  -5   56.17    1.51
  -5   0   5   54.11    1.63
   5   0  -5   52.47    2.29
  -5   0   5   55.24    1.67
   5   0   5   52.34    1.57
  -5   0  -5   51.72    2.20
  -5   0   5   53.88    1.63
  -5   0   5   54.45    1.51
  -5   0  -5   55.45    1.59
   5   0  -5   55.14    1.56
  -5   0  -5   54.96    1.57
   5   0   5   54.91    2.32
  -5   0   5   53.80    2.04
  -5   0   5   55.73    1.47
  -5   0  -5   54.22    1.63
  -5   0  -5   55.20    1.67
  -5   0  -5   57.53    1.53
  -7   0  -5   27.40    1.28
   7   0   5   26.33    1.89
  -7   0   5   28.46    1.29
  -7   0  -5   27.99    1.29
  -7   0  -5   27.05    1.13
  -7   0   5   26.71    1.09
  -7   0   5   26.11    1.12
  -7   0  -5   26.55    1.09
  -7   0  -5   26.89    1.87
  -7   0   5   26.78    1.30
  -7   0   5   26.03    1.09
  -7   0  -5   27.33    1.22
  -7   0   5   26.13    1.24
  -9   0  -5   10.58    0.77
  -9   0   5    9.73    0.91
  -9   0   5    9.59    0.93
  -9   0   5    9.49    0.88
  -9   0   5   10.23    0.71
  -9   0  -5    9.95    0.70
   0   1   5  375.75    7.51
   0   1   5  397.27    7.66
   0   1  -5  407.07    7.71
   0  -1   5  388.64    7.54
   0  -1   5  392.20    7.63
   0  -1  -5  421.65    7.78
   0   1  -5  403.88    7.65
   0   1  -5  418.14    7.71
   0   1   5  405.36    7.55
   0   1   5  394.71    7.75
   0  -1  -5  402.24    7.64
   0  -1   5  381.88    7.70
   2  -1   5  219.11    4.27
   2   1  -5  224.91    4.54
   2  -1   5  223.59    4.78
   2  -1   5  226.50    4.39
  -2   1   5  226.62    4.73
   2   1  -5  225.01    4.58
  -2   1   5  224.96    4.73
   2  -1   5  219.91    4.37
  -2  -1  -5  221.91    4.30
   2   1  -5  220.28    4.50
  -2  -1  -5  222.80    4.83
   2   1  -5  228.44    4.91
   2   1   5  223.29    4.57
  -2  -1   5  219.51    4.39
  -2   1  -5  220.26    4.66
   2   1   5  222.49    4.62
  -2   1  -5  216.43    4.88
   2  -1  -5  224.79    4.41
   2   1   5  220.08    4.47
   2   1   5  223.72    4.85
   2  -1  -5  222.45    4.81
   2  -1  -5  217.12    4.31
   2  -1  -5  231.65    4.41
  -2  -1   5  221.20    4.70
  -4   1   5   82.53    2.02
  -4   1   5   83.29    1.98
  -4  -1  -5   82.86    2.02
  -4  -1  -5   79.35    1.90
  -4   1   5   79.69    2.00
  -4  -1  -5   82.65    1.95
   4  -1   5   84.30    1.91
  -4   1   5   78.75    1.82
  -4   1   5   84.89    2.37
   4   1  -5   78.93    1.90
  -4  -1  -5   81.11    2.06
   4   1  -5   83.06    2.37
   4  -1   5   86.28    2.48
  -4  -1  -5   81.12    2.06
  -4   1   5   83.64    1.97
  -4  -1  -5   83.15    2.69
  -4   1   5   81.14    1.99
  -4  -1  -5   82.09    1.65
  -4   1   5   89.44    2.52
  -4  -1  -5   82.76    1.99
  -4   1   5   79.96    1.84
   4   1   5   85.04    2.75
  -4  -1   5   78.31    2.02
  -4   1  -5   82.95    1.92
  -4   1  -5   82.00    2.01
  -4   1  -5   79.16    2.67
   4   1   5   82.53    2.21
  -4   1  -5   82.42    2.05
   4  -1  -5   82.64    2.63
  -4   1  -5   80.20    1.93
  -4   1  -5   82.58    2.54
  -4  -1   5   83.29    2.47
  -4   1  -5   79.88    1.97
  -4  -1   5   82.04    1.91
   4  -1  -5   76.83    2.18
  -4  -1   5   82.24    1.64
  -4  -1   5   78.99    2.03
  -4  -1   5   81.26    2.06
   4  -1  -5   83.47    1.89
  -4   1  -5   79.92    1.89
  -4  -1   5   79.07    1.91
   4   1   5   82.62    2.17
  -4  -1   5   81.64    1.95
  -6  -1  -5   32.71    1.22
  -6   1   5   34.26    1.33
   6   1  -5   35.09    2.06
  -6   1   5   32.24    1.27
  -6  -1  -5   32.77    1.30
  -6   1   5   32.66    1.69
  -6  -1  -5   32.79    1.93
   6  -1   5   35.10    1.15
  -6  -1  -5   34.50    1.39
   6  -1   5   36.93    2.04
  -6   1   5   33.59    1.22
   6   1  -5   34.27    1.33
  -6   1   5   33.85    1.12
  -6   1   5   33.86    1.32
  -6  -1  -5   34.75    1.23
  -6  -1  -5   35.14    0.91
  -6  -1  -5   33.69    1.34
  -6   1  -5   32.28    1.26
  -6  -1   5   33.58    1.35
  -6   1  -5   35.50    1.28
  -6  -1   5   33.87    0.90
  -6  -1   5   33.37    1.70
  -6  -1   5   33.99    1.21
  -6  -1   5   33.90    1.34
  -6   1  -5   34.48    1.86
   6  -1  -5   32.51    1.09
  -6  -1   5   35.27    1.40
  -6   1  -5   32.85    1.33
   6  -1  -5   37.41    2.03
  -6   1  -5   34.83    1.19
  -6  -1   5   35.34    1.21
   6   1   5   32.63    1.34
  -6   1  -5   34.00    1.24
   6   1   5   32.94    1.97
  -8  -1  -5   13.55    0.84
  -8  -1  -5   13.59    0.98
  -8   1   5   13.25    0.80
  -8  -1  -5   12.01    0.82
  -8   1   5   13.37    0.92
  -8  -1  -5   12.56    1.08
  -8   1   5   13.66    0.95
  -8  -1  -5   13.74    0.96
  -8   1   5   13.27    0.91
  -8  -1  -5   12.48    0.61
  -8  -1   5   15.01    0.86
  -8   1  -5   14.31    0.86
  -8  -1   5   12.50    1.10
  -8  -1   5   11.03    0.98
  -8  -1   5   12.08    1.03
  -8  -1   5   12.88    0.62
  -8  -1   5   11.74    0.78
  -8   1  -5   12.48    1.04
 -10  -1  -5    4.50    0.48
 -10  -1   5    4.05    0.47
  -1  -2  -5   56.05    1.60
  -1  -2  -5   54.50    1.45
  -1  -2  -5   57.52    1.37
   1   2  -5   56.53    1.58
   1   2  -5   60.21    1.60
   1  -2   5   58.56    1.43
   1   2  -5   59.55    1.54
   1  -2   5   58.18    1.64
   1  -2   5   58.13    1.36
  -1   2   5   56.29    1.29
   1  -2  -5   59.35    1.44
  -1   2  -5   60.73    1.71
   1   2   5   55.57    1.58
   1   2   5   58.93    1.57
  -1  -2   5   56.00    1.39
   1  -2  -5   59.00    1.56
  -1  -2   5   60.79    1.55
   1   2   5   58.39    1.54
  -1   2  -5   56.50    1.36
  -1  -2   5   56.32    1.47
  -3  -2  -5   31.75    1.00
  -3  -2  -5   31.96    1.00
  -3  -2  -5   32.56    0.97
  -3   2   5   30.32    0.90
   3  -2   5   31.40    0.95
   3  -2   5   33.51    0.93
   3  -2   5   33.09    0.91
  -3   2   5   32.66    1.02
  -3  -2  -5   31.00    1.38
  -3   2   5   31.53    1.32
   3   2  -5   33.47    1.14
  -3   2   5   32.63    0.93
   3   2  -5   31.07    1.23
  -3   2   5   31.59    1.25
  -3  -2  -5   30.68    0.89
  -3   2   5   30.91    0.96
   3  -2   5   33.23    1.34
  -3  -2  -5   31.05    0.99
  -3  -2  -5   33.02    0.81
  -3   2   5   33.39    0.97
  -3  -2  -5   31.53    0.96
  -3   2  -5   30.93    1.40
   3  -2  -5   32.17    0.93
  -3   2  -5   32.70    0.94
   3   2   5   33.39    1.19
  -3  -2   5   31.51    0.79
  -3  -2   5   32.17    0.93
   3  -2  -5   31.61    0.90
  -3  -2   5   31.47    1.37
   3   2   5   30.89    1.39
   3   2   5   29.99    0.91
  -3   2  -5   30.44    0.96
  -3  -2   5   31.06    0.89
   3   2   5   31.30    1.04
   3  -2  -5   29.61    1.24
  -3   2  -5   30.40    1.16
  -3   2  -5   31.11    0.98
  -3  -2   5   31.19    0.97
  -3  -2   5   31.72    0.97
  -3  -2   5   32.86    1.28
  -3  -2   5   30.10    0.97
  -5   2   5   20.40    0.87
  -5   2   5   22.14    0.82
  -5   2   5   21.05    0.90
  -5   2   5   20.50    1.22
  -5   2   5   21.56    0.93
  -5   2   5   23.03    0.91
  -5  -2  -5   21.51    1.45
  -5   2   5   21.95    0.91
  -5  -2  -5   21.15    0.70
  -5  -2  -5   21.26    0.97
  -5  -2  -5   20.90    0.88
  -5   2   5   20.62    1.24
  -5  -2  -5   20.02    0.92
   5  -2   5   22.56    0.78
   5   2  -5   21.54    1.24
  -5  -2  -5   19.95    0.95
  -5  -2  -5   20.94    0.86
   5  -2   5   24.03    1.34
   5  -2  -5   21.36    0.75
   5   2   5   21.91    1.09
   5  -2  -5   20.22    1.31
  -5   2  -5   22.56    0.89
  -5  -2   5   22.65    0.99
  -5   2  -5   20.84    1.41
  -5  -2   5   21.94    0.86
  -5   2  -5   22.55    0.87
  -5   2  -5   22.39    0.97
  -5  -2   5   21.85    0.90
   5   2   5   22.94    0.90
  -5   2  -5   21.96    0.92
  -5  -2   5   20.51    0.96
  -5  -2   5   21.00    1.25
  -5  -2   5   21.12    0.95
  -5   2  -5   21.88    1.25
  -5  -2   5   22.43    0.69
  -5   2  -5   21.05    0.81
   5   2   5   23.81    1.49
  -5   2  -5   21.38    0.83
  -7  -2  -5   10.70    0.99
  -7   2   5   12.71    0.83
  -7   2   5   13.40    0.81
  -7  -2  -5   10.32    0.91
   7   2  -5   11.59    0.76
  -7  -2  -5   12.39    0.78
  -7  -2  -5   12.51    0.90
  -7   2   5   11.32    0.84
  -7  -2  -5   12.13    0.80
  -7  -2  -5   12.00    0.61
  -7   2   5   12.49    0.85
  -7  -2   5   11.86    0.61
  -7   2  -5   11.68    0.85
  -7   2  -5   13.80    0.85
  -7  -2   5   11.61    0.99
  -7  -2   5   11.71    0.75
  -7  -2   5   12.17    1.05
  -7  -2   5   12.92    0.80
   7   2   5   13.84    0.83
  -7   2  -5   12.54    0.76
  -7  -2   5   10.41    0.94
  -9  -2  -5    5.17    0.49
  -9  -2  -5    4.42    0.58
  -9  -2  -5    3.92    0.62
  -9  -2  -5    5.15    0.72
  -9  -2  -5    4.58    0.55
  -9  -2  -5    4.07    0.66
  -9  -2   5    4.22    0.56
  -9  -2   5    3.74    0.44
  -9  -2   5    4.73    0.58
  -9  -2   5    4.85    0.67
   0   3   5  104.39    2.60
   0   3  -5  102.70    2.26
   0  -3  -5  105.62    2.44
   0   3   5  102.99    2.44
   0  -3   5  106.76    2.45
   0   3   5  103.97    2.48
   0  -3   5  103.44    2.43
   0   3  -5  102.69    2.46
   0  -3  -5  105.84    2.44
   0  -3   5  103.51    2.50
   0  -3  -5  105.16    2.43
   0   3  -5  106.57    2.69
  -2   3   5   68.97    2.12
   2  -3   5   68.36    1.71
  -2   3   5   65.85    1.56
  -2  -3  -5   65.84    1.61
   2   3  -5   65.58    1.57
  -2  -3  -5   67.65    1.50
  -2   3   5   66.85    1.59
  -2   3   5   65.16    1.62
  -2  -3  -5   67.80    1.75
  -2   3   5   68.83    1.70
   2  -3   5   67.25    1.68
   2   3  -5   67.68    2.01
  -2  -3  -5   65.93    1.61
   2  -3   5   66.92    1.73
  -2  -3  -5   68.17    2.06
  -2   3   5   65.86    1.59
  -2   3  -5   68.74    2.18
  -2   3  -5   65.37    1.62
   2  -3  -5   65.56    1.90
   2   3   5   68.71    2.12
   2   3   5   67.44    1.75
   2   3   5   66.60    1.59
   2  -3  -5   67.52    1.83
  -2   3  -5   68.36    1.62
  -2  -3   5   67.29    1.49
  -2  -3   5   64.53    1.39
  -2   3  -5   64.97    1.59
   2   3   5   69.68    1.96
  -2   3  -5   66.96    1.61
   2  -3  -5   67.18    1.75
  -2  -3   5   67.22    1.95
  -2   3  -5   66.29    1.57
   2  -3  -5   66.60    1.69
  -4  -3  -5   29.03    1.04
   4   3  -5   27.03    1.20
  -4  -3  -5   31.07    1.60
  -4   3   5   27.67    1.03
  -4   3   5   26.68    0.88
   4  -3   5   28.30    1.44
   4  -3   5   30.13    0.93
  -4  -3  -5   28.49    1.08
   4   3  -5   29.03    1.40
  -4  -3  -5   25.78    0.98
  -4   3   5   29.28    0.99
   4   3  -5   28.61    0.97
  -4   3   5   28.04    1.44
   4  -3   5   27.14    1.04
  -4  -3  -5   29.33    0.86
  -4   3   5   26.95    0.95
  -4  -3  -5   29.55    1.08
  -4   3   5   28.31    1.00
  -4  -3  -5   27.21    0.92
  -4  -3   5   27.93    1.05
  -4  -3   5   30.05    1.40
  -4  -3   5   26.36    1.01
   4   3   5   28.32    0.99
  -4  -3   5   26.73    1.48
  -4  -3   5   28.73    1.01
  -4   3  -5   28.03    1.01
  -4   3  -5   27.84    0.89
  -4  -3   5   27.81    0.95
  -4   3  -5   27.04    0.96
  -4  -3   5   29.33    0.85
  -4   3  -5   27.28    0.98
   4   3   5   27.01    1.26
  -4   3  -5   27.88    1.02
   4  -3  -5   26.29    1.28
  -4  -3   5   28.09    1.04
   4  -3  -5   29.09    0.93
  -4   3  -5   26.34    1.48
   4   3   5   29.26    1.55
  -6  -3  -5   11.68    0.85
   6   3  -5   13.53    1.57
  -6  -3  -5   12.97    0.63
  -6  -3  -5   13.37    0.85
  -6  -3  -5   11.64    1.43
   6  -3   5   13.10    0.62
  -6  -3  -5   12.14    0.87
  -6  -3  -5   11.49    0.72
   6   3  -5   11.94    1.07
  -6   3   5   12.59    0.75
   6  -3   5   14.18    1.35
  -6  -3  -5   12.85    0.74
   6   3  -5   10.89    0.71
  -6   3   5   13.41    0.80
  -6   3   5   13.27    0.80
  -6  -3   5   12.40    0.61
   6  -3  -5   12.82    0.56
  -6  -3   5   12.83    0.88
  -6   3  -5   12.01    0.71
   6   3   5   12.22    1.08
   6   3   5   12.09    0.77
  -6   3  -5   12.97    0.74
  -6   3  -5   13.22    0.84
  -6  -3   5   12.69    0.75
  -6   3  -5   12.85    1.42
  -6  -3   5   11.47    1.21
   6  -3  -5   13.82    1.25
  -6  -3   5   11.19    0.81
  -6  -3   5   12.62    0.80
  -6   3  -5   12.63    0.79
   6   3   5   11.97    1.40
  -6  -3   5   10.88    0.92
  -6  -3   5   12.47    0.72
  -8  -3  -5    4.73    0.72
  -8  -3  -5    5.07    0.51
  -8  -3  -5    3.88    0.62
  -8  -3  -5    5.52    0.65
  -8  -3  -5    5.73    0.75
  -8  -3  -5    5.74    0.64
  -8  -3   5    5.54    0.64
  -8  -3   5    5.11    0.72
  -8  -3   5    4.63    0.57
   8   3   5    6.45    0.69
  -8  -3   5    5.44    0.76
  -8  -3   5    4.41    0.49
  -8  -3   5    4.23    0.66
 -10  -3  -5    1.45    0.32
 -10  -3   5    1.94    0.36
  -1   4   5   28.72    0.90
  -1   4   5   29.86    1.11
   1   4  -5   30.93    1.18
  -1  -4  -5   32.81    1.13
   1  -4   5   29.47    0.93
  -1  -4  -5   30.48    1.12
   1   4  -5   29.61    0.87
  -1   4   5   30.71    0.78
  -1   4   5   29.00    0.88
  -1  -4  -5   29.91    0.92
   1  -4   5   30.80    1.08
  -1   4   5   28.92    0.89
  -1  -4  -5   30.50    0.89
   1   4  -5   29.53    1.07
   1   4  -5   30.30    0.88
   1  -4   5   29.96    1.07
   1   4  -5   31.50    1.33
  -1  -4  -5   32.07    1.17
  -1   4   5   29.93    0.87
  -1   4   5   29.35    1.30
  -1  -4   5   30.73    1.02
   1  -4  -5   29.85    0.90
  -1   4  -5   30.22    0.93
   1   4   5   31.95    1.18
  -1  -4   5   28.06    1.14
  -1   4  -5   29.36    1.26
  -1   4  -5   30.56    0.81
  -1  -4   5   28.79    0.92
   1   4   5   28.14    0.89
   1   4   5   31.47    1.22
   1  -4  -5   29.19    1.07
  -1   4  -5   30.51    1.35
  -1   4  -5   28.90    0.88
   1  -4  -5   31.04    0.99
   1   4   5   29.48    1.23
  -1  -4   5   30.74    1.13
  -1   4  -5   29.31    0.90
   3   4  -5   23.72    1.27
  -3   4   5   23.83    0.88
  -3  -4  -5   23.20    0.86
   3   4  -5   25.00    1.16
  -3   4   5   23.69    0.91
  -3   4   5   23.85    0.83
  -3  -4  -5   23.22    0.91
   3  -4   5   25.91    0.95
   3  -4   5   22.73    0.97
  -3  -4  -5   25.12    0.91
   3  -4   5   23.02    0.73
   3   4  -5   25.95    0.87
  -3   4   5   23.64    0.87
  -3  -4  -5   23.23    0.91
  -3   4   5   23.04    0.85
  -3  -4  -5   23.29    0.78
  -3  -4  -5   23.46    1.28
  -3  -4  -5   24.82    0.79
  -3   4   5   23.31    1.33
  -3   4   5   24.04    0.60
  -3  -4  -5   22.66    1.05
  -3   4  -5   24.17    0.64
   3  -4  -5   26.12    0.95
  -3  -4   5   25.11    0.91
  -3  -4   5   23.19    0.89
  -3   4  -5   25.99    0.91
   3   4   5   22.98    1.16
  -3   4  -5   23.74    0.78
  -3   4  -5   22.95    0.89
   3   4   5   25.19    0.90
  -3   4  -5   23.75    0.90
  -3   4  -5   25.37    0.92
  -3  -4   5   23.68    0.86
  -3  -4   5   24.14    0.83
  -3  -4   5   24.81    0.79
  -3   4  -5   23.07    1.37
  -3  -4   5   23.81    0.88
   3   4   5   25.87    1.36
  -3  -4   5   23.46    1.20
   3  -4  -5   24.37    1.16
   3   4   5   24.23    0.75
  -3  -4   5   25.11    1.27
   5  -4   5   17.64    0.77
   5   4  -5   17.93    1.15
   5  -4   5   16.79    1.30
   5   4  -5   17.88    1.28
  -5   4   5   18.02    0.92
   5   4  -5   17.97    0.85
  -5  -4  -5   18.33    0.96
  -5   4   5   18.65    0.86
  -5  -4  -5   18.43    0.77
  -5  -4  -5   17.68    0.86
  -5   4   5   16.48    1.28
  -5   4   5   16.21    0.84
  -5  -4  -5   15.27    1.47
  -5  -4  -5   16.03    0.93
  -5  -4  -5   15.96    0.79
  -5  -4  -5   17.71    0.90
  -5   4   5   18.72    0.86
   5  -4  -5   16.91    0.75
  -5   4  -5   17.62    0.86
   5   4   5   15.32    1.50
  -5  -4   5   17.35    0.91
   5  -4  -5   16.91    1.14
  -5  -4   5   19.96    1.29
  -5  -4   5   16.91    0.83
  -5  -4   5   17.00    0.90
   5   4   5   18.15    0.89
  -5  -4   5   16.73    0.74
  -5   4  -5   21.45    1.51
   5   4   5   17.32    1.14
  -5   4  -5   18.01    0.90
  -5   4  -5   17.93    0.88
  -5  -4   5   16.02    0.91
  -5   4  -5   17.46    0.89
  -5  -4   5   16.88    0.94
  -7  -4  -5    8.73    0.79
  -7  -4  -5    9.85    0.93
  -7  -4  -5    7.83    0.88
   7   4  -5   10.29    0.72
  -7  -4  -5   10.06    0.74
  -7  -4  -5    9.16    0.63
  -7   4   5   10.21    0.85
  -7  -4  -5   11.67    1.04
  -7   4   5   10.81    0.91
  -7  -4   5    8.31    0.90
  -7  -4   5    9.29    0.91
  -7   4  -5   11.20    0.92
  -7   4  -5   10.64    0.90
  -7   4  -5   10.64    0.86
  -7  -4   5    9.68    0.92
   7   4   5    9.15    0.85
  -7  -4   5   10.18    0.72
  -7  -4   5   10.14    0.77
  -7  -4   5    8.86    0.61
  -9  -4  -5    3.26    0.48
  -9  -4   5    4.76    0.57
   0   5   5  100.27    2.84
   0   5  -5   96.55    2.25
   0  -5  -5  100.12    2.45
   0   5   5   99.19    2.30
   0   5  -5  100.77    2.33
   0  -5  -5  100.17    2.67
   0  -5   5  100.26    2.68
   0   5   5  103.87    2.16
   0  -5   5   98.07    2.68
   0   5   5   99.23    2.23
   0   5  -5  101.90    3.02
   0   5   5   97.51    2.22
   0   5  -5   98.69    2.20
   0  -5  -5   99.60    2.31
   0   5   5   98.59    2.77
   0   5   5   99.26    2.24
   0  -5   5  100.06    2.66
   0   5  -5   98.34    2.17
   0  -5  -5  101.58    2.66
   0   5  -5   99.41    2.25
   0  -5  -5   99.86    2.23
   0  -5   5  102.29    2.36
   2  -5   5   76.71    2.24
   2   5  -5   78.32    2.37
   2  -5   5   80.05    2.03
  -2  -5  -5   81.19    2.49
  -2  -5  -5   80.46    2.32
  -2  -5  -5   77.26    2.00
  -2   5   5   80.54    2.00
   2   5  -5   80.90    1.97
  -2   5   5   78.29    2.32
  -2  -5  -5   82.77    2.04
   2   5  -5   77.62    2.45
  -2   5   5   78.94    1.98
   2   5  -5   77.81    2.65
  -2   5   5   79.77    2.71
   2   5  -5   80.54    1.93
   2   5  -5   81.15    1.90
  -2   5   5   80.04    1.77
  -2   5   5   81.27    2.04
   2  -5   5   79.38    2.22
  -2   5   5   79.79    1.97
  -2  -5   5   79.28    1.87
   2  -5  -5   80.90    2.24
  -2   5  -5   77.86    2.02
   2   5   5   78.41    1.87
   2  -5  -5   80.27    2.42
  -2   5  -5   80.94    1.91
  -2   5  -5   80.08    2.68
   2  -5  -5   80.19    1.99
  -2   5  -5   79.64    1.80
   2   5   5   82.62    2.65
  -2  -5   5   81.71    1.89
  -2   5  -5   80.69    2.76
  -2   5  -5   79.29    2.05
   2   5   5   86.61    2.54
  -2  -5   5   79.95    2.06
  -2   5  -5   81.60    2.00
   2   5   5   76.00    1.97
  -2  -5   5   79.83    2.47
   4  -5   5   46.72    1.53
  -4  -5  -5   46.21    1.37
  -4   5   5   43.93    1.42
  -4   5   5   47.51    1.57
  -4   5   5   43.52    2.17
   4   5  -5   45.48    2.12
  -4  -5  -5   49.29    1.52
  -4  -5  -5   47.01    1.57
  -4  -5  -5   47.41    1.60
  -4   5   5   46.60    1.47
   4   5  -5   42.00    1.88
  -4   5   5   49.17    1.52
  -4  -5  -5   47.47    2.19
   4   5  -5   46.67    1.45
   4  -5   5   46.61    2.16
   4   5  -5   47.68    2.12
  -4  -5  -5   45.72    1.35
  -4  -5  -5   45.53    1.50
  -4   5   5   46.48    1.11
  -4   5  -5   45.89    1.15
  -4   5  -5   44.28    1.49
  -4  -5   5   45.88    1.55
  -4   5  -5   45.55    1.50
   4   5   5   45.58    2.18
  -4   5  -5   46.80    2.24
   4  -5  -5   47.82    1.91
   4   5   5   47.03    1.96
  -4   5  -5   45.00    1.52
  -4  -5   5   44.18    1.50
  -4  -5   5   46.48    2.00
   4  -5  -5   49.13    1.56
   4   5   5   49.87    1.54
  -4  -5   5   46.75    1.43
  -4  -5   5   47.57    1.49
  -4  -5   5   47.24    1.37
  -4   5  -5   47.29    1.55
   6   5  -5   22.14    1.03
   6   5  -5   22.18    1.13
  -6  -5  -5   23.56    1.18
  -6   5   5   22.45    1.15
  -6  -5  -5   21.72    1.02
  -6   5   5   23.07    1.08
  -6  -5  -5   20.87    0.95
  -6  -5  -5   21.38    1.02
  -6   5   5   22.23    1.06
  -6  -5  -5   21.20    1.19
  -6  -5  -5   22.98    1.22
  -6  -5   5   20.93    0.98
  -6  -5   5   22.05    1.05
  -6  -5   5   21.91    1.17
  -6  -5   5   20.64    1.11
  -6  -5   5   22.09    0.97
  -6   5  -5   22.83    1.10
  -6   5  -5   23.22    1.12
   6   5   5   22.42    1.12
  -6  -5   5   23.80    1.19
  -6   5  -5   21.94    1.12
  -6   5  -5   23.66    1.13
  -8  -5  -5    7.28    0.66
  -8  -5  -5    6.89    0.74
  -8  -5  -5    8.26    0.76
  -8  -5  -5    8.42    0.88
  -8  -5  -5    9.29    0.81
  -8  -5  -5    6.99    0.81
   8   5  -5    7.74    0.80
  -8  -5   5    9.23    0.82
  -8  -5   5    7.41    0.78
  -8  -5   5    8.96    0.91
   8   5   5    7.29    0.74
  -8  -5   5    8.08    0.69
  -8  -5   5    8.68    0.74
 -10  -5  -5    3.01    0.39
 -10  -5   5    2.23    0.33
   1  -6   5   54.65    1.89
  -1   6   5   50.03    1.49
  -1   6   5   53.52    1.49
   1  -6   5   49.13    1.79
  -1   6   5   51.44    1.47
  -1   6   5   51.15    1.94
  -1   6   5   55.80    2.17
  -1  -6  -5   50.65    1.85
   1  -6   5   52.97    1.56
  -1   6   5   53.24    1.50
  -1   6   5   51.83    1.36
   1   6  -5   53.15    1.49
  -1  -6  -5   55.81    1.52
  -1  -6  -5   51.72    1.54
   1   6  -5   52.70    2.17
   1   6  -5   51.23    1.47
  -1  -6   5   51.22    1.56
   1   6   5   53.45    1.45
   1  -6  -5   54.15    1.54
   1   6   5   52.73    1.53
   1   6   5   53.27    1.90
  -1   6  -5   50.75    2.16
   1   6   5   54.01    2.07
   1  -6  -5   51.28    1.88
  -1   6  -5   53.49    1.57
  -1  -6   5   51.60    1.43
  -1  -6   5   48.66    1.88
  -1   6  -5   53.02    1.37
  -1   6  -5   51.47    1.52
  -1   6  -5   51.71    1.46
  -1  -6   5   52.17    1.35
   1  -6  -5   52.02    1.82
  -1   6  -5   50.49    1.45
   3  -6   5   45.06    1.70
   3   6  -5   43.04    1.38
  -3  -6  -5   42.60    1.28
  -3   6   5   43.31    1.39
  -3   6   5   43.56    1.16
  -3  -6  -5   41.29    1.91
  -3  -6  -5   42.05    1.46
  -3   6   5   43.74    2.14
  -3   6   5   42.32    1.41
   3   6  -5   40.31    2.02
   3  -6   5   40.14    1.56
   3  -6   5   43.72    1.43
  -3  -6  -5   41.11    1.42
  -3  -6  -5   40.12    1.36
  -3  -6  -5   41.72    1.30
  -3   6   5   44.57    1.49
  -3  -6  -5   42.73    1.77
   3   6  -5   41.76    1.35
  -3   6   5   42.63    1.36
   3   6   5   41.20    1.26
  -3   6  -5   41.40    1.30
   3  -6  -5   42.31    1.80
  -3  -6   5   41.39    1.86
  -3   6  -5   40.99    1.40
  -3   6  -5   45.03    1.50
   3  -6  -5   43.94    1.41
  -3  -6   5   41.57    1.48
  -3   6  -5   43.70    1.19
   3   6   5   43.60    1.43
   3  -6  -5   42.68    1.59
  -3  -6   5   40.95    1.29
   3   6   5   43.61    2.09
  -3   6  -5   43.65    1.47
  -3  -6   5   41.90    1.27
  -3   6  -5   40.05    2.10
  -5  -6  -5   27.74    1.29
   5  -6   5   27.52    1.85
   5   6  -5   26.61    1.62
   5  -6   5   28.48    1.23
  -5  -6  -5   26.67    1.29
   5   6  -5   27.01    1.85
  -5  -6  -5   25.92    1.05
  -5  -6  -5   24.58    1.05
  -5   6   5   26.86    1.28
  -5   6   5   27.38    1.21
   5   6  -5   26.46    1.13
   5  -6   5   26.98    1.17
  -5   6   5   25.71    1.15
  -5  -6  -5   26.54    1.08
  -5  -6  -5   27.75    1.85
  -5  -6  -5   27.33    1.19
   5   6  -5   24.64    1.17
  -5   6   5   26.76    1.87
  -5   6   5   26.93    0.84
   5  -6  -5   27.33    1.13
   5   6   5   25.02    1.78
  -5  -6   5   26.20    1.07
   5  -6  -5   27.14    1.56
  -5  -6   5   26.74    1.05
  -5   6  -5   27.43    0.88
   5   6   5   25.29    1.19
  -5   6  -5   28.98    1.91
  -5   6  -5   28.47    1.25
  -5  -6   5   28.67    1.32
  -5  -6   5   29.85    1.22
  -5  -6   5   28.34    1.73
  -5  -6   5   26.98    1.21
  -5   6  -5   29.75    1.28
  -5  -6   5   27.14    1.13
   5   6   5   25.06    1.60
   5  -6  -5   25.68    1.16
  -5   6  -5   25.36    1.21
  -7  -6  -5   12.04    0.77
  -7   6   5   13.99    0.88
   7   6  -5   12.83    0.82
  -7  -6  -5   11.96    0.80
  -7  -6  -5   12.86    0.83
  -7   6   5   13.09    0.87
  -7  -6  -5   13.55    1.15
  -7  -6  -5   11.84    1.03
  -7  -6  -5   13.42    0.92
   7   6  -5   11.86    0.99
  -7  -6   5   13.51    1.12
   7   6   5   12.67    0.91
  -7  -6   5   11.24    0.75
  -7  -6   5   12.19    1.06
  -7  -6   5   13.32    0.81
  -7   6  -5   13.53    0.92
  -7  -6   5   12.46    0.90
  -7  -6   5   12.21    0.85
  -7   6  -5   13.47    0.92
  -9  -6  -5    5.02    0.52
  -9  -6   5    4.92    0.51
   0  -7   5   57.13    2.07
   0   7  -5   54.21    2.42
   0   7  -5   56.82    1.50
   0   7   5   55.60    1.48
   0  -7   5   53.11    1.61
   0   7   5   53.29    2.19
   0  -7  -5   56.18    1.61
   0   7   5   53.41    1.63
   0   7   5   58.41    1.60
   0   7   5   55.44    2.22
   0   7  -5   55.37    1.68
   0  -7  -5   54.70    2.08
   0   7  -5   54.49    1.62
   0   7   5   55.50    1.55
   0   7   5   57.20    1.62
   0  -7  -5   53.27    2.03
   0  -7   5   54.86    2.08
   0  -7   5   51.71    1.68
   0  -7  -5   57.13    1.71
  -2   7   5   46.54    1.51
  -2  -7  -5   46.48    1.94
  -2   7   5   47.40    1.58
   2   7  -5   44.30    2.19
   2   7  -5   46.10    1.50
  -2  -7  -5   46.61    1.57
  -2  -7  -5   48.17    1.58
  -2   7   5   47.87    1.54
   2  -7   5   47.57    1.90
  -2   7   5   48.65    1.35
   2  -7   5   48.34    1.87
  -2   7   5   46.55    1.50
   2  -7   5   49.06    1.58
  -2   7   5   47.49    2.27
   2   7  -5   47.27    1.43
   2   7   5   47.70    2.21
  -2  -7   5   47.01    1.63
  -2   7  -5   48.63    1.49
  -2   7  -5   47.08    1.36
  -2   7  -5   48.96    1.64
  -2   7  -5   46.31    1.51
   2  -7  -5   48.63    1.85
   2   7   5   47.54    1.55
   2  -7  -5   46.92    1.97
   2  -7  -5   46.99    1.55
  -2  -7   5   41.37    1.93
  -2   7  -5   46.83    2.30
   2   7   5   49.33    1.46
  -2  -7   5   45.65    1.35
  -2   7  -5   45.53    1.56
  -4   7   5   29.98    2.00
  -4   7   5   30.42    1.35
  -4  -7  -5   30.75    1.38
  -4   7   5   33.42    1.31
   4  -7   5   29.38    1.89
   4  -7   5   32.12    1.28
   4   7  -5   30.66    1.95
  -4  -7  -5   29.71    1.28
   4  -7   5   29.70    1.43
  -4   7   5   29.57    1.27
  -4   7   5   31.17    1.02
   4   7  -5   30.51    1.25
   4   7  -5   29.21    1.21
  -4  -7   5   30.86    1.39
  -4  -7   5   31.63    1.19
   4   7   5   32.97    1.35
  -4   7  -5   28.36    1.94
  -4   7  -5   31.05    1.34
   4   7   5   28.03    1.89
  -4   7  -5   30.61    1.04
   4  -7  -5   31.02    1.26
  -4   7  -5   29.27    1.34
   4  -7  -5   31.16    1.68
  -4   7  -5   30.35    1.17
   4  -7  -5   28.70    1.39
  -4   7  -5   32.10    1.33
   4   7   5   30.29    1.17
  -4  -7   5   31.45    1.81
   4   7   5   31.62    1.21
  -6   7   5   17.14    0.99
  -6  -7  -5   16.65    0.88
  -6  -7  -5   15.33    0.86
  -6  -7  -5   15.13    1.06
  -6   7   5   15.61    0.99
  -6   7   5   15.37    0.67
  -6   7   5   13.23    0.97
   6   7  -5   14.23    0.86
   6   7  -5   16.80    1.02
  -6   7  -5   16.96    1.05
  -6  -7   5   15.06    0.95
  -6   7  -5   14.90    0.97
  -6   7  -5   14.63    0.98
   6   7   5   16.88    1.01
  -6  -7   5   14.01    0.97
  -6   7  -5   14.81    0.69
  -6  -7   5   14.79    0.86
  -6  -7   5   15.94    1.06
  -6  -7   5   14.11    0.81
  -6  -7   5   16.73    0.96
  -8  -7  -5    7.21    0.64
  -8  -7   5    6.06    0.57
  -1   8   5   10.19    0.71
  -1   8   5   11.70    0.73
  -1   8   5   11.20    0.63
  -1   8   5   10.76    1.27
   1  -8   5   11.03    0.77
   1  -8   5   10.82    0.75
  -1  -8  -5   11.94    0.78
  -1  -8  -5   11.74    0.78
   1  -8   5   12.19    1.18
  -1   8   5   13.50    0.75
  -1  -8  -5   11.27    1.16
   1  -8   5   12.19    1.15
  -1   8   5   11.39    0.72
   1   8  -5   13.41    1.48
   1   8  -5   12.09    0.73
   1   8  -5    9.94    0.69
   1  -8   5   13.47    1.33
   1   8   5   12.04    0.77
  -1   8  -5   12.94    0.81
  -1   8  -5   12.99    0.68
   1   8   5   13.01    0.74
  -1   8  -5   11.39    0.68
  -1   8  -5   10.10    1.29
   1  -8  -5   10.17    0.74
  -1  -8   5    9.78    1.10
  -1  -8   5   13.37    0.74
   1   8   5   11.42    1.27
   1  -8  -5   11.02    1.08
  -1  -8   5   12.55    0.84
  -1   8  -5   11.78    0.73
   1  -8  -5    9.81    1.04
  -3   8   5    9.47    0.83
  -3  -8  -5   10.86    0.91
  -3  -8  -5   11.21    1.20
   3   8  -5   10.07    0.71
   3  -8   5    7.69    0.98
   3  -8   5   10.17    1.32
  -3   8   5    9.37    0.58
  -3   8   5   10.21    0.90
  -3   8   5   10.49    0.85
  -3  -8  -5   10.13    0.90
   3  -8   5   11.80    1.09
  -3   8   5   10.58    1.40
   3   8  -5   11.87    1.47
   3   8  -5    9.96    0.70
   3  -8   5   10.25    0.85
  -3   8  -5    9.49    0.60
  -3  -8   5    8.35    1.08
   3   8   5   10.50    0.67
  -3   8  -5   10.54    0.72
  -3   8  -5   10.35    1.44
   3   8   5    9.16    0.83
  -3   8  -5   10.54    0.77
   3  -8  -5    9.65    0.83
  -3  -8   5   10.07    0.92
   3  -8  -5    8.42    0.92
   3   8   5    7.78    1.15
  -3  -8   5   10.41    0.67
  -3   8  -5   10.11    0.88
   3  -8  -5    8.84    1.09
  -3   8  -5    8.65    0.85
   5   8  -5    6.77    0.71
  -5   8   5    5.76    0.74
  -5  -8  -5    6.88    0.83
  -5   8   5    5.16    0.66
   5   8  -5    8.42    0.81
  -5   8   5    6.15    0.52
  -5   8   5    5.90    0.69
  -5  -8   5    6.72    0.66
  -5   8  -5    6.93    0.57
  -5   8  -5    5.80    0.75
  -5  -8   5    7.09    0.86
   5  -8  -5    7.19    0.74
  -5   8  -5    5.55    0.70
  -5   8  -5    5.87    0.73
   5   8   5    6.56    0.76
  -7  -8  -5    2.80    0.44
   0   9   5   14.72    0.88
   0   9  -5   14.19    0.87
   0  -9   5   13.49    0.91
   0  -9  -5   14.45    0.92
   0  -9   5   14.85    0.90
   0   9   5   15.71    0.89
   0  -9  -5   14.60    0.86
   0   9  -5   15.39    0.89
  -2  -9  -5   14.04    0.92
  -2   9   5   12.35    0.85
   2  -9   5   13.59    0.88
  -2  -9  -5   12.85    0.87
  -2   9   5   13.43    0.87
   2  -9   5   12.55    0.86
   2   9  -5   12.23    0.82
  -2   9   5   11.10    0.69
  -2   9   5   14.04    0.87
  -2   9  -5   12.81    0.73
  -2   9  -5   11.84    0.81
   2   9   5   10.88    0.91
   2   9   5   15.36    0.84
  -2  -9   5   10.97    0.99
  -2   9  -5   12.07    0.87
  -2   9  -5   11.39    0.78
   2  -9  -5   11.44    0.83
   4   9  -5    8.54    0.79
  -4  -9  -5   10.17    0.99
   4  -9   5   10.02    0.91
  -4   9   5    7.00    0.81
  -4   9   5    8.96    0.60
   4   9  -5    8.09    0.79
   4  -9   5    9.17    0.83
  -4   9   5    9.18    0.88
  -4   9   5   10.73    0.91
   4  -9  -5    9.53    0.87
   4   9   5    7.39    0.82
  -4   9  -5    8.21    0.85
  -4   9  -5    8.48    0.61
  -4   9  -5    9.97    0.91
  -4  -9   5    8.08    0.89
  -6  -9  -5    4.08    0.66
  -6   9   5    6.13    0.69
  -6   9   5    5.37    0.68
  -6   9   5    4.60    0.67
   6  -9   5    5.95    0.69
  -6   9   5    4.01    0.44
  -6  -9   5    5.49    0.60
  -6   9  -5    5.99    0.75
  -6   9  -5    4.60    0.63
   6   9   5    4.50    0.68
  -6  -9   5    5.01    0.69
  -6   9  -5    5.40    0.52
  -1 -10  -5    6.13    0.72
  -1  10   5    5.14    0.65
   1 -10   5    4.94    0.67
  -1 -10  -5    5.46    0.71
   1 -10   5    5.33    0.68
   1  10  -5    5.80    0.69
   1  10   5    4.89    0.64
   1 -10  -5    5.53    0.71
  -1  10  -5    6.70    0.76
  -1  10  -5    4.87    0.65
   1  10   5    4.18    0.58
  -1 -10   5    4.25    0.65
   3  10  -5    3.96    0.58
   3 -10   5    4.34    0.64
  -3 -10  -5    4.06    0.64
  -3  10   5    3.79    0.58
  -3  10   5    3.45    0.55
  -3  10   5    4.12    0.63
   3 -10   5    3.69    0.59
  -3  10   5    3.77    0.48
  -3 -10  -5    5.62    0.73
  -3  10  -5    4.29    0.64
  -3 -10   5    4.39    0.69
   3 -10  -5    4.15    0.65
  -3  10  -5    5.75    0.69
   3  10   5    4.59    0.58
  -3  10  -5    4.31    0.61
   3  10   5    2.84    0.54
  -3  10  -5    4.01    0.49
  -5  10   5    3.54    0.55
   5 -10   5    2.80    0.52
  -5  10   5    3.27    0.60
  -5  10   5    2.34    0.37
  -5 -10  -5    3.16    0.59
  -5 -10   5    3.91    0.66
  -5  10  -5    2.49    0.48
  -5  10  -5    2.51    0.52
   5  10   5    2.28    0.55
  -5  10  -5    3.28    0.43
   0 -11   5   16.20    0.99
   0  11   5   16.36    0.97
   0 -11  -5   18.50    1.10
   0  11  -5   16.99    1.01
   0 -11   5   16.45    1.06
   2 -11   5   13.71    0.94
   2 -11   5   14.36    0.95
  -2 -11  -5   15.68    0.99
   2  11  -5   15.82    0.96
  -2 -11  -5   15.21    1.02
  -2  11   5   17.56    1.01
   2  11   5   15.31    0.92
  -2  11  -5   15.83    0.97
   2 -11  -5   14.81    0.99
  -2 -11   5   13.92    1.01
  -2  11  -5   14.76    0.97
   2  11   5   15.97    0.97
   0   0   6  711.92   13.87
   0   0   6  774.45   14.16
   0   0  -6  783.34   14.04
   0   0   6  719.78   14.04
   0   0  -6  702.93   13.95
   0   0  -6  794.45   14.20
  -2   0  -6  486.07    9.50
  -2   0   6  477.08    9.39
   2   0  -6  470.09    9.14
   2   0  -6  482.17    9.15
   2   0  -6  466.03    9.01
   2   0  -6  493.34    9.60
   2   0   6  487.93    9.43
  -2   0   6  477.90    9.26
  -2   0  -6  464.83    9.56
   2   0   6  467.26    9.16
   2   0   6  478.50    9.11
  -4   0   6  189.04    4.54
   4   0   6  190.64    4.41
  -4   0   6  185.76    3.92
  -4   0  -6  187.90    4.73
  -4   0  -6  187.67    3.95
  -4   0   6  188.04    3.82
  -4   0   6  186.22    4.00
  -4   0   6  186.50    3.91
  -4   0   6  183.37    4.01
  -4   0   6  184.87    4.00
   4   0  -6  194.12    4.25
   4   0   6  186.14    4.05
  -4   0  -6  184.64    4.00
  -4   0  -6  194.01    4.86
  -4   0  -6  190.04    3.83
  -4   0  -6  184.20    3.82
   4   0  -6  187.59    4.01
  -4   0  -6  183.04    4.01
  -4   0  -6  183.24    3.96
  -4   0  -6  191.19    3.88
  -4   0   6  184.56    4.17
   4   0  -6  193.14    4.86
  -6   0   6   84.00    2.36
   6   0   6   84.02    3.25
  -6   0  -6   80.60    3.15
   6   0  -6   82.64    3.27
   6   0  -6   82.87    2.25
   6   0   6   82.35    2.31
  -6   0   6   82.05    2.13
  -6   0  -6   83.41    2.29
  -6   0   6   85.76    2.42
  -6   0  -6   87.43    2.22
  -6   0   6   81.96    2.35
  -6   0  -6   81.35    2.35
  -6   0  -6   82.19    2.26
  -6   0   6   80.78    2.22
  -6   0   6   81.02    2.89
  -6   0  -6   86.59    2.43
  -8   0   6   35.66    1.35
  -8   0  -6   32.93    1.34
  -8   0   6   37.50    1.62
  -8   0   6   33.74    1.50
  -8   0   6   35.99    1.54
  -8   0  -6   32.94    1.41
  -8   0  -6   35.85    1.55
  -8   0   6   33.34    1.01
  -8   0  -6   34.27    1.03
  -8   0  -6   33.87    1.31
  -8   0  -6   36.44    1.58
 -10   0   6   12.39    0.69
  -1   1   6   49.67    1.34
   1  -1   6   49.78    1.44
  -1  -1  -6   49.01    1.06
   1   1  -6   49.43    1.27
   1  -1   6   50.69    1.08
   1  -1   6   49.51    1.27
   1   1  -6   48.08    1.43
  -1  -1  -6   49.38    1.39
  -1  -1  -6   49.25    1.26
  -1   1   6   48.63    1.41
   1   1  -6   49.59    1.32
  -1   1  -6   47.89    1.33
  -1  -1   6   49.58    1.29
   1   1   6   51.56    1.37
  -1  -1   6   50.41    1.30
  -1   1  -6   51.29    1.48
   1   1   6   49.87    1.41
   1  -1  -6   51.86    1.28
  -1  -1   6   50.64    1.33
   1  -1  -6   49.50    1.44
   3  -1   6   19.00    0.69
   3  -1   6   18.61    0.94
  -3  -1  -6   18.43    0.68
  -3  -1  -6   18.89    0.61
   3   1  -6   17.09    1.01
  -3  -1  -6   18.84    1.01
  -3  -1  -6   19.40    0.72
  -3   1   6   18.33    0.89
  -3   1   6   18.62    0.68
  -3  -1  -6   17.89    0.70
  -3   1   6   18.83    0.69
   3  -1   6   18.10    0.57
  -3  -1  -6   18.96    0.68
  -3  -1  -6   18.74    0.63
  -3   1   6   19.06    0.65
  -3   1   6   18.00    0.66
  -3   1   6   19.13    0.95
   3   1  -6   17.96    0.81
   3  -1   6   19.48    0.67
   3   1  -6   18.60    0.77
  -3   1   6   18.04    0.67
  -3  -1   6   18.64    0.68
   3   1   6   20.89    0.84
  -3   1  -6   17.38    0.63
   3  -1  -6   19.04    0.68
   3  -1  -6   18.31    0.68
  -3  -1   6   18.79    0.69
   3  -1  -6   19.48    1.01
   3  -1  -6   19.24    0.70
  -3   1  -6   17.77    0.61
  -3   1  -6   19.94    0.70
   3   1   6   19.55    0.87
  -3   1  -6   17.60    0.70
  -3  -1   6   18.45    0.70
  -3  -1   6   17.77    0.65
  -3   1  -6   19.59    0.95
   3   1   6   18.88    1.06
  -3  -1   6   19.35    0.93
  -3  -1   6   18.07    0.69
  -3   1  -6   18.51    1.05
  -5  -1  -6    5.36    0.54
  -5  -1  -6    5.71    0.88
  -5  -1  -6    5.32    0.56
  -5   1   6    6.03    0.41
   5   1  -6    5.92    0.90
  -5  -1  -6    4.81    0.49
  -5   1   6    6.14    0.57
  -5   1   6    5.31    0.54
  -5   1   6    6.04    0.79
  -5   1   6    5.79    0.52
   5  -1   6    5.66    0.74
  -5   1   6    6.00    0.52
   5  -1   6    6.07    0.51
   5   1  -6    5.10    0.56
  -5   1   6    5.01    0.53
  -5  -1  -6    5.18    0.30
  -5  -1  -6    5.50    0.48
  -5  -1  -6    5.67    0.59
  -5   1  -6    5.77    0.57
   5   1   6    5.91    0.49
  -5  -1   6    4.90    0.45
  -5   1  -6    5.55    0.86
   5  -1  -6    5.27    0.46
  -5   1  -6    5.88    0.49
  -5  -1   6    6.03    0.59
   5  -1  -6    5.63    0.86
  -5  -1   6    5.27    0.54
  -5   1  -6    5.24    0.77
  -5  -1   6    4.57    0.46
  -5   1  -6    4.99    0.51
  -5   1  -6    5.77    0.49
  -5   1  -6    5.88    0.54
  -5  -1   6    5.77    0.60
   5   1   6    5.80    0.89
  -5   1  -6    5.55    0.49
   5   1   6    5.21    0.58
  -5  -1   6    5.66    0.77
  -5  -1   6    5.68    0.29
  -7   1   6    1.33    0.39
  -7   1   6    1.20    0.34
  -7   1   6    2.40    0.43
  -7  -1  -6    1.09    0.40
  -7   1   6    1.65    0.44
  -7  -1  -6    1.21    0.33
  -7   1   6    2.93    0.75
  -7  -1  -6    1.97    0.50
  -7   1   6    1.06    0.38
  -7  -1  -6    1.74    0.45
  -7  -1  -6    1.94    0.28
  -7  -1  -6    2.08    0.42
  -7   1  -6    2.00    0.48
  -7  -1   6    2.10    0.46
  -7  -1   6    1.74    0.46
  -7   1  -6    2.00    0.42
  -7   1  -6    2.59    0.46
  -7  -1   6    1.94    0.67
  -7  -1   6    2.10    0.29
  -7  -1   6    1.99    0.48
  -7   1  -6    2.02    0.42
  -7   1  -6    2.13    0.45
  -7  -1   6    1.61    0.36
  -7  -1   6    2.05    0.41
  -9  -1  -6    0.39    0.33
  -9  -1  -6    0.66    0.32
  -9   1   6    0.45    0.30
  -9  -1  -6    0.41    0.39
  -9  -1   6    1.15    0.46
  -9  -1   6    0.67    0.24
  -9  -1   6    0.31    0.36
  -9  -1   6    0.56    0.31
  -9   1  -6    0.35    0.39
  -9  -1   6    0.52    0.39
   0  -2  -6  571.20   10.75
   0  -2   6  555.54   10.85
   0   2   6  581.50   11.04
   0   2  -6  582.38   10.84
   0  -2   6  566.81   10.78
   0   2  -6  574.73   11.03
   0   2   6  557.85   10.73
   0  -2  -6  570.90   10.85
   0   2  -6  545.85   10.86
   0  -2   6  555.85   10.93
   0   2   6  565.82   10.90
   0  -2  -6  574.75   10.95
   2   2  -6  387.07    7.55
  -2  -2  -6  370.89    7.75
   2   2  -6  374.40    7.77
   2   2  -6  378.68    7.50
  -2   2   6  362.30    7.02
   2  -2   6  377.37    7.77
   2  -2   6  378.30    7.15
   2  -2   6  373.12    7.26
   2  -2   6  361.57    7.28
  -2   2   6  371.98    7.74
  -2   2   6  375.93    7.60
  -2  -2  -6  379.03    7.19
  -2  -2   6  387.75    7.62
   2  -2  -6  373.99    7.28
   2  -2  -6  364.50    7.30
   2   2   6  379.17    7.55
  -2   2  -6  368.06    7.86
   2  -2  -6  384.72    7.62
  -2  -2   6  352.20    7.10
   2   2   6  362.19    7.74
  -2   2  -6  371.36    7.38
   2   2   6  376.78    7.46
  -4  -2  -6  173.23    3.39
  -4  -2  -6  170.31    3.68
  -4   2   6  168.97    3.68
  -4   2   6  174.07    3.65
  -4  -2  -6  173.09    3.77
  -4   2   6  164.31    4.22
  -4   2   6  165.07    3.67
  -4  -2  -6  167.60    3.76
   4   2  -6  169.22    3.98
   4   2  -6  172.29    4.63
  -4  -2  -6  162.57    4.51
  -4   2   6  166.15    3.54
   4  -2   6  173.71    4.36
   4   2  -6  164.02    3.52
   4  -2   6  172.60    3.59
  -4   2   6  165.51    4.27
  -4  -2  -6  166.81    3.70
   4   2  -6  170.24    4.17
  -4   2   6  165.03    3.60
  -4   2   6  168.94    3.65
  -4  -2  -6  166.94    3.56
   4   2   6  176.29    3.62
  -4  -2   6  169.54    3.71
  -4   2  -6  166.65    4.17
  -4  -2   6  166.54    3.60
  -4   2  -6  161.90    3.53
   4   2   6  177.71    4.63
  -4  -2   6  170.43    3.75
   4   2   6  169.02    4.03
  -4   2  -6  172.73    3.58
  -4   2  -6  167.14    4.57
  -4   2  -6  163.27    3.51
   4  -2  -6  170.98    4.38
  -4  -2   6  167.08    3.58
  -4  -2   6  169.00    3.72
  -4   2  -6  170.36    3.52
  -4  -2   6  171.24    3.38
  -4  -2   6  172.51    4.27
  -4   2  -6  169.49    3.69
  -4  -2   6  165.96    3.60
  -4   2  -6  168.83    3.73
   4  -2  -6  175.18    3.59
  -4   2  -6  165.97    3.61
  -6   2   6   79.70    2.22
  -6   2   6   78.20    2.17
  -6   2   6   79.99    2.27
  -6  -2  -6   77.98    2.29
   6   2  -6   79.55    2.49
   6   2  -6   80.06    2.18
  -6  -2  -6   74.45    2.12
  -6  -2  -6   76.95    2.36
  -6   2   6   81.48    2.87
  -6  -2  -6   77.22    3.20
  -6  -2  -6   78.55    2.38
   6  -2   6   78.15    2.02
  -6  -2  -6   81.41    1.90
  -6  -2  -6   76.25    2.18
   6   2  -6   76.40    3.26
  -6   2   6   80.65    2.26
  -6   2   6   82.93    2.23
   6   2   6   79.08    2.16
  -6   2  -6   79.48    2.11
  -6  -2   6   77.38    2.32
  -6   2  -6   77.27    2.23
  -6   2  -6   79.33    2.08
  -6  -2   6   77.89    2.35
   6  -2  -6   79.96    3.07
   6   2   6   79.07    3.21
   6  -2  -6   78.53    1.96
  -6  -2   6   77.31    2.86
  -6  -2   6   82.16    1.90
  -6   2  -6   80.30    2.32
  -6  -2   6   81.46    2.41
  -6  -2   6   78.21    2.14
   6   2   6   78.78    2.52
  -8  -2  -6   31.08    1.30
  -8   2   6   31.91    1.42
  -8  -2  -6   32.46    1.51
  -8  -2  -6   31.94    1.11
  -8  -2  -6   31.46    1.32
  -8  -2  -6   28.22    1.46
  -8  -2  -6   32.42    1.45
  -8   2  -6   31.02    1.29
  -8  -2   6   30.96    1.46
  -8  -2   6   31.80    1.49
  -8  -2   6   31.94    1.11
  -8   2  -6   32.43    1.44
  -8  -2   6   31.20    1.30
  -8  -2   6   31.66    1.29
  -8  -2   6   30.99    1.51
 -10  -2  -6    9.93    0.64
 -10  -2   6   10.93    0.66
  -1   3   6   29.64    1.21
   1   3  -6   29.44    1.06
  -1   3   6   28.72    0.90
   1   3  -6   29.60    1.09
   1  -3   6   28.86    0.94
   1  -3   6   27.07    1.12
   1   3  -6   29.95    1.16
  -1  -3  -6   29.75    1.02
  -1  -3  -6   27.89    0.94
   1  -3   6   28.76    0.99
  -1  -3  -6   29.15    1.11
  -1  -3   6   28.84    1.06
  -1   3  -6   29.41    1.23
   1   3   6   28.75    1.06
   1   3   6   29.08    1.09
   1  -3  -6   29.90    1.05
   1   3   6   28.56    1.10
  -1  -3   6   29.90    1.04
   1  -3  -6   29.45    0.99
   1  -3  -6   28.04    1.03
  -1   3  -6   26.87    0.79
  -1  -3   6   27.23    0.92
  -3  -3  -6   13.72    0.64
  -3  -3  -6   12.50    0.53
  -3   3   6   13.33    0.58
  -3  -3  -6   12.53    0.62
   3  -3   6   13.67    0.92
   3  -3   6   13.10    0.61
  -3   3   6   12.45    0.52
  -3   3   6   11.66    0.58
   3   3  -6   13.93    0.95
  -3  -3  -6   12.96    0.93
  -3   3   6   13.62    0.63
  -3  -3  -6   11.80    0.64
   3   3  -6   12.61    0.84
   3   3  -6   12.46    0.77
  -3   3   6   12.45    0.57
  -3  -3  -6   13.44    0.62
   3   3  -6   12.03    0.52
  -3  -3  -6   13.00    0.59
  -3   3   6   12.83    0.90
   3   3  -6   13.10    0.58
   3  -3   6   12.65    0.61
  -3  -3  -6   13.02    0.50
   3   3   6   11.62    0.89
   3   3   6   13.37    0.67
   3   3   6   13.58    0.59
  -3  -3   6   12.65    0.83
  -3  -3   6   13.32    0.61
  -3  -3   6   12.00    0.55
  -3  -3   6   12.51    0.49
  -3  -3   6   13.12    0.60
   3  -3  -6   14.33    0.64
  -3   3  -6   12.85    0.58
  -3   3  -6   13.90    0.70
   3  -3  -6   11.71    0.76
  -3  -3   6   12.68    0.61
  -3   3  -6   13.60    0.63
  -3  -3   6   13.37    0.60
  -3   3  -6   11.78    0.58
  -3   3  -6   11.14    0.56
  -3   3  -6   13.90    0.99
   3   3   6   13.37    0.80
  -3   3  -6   12.37    0.53
   5   3  -6    5.18    0.77
  -5  -3  -6    4.19    0.46
   5  -3   6    3.90    0.71
   5   3  -6    4.78    0.66
   5   3  -6    4.61    0.48
  -5  -3  -6    4.05    0.37
  -5  -3  -6    3.89    0.48
  -5  -3  -6    4.59    0.57
  -5   3   6    3.64    0.47
  -5  -3  -6    3.63    0.51
  -5  -3  -6    3.41    0.73
  -5  -3  -6    4.53    0.54
   5  -3   6    4.35    0.42
  -5   3   6    4.05    0.46
  -5   3   6    3.77    0.48
  -5   3   6    4.26    0.73
   5   3  -6    3.88    0.79
  -5   3   6    4.54    0.46
  -5  -3   6    4.76    0.76
   5   3   6    4.25    0.49
  -5  -3   6    4.02    0.52
  -5  -3   6    4.52    0.55
  -5   3  -6    4.86    0.55
  -5   3  -6    4.80    0.48
  -5   3  -6    4.00    0.49
  -5   3  -6    4.37    0.44
   5   3   6    3.60    0.75
   5   3   6    3.38    0.57
  -5  -3   6    4.09    0.48
  -5   3  -6    3.92    0.46
   5  -3  -6    4.43    0.41
   5  -3  -6    4.31    0.72
  -5  -3   6    4.16    0.38
  -5   3  -6    4.37    0.82
  -5  -3   6    4.38    0.47
  -5  -3   6    3.88    0.51
  -7  -3  -6    1.60    0.49
  -7   3   6    1.55    0.41
  -7  -3  -6    1.28    0.38
  -7  -3  -6    2.06    0.42
  -7   3   6    1.24    0.38
   7   3  -6    1.20    0.37
  -7  -3  -6    1.26    0.41
  -7  -3  -6    1.70    0.33
  -7  -3  -6    1.43    0.44
  -7   3   6    1.79    0.43
  -7  -3   6    1.72    0.49
   7   3   6    1.58    0.40
  -7  -3   6    1.68    0.33
  -7  -3   6    0.95    0.41
  -7   3  -6    0.84    0.39
  -7  -3   6    0.63    0.36
  -7  -3   6    1.60    0.37
  -7   3  -6    1.50    0.40
  -7  -3   6    1.57    0.36
  -9  -3  -6    0.77    0.33
  -9  -3  -6    0.90    0.37
  -9  -3   6    0.73    0.35
  -9  -3   6    0.29    0.30
   0   4   6  283.34    5.62
   0   4  -6  290.64    5.65
   0  -4  -6  298.18    6.02
   0  -4   6  293.11    6.05
   0  -4   6  292.78    6.15
   0   4   6  290.96    6.31
   0  -4  -6  289.53    6.03
   0   4  -6  293.39    5.70
   0  -4   6  284.04    5.73
   0  -4  -6  283.74    5.71
   0  -4  -6  283.75    6.05
   0   4   6  285.03    6.07
   0   4  -6  290.42    6.06
   0   4   6  289.70    6.08
   0   4  -6  298.01    6.44
   0   4  -6  291.43    5.60
   0   4  -6  284.19    5.72
   0  -4   6  290.88    6.08
   0   4   6  281.83    5.64
   0   4   6  295.96    5.71
   2   4  -6  222.27    5.23
  -2  -4  -6  217.96    4.57
  -2  -4  -6  225.72    5.19
   2   4  -6  219.22    5.08
   2   4  -6  221.01    4.51
   2   4  -6  223.35    4.48
  -2   4   6  226.79    4.30
  -2  -4  -6  214.38    4.55
  -2   4   6  222.37    4.56
   2  -4   6  229.24    4.79
   2  -4   6  223.42    4.75
  -2  -4  -6  214.20    4.53
  -2   4   6  224.07    4.55
   2   4  -6  217.58    5.04
  -2   4   6  221.41    4.53
  -2  -4  -6  223.48    4.82
  -2  -4  -6  215.53    4.48
  -2   4   6  222.24    4.70
   2  -4   6  217.13    5.24
  -2  -4  -6  226.35    4.44
  -2   4   6  229.53    4.61
  -2   4   6  229.56    5.42
   2   4   6  225.67    5.28
  -2  -4   6  215.30    4.45
   2   4   6  224.91    4.54
  -2  -4   6  226.87    4.43
  -2   4  -6  225.34    4.57
  -2  -4   6  212.10    4.46
  -2  -4   6  219.78    5.07
   2   4   6  223.17    4.82
   2  -4  -6  225.42    4.51
   2  -4  -6  225.12    4.80
  -2   4  -6  220.13    4.33
  -2   4  -6  213.85    5.38
   2  -4  -6  222.63    5.01
  -2   4  -6  215.07    4.40
  -2  -4   6  225.85    4.47
  -2   4  -6  226.48    4.61
  -2  -4   6  223.58    4.59
  -2  -4   6  220.42    4.50
  -2   4  -6  227.25    4.61
   2   4   6  224.45    5.12
   2  -4  -6  220.65    4.77
  -2   4  -6  222.87    4.58
   2   4   6  219.45    4.38
  -4  -4  -6  127.19    3.00
  -4  -4  -6  128.70    2.81
  -4   4   6  126.14    2.94
  -4  -4  -6  127.29    3.00
  -4   4   6  123.61    3.05
  -4   4   6  126.24    2.96
   4  -4   6  128.75    3.00
  -4   4   6  122.66    3.82
  -4  -4  -6  122.91    3.06
  -4  -4  -6  127.93    3.92
   4   4  -6  123.05    2.92
   4  -4   6  123.52    3.83
   4   4  -6  123.43    3.50
   4   4  -6  124.57    3.87
  -4  -4  -6  126.37    3.08
   4   4  -6  123.57    3.66
  -4   4   6  122.32    2.92
  -4  -4  -6  129.79    2.85
  -4  -4   6  127.86    3.03
  -4   4  -6  124.93    2.98
   4   4   6  126.07    2.97
  -4   4  -6  126.98    2.73
  -4   4  -6  124.70    3.94
  -4   4  -6  127.11    2.99
  -4  -4   6  128.09    3.00
   4  -4  -6  126.53    2.97
  -4   4  -6  128.84    2.50
   4  -4  -6  123.81    3.49
  -4  -4   6  127.36    2.91
   4   4   6  121.54    3.50
  -4  -4   6  125.42    3.02
  -4  -4   6  126.97    2.80
   4   4   6  124.97    3.91
  -4  -4   6  122.33    3.61
  -4   4  -6  125.46    3.02
  -4  -4   6  126.39    3.01
  -4   4  -6  126.52    3.04
   6   4  -6   62.98    3.01
  -6   4   6   64.30    1.94
   6   4  -6   63.56    1.90
   6   4  -6   62.16    2.43
  -6  -4  -6   59.95    1.75
   6  -4   6   56.51    2.65
  -6   4   6   64.83    1.98
  -6  -4  -6   62.51    1.88
  -6  -4  -6   63.42    2.13
  -6  -4  -6   64.20    2.08
  -6   4   6   59.56    1.84
  -6  -4  -6   64.38    2.16
  -6  -4  -6   62.05    1.87
   6  -4   6   64.39    1.78
  -6   4   6   64.27    2.04
  -6  -4   6   65.83    2.69
  -6  -4   6   61.10    2.00
  -6  -4   6   60.69    1.75
   6  -4  -6   63.48    1.70
   6  -4  -6   59.37    2.42
   6   4   6   61.10    1.96
  -6   4  -6   66.57    2.05
  -6  -4   6   63.25    1.93
  -6  -4   6   62.62    2.09
   6   4   6   65.01    2.97
  -6   4  -6   61.70    1.99
   6   4   6   63.80    2.46
  -6  -4   6   61.86    2.05
  -6   4  -6   58.39    2.81
  -6  -4   6   59.97    1.82
  -6   4  -6   66.05    1.97
  -6  -4   6   63.69    2.12
  -8  -4  -6   27.57    1.22
  -8  -4  -6   25.07    1.27
  -8  -4  -6   25.84    1.19
  -8  -4  -6   23.43    1.03
  -8  -4  -6   25.74    1.36
  -8  -4  -6   25.39    1.36
   8   4  -6   25.06    1.27
  -8  -4   6   27.64    1.37
  -8  -4   6   25.00    1.07
  -8  -4   6   26.46    1.22
  -8  -4   6   25.01    1.37
  -8  -4   6   26.21    1.17
   8   4   6   26.83    1.22
 -10  -4  -6    9.97    0.61
 -10  -4   6    8.84    0.58
  -1  -5  -6   11.59    0.73
   1  -5   6   14.25    0.91
   1   5  -6   12.79    0.59
  -1  -5  -6   11.74    0.75
  -1  -5  -6   12.77    0.59
  -1   5   6   12.36    0.92
  -1   5   6   13.19    0.59
   1  -5   6   13.53    0.79
  -1  -5  -6   13.09    0.52
   1  -5   6   12.99    0.77
  -1   5   6   12.53    0.59
  -1  -5  -6   12.54    0.78
   1   5  -6   14.32    0.98
  -1  -5  -6   12.76    0.61
   1  -5   6   13.84    0.50
  -1   5   6   11.37    0.57
   1   5  -6   11.86    0.56
   1  -5   6   12.59    0.63
  -1   5   6   12.98    0.50
  -1   5   6   12.76    0.60
  -1   5   6   13.51    0.81
   1   5   6   12.22    0.61
   1   5   6   14.51    0.92
  -1  -5   6   13.07    0.64
  -1  -5   6   14.16    0.82
  -1  -5   6   11.88    0.81
   1   5   6   12.09    0.54
  -1  -5   6   13.28    0.55
   1  -5  -6   12.77    0.81
   1  -5  -6   13.44    0.62
   1  -5  -6   13.87    0.79
  -1   5  -6   13.30    0.53
   1   5   6   12.04    0.53
  -1   5  -6   12.71    0.62
   1   5   6   11.78    0.54
  -1   5  -6   14.29    1.00
  -1  -5   6   12.64    0.52
   1   5   6   12.64    0.81
  -1  -5   6   14.05    0.73
  -1   5  -6   12.33    0.57
  -1   5  -6   12.32    0.59
  -1   5  -6   12.33    0.55
   3  -5   6    7.02    0.91
  -3   5   6    6.51    0.56
  -3   5   6    6.99    0.57
  -3  -5  -6    6.81    0.60
   3   5  -6    6.99    0.56
  -3   5   6    7.80    0.51
   3  -5   6    7.06    0.69
  -3  -5  -6    7.78    0.47
   3   5  -6    7.09    0.81
  -3  -5  -6    7.82    0.92
  -3  -5  -6    7.58    0.45
  -3  -5  -6    6.24    0.56
   3   5  -6    8.12    0.91
  -3   5   6    6.46    0.60
   3  -5   6    6.46    0.61
  -3   5   6    6.80    0.95
  -3  -5  -6    8.83    0.59
  -3   5   6    7.10    0.35
  -3  -5  -6    7.59    0.76
  -3  -5  -6    7.59    0.52
   3   5  -6    8.32    0.95
   3   5   6    7.40    0.43
  -3  -5   6    7.29    0.46
  -3  -5   6    7.06    0.52
  -3   5  -6    6.53    0.45
  -3   5  -6    7.46    0.61
   3  -5  -6    6.29    0.62
   3   5   6    6.82    0.82
   3   5   6    7.64    0.55
  -3  -5   6    7.07    0.83
  -3   5  -6    7.08    0.61
   3  -5  -6    6.56    0.76
   3   5   6    7.66    0.95
  -3  -5   6    7.02    0.55
  -3  -5   6    8.06    0.57
   3  -5  -6    7.81    0.51
  -3   5  -6    6.76    0.95
  -3   5  -6    6.80    0.50
  -3   5  -6    6.95    0.39
  -3   5  -6    7.69    0.54
  -3  -5   6    7.04    0.48
  -5  -5  -6    2.69    0.50
   5   5  -6    4.46    0.74
   5   5  -6    2.95    0.78
   5  -5   6    2.50    0.40
   5   5  -6    2.89    0.42
  -5  -5  -6    2.78    0.40
  -5  -5  -6    3.29    0.44
   5  -5   6    3.24    0.77
  -5   5   6    3.12    0.77
  -5  -5  -6    3.06    0.53
  -5   5   6    3.30    0.47
  -5  -5  -6    2.74    0.75
  -5   5   6    3.21    0.47
  -5  -5  -6    3.45    0.51
  -5   5   6    3.18    0.50
  -5   5   6    2.80    0.44
  -5  -5  -6    2.65    0.46
   5   5  -6    3.78    0.81
  -5   5   6    2.95    0.27
   5  -5  -6    2.81    0.62
   5   5   6    4.12    0.54
   5  -5  -6    3.07    0.43
  -5  -5   6    3.08    0.50
  -5   5  -6    4.00    0.54
  -5  -5   6    2.82    0.47
  -5  -5   6    3.47    0.54
  -5  -5   6    3.31    0.51
   5   5   6    2.61    0.62
  -5  -5   6    3.66    0.44
  -5   5  -6    2.68    0.47
  -5   5  -6    3.39    0.81
  -5   5  -6    3.36    0.49
  -5  -5   6    3.43    0.47
  -5  -5   6    2.37    0.62
  -5   5  -6    2.96    0.29
  -5   5  -6    4.07    0.53
   5   5   6    2.00    0.65
  -7   5   6    0.87    0.38
  -7   5   6    0.96    0.38
   7   5  -6    1.35    0.38
   7   5  -6    0.95    0.39
  -7  -5  -6    0.68    0.40
  -7  -5  -6    0.96    0.44
  -7  -5  -6    1.14    0.37
  -7  -5  -6    1.28    0.35
  -7  -5  -6    0.92    0.39
  -7  -5  -6    1.68    0.42
  -7  -5   6    1.72    0.47
   7   5   6    1.07    0.40
  -7   5  -6    1.02    0.39
  -7  -5   6    1.35    0.35
  -7   5  -6    1.88    0.43
  -7  -5   6    1.54    0.48
  -7  -5   6    1.37    0.41
  -7  -5   6    1.20    0.35
  -9  -5  -6    0.30    0.29
  -9  -5   6    0.26    0.29
   0   6   6  157.09    3.37
   0   6   6  153.85    3.39
   0   6  -6  155.63    4.42
   0  -6  -6  150.35    3.89
   0   6  -6  150.59    3.31
   0  -6  -6  154.82    3.50
   0  -6  -6  150.47    3.94
   0  -6   6  166.59    4.05
   0   6   6  158.10    3.47
   0   6   6  158.19    3.28
   0  -6   6  153.47    3.22
   0  -6   6  156.12    3.53
   0  -6   6  151.79    3.94
   0  -6   6  153.95    3.93
   0   6  -6  161.42    3.52
   0   6   6  154.68    3.36
   0   6  -6  152.74    3.41
   0   6   6  159.52    4.09
   0   6   6  158.40    4.21
   0  -6  -6  156.79    3.38
   0   6  -6  156.27    3.31
   2  -6   6  125.84    3.11
  -2  -6  -6  133.78    3.12
  -2   6   6  131.85    3.08
   2   6  -6  132.88    3.00
  -2  -6  -6  133.26    3.14
  -2   6   6  130.11    4.05
   2   6  -6  131.00    3.06
   2   6  -6  129.91    2.95
  -2  -6  -6  138.41    3.69
   2  -6   6  132.14    3.90
  -2   6   6  131.29    3.12
   2  -6   6  124.98    3.41
  -2   6   6  131.14    3.06
  -2   6   6  136.45    2.86
  -2   6   6  132.81    3.09
   2  -6   6  138.27    3.51
   2   6  -6  131.07    3.97
  -2  -6  -6  135.43    3.55
   2  -6  -6  130.38    3.44
   2  -6  -6  131.38    3.64
  -2   6  -6  131.67    3.12
   2   6   6  127.64    3.87
  -2  -6   6  136.42    2.94
   2   6   6  130.33    2.93
  -2   6  -6  130.70    2.87
  -2  -6   6  124.73    3.67
  -2   6  -6  131.89    3.09
   2  -6  -6  134.78    3.09
  -2   6  -6  129.80    4.07
  -2  -6   6  131.72    3.19
  -2   6  -6  136.45    3.21
  -2   6  -6  133.14    2.99
   2   6   6  131.40    3.10
   4   6  -6   84.66    2.33
  -4   6   6   88.65    3.43
  -4   6   6   84.99    2.44
   4  -6   6   85.35    2.37
  -4   6   6   87.17    2.33
  -4  -6  -6   83.26    2.47
   4   6  -6   81.17    2.28
  -4  -6  -6   85.46    2.14
  -4  -6  -6   85.65    2.39
   4  -6   6   79.40    3.20
  -4   6   6   91.10    2.43
   4   6  -6   85.94    3.25
  -4   6   6   87.64    2.37
  -4  -6  -6   87.38    2.22
  -4   6   6   88.25    1.99
  -4  -6  -6   85.71    3.21
  -4  -6  -6   85.49    2.38
  -4  -6  -6   87.25    2.31
   4  -6   6   85.56    2.54
   4  -6  -6   84.91    2.51
  -4  -6   6   86.06    2.32
  -4   6  -6   87.13    2.46
   4   6   6   86.26    2.39
  -4   6  -6   87.30    3.41
  -4  -6   6   84.93    2.27
  -4   6  -6   86.44    2.03
  -4  -6   6   88.59    2.30
   4  -6  -6   87.47    2.32
  -4  -6   6   85.97    3.06
  -4   6  -6   83.23    2.41
  -4   6  -6   83.37    2.39
  -4  -6   6   87.09    2.22
  -4  -6   6   84.70    2.47
   4  -6  -6   83.28    2.90
   4   6   6   81.55    3.23
  -6  -6  -6   42.01    1.64
  -6   6   6   43.88    1.63
  -6  -6  -6   44.48    1.53
   6   6  -6   45.16    1.70
  -6   6   6   43.34    1.62
   6  -6   6   44.63    1.64
   6   6  -6   44.42    1.57
  -6  -6  -6   44.05    1.52
  -6  -6  -6   48.36    1.83
  -6   6   6   44.05    1.75
  -6   6   6   44.40    1.20
  -6  -6  -6   42.39    1.77
  -6  -6  -6   42.19    1.49
  -6  -6   6   45.13    1.75
  -6   6  -6   41.66    1.22
  -6   6  -6   43.11    1.67
  -6   6  -6   41.37    1.65
  -6   6  -6   45.81    1.71
  -6  -6   6   40.67    1.61
  -6  -6   6   45.60    1.62
   6   6   6   45.57    1.70
  -6  -6   6   42.79    1.49
  -6  -6   6   40.49    1.65
  -6  -6   6   43.83    1.48
  -8  -6  -6   20.41    0.99
  -8  -6  -6   19.75    0.99
  -8  -6   6   19.19    0.95
  -8  -6   6   16.57    0.95
 -10  -6  -6    6.41    0.45
  -1  -7  -6    7.90    0.57
  -1   7   6    6.17    0.56
   1   7  -6    6.30    0.57
   1  -7   6    7.07    0.81
  -1  -7  -6    6.62    0.83
  -1   7   6    6.46    0.44
   1  -7   6    6.04    0.60
   1  -7   6    6.94    0.89
  -1  -7  -6    5.98    0.59
  -1   7   6    6.38    0.92
  -1   7   6    7.29    0.63
   1  -7   6    6.01    0.75
  -1   7   6    6.15    0.56
   1   7  -6    6.74    0.59
  -1   7   6    6.65    0.60
   1   7  -6    7.33    1.00
   1   7   6    6.77    0.56
  -1   7  -6    6.06    0.55
   1   7   6    6.61    0.62
  -1   7  -6    6.51    0.46
  -1   7  -6    6.06    0.55
   1  -7  -6    6.00    0.72
   1  -7  -6    7.12    0.63
  -1  -7   6    5.35    0.75
  -1  -7   6    6.18    0.55
  -1  -7   6    6.35    0.64
  -1   7  -6    6.08    0.58
   1  -7  -6    5.13    0.73
   1   7   6    5.77    0.87
  -1   7  -6    5.92    0.60
  -1   7  -6    6.03    0.94
  -3  -7  -6    4.47    0.74
   3   7  -6    4.21    0.84
   3  -7   6    3.65    0.74
  -3   7   6    4.35    0.55
   3   7  -6    3.63    0.49
  -3   7   6    4.15    0.40
  -3   7   6    4.39    0.53
  -3   7   6    4.16    0.56
   3   7  -6    3.81    0.47
  -3  -7  -6    4.57    0.57
   3  -7   6    4.36    0.70
  -3   7   6    3.40    0.78
   3  -7   6    4.36    0.64
  -3  -7  -6    4.22    0.56
  -3   7   6    4.72    0.55
   3  -7   6    3.79    0.52
  -3   7  -6    3.93    0.54
   3  -7  -6    4.31    0.53
   3   7   6    3.96    0.82
   3  -7  -6    3.14    0.55
  -3  -7   6    4.74    0.78
  -3   7  -6    4.63    0.45
  -3   7  -6    5.33    1.01
  -3   7  -6    3.98    0.55
  -3  -7   6    4.35    0.47
  -3   7  -6    3.84    0.47
  -3   7  -6    4.69    0.56
   3  -7  -6    5.37    0.81
  -3  -7   6    3.85    0.56
   3   7   6    4.37    0.47
   3   7   6    4.06    0.54
  -5  -7  -6    1.72    0.37
   5  -7   6    2.23    0.47
  -5  -7  -6    2.43    0.42
  -5  -7  -6    2.65    0.55
  -5   7   6    2.98    0.36
   5   7  -6    2.56    0.45
  -5   7   6    2.71    0.52
  -5   7   6    1.80    0.42
  -5  -7  -6    2.33    0.39
  -5   7   6    1.12    0.36
   5   7  -6    2.33    0.45
   5   7   6    1.81    0.41
  -5   7  -6    2.85    0.51
  -5  -7   6    1.43    0.38
  -5  -7   6    1.65    0.38
  -5   7  -6    2.53    0.51
   5   7   6    1.62    0.40
  -5   7  -6    1.71    0.45
  -5   7  -6    2.30    0.33
   5   7   6    1.97    0.48
  -5  -7   6    1.84    0.49
   5  -7  -6    2.00    0.43
   7   7  -6    1.52    0.38
  -7  -7  -6    1.05    0.33
  -7   7   6    1.20    0.43
  -7  -7  -6    1.32    0.39
   7   7  -6    0.97    0.42
  -7  -7  -6    1.37    0.46
  -7   7   6    1.05    0.24
  -7   7   6    1.26    0.41
  -7  -7  -6    0.86    0.32
  -7   7  -6    1.55    0.46
  -7  -7   6    1.57    0.48
  -7   7  -6    0.40    0.35
   7   7   6    1.04    0.41
  -7   7  -6    0.94    0.26
  -7  -7   6    1.23    0.47
  -7  -7   6    1.74    0.46
  -7  -7   6    0.73    0.34
  -7  -7   6    0.63    0.31
  -7  -7   6    0.40    0.33
   7   7   6    1.37    0.42
   7   7   6    0.78    0.38
  -9  -7  -6    0.24    0.23
  -9  -7   6    0.35    0.26
   0  -8  -6   88.30    2.49
   0   8  -6   88.40    3.46
   0  -8  -6   88.10    3.02
   0  -8   6   86.94    2.51
   0  -8   6   89.83    3.05
   0  -8   6   90.84    2.41
   0  -8  -6   91.41    2.30
   0   8   6   87.74    2.39
   0   8  -6   88.96    2.47
   0  -8  -6   88.63    2.33
   0   8   6   90.19    2.44
   0   8  -6   88.74    2.40
   2   8  -6   74.72    3.22
   2   8  -6   77.28    2.26
  -2   8   6   74.65    2.24
   2  -8   6   79.44    2.77
  -2   8   6   79.47    2.32
  -2   8   6   80.57    3.31
  -2   8   6   81.08    2.28
  -2   8   6   79.74    2.24
  -2  -8  -6   80.93    2.35
  -2  -8  -6   78.11    2.31
  -2  -8  -6   73.71    2.77
   2  -8   6   78.89    2.77
   2  -8   6   81.52    2.33
  -2   8   6   81.94    2.06
   2  -8   6   73.92    3.04
  -2  -8   6   75.33    2.92
  -2  -8   6   81.59    2.44
  -2   8  -6   79.87    2.23
  -2   8  -6   81.37    3.35
   2   8   6   80.09    2.33
   2  -8  -6   78.78    2.75
   2   8   6   77.44    3.14
   2  -8  -6   78.49    2.87
   2  -8  -6   78.43    2.31
  -2   8  -6   76.57    2.37
   2   8   6   76.84    2.15
  -2   8  -6   78.44    2.24
  -2   8  -6   81.67    2.11
  -4   8   6   52.79    1.94
   4  -8   6   51.02    1.79
  -4  -8  -6   50.78    1.84
   4   8  -6   51.43    1.75
  -4   8   6   52.01    1.53
   4   8  -6   51.77    1.77
  -4  -8  -6   51.27    1.92
  -4   8   6   53.10    1.86
  -4   8   6   51.98    1.82
  -4   8  -6   49.86    1.91
  -4   8  -6   53.95    1.91
  -4   8  -6   53.08    1.57
  -4  -8   6   51.65    1.65
   4   8   6   52.92    1.87
  -4   8  -6   54.98    1.89
  -4  -8   6   49.44    1.93
   4  -8  -6   50.60    1.79
  -6   8   6   26.18    1.28
  -6  -8  -6   29.48    1.46
   6   8  -6   27.62    1.22
  -6   8   6   26.85    0.99
   6   8  -6   27.73    1.29
  -6  -8  -6   28.12    1.12
  -6   8   6   29.42    1.31
  -6   8   6   25.74    1.34
  -6   8  -6   27.14    1.31
   6   8   6   25.47    1.29
  -6   8  -6   26.39    1.00
  -6  -8   6   30.05    1.25
  -6   8  -6   26.89    1.32
  -6   8  -6   26.83    1.35
  -6  -8   6   27.94    1.38
  -8  -8  -6   12.79    0.69
   1   9  -6    3.22    0.50
  -1   9   6    4.22    0.56
  -1  -9  -6    3.45    0.52
  -1  -9  -6    3.57    0.57
  -1   9   6    3.54    0.52
   1   9  -6    2.75    0.46
  -1   9   6    3.44    0.44
  -1   9   6    3.27    0.52
   1  -9   6    3.29    0.53
   1  -9   6    3.99    0.58
   1  -9  -6    3.82    0.59
   1  -9  -6    3.49    0.49
   1   9   6    3.00    0.48
  -1   9  -6    3.58    0.45
  -1  -9   6    3.91    0.60
   1   9   6    3.63    0.54
  -1   9  -6    3.78    0.54
  -1   9  -6    3.50    0.54
   3   9  -6    3.39    0.53
  -3   9   6    2.82    0.50
  -3  -9  -6    2.66    0.53
   3  -9   6    3.20    0.55
  -3   9   6    2.43    0.51
  -3  -9  -6    2.39    0.50
  -3   9   6    2.23    0.37
   3  -9   6    2.29    0.49
  -3   9   6    2.98    0.52
   3   9   6    2.30    0.43
   3  -9  -6    2.23    0.48
  -3   9  -6    1.81    0.44
  -3   9  -6    3.08    0.56
  -3   9  -6    2.32    0.39
   3   9   6    2.56    0.54
  -3   9  -6    2.84    0.51
  -3  -9   6    2.13    0.52
  -5   9   6    1.64    0.43
  -5   9   6    1.22    0.30
  -5  -9  -6    0.71    0.37
   5   9  -6    1.71    0.41
  -5   9   6    1.74    0.48
  -5   9   6    0.88    0.39
   5   9  -6    1.77    0.45
   5  -9   6    1.29    0.42
  -5   9  -6    1.06    0.42
  -5  -9   6    2.04    0.43
  -5   9  -6    1.55    0.34
   5   9   6    1.84    0.56
   5  -9  -6    1.58    0.43
  -5   9  -6    1.25    0.40
  -5  -9   6    2.75    0.59
   0  10   6   48.50    1.72
   0  10  -6   47.57    1.74
   0 -10   6   48.37    1.85
   0  10  -6   46.48    1.70
   0  10   6   46.01    1.68
   0 -10   6   48.58    1.73
   0 -10  -6   45.14    1.76
  -2  10   6   40.24    1.61
  -2 -10  -6   42.32    1.65
  -2  10   6   42.94    1.66
   2  10  -6   40.74    1.60
   2 -10   6   42.82    1.67
  -2  10   6   40.53    1.42
   2 -10   6   43.56    1.69
  -2 -10  -6   42.24    1.70
  -2  10  -6   40.67    1.43
  -2  10  -6   43.19    1.74
   2  10   6   46.22    1.69
   2 -10  -6   43.13    1.59
  -2  10  -6   42.48    1.56
  -2 -10   6   42.51    1.77
   2  10   6   41.04    1.54
  -2  10  -6   39.79    1.56
  -4  10   6   29.27    1.34
   4 -10   6   30.12    1.39
   4  10  -6   30.98    1.33
  -4  10   6   25.98    1.33
  -4 -10  -6   29.18    1.40
  -4  10   6   26.71    1.09
  -4  10  -6   30.16    1.46
  -4  10  -6   26.47    1.11
  -4 -10   6   31.22    1.47
   4  10   6   27.82    1.34
  -4  10  -6   29.26    1.33
   4 -10  -6   30.15    1.37
   1 -11   6    1.98    0.50
   1 -11   6    2.63    0.53
  -1 -11  -6    2.43    0.55
   1  11  -6    2.57    0.47
  -1  11   6    2.06    0.48
  -1 -11   6    2.42    0.56
   1  11   6    2.30    0.48
  -1  11  -6    1.94    0.45
  -1  11  -6    2.84    0.52
   1 -11  -6    2.37    0.50
   3 -11   6    1.61    0.45
  -3 -11  -6    1.18    0.45
  -3  11   6    2.27    0.48
  -3 -11  -6    1.25    0.44
   3 -11   6    1.96    0.47
  -3  11   6    1.67    0.36
   3  11  -6    1.86    0.45
  -3  11   6    1.53    0.44
  -3  11  -6    1.21    0.34
   3 -11  -6    1.50    0.45
  -3  11  -6    1.22    0.41
   3 -11  -6    2.00    0.46
  -3 -11   6    1.79    0.51
  -3  11  -6    2.16    0.52
   3  11   6    1.89    0.46
   1   0   7  134.67    2.94
  -1   0  -7  130.68    3.03
   1   0  -7  136.14    3.12
   1   0  -7  132.47    2.66
   1   0   7  134.92    3.08
  -1   0   7  137.91    3.01
   1   0  -7  132.06    2.90
  -1   0   7  133.50    2.92
  -1   0  -7  134.78    3.07
  -3   0  -7   57.31    1.99
  -3   0  -7   54.42    1.42
   3   0   7   59.83    1.81
  -3   0   7   54.66    1.39
  -3   0   7   55.26    1.78
  -3   0  -7   52.92    1.37
   3   0  -7   57.44    1.98
   3   0   7   53.24    1.52
  -3   0  -7   52.11    1.41
  -3   0  -7   55.70    1.86
  -3   0   7   55.34    1.61
   3   0  -7   54.20    1.44
  -3   0   7   55.50    1.37
   3   0  -7   52.92    1.48
  -3   0   7   52.78    1.42
  -3   0   7   58.52    1.45
  -3   0  -7   53.84    1.33
  -3   0   7   53.99    1.42
  -3   0  -7   54.40    1.43
  -5   0  -7   20.55    0.84
  -5   0  -7   21.13    0.91
   5   0  -7   20.92    0.92
  -5   0  -7   21.66    0.90
   5   0   7   21.65    1.45
  -5   0   7   20.48    0.84
  -5   0   7   21.00    0.94
  -5   0   7   21.63    0.89
  -5   0   7   19.42    0.92
  -5   0   7   20.44    0.79
  -5   0   7   20.04    0.94
  -5   0  -7   20.55    0.97
  -5   0  -7   22.91    0.97
   5   0   7   20.80    0.95
   5   0  -7   18.70    1.36
  -5   0   7   20.66    1.26
  -5   0  -7   20.30    1.35
  -7   0  -7    9.00    0.86
  -7   0  -7    7.33    0.73
  -7   0  -7    7.07    0.42
  -7   0   7    6.99    0.40
  -7   0   7    8.12    0.75
  -7   0  -7    8.34    0.70
  -7   0   7    7.26    0.65
  -7   0   7    8.10    0.84
  -7   0   7    9.13    0.86
  -7   0   7    8.25    0.70
  -7   0  -7    8.35    0.80
  -7   0  -7    6.69    0.77
  -7   0   7    6.76    0.76
  -7   0  -7    7.37    0.69
  -9   0  -7    2.44    0.33
  -9   0  -7    3.78    0.63
  -9   0   7    1.89    0.52
  -9   0   7    2.71    0.55
  -9   0   7    2.01    0.42
  -9   0  -7    2.48    0.49
  -9   0   7    2.78    0.57
  -9   0   7    2.63    0.34
  -9   0  -7    2.68    0.44
   0   1  -7   20.35    0.73
   0   1   7   19.53    0.62
   0  -1   7   19.83    0.73
   0   1  -7   20.95    0.76
   0   1   7   19.83    0.74
   0   1   7   19.98    0.64
   0  -1   7   19.97    0.64
   0  -1  -7   19.21    0.72
   0   1  -7   19.00    0.78
   0  -1  -7   20.02    0.82
   2  -1   7   12.43    0.35
  -2  -1  -7   13.00    0.36
   2  -1   7   12.94    0.56
   2  -1   7   14.36    0.60
  -2  -1  -7   14.26    0.79
  -2   1   7   13.92    0.71
   2  -1   7   13.10    0.74
   2   1  -7   12.45    0.57
   2   1  -7   13.07    0.62
  -2  -1  -7   14.71    0.80
  -2   1   7   13.36    0.70
   2   1  -7   13.09    0.78
  -2   1  -7   13.12    0.69
  -2  -1   7   14.26    0.71
  -2  -1   7   12.58    0.57
   2   1   7   12.77    0.68
   2  -1  -7   13.42    0.75
   2  -1  -7   13.52    0.59
   2  -1  -7   12.65    0.56
  -2   1  -7   13.94    0.81
   2   1   7   13.36    0.66
   4  -1   7   10.46    0.81
  -4   1   7    9.88    0.56
  -4  -1  -7    9.95    0.57
  -4  -1  -7   10.29    0.61
  -4  -1  -7   10.14    0.51
   4   1  -7   10.78    0.65
  -4   1   7   10.77    0.55
   4   1  -7   10.80    0.55
  -4   1   7    9.80    0.73
   4   1  -7   10.44    1.08
  -4  -1  -7   11.32    1.08
  -4   1   7   10.98    0.58
   4  -1   7   10.52    0.58
  -4   1   7    9.93    0.57
  -4  -1  -7   10.13    0.60
   4   1  -7    9.68    0.68
  -4   1   7   10.06    0.46
  -4   1   7    9.41    0.56
  -4  -1  -7   10.65    0.58
  -4  -1  -7    9.62    0.38
  -4   1   7   10.16    0.47
  -4   1   7   10.26    0.94
  -4   1  -7   10.92    0.84
  -4  -1   7    9.96    0.58
   4  -1  -7   11.34    0.58
  -4  -1   7   10.01    0.55
  -4   1  -7    9.75    0.59
  -4  -1   7   10.45    0.60
  -4   1  -7   11.02    1.09
   4   1   7   11.83    1.16
  -4   1  -7   10.65    0.53
   4   1   7    9.86    0.72
  -4   1  -7   10.70    0.57
  -4   1  -7   10.85    0.57
  -4  -1   7   11.06    0.62
   4  -1  -7    9.87    1.00
   4   1   7   11.06    0.68
  -4  -1   7   11.11    0.97
  -4   1  -7    9.52    0.52
  -4  -1   7   10.12    0.51
   4   1   7    9.14    0.48
  -4  -1   7   10.94    0.38
  -4   1  -7   10.23    0.51
  -6  -1  -7    8.52    0.81
  -6   1   7    8.88    0.72
  -6   1   7    6.63    0.63
  -6   1   7    6.86    0.70
   6   1  -7    5.83    1.01
  -6   1   7    8.32    0.74
   6   1  -7    7.33    0.72
   6  -1   7    8.72    1.21
  -6  -1  -7    6.72    0.65
  -6  -1  -7    7.54    0.76
  -6  -1  -7    7.26    0.41
  -6  -1  -7    5.63    0.96
  -6   1   7    6.99    0.70
  -6   1   7    7.54    0.97
  -6  -1  -7    7.18    0.63
   6  -1   7    8.54    0.60
  -6  -1  -7    7.45    0.71
  -6   1  -7    7.57    0.67
   6  -1  -7    7.62    0.54
  -6   1  -7    6.90    0.71
  -6  -1   7    5.75    0.65
  -6  -1   7    6.02    0.67
  -6   1  -7    6.97    0.68
  -6   1  -7    8.20    0.60
   6   1   7    8.05    0.78
  -6  -1   7    7.71    0.58
  -6  -1   7    7.30    0.41
  -6  -1   7    6.09    0.69
  -6   1  -7    7.84    1.05
   6  -1  -7    7.53    1.09
  -6  -1   7    7.42    0.98
  -6   1  -7    8.64    0.75
   6   1   7    6.66    0.59
   6   1   7    8.01    1.17
  -6  -1   7    6.97    0.63
  -8   1   7    3.39    0.59
  -8  -1  -7    2.67    0.47
  -8   1   7    3.15    0.60
  -8  -1  -7    4.03    0.42
  -8  -1  -7    4.33    0.67
  -8   1   7    4.13    0.58
   8   1  -7    2.82    0.48
  -8   1   7    3.17    0.59
  -8  -1  -7    3.64    0.62
  -8  -1  -7    3.38    0.59
  -8   1   7    3.24    0.48
  -8  -1  -7    3.77    0.56
  -8   1  -7    3.42    0.61
  -8  -1   7    2.78    0.55
  -8  -1   7    3.10    0.50
  -8   1  -7    3.87    0.56
  -8  -1   7    2.86    0.60
  -8  -1   7    3.52    0.60
  -8  -1   7    3.52    0.39
  -8  -1   7    2.52    0.45
 -10  -1  -7    0.93    0.29
 -10  -1   7    1.06    0.32
  -1  -2  -7   32.25    0.89
  -1   2   7   31.33    0.72
   1  -2   7   32.39    1.02
  -1  -2  -7   33.09    1.19
  -1   2   7   33.14    1.22
   1  -2   7   32.74    0.89
   1  -2   7   33.83    1.20
  -1   2   7   32.07    1.07
   1   2  -7   30.50    1.07
  -1  -2  -7   31.76    1.03
   1   2  -7   30.67    1.13
   1   2  -7   31.51    1.09
  -1  -2   7   30.37    1.03
   1  -2  -7   33.59    1.04
  -1  -2   7   31.83    1.07
   1   2   7   33.51    1.15
  -1  -2   7   32.67    1.03
  -1   2  -7   32.09    1.00
  -1   2  -7   32.26    1.22
   1   2   7   32.16    1.12
   1   2   7   32.15    1.12
   1  -2  -7   31.98    1.14
  -3   2   7   11.68    0.78
   3  -2   7   12.19    0.50
  -3  -2  -7   12.79    0.60
   3  -2   7   12.93    0.60
  -3   2   7   13.58    0.85
  -3   2   7   12.84    0.56
   3   2  -7   11.34    0.71
   3   2  -7   11.05    0.68
  -3   2   7   13.59    0.57
  -3  -2  -7   12.67    0.52
  -3  -2  -7   13.51    0.47
  -3  -2  -7   12.82    0.54
  -3   2   7   13.17    0.53
  -3  -2  -7   12.21    0.57
   3   2  -7   12.27    0.91
   3   2  -7   12.92    0.55
  -3  -2  -7   13.07    0.89
  -3   2   7   13.88    0.61
  -3  -2  -7   11.10    0.58
  -3  -2  -7   11.50    0.58
   3  -2   7   12.67    0.84
  -3   2   7   12.06    0.54
  -3   2   7   12.74    0.59
   3   2   7   11.90    0.73
  -3  -2   7   11.84    0.56
  -3  -2   7   12.48    0.58
  -3  -2   7   12.88    0.45
   3  -2  -7   12.99    0.60
  -3   2  -7   13.50    0.58
  -3  -2   7   12.79    0.59
  -3  -2   7   13.01    0.53
   3   2   7   13.60    0.71
   3   2   7   12.08    0.53
   3  -2  -7   14.38    0.87
  -3   2  -7   13.89    0.76
  -3  -2   7   12.84    0.55
  -3  -2   7   13.77    0.82
  -3   2  -7   12.64    0.53
  -3   2  -7   13.70    0.59
   3   2   7   12.01    0.89
  -3   2  -7   13.21    0.94
  -3   2  -7   13.08    0.54
  -3   2  -7   11.95    0.59
   5   2  -7    3.37    0.73
  -5  -2  -7    3.18    0.70
  -5   2   7    4.30    0.47
  -5  -2  -7    4.01    0.34
  -5   2   7    3.58    0.45
   5   2  -7    3.38    0.52
  -5  -2  -7    3.71    0.42
   5  -2   7    3.43    0.40
  -5   2   7    4.19    0.48
  -5   2   7    4.77    0.72
  -5  -2  -7    4.28    0.54
  -5  -2  -7    3.39    0.46
  -5   2   7    4.52    0.51
  -5  -2  -7    3.68    0.44
  -5  -2  -7    3.76    0.51
  -5   2   7    4.30    0.69
  -5   2   7    4.08    0.47
   5  -2   7    3.40    0.65
  -5   2  -7    3.70    0.49
  -5   2  -7    4.45    0.70
   5   2   7    4.12    0.81
  -5   2  -7    4.12    0.79
   5   2   7    5.40    0.65
  -5   2  -7    3.96    0.49
   5   2   7    3.62    0.42
  -5  -2   7    4.07    0.44
  -5  -2   7    5.10    0.77
  -5  -2   7    4.42    0.52
  -5   2  -7    4.10    0.43
  -5  -2   7    3.86    0.44
  -5  -2   7    3.90    0.33
  -5  -2   7    4.10    0.52
  -5  -2   7    3.93    0.50
  -5   2  -7    4.00    0.44
   5  -2  -7    4.31    0.42
   5  -2  -7    4.19    0.75
   7   2  -7    1.12    0.35
  -7   2   7    1.54    0.40
  -7  -2  -7    1.95    0.50
  -7   2   7    1.60    0.44
  -7  -2  -7    2.17    0.45
  -7  -2  -7    1.35    0.36
  -7  -2  -7    1.59    0.30
  -7  -2  -7    2.55    0.52
  -7   2   7    1.28    0.39
  -7  -2  -7    1.47    0.49
  -7   2   7    1.25    0.37
  -7  -2   7    1.77    0.45
  -7   2  -7    2.26    0.50
  -7  -2   7    1.74    0.38
   7   2   7    2.16    0.43
  -7   2  -7    2.14    0.44
  -7  -2   7    1.45    0.48
  -7   2  -7    1.68    0.40
  -7  -2   7    1.09    0.28
  -7  -2   7    0.91    0.39
  -7  -2   7    1.45    0.39
  -9  -2  -7    0.27    0.34
  -9  -2  -7    0.45    0.30
  -9  -2  -7    0.68    0.26
   9   2   7    0.54    0.34
  -9  -2   7    0.85    0.37
  -9  -2   7    0.76    0.29
  -9  -2   7    0.45    0.29
  -9  -2   7   -0.06    0.33
  -9  -2   7    1.42    0.49
   9   2   7    1.16    0.38
   0  -3   7    0.61    0.21
   0   3  -7    0.50    0.17
   0  -3  -7    0.81    0.20
   0   3  -7    0.46    0.22
   0   3   7    0.33    0.17
   0  -3  -7    0.66    0.20
   0   3  -7    0.32    0.17
   0  -3  -7    0.37    0.18
   0  -3   7    0.38    0.16
   0  -3   7    0.18    0.14
   0   3   7    0.63    0.22
   0   3   7    0.47    0.18
  -2  -3  -7    0.44    0.17
  -2  -3  -7    0.02    0.13
  -2  -3  -7    0.09    0.11
   2   3  -7    0.35    0.13
   2  -3   7    0.10    0.13
   2   3  -7    0.35    0.13
  -2   3   7    0.13    0.11
   2  -3   7    0.07    0.21
  -2   3   7    0.27    0.13
  -2   3   7    0.25    0.20
  -2  -3  -7    0.19    0.13
   2   3  -7    0.32    0.17
  -2   3   7    0.45    0.14
   2  -3   7    0.05    0.12
  -2   3   7    0.14    0.11
  -2  -3  -7    0.23    0.21
  -2  -3  -7    0.17    0.15
   2   3  -7    0.39    0.22
   2   3  -7    0.63    0.27
  -2  -3  -7    0.50    0.13
  -2   3   7    0.16    0.08
  -2  -3   7    0.36    0.13
  -2  -3   7    0.26    0.11
  -2  -3   7    0.32    0.12
  -2   3  -7    0.32    0.14
  -2   3  -7    0.01    0.11
   2  -3  -7    0.24    0.15
  -2   3  -7    0.29    0.26
  -2  -3   7    0.38    0.20
  -2  -3   7    0.20    0.13
   2   3   7    0.23    0.16
  -2  -3   7    0.25    0.14
  -2  -3   7    0.26    0.13
   2  -3  -7    0.04    0.15
  -2   3  -7    0.30    0.15
  -2   3  -7    0.02    0.09
  -2  -3   7    0.34    0.15
   2   3   7    0.45    0.25
  -2   3  -7    0.44    0.15
  -2   3  -7    0.18    0.15
   2  -3  -7    0.24    0.18
   2   3   7    0.08    0.17
   2   3   7   -0.07    0.10
  -4   3   7    0.20    0.19
  -4  -3  -7    0.23    0.17
  -4   3   7    0.06    0.17
   4  -3   7    0.30    0.17
  -4  -3  -7   -0.03    0.15
  -4   3   7   -0.05    0.23
  -4   3   7    0.05    0.14
  -4   3   7   -0.11    0.14
  -4  -3  -7    0.29    0.22
  -4   3   7   -0.19    0.21
   4  -3   7    0.02    0.25
  -4  -3  -7    0.05    0.17
   4   3  -7    0.28    0.22
   4   3  -7   -0.13    0.22
  -4  -3  -7    0.20    0.14
  -4   3   7   -0.02    0.13
  -4  -3  -7    0.04    0.19
   4   3  -7    0.04    0.31
  -4  -3  -7   -0.01    0.25
   4   3  -7   -0.03    0.16
  -4   3   7   -0.01    0.12
  -4   3  -7    0.07    0.17
  -4  -3   7   -0.07    0.16
   4   3   7    0.45    0.20
  -4  -3   7    0.02    0.12
  -4   3  -7    0.05    0.17
   4  -3  -7    0.22    0.26
   4   3   7    0.27    0.31
   4   3   7    0.07    0.21
  -4   3  -7    0.09    0.15
  -4  -3   7    0.01    0.17
  -4   3  -7   -0.06    0.13
  -4  -3   7    0.32    0.29
  -4   3  -7    0.20    0.19
  -4  -3   7   -0.25    0.14
  -4  -3   7    0.19    0.20
   4  -3  -7    0.28    0.19
  -4  -3   7    0.00    0.14
  -4   3  -7    0.06    0.30
  -6  -3  -7    0.60    0.22
  -6  -3  -7    0.57    0.27
  -6  -3  -7    0.84    0.30
   6  -3   7    0.17    0.47
  -6  -3  -7    0.19    0.43
  -6  -3  -7    0.37    0.30
  -6  -3  -7    0.51    0.34
  -6  -3  -7    0.15    0.26
  -6   3   7    0.17    0.23
   6  -3   7    0.66    0.28
   6   3  -7    0.17    0.48
  -6   3   7    0.29    0.25
   6   3  -7    0.59    0.38
   6   3  -7    0.24    0.26
  -6   3   7    0.71    0.33
  -6  -3  -7    0.17    0.28
  -6  -3   7    1.13    0.38
  -6  -3   7    0.78    0.51
  -6  -3   7    0.28    0.28
   6   3   7    0.28    0.34
  -6   3  -7    0.73    0.32
  -6   3  -7    1.06    0.32
   6   3   7    0.09    0.51
  -6  -3   7    0.32    0.27
   6  -3  -7    0.11    0.21
  -6   3  -7    0.04    0.25
  -6   3  -7    0.32    0.53
  -6  -3   7    0.17    0.22
   6   3   7    0.64    0.29
   6  -3  -7    0.70    0.45
  -6  -3   7    0.45    0.21
  -6   3  -7   -0.19    0.28
  -6  -3   7    0.36    0.27
  -8  -3  -7    0.53    0.26
  -8  -3  -7    0.20    0.33
  -8  -3  -7    0.34    0.31
   8   3  -7    0.25    0.31
  -8  -3  -7   -0.30    0.33
  -8  -3  -7    0.16    0.31
  -8   3   7    0.15    0.31
  -8  -3  -7    0.09    0.35
  -8  -3   7    0.56    0.37
  -8  -3   7   -0.17    0.30
  -8  -3   7    0.46    0.39
  -8  -3   7    0.71    0.36
  -8   3  -7    0.53    0.37
  -8  -3   7    0.31    0.30
  -8  -3   7    0.39    0.25
 -10  -3  -7    0.10    0.23
 -10  -3   7    0.32    0.24
   1   4  -7   16.70    0.61
   1   4  -7   15.18    0.83
   1  -4   7   14.82    0.74
  -1   4   7   16.15    0.65
   1  -4   7   15.54    0.92
  -1  -4  -7   16.07    0.81
   1   4  -7   16.08    0.79
  -1   4   7   15.35    0.61
   1  -4   7   16.33    0.80
   1   4  -7   16.11    0.95
  -1  -4  -7   15.13    0.59
  -1   4   7   15.39    0.62
  -1   4   7   15.29    0.51
  -1   4   7   14.58    0.93
  -1  -4  -7   15.78    0.64
  -1  -4  -7   16.76    0.90
  -1  -4  -7   16.11    0.76
   1  -4   7   16.41    0.65
   1   4  -7   15.30    0.62
  -1   4   7   16.41    0.60
  -1   4   7   16.24    0.74
   1   4   7   15.61    0.85
   1  -4  -7   16.34    0.80
   1  -4  -7   16.43    0.78
  -1   4  -7   14.84    0.61
  -1   4  -7   16.11    0.65
  -1   4  -7   14.67    0.97
  -1  -4   7   15.46    0.74
   1   4   7   15.76    0.55
  -1   4  -7   15.92    0.57
   1   4   7   16.31    0.65
   1   4   7   15.19    0.86
   1  -4  -7   16.68    0.63
  -1   4  -7   15.56    0.61
  -1  -4   7   16.08    0.86
   1   4   7   15.59    0.60
  -1  -4   7   16.06    0.82
  -1  -4   7   16.05    0.65
  -1   4  -7   15.80    0.55
   1  -4  -7   15.12    0.80
   1   4   7   14.47    0.58
   1   4   7   16.06    0.89
  -1  -4   7   15.83    0.58
  -3  -4  -7    7.90    0.45
  -3  -4  -7    7.43    0.43
   3  -4   7    9.34    0.59
   3   4  -7    7.22    0.49
  -3  -4  -7    7.97    0.90
   3  -4   7    7.57    0.42
  -3   4   7    7.41    0.51
  -3   4   7    7.57    0.52
  -3   4   7    7.81    0.48
  -3  -4  -7    7.65    0.54
  -3   4   7    6.69    0.87
   3  -4   7    6.64    0.83
   3   4  -7    8.02    0.88
   3   4  -7    7.10    0.82
  -3  -4  -7    7.44    0.53
  -3  -4  -7    8.45    0.52
  -3  -4  -7    7.51    0.66
   3   4  -7    7.25    0.45
  -3   4   7    8.28    0.34
  -3   4   7    7.15    0.49
  -3  -4  -7    7.99    0.54
   3  -4   7    7.64    0.54
   3   4  -7    7.56    0.78
   3  -4  -7    7.58    0.77
  -3   4  -7    7.40    0.52
  -3  -4   7    8.73    0.54
   3  -4  -7    7.69    0.46
  -3  -4   7    7.79    0.44
  -3  -4   7    7.94    0.53
   3   4   7    7.52    0.78
  -3  -4   7    8.04    0.50
  -3   4  -7    8.13    0.54
  -3   4  -7    7.50    0.49
  -3   4  -7    8.63    1.03
  -3  -4   7    7.27    0.50
  -3   4  -7    7.97    0.37
   3  -4  -7    7.57    0.53
  -3   4  -7    7.96    0.52
   3   4   7    7.16    0.86
  -3  -4   7    7.03    0.46
   3   4   7    7.02    0.50
  -3  -4   7    5.89    0.72
   3  -4  -7    7.61    0.73
  -5  -4  -7    2.77    0.43
  -5   4   7    3.12    0.47
   5  -4   7    3.22    0.44
   5   4  -7    2.27    0.68
  -5  -4  -7    3.82    0.45
  -5   4   7    2.98    0.42
  -5   4   7    3.18    0.44
  -5  -4  -7    3.42    0.77
  -5  -4  -7    3.65    0.41
   5   4  -7    3.30    0.45
   5   4  -7    2.97    0.60
  -5  -4  -7    3.70    0.54
  -5  -4  -7    2.81    0.50
  -5   4   7    2.58    0.64
  -5   4   7    2.65    0.43
   5  -4   7    3.48    0.77
  -5  -4  -7    3.07    0.48
   5   4  -7    3.14    0.68
  -5  -4   7    2.69    0.47
   5  -4  -7    3.55    0.44
  -5  -4   7    2.86    0.48
   5  -4  -7    2.44    0.56
  -5   4  -7    3.01    0.48
  -5  -4   7    2.97    0.38
  -5   4  -7    3.12    0.46
  -5  -4   7    3.09    0.66
  -5   4  -7    2.93    0.43
   5   4   7    3.16    0.47
   5   4   7    2.43    0.57
  -5  -4   7    3.28    0.50
  -5  -4   7    2.45    0.40
   5   4   7    4.19    0.86
  -5   4  -7    3.56    0.81
  -5  -4   7    3.74    0.51
  -5   4  -7    3.24    0.49
  -7  -4  -7    1.72    0.36
  -7  -4  -7    1.15    0.37
  -7   4   7    1.73    0.45
  -7  -4  -7    0.92    0.35
  -7  -4  -7    1.43    0.43
  -7   4   7    1.42    0.40
  -7   4   7    1.11    0.39
  -7  -4  -7    1.42    0.47
  -7  -4  -7    0.85    0.42
   7   4  -7    1.30    0.37
  -7  -4   7    1.56    0.34
  -7   4  -7    1.59    0.44
  -7   4  -7    1.10    0.36
   7   4   7    1.39    0.40
  -7  -4   7    1.65    0.48
  -7  -4   7    2.14    0.42
  -7  -4   7    0.98    0.40
  -7   4  -7    1.92    0.48
  -7  -4   7    0.95    0.41
  -9  -4  -7    0.40    0.29
  -9  -4   7    0.64    0.32
   0   5  -7    8.01    0.46
   0  -5   7    9.37    0.79
   0   5  -7    8.23    0.90
   0  -5   7    8.08    0.51
   0   5   7    6.87    0.41
   0  -5   7    7.70    0.40
   0  -5  -7    8.01    0.43
   0   5   7    8.32    0.41
   0  -5  -7    7.10    0.69
   0   5   7    7.53    0.81
   0   5  -7    8.04    0.41
   0   5   7    8.12    0.76
   0   5   7    8.36    0.50
   0  -5  -7    9.31    0.79
   0  -5   7    7.33    0.69
   0   5  -7    8.61    0.51
   0  -5  -7    8.12    0.59
   0   5   7    8.56    0.46
   0  -5  -7    7.43    0.48
   0   5  -7    7.63    0.44
   0  -5   7    8.41    0.68
   0   5  -7    7.22    0.42
  -2  -5  -7    8.24    0.55
  -2   5   7    7.84    0.52
   2   5  -7    8.26    0.81
  -2  -5  -7    8.42    0.45
  -2   5   7    9.42    0.56
   2   5  -7    7.17    0.47
   2   5  -7    9.26    0.96
  -2  -5  -7    9.02    0.78
   2  -5   7    9.12    0.77
  -2   5   7    7.93    0.50
   2   5  -7    7.09    0.46
  -2  -5  -7    8.14    0.53
   2  -5   7    8.83    0.56
   2   5  -7    7.83    0.46
  -2   5   7    7.21    0.88
   2  -5   7    8.07    0.70
  -2  -5  -7    8.16    0.84
   2  -5   7    7.80    0.42
   2   5  -7   10.14    0.93
  -2   5   7    8.53    0.53
   2  -5   7    7.64    0.89
  -2   5   7    7.94    0.39
  -2   5  -7    7.84    0.95
  -2   5  -7    7.67    0.46
   2   5   7    8.12    0.44
  -2  -5   7    8.84    0.86
   2   5   7    8.14    0.52
  -2   5  -7    8.27    0.53
  -2   5  -7    7.98    0.53
  -2   5  -7    9.02    0.56
   2   5   7    7.30    0.78
  -2  -5   7    8.47    0.56
  -2  -5   7    7.75    0.47
   2  -5  -7    7.18    0.48
   2   5   7    8.66    0.92
   2  -5  -7    7.41    0.67
  -2   5  -7    7.54    0.42
   2   5   7    8.18    0.48
  -2  -5   7    8.14    0.46
   2   5   7    8.00    0.63
   2   5   7    8.17    0.48
   2  -5  -7    8.36    0.81
  -4   5   7    6.71    0.66
   4  -5   7    7.40    0.69
  -4   5   7    6.83    1.00
   4   5  -7    6.20    0.87
  -4  -5  -7    7.06    0.67
   4   5  -7    6.38    0.59
  -4  -5  -7    6.55    0.64
  -4   5   7    7.01    0.36
   4   5  -7    7.50    0.91
  -4   5   7    6.55    0.61
  -4  -5  -7    6.97    0.50
   4   5  -7    7.98    1.04
  -4   5   7    6.55    0.61
  -4  -5  -7    6.99    0.62
  -4  -5  -7    6.12    0.51
  -4  -5  -7    7.48    1.03
   4  -5   7    7.09    1.03
  -4   5   7    6.63    0.61
  -4  -5  -7    6.83    0.65
   4  -5  -7    6.58    0.63
  -4  -5   7    7.27    0.66
  -4  -5   7    6.80    0.60
  -4  -5   7    6.82    0.62
  -4  -5   7    6.74    0.64
  -4   5  -7    6.60    0.40
  -4   5  -7    8.38    1.14
   4   5   7    8.07    0.95
  -4   5  -7    6.98    0.66
   4  -5  -7    6.45    0.56
  -4   5  -7    6.75    0.65
  -4  -5   7    6.91    0.49
   4  -5  -7    5.86    0.79
  -4   5  -7    7.57    0.67
  -4  -5   7    6.70    0.89
  -4  -5   7    7.04    0.64
  -4   5  -7    5.67    0.60
   4   5   7    5.43    0.57
   4   5   7    5.35    0.87
  -6  -5  -7    3.80    0.62
  -6   5   7    4.27    0.34
  -6  -5  -7    3.72    0.58
  -6  -5  -7    3.87    0.49
   6   5  -7    3.95    0.54
  -6   5   7    3.91    0.55
  -6   5   7    3.34    0.55
  -6   5   7    3.19    0.55
  -6  -5  -7    3.83    0.53
  -6   5   7    4.66    0.60
  -6  -5  -7    4.04    0.52
  -6  -5  -7    4.02    0.64
  -6   5  -7    3.71    0.57
  -6   5  -7    4.22    0.61
  -6  -5   7    4.33    0.56
  -6   5  -7    4.47    0.59
  -6  -5   7    3.68    0.60
  -6  -5   7    4.52    0.62
  -6   5  -7    3.74    0.36
  -6  -5   7    3.88    0.49
  -6   5  -7    4.10    0.59
  -6  -5   7    4.32    0.50
  -6  -5   7    3.83    0.62
   6   5   7    3.47    0.55
   8   5  -7    1.63    0.47
  -8  -5  -7    1.88    0.37
  -8  -5  -7    1.19    0.47
  -8  -5  -7    1.51    0.39
  -8  -5  -7    1.90    0.41
   8   5   7    1.72    0.44
  -8  -5   7    2.36    0.53
   8   5   7    1.78    0.47
   8   5   7    2.14    0.49
  -8   5  -7    2.51    0.51
  -8  -5   7    1.67    0.43
  -8  -5   7    1.53    0.37
  -8  -5   7    1.62    0.47
  -8  -5   7    1.14    0.37
 -10  -5  -7    0.48    0.24
 -10  -5   7    0.50    0.24
   1  -6   7   29.09    1.11
  -1   6   7   28.78    1.04
  -1  -6  -7   30.40    1.04
  -1   6   7   30.21    1.05
  -1   6   7   30.25    1.05
   1   6  -7   30.43    1.07
  -1  -6  -7   28.67    1.33
   1  -6   7   31.70    1.55
  -1   6   7   29.34    1.58
  -1  -6  -7   28.34    1.07
   1  -6   7   28.26    1.33
   1   6  -7   30.20    1.63
  -1   6   7   32.04    1.10
  -1   6   7   29.54    0.93
  -1  -6  -7   29.06    0.95
   1  -6   7   32.43    1.38
   1   6  -7   28.83    1.03
   1   6   7   30.19    1.50
   1  -6  -7   29.59    1.39
  -1   6  -7   29.75    1.65
  -1   6  -7   30.47    1.13
  -1  -6   7   30.63    1.14
   1   6   7   31.29    1.00
  -1   6  -7   31.89    1.06
   1   6   7   30.92    1.11
  -1   6  -7   28.99    1.00
  -1  -6   7   31.00    1.00
  -1  -6   7   29.04    1.41
   1   6   7   31.21    1.44
  -1   6  -7   29.20    0.96
   1  -6  -7   30.90    1.08
   1  -6  -7   27.99    1.31
  -1  -6   7   27.81    0.94
  -1   6  -7   30.17    1.07
   3  -6   7   19.34    0.95
  -3   6   7   19.61    0.73
  -3  -6  -7   19.73    0.97
  -3   6   7   18.49    1.41
   3  -6   7   20.35    1.43
  -3   6   7   22.74    0.97
   3   6  -7   20.17    0.87
   3   6  -7   20.50    0.91
  -3  -6  -7   18.86    0.80
   3  -6   7   21.08    1.11
  -3   6   7   20.88    0.92
  -3  -6  -7   19.30    1.31
  -3  -6  -7   19.56    1.17
  -3   6   7   19.95    0.94
   3  -6   7   20.88    1.10
  -3  -6  -7   20.24    0.97
   3   6  -7   21.52    1.45
  -3   6   7   21.38    0.99
  -3   6  -7   21.69    1.00
   3   6   7   21.05    0.88
   3  -6  -7   18.51    0.88
   3   6   7   20.07    0.87
  -3   6  -7   20.22    0.98
  -3   6  -7   20.09    0.95
  -3  -6   7   20.48    0.83
  -3  -6   7   19.24    0.85
  -3  -6   7   20.22    1.00
  -3   6  -7   21.55    1.54
  -3   6  -7   20.70    0.78
   3   6   7   21.10    0.80
   3  -6  -7   18.97    1.05
  -3   6  -7   19.44    0.82
  -3  -6   7   18.26    1.25
   3   6   7   20.75    0.96
   3  -6  -7   22.40    1.29
   3   6   7   21.31    1.42
  -5  -6  -7   12.11    0.70
  -5  -6  -7    9.64    0.67
   5   6  -7   11.96    0.81
   5   6  -7   10.78    1.35
  -5   6   7   10.21    0.87
  -5   6   7   10.16    0.52
  -5   6   7   11.61    0.85
   5  -6   7   10.75    0.78
   5   6  -7    9.68    0.79
  -5  -6  -7   11.19    0.99
  -5  -6  -7   11.22    0.93
  -5   6   7   10.90    0.76
  -5  -6  -7   13.35    1.57
  -5   6   7   13.74    0.83
  -5  -6   7   10.43    0.68
   5   6   7   12.64    0.83
  -5   6  -7   10.76    0.79
  -5   6  -7   11.46    0.58
  -5   6  -7   11.66    0.83
  -5  -6   7   10.98    0.67
  -5  -6   7   10.12    0.72
  -5  -6   7   10.88    0.76
  -5  -6   7   11.03    0.91
  -5  -6   7   10.51    0.93
  -5   6  -7   10.46    1.41
  -5   6  -7   10.03    0.89
  -7   6   7    4.78    0.67
  -7  -6  -7    4.36    0.52
  -7   6   7    4.45    0.38
   7   6  -7    5.55    0.71
   7   6  -7    3.80    0.55
  -7  -6  -7    5.04    0.60
  -7  -6  -7    3.89    0.54
  -7   6   7    4.65    0.62
  -7  -6  -7    4.69    0.70
   7   6   7    5.22    0.68
  -7  -6   7    4.35    0.55
  -7   6  -7    4.22    0.65
  -7  -6   7    4.43    0.55
  -7  -6   7    5.33    0.64
  -7  -6   7    4.65    0.70
  -7   6  -7    4.20    0.60
   7   6   7    5.11    0.69
  -7   6  -7    4.49    0.42
  -7  -6   7    5.52    0.72
   7   6   7    3.90    0.61
  -9  -6  -7    1.58    0.35
  -9  -6   7    1.54    0.32
   0  -7  -7    5.87    0.59
   0   7   7    5.72    0.53
   0  -7   7    6.07    0.79
   0   7   7    6.63    0.44
   0  -7   7    5.90    0.56
   0  -7  -7    5.98    0.75
   0   7  -7    5.46    0.53
   0   7  -7    6.09    0.93
   0   7   7    5.61    0.56
   0   7   7    6.10    0.86
   0   7  -7    5.56    0.47
   0  -7  -7    5.28    0.49
   0   7  -7    5.35    0.57
   0  -7   7    5.14    0.58
   2  -7   7    4.13    0.65
   2  -7   7    5.69    0.74
   2  -7   7    5.55    0.61
  -2  -7  -7    5.00    0.56
   2   7  -7    4.64    0.85
  -2   7   7    5.65    0.58
   2  -7   7    5.06    0.86
  -2   7   7    5.66    0.59
  -2  -7  -7    5.56    0.61
  -2  -7  -7    5.45    0.76
  -2   7   7    5.15    0.57
  -2   7   7    4.59    0.54
   2   7  -7    5.41    0.55
  -2   7   7    5.48    0.47
  -2   7   7    3.72    0.78
   2   7  -7    4.55    0.51
   2   7   7    4.84    0.60
   2  -7  -7    5.08    0.56
  -2   7  -7    5.13    0.61
   2  -7  -7    4.98    0.75
  -2   7  -7    5.65    0.95
  -2   7  -7    4.71    0.52
   2  -7  -7    6.42    0.77
   2   7   7    5.00    0.50
  -2   7  -7    5.65    0.50
  -2  -7   7    7.88    0.97
   2   7   7    4.82    0.84
  -2   7  -7    5.81    0.63
  -2  -7   7    5.02    0.61
  -2   7  -7    5.40    0.56
  -2  -7   7    5.23    0.50
   4  -7   7    4.32    0.66
   4  -7   7    3.02    0.78
  -4   7   7    4.59    0.60
   4   7  -7    4.79    0.58
   4  -7   7    3.74    0.56
  -4   7   7    2.77    0.78
  -4   7   7    3.59    0.53
  -4  -7  -7    3.40    0.55
  -4   7   7    3.64    0.53
  -4   7   7    3.58    0.58
   4   7  -7    4.30    0.93
  -4   7   7    4.27    0.41
   4   7  -7    3.35    0.49
  -4  -7  -7    4.14    0.60
   4   7   7    3.13    0.83
  -4   7  -7    3.30    0.51
   4  -7  -7    4.44    0.55
   4   7   7    3.44    0.55
  -4  -7   7    3.64    0.59
  -4   7  -7    4.28    0.43
  -4   7  -7    3.33    0.54
  -4  -7   7    3.16    0.71
   4   7   7    3.72    0.49
  -4   7  -7    3.53    0.56
   4   7   7    4.14    0.53
  -4   7  -7    2.75    0.87
   4  -7  -7    3.80    0.62
  -4  -7   7    4.25    0.52
   4  -7  -7    4.73    0.81
  -6  -7  -7    2.92    0.46
   6   7  -7    2.26    0.52
  -6   7   7    2.74    0.35
  -6   7   7    2.34    0.52
  -6   7   7    2.19    0.47
   6  -7   7    2.34    0.49
  -6  -7  -7    3.05    0.49
  -6   7   7    1.75    0.44
   6   7  -7    2.44    0.45
  -6  -7  -7    2.10    0.54
  -6  -7  -7    3.12    0.48
   6   7   7    3.77    0.57
  -6   7  -7    2.36    0.50
  -6   7  -7    2.00    0.33
  -6  -7   7    1.81    0.42
  -6   7  -7    2.02    0.48
  -6  -7   7    1.68    0.39
   6   7   7    1.44    0.42
   6   7   7    1.93    0.49
  -6   7  -7    3.47    0.59
  -6  -7   7    2.48    0.55
  -8  -7  -7    1.31    0.36
  -8  -7   7    1.02    0.32
  -1   8   7    5.83    0.50
  -1   8   7    5.10    0.57
   1  -8   7    5.70    0.65
   1  -8   7    5.05    0.79
   1   8  -7    4.86    0.94
  -1  -8  -7    5.08    0.58
  -1   8   7    4.83    0.56
  -1  -8  -7    4.79    0.80
  -1   8   7    5.41    0.61
  -1   8   7    6.21    1.01
  -1  -8  -7    4.68    0.60
   1   8  -7    5.14    0.58
   1   8  -7    4.54    0.54
   1  -8   7    4.81    0.58
  -1   8  -7    5.99    0.53
   1   8   7    6.16    0.66
   1  -8  -7    5.24    0.82
  -1   8  -7    5.27    0.55
   1   8   7    4.53    0.52
  -1  -8   7    4.27    0.75
  -1  -8   7    4.67    0.61
  -1   8  -7    4.94    0.55
   1  -8  -7    5.37    0.62
  -1   8  -7    4.22    0.91
   1   8   7    4.39    0.86
  -1   8  -7    4.33    0.58
  -3   8   7    3.42    0.41
   3  -8   7    3.99    0.58
  -3  -8  -7    3.74    0.58
  -3   8   7    3.13    0.50
  -3  -8  -7    3.97    0.60
  -3   8   7    3.39    0.54
  -3   8   7    3.04    0.49
  -3   8   7    3.30    0.51
   3   8  -7    3.22    0.49
  -3  -8   7    3.83    0.61
   3  -8  -7    3.43    0.54
  -3   8  -7    3.57    0.54
  -3   8  -7    2.82    0.40
  -3  -8   7    3.61    0.47
  -3   8  -7    4.13    0.53
   3   8   7    4.16    0.62
   3   8   7    3.76    0.48
  -3   8  -7    3.82    0.60
  -3   8  -7    3.90    0.58
  -5   8   7    2.27    0.50
  -5   8   7    1.18    0.39
   5   8  -7    1.50    0.42
  -5   8   7    1.97    0.48
  -5  -8  -7    2.12    0.54
   5   8  -7    1.93    0.47
   5  -8   7    2.28    0.49
  -5   8   7    3.08    0.39
  -5  -8   7    1.85    0.50
   5   8   7    2.28    0.53
  -5   8  -7    2.61    0.56
   5  -8  -7    2.08    0.44
  -5  -8   7    1.51    0.40
  -5   8  -7    1.41    0.40
  -5   8  -7    1.44    0.31
  -5   8  -7    2.40    0.53
  -7  -8  -7    0.89    0.33
   0  -9   7    0.06    0.27
   0  -9  -7    0.27    0.30
   0   9   7    0.05    0.27
   0   9  -7    0.02    0.25
   0   9  -7    0.21    0.26
   0   9   7    0.30    0.26
   0  -9   7   -0.08    0.24
   2  -9   7    0.04    0.29
  -2  -9  -7   -0.20    0.29
  -2   9   7    0.13    0.20
  -2   9   7    0.14    0.26
  -2  -9  -7   -0.13    0.27
   2  -9   7   -0.27    0.23
   2   9  -7    0.24    0.27
  -2   9   7    0.14    0.28
   2   9   7   -0.04    0.23
  -2   9  -7    0.42    0.28
  -2  -9   7    0.00    0.29
   2   9   7   -0.16    0.27
   2  -9  -7   -0.14    0.24
  -2   9  -7   -0.21    0.18
  -2   9  -7    0.07    0.23
  -2   9  -7   -0.05    0.27
  -4   9   7   -0.04    0.27
   4   9  -7   -0.02    0.25
   4  -9   7   -0.13    0.29
  -4  -9  -7   -0.04    0.29
  -4   9   7    0.09    0.21
  -4   9   7    0.36    0.34
  -4   9   7   -0.16    0.25
  -4  -9  -7    0.23    0.35
   4  -9   7   -0.08    0.29
  -4   9  -7    0.22    0.30
   4  -9  -7    0.26    0.31
  -4  -9   7   -0.03    0.34
  -4   9  -7    0.12    0.22
  -4   9  -7    0.30    0.32
   4   9   7   -0.52    0.36
  -1  10   7    3.39    0.56
   1  10  -7    2.99    0.53
   1 -10   7    4.32    0.63
   1 -10   7    3.53    0.56
  -1 -10  -7    3.46    0.59
   1  10   7    3.21    0.51
  -1  10  -7    3.18    0.54
   1 -10  -7    3.59    0.60
  -1 -10   7    2.39    0.55
   1  10   7    3.04    0.54
  -1  10  -7    3.28    0.56
  -3 -10  -7    1.85    0.48
  -3  10   7    2.37    0.51
   3 -10   7    2.62    0.52
  -3 -10  -7    2.25    0.52
   3 -10   7    2.22    0.50
  -3  10   7    2.11    0.49
  -3  10   7    2.24    0.39
   3  10  -7    2.65    0.51
   3  10   7    1.54    0.46
   3 -10  -7    2.79    0.52
  -3 -10   7    3.10    0.59
   3 -10  -7    2.86    0.54
  -3  10  -7    2.24    0.41
  -3  10  -7    2.56    0.49
  -3  10  -7    2.41    0.53
   0 -11  -7    1.08    0.43
   0  11   7    1.05    0.38
   0 -11   7    0.16    0.33
   0  11  -7    0.94    0.38
  -2  11   7    0.29    0.30
   2  11  -7    1.21    0.40
  -2 -11  -7    0.43    0.37
   2 -11   7    1.04    0.40
   2 -11   7    1.31    0.41
  -2 -11   7    0.24    0.39
  -2  11  -7    0.37    0.35
   2 -11  -7    0.77    0.36
   2  11   7    0.50    0.33
   2 -11  -7   -0.20    0.28
   2  11   7    0.79    0.39
  -2  11  -7    0.51    0.33
   0   0   8   60.35    1.69
   0   0  -8   60.25    1.71
   0   0  -8   58.41    1.54
   0   0   8   59.22    1.58
   0   0   8   59.52    1.40
   0   0  -8   60.04    1.48
   2   0   8   35.56    1.31
  -2   0   8   36.56    1.26
   2   0   8   36.54    1.17
  -2   0  -8   38.32    1.35
  -2   0  -8   38.95    1.42
   2   0  -8   36.82    1.15
   2   0  -8   35.18    0.91
   2   0  -8   36.95    1.40
  -2   0   8   35.85    1.21
  -4   0   8   13.11    0.62
   4   0  -8   12.69    1.01
  -4   0   8   13.08    0.90
  -4   0  -8   13.54    1.05
  -4   0   8   12.23    0.54
   4   0   8   11.48    0.69
  -4   0  -8   12.04    0.40
  -4   0  -8   12.74    0.61
  -4   0   8   14.61    0.71
  -4   0   8   12.52    0.66
   4   0  -8   12.45    0.67
  -4   0  -8   13.26    0.66
   4   0   8   10.84    0.80
  -4   0   8   12.19    0.64
  -4   0   8   12.22    0.38
  -4   0  -8   12.68    0.56
  -4   0  -8   12.66    0.95
  -4   0  -8   12.39    0.64
  -4   0  -8   11.90    0.56
  -4   0   8   13.20    0.62
  -4   0  -8   12.52    0.66
  -6   0   8    3.85    0.55
  -6   0   8    3.82    0.45
  -6   0   8    4.09    0.51
  -6   0  -8    4.17    0.59
  -6   0   8    3.92    0.58
  -6   0  -8    3.96    0.53
  -6   0   8    3.62    0.53
   6   0   8    3.24    0.79
  -6   0   8    4.74    0.82
  -6   0  -8    3.79    0.80
   6   0  -8    3.98    0.52
  -6   0   8    3.73    0.29
  -6   0  -8    4.51    0.52
  -6   0  -8    3.67    0.54
   6   0  -8    3.72    0.84
  -6   0  -8    4.63    0.56
  -6   0  -8    3.97    0.31
   6   0   8    3.39    0.52
  -8   0   8    0.43    0.38
  -8   0  -8    0.37    0.41
  -8   0   8    0.25    0.38
  -8   0  -8    0.98    0.35
  -8   0   8    1.13    0.35
  -8   0  -8    1.15    0.40
  -8   0   8    1.13    0.45
  -8   0   8    0.90    0.25
 -10   0   8    0.30    0.26
   1   1  -8  553.28   10.83
   1  -1   8  541.07   10.61
  -1  -1  -8  548.80   10.55
  -1  -1  -8  540.87   10.21
  -1   1   8  570.67   10.84
  -1   1   8  536.81   10.61
   1   1  -8  555.82   10.52
   1  -1   8  580.09   10.89
  -1  -1  -8  568.26   10.87
   1  -1   8  532.88   10.22
  -1  -1  -8  545.65   10.70
   1   1  -8  552.81   10.65
  -1  -1   8  546.08   10.65
  -1  -1   8  521.07   10.59
   1   1   8  552.90   10.81
   1  -1  -8  553.86   10.60
  -1   1  -8  565.05   10.73
  -1  -1   8  532.20   10.59
  -1   1  -8  538.51   10.83
   1  -1  -8  561.34   10.88
   1   1   8  552.48   10.71
  -3  -1  -8  265.34    5.41
  -3  -1  -8  265.04    5.48
   3   1  -8  275.33    5.62
  -3   1   8  264.85    5.96
  -3   1   8  274.93    5.46
   3   1  -8  262.03    6.23
   3   1  -8  276.80    5.71
  -3   1   8  263.88    5.44
  -3  -1  -8  270.43    5.48
  -3  -1  -8  264.66    5.46
  -3  -1  -8  270.25    6.15
   3  -1   8  277.17    6.06
   3   1  -8  264.19    5.40
  -3   1   8  272.81    5.44
  -3  -1  -8  278.35    5.19
  -3   1   8  273.29    5.92
   3  -1   8  273.70    5.59
  -3  -1  -8  266.07    5.32
  -3   1   8  277.42    5.47
  -3   1   8  270.65    5.39
  -3   1  -8  272.26    5.46
  -3   1  -8  275.44    5.33
   3   1   8  275.13    5.78
  -3  -1   8  267.61    5.46
  -3  -1   8  265.90    5.48
  -3  -1   8  272.66    5.45
  -3   1  -8  264.80    5.38
  -3  -1   8  272.53    5.98
   3  -1  -8  275.51    6.17
  -3   1  -8  266.04    6.26
  -3  -1   8  275.08    5.17
  -3  -1   8  260.90    5.30
  -3   1  -8  275.16    5.99
  -3   1  -8  268.18    5.47
   3   1   8  275.77    6.22
  -3   1  -8  275.34    5.39
   3   1   8  275.51    5.89
   3  -1  -8  279.53    5.57
  -3  -1   8  278.72    5.55
  -3  -1   8  268.56    5.39
  -3   1  -8  265.08    5.32
   5   1  -8  127.91    3.29
  -5   1   8  130.98    3.16
   5  -1   8  127.37    3.14
  -5  -1  -8  133.62    3.14
  -5  -1  -8  126.34    4.03
  -5  -1  -8  130.32    3.20
  -5   1   8  128.73    3.76
   5  -1   8  132.81    3.73
  -5  -1  -8  132.37    3.21
   5   1  -8  127.48    2.99
   5   1  -8  127.11    4.14
  -5   1   8  125.22    3.02
  -5   1   8  127.44    3.13
  -5   1   8  130.97    3.08
  -5   1   8  126.24    3.11
  -5  -1  -8  123.34    3.07
  -5  -1  -8  128.76    2.70
  -5  -1  -8  131.06    2.99
  -5   1  -8  126.98    3.86
  -5  -1   8  138.13    3.25
  -5   1  -8  130.71    3.00
  -5  -1   8  127.58    2.95
   5  -1  -8  129.88    4.03
   5   1   8  131.21    2.92
  -5   1  -8  131.19    3.09
   5  -1  -8  132.88    3.10
  -5  -1   8  133.24    3.19
  -5   1  -8  129.42    3.17
  -5  -1   8  132.12    2.68
   5   1   8  128.08    4.10
  -5   1  -8  129.60    2.96
  -5   1  -8  129.76    2.97
  -5   1  -8  133.53    4.17
  -5  -1   8  131.48    3.05
  -5  -1   8  129.16    3.16
  -5  -1   8  121.85    3.71
  -5   1  -8  127.21    3.12
   5   1   8  127.16    3.35
  -7  -1  -8   60.06    2.11
  -7  -1  -8   60.29    1.89
  -7  -1  -8   56.49    1.89
  -7   1   8   59.69    1.77
  -7  -1  -8   60.22    1.84
  -7   1   8   59.91    2.03
  -7  -1  -8   60.06    1.98
  -7  -1  -8   58.02    2.05
  -7  -1  -8   57.30    1.54
  -7   1   8   59.26    1.91
  -7   1   8   58.62    1.98
  -7   1   8   58.87    2.02
  -7   1  -8   58.05    1.83
  -7   1  -8   58.48    2.05
  -7  -1   8   59.70    1.55
  -7   1  -8   57.76    1.92
  -7  -1   8   55.23    1.78
  -7  -1   8   59.85    2.06
  -7   1  -8   56.93    1.93
  -7  -1   8   57.58    2.08
  -7   1  -8   58.72    1.82
  -7  -1   8   54.85    2.01
  -7  -1   8   57.73    1.80
  -9  -1  -8   23.58    1.06
  -9   1   8   22.97    1.01
  -9  -1  -8   21.24    1.07
  -9   1  -8   21.73    1.10
  -9  -1   8   22.94    1.06
  -9  -1   8   22.38    0.88
  -9  -1   8   20.03    1.16
   9   1   8   22.42    1.12
   9   1   8   23.37    1.15
  -9  -1   8   22.24    1.25
  -9  -1   8   21.71    1.21
   0   2   8    0.32    0.13
   0  -2  -8    0.14    0.16
   0   2  -8    0.45    0.17
   0   2  -8    0.09    0.13
   0  -2  -8    0.35    0.15
   0   2   8    0.28    0.17
   0  -2   8    0.62    0.19
   0  -2   8    0.13    0.12
   0   2  -8    0.33    0.17
   0  -2   8    0.24    0.17
   0   2   8    0.40    0.19
   0  -2  -8    0.25    0.13
  -2   2   8    0.29    0.13
   2  -2   8    0.06    0.09
  -2   2   8    0.04    0.10
  -2  -2  -8    0.46    0.14
   2   2  -8    0.17    0.17
  -2   2   8    0.07    0.15
  -2  -2  -8   -0.03    0.16
  -2  -2  -8   -0.03    0.09
   2   2  -8    0.48    0.14
  -2   2   8    0.06    0.16
   2  -2   8   -0.06    0.10
  -2  -2  -8    0.01    0.12
  -2   2   8    0.19    0.10
   2   2  -8    0.06    0.15
   2   2  -8    0.12    0.18
   2  -2   8    0.00    0.14
  -2   2   8    0.15    0.10
  -2  -2   8    0.15    0.10
   2   2   8    0.16    0.19
   2   2   8    0.00    0.15
   2   2   8    0.23    0.17
  -2  -2   8    0.03    0.14
  -2  -2   8   -0.02    0.10
  -2  -2   8    0.68    0.15
   2  -2  -8    0.05    0.15
   2  -2  -8    0.55    0.18
  -2  -2   8    0.10    0.12
  -2   2  -8    0.02    0.09
  -2   2  -8    0.32    0.18
  -2   2  -8    0.05    0.18
  -2   2  -8    0.17    0.12
  -2  -2   8    0.09    0.12
  -2   2  -8    0.03    0.10
  -4   2   8    0.36    0.28
  -4  -2  -8    0.51    0.24
  -4  -2  -8    0.41    0.28
   4   2  -8    0.52    0.26
  -4   2   8    0.28    0.17
  -4   2   8    0.20    0.19
   4   2  -8    0.73    0.22
   4   2  -8    0.83    0.40
  -4   2   8    0.29    0.17
  -4  -2  -8    0.31    0.18
   4   2  -8    0.56    0.27
  -4  -2  -8    0.57    0.15
  -4  -2  -8    0.37    0.19
   4  -2   8    0.58    0.21
  -4   2   8    0.52    0.20
   4  -2   8    0.39    0.30
  -4   2   8    0.52    0.30
  -4   2   8    0.46    0.17
  -4  -2  -8    0.24    0.20
  -4   2   8    0.57    0.22
  -4  -2  -8    0.69    0.23
   4   2   8    0.89    0.41
   4   2   8    0.84    0.22
  -4   2  -8    0.21    0.26
  -4  -2   8    0.61    0.22
  -4   2  -8    0.45    0.24
  -4   2  -8    0.34    0.19
   4   2   8    0.64    0.29
   4  -2  -8    0.31    0.16
  -4  -2   8    0.43    0.21
   4  -2  -8    0.63    0.33
  -4   2  -8    0.71    0.39
  -4   2  -8    0.49    0.18
  -4  -2   8    0.56    0.15
  -4  -2   8    0.47    0.28
  -4  -2   8    0.33    0.18
  -4  -2   8    0.95    0.23
  -4  -2   8    0.35    0.20
  -4   2  -8    0.29    0.19
  -6   2   8    0.39    0.25
  -6  -2  -8    0.71    0.34
   6  -2   8    0.84    0.30
   6   2  -8    0.49    0.33
  -6  -2  -8    0.70    0.30
  -6   2   8    0.02    0.37
  -6  -2  -8    0.61    0.28
  -6   2   8    1.01    0.33
   6   2  -8    0.87    0.31
  -6   2   8    1.13    0.35
  -6  -2  -8    0.24    0.19
   6   2  -8   -0.03    0.42
  -6   2   8    0.48    0.26
  -6  -2  -8    0.82    0.36
  -6   2   8    0.78    0.31
  -6  -2  -8    0.57    0.31
  -6  -2  -8    0.44    0.47
   6   2   8    0.36    0.33
   6   2   8    0.46    0.26
  -6  -2   8    0.70    0.21
  -6  -2   8    0.32    0.32
  -6  -2   8    0.79    0.29
   6  -2  -8    0.39    0.48
  -6  -2   8    0.81    0.33
   6  -2  -8    0.84    0.27
  -6  -2   8    0.23    0.27
   6   2   8    1.22    0.58
  -6   2  -8    0.46    0.30
  -6  -2   8    0.46    0.26
  -6   2  -8    0.65    0.30
  -6  -2   8    0.78    0.44
  -6   2  -8    0.71    0.52
  -6   2  -8    0.47    0.30
  -6   2  -8    0.85    0.26
  -8   2   8   -0.13    0.29
  -8  -2  -8    0.27    0.31
  -8   2   8   -0.21    0.33
   8   2  -8    0.30    0.30
  -8  -2  -8    0.65    0.33
  -8  -2  -8    0.16    0.21
  -8  -2  -8    0.09    0.36
  -8  -2   8    0.27    0.37
  -8  -2   8    0.51    0.30
  -8  -2   8    0.13    0.36
  -8  -2   8    0.22    0.21
  -8  -2   8    0.06    0.33
  -8  -2   8    0.20    0.30
  -8   2  -8    0.66    0.41
  -8   2  -8    0.33    0.39
 -10  -2  -8   -0.14    0.20
 -10  -2   8    0.10    0.23
  -1  -3  -8  581.84   10.81
   1   3  -8  563.74   11.10
  -1  -3  -8  584.72   11.28
  -1   3   8  550.95   10.60
  -1   3   8  569.33   10.48
  -1  -3  -8  566.53   10.99
   1   3  -8  537.95   10.58
   1   3  -8  553.57   10.67
  -1   3   8  561.98   10.67
   1   3  -8  588.37   11.25
   1  -3   8  561.88   10.99
  -1   3   8  550.13   10.59
  -1  -3  -8  546.16   10.66
   1  -3   8  581.52   10.80
   1  -3   8  554.17   11.26
   1   3  -8  573.14   11.11
  -1   3   8  566.74   11.37
   1   3   8  576.76   11.17
  -1   3  -8  557.17   10.53
   1  -3  -8  565.21   10.99
   1  -3  -8  559.85   11.01
  -1  -3   8  547.03   11.01
  -1  -3   8  554.35   11.04
  -1   3  -8  527.50   10.67
  -1   3  -8  527.64   11.35
  -1   3  -8  563.67   10.68
  -1  -3   8  561.44   10.93
   1   3   8  553.85   11.12
   1   3   8  557.48   11.18
   1  -3  -8  585.76   11.14
   1   3   8  575.01   10.64
  -1   3  -8  565.63   10.77
   3  -3   8  357.56    7.85
  -3   3   8  357.80    6.96
  -3  -3  -8  356.33    7.91
   3   3  -8  355.10    6.92
  -3  -3  -8  363.05    6.83
  -3  -3  -8  353.16    7.04
  -3   3   8  349.26    7.05
   3   3  -8  357.40    7.92
  -3  -3  -8  350.13    7.07
   3   3  -8  348.64    7.56
  -3   3   8  358.57    7.04
   3  -3   8  355.86    7.14
  -3   3   8  342.06    6.88
  -3   3   8  355.20    7.63
  -3   3   8  353.95    6.61
  -3   3   8  352.34    7.86
   3   3  -8  349.95    6.95
  -3  -3  -8  351.71    6.99
  -3   3   8  343.70    6.91
  -3  -3  -8  350.54    6.84
   3   3  -8  347.98    7.51
  -3   3   8  343.57    6.94
  -3  -3  -8  361.95    7.06
  -3  -3   8  343.97    7.02
  -3  -3   8  355.95    6.91
   3   3   8  345.21    7.29
   3  -3  -8  355.67    7.59
  -3   3  -8  351.83    7.04
  -3   3  -8  345.55    7.06
  -3  -3   8  353.89    7.00
   3   3   8  348.40    7.55
  -3   3  -8  347.47    6.83
  -3   3  -8  346.08    7.99
   3   3   8  349.69    7.88
   3  -3  -8  359.99    7.16
  -3  -3   8  341.97    6.93
  -3  -3   8  351.66    6.98
   3  -3  -8  357.18    6.81
   3   3   8  356.72    6.94
  -3  -3   8  347.37    7.63
  -3  -3   8  353.50    6.81
  -3   3  -8  349.57    7.00
  -3   3  -8  357.13    6.98
  -3   3  -8  352.47    6.64
  -5  -3  -8  187.88    5.44
  -5   3   8  181.24    4.14
  -5  -3  -8  187.30    3.93
  -5   3   8  180.28    4.08
  -5  -3  -8  185.75    4.36
   5   3  -8  189.36    5.47
  -5   3   8  178.22    4.91
  -5   3   8  178.46    5.01
  -5  -3  -8  183.64    4.23
  -5   3   8  187.46    4.26
  -5   3   8  181.55    4.24
  -5  -3  -8  191.73    4.08
  -5  -3  -8  187.11    4.35
  -5   3   8  183.78    4.12
   5  -3   8  187.43    4.19
  -5  -3  -8  182.84    4.25
   5   3  -8  177.00    4.67
   5  -3   8  188.28    5.17
  -5   3   8  180.87    4.03
   5   3  -8  194.72    4.18
  -5  -3   8  180.57    4.99
  -5  -3   8  192.54    4.37
  -5   3  -8  181.95    4.28
   5   3   8  183.31    4.77
   5   3   8  184.68    5.37
  -5  -3   8  187.28    3.92
  -5   3  -8  183.49    5.42
  -5   3  -8  188.88    4.18
  -5  -3   8  193.58    4.14
  -5   3  -8  186.66    4.27
  -5   3  -8  187.44    4.01
   5   3   8  188.47    4.13
   5  -3  -8  179.75    4.93
  -5  -3   8  184.07    4.29
   5  -3  -8  188.70    4.14
  -5  -3   8  185.57    4.28
  -7   3   8   85.85    2.54
  -7  -3  -8   80.71    2.52
  -7  -3  -8   84.23    2.39
  -7  -3  -8   79.65    2.35
  -7  -3  -8   82.38    2.18
   7   3  -8   85.59    2.42
  -7   3   8   79.92    2.43
  -7  -3  -8   83.46    2.67
  -7  -3  -8   80.64    2.61
  -7   3   8   82.50    2.41
  -7  -3   8   82.72    2.18
  -7   3  -8   80.47    2.52
  -7   3  -8   83.58    2.50
  -7  -3   8   82.11    2.32
  -7  -3   8   83.35    2.61
  -7  -3   8   85.08    2.63
   7   3   8   83.17    2.36
  -7  -3   8   85.04    2.42
  -7  -3   8   84.30    2.69
  -7   3  -8   82.79    2.28
  -9  -3  -8   31.59    1.27
  -9  -3   8   30.80    1.25
   0  -4  -8    0.07    0.11
   0   4   8    0.06    0.12
   0  -4  -8   -0.08    0.11
   0   4  -8    0.16    0.11
   0  -4  -8    0.07    0.14
   0   4  -8    0.25    0.13
   0   4  -8    0.19    0.12
   0  -4   8   -0.01    0.15
   0   4  -8   -0.14    0.18
   0   4   8   -0.06    0.09
   0   4  -8    0.03    0.09
   0  -4   8   -0.02    0.16
   0  -4   8    0.16    0.14
   0   4   8    0.03    0.09
   0  -4   8    0.12    0.16
   0   4   8   -0.05    0.17
   0   4   8    0.21    0.17
   0  -4   8    0.09    0.12
   0   4  -8   -0.04    0.14
   0  -4  -8    0.15    0.13
   0  -4  -8    0.30    0.21
  -2   4   8    0.17    0.15
   2   4  -8    0.23    0.15
  -2   4   8    0.19    0.25
   2  -4   8    0.30    0.14
  -2  -4  -8    0.62    0.16
   2   4  -8    0.40    0.24
  -2  -4  -8    0.11    0.22
   2  -4   8    0.10    0.15
   2  -4   8    0.07    0.16
   2   4  -8    0.09    0.14
   2   4  -8    0.04    0.24
  -2   4   8    0.30    0.15
  -2  -4  -8    0.25    0.17
  -2   4   8    0.28    0.16
  -2   4   8    0.15    0.10
  -2  -4  -8    0.31    0.20
  -2  -4  -8    0.14    0.15
  -2   4   8    0.39    0.17
   2  -4   8    0.18    0.23
   2   4  -8    0.24    0.23
   2  -4  -8    0.26    0.17
   2   4   8    0.02    0.17
   2   4   8   -0.11    0.18
  -2  -4   8    0.25    0.13
  -2   4  -8    0.51    0.31
   2   4   8    0.38    0.17
  -2   4  -8    0.06    0.13
  -2  -4   8    0.21    0.22
  -2   4  -8    0.13    0.16
   2   4   8    0.56    0.19
   2  -4  -8    0.16    0.24
  -2   4  -8    0.23    0.13
  -2   4  -8    0.16    0.15
  -2  -4   8    0.37    0.18
   2  -4  -8    0.26    0.15
  -2  -4   8    0.15    0.16
   2  -4  -8    0.59    0.25
  -2  -4   8   -0.02    0.13
   2   4   8    0.12    0.15
   2   4   8    0.01    0.20
  -2   4  -8    0.19    0.14
  -2  -4   8    0.05    0.11
  -2  -4   8    0.18    0.15
  -4  -4  -8    0.71    0.21
   4  -4   8    0.93    0.26
  -4  -4  -8    0.86    0.27
   4   4  -8    0.84    0.25
   4   4  -8    0.97    0.45
  -4   4   8    0.92    0.25
  -4   4   8    0.99    0.28
  -4  -4  -8    0.95    0.28
  -4   4   8    0.75    0.26
  -4  -4  -8    0.56    0.37
  -4   4   8    0.75    0.24
  -4   4   8    1.31    0.17
  -4   4   8    1.09    0.47
  -4  -4  -8    1.27    0.26
   4   4  -8    0.52    0.32
  -4  -4  -8    1.49    0.34
   4   4  -8    1.23    0.44
   4  -4   8    0.99    0.43
  -4  -4  -8    0.88    0.28
  -4   4  -8    1.20    0.30
  -4  -4   8    0.74    0.35
   4  -4  -8    0.72    0.32
  -4  -4   8    1.12    0.24
  -4  -4   8    1.25    0.29
  -4  -4   8    0.67    0.26
   4  -4  -8    1.20    0.30
   4   4   8    0.99    0.27
  -4  -4   8    1.06    0.28
   4   4   8    1.15    0.41
  -4   4  -8    0.99    0.26
  -4   4  -8    0.73    0.16
  -4  -4   8    1.26    0.28
  -4   4  -8    1.12    0.30
  -4  -4   8    1.21    0.30
   4   4   8    0.77    0.43
  -4   4  -8    0.67    0.44
  -4   4  -8    0.83    0.24
   6   4  -8    0.77    0.31
  -6   4   8    0.47    0.27
  -6  -4  -8   -0.01    0.20
  -6  -4  -8    0.38    0.33
  -6  -4  -8    0.77    0.30
  -6   4   8    0.03    0.25
  -6   4   8    0.58    0.34
  -6  -4  -8    0.04    0.26
  -6  -4  -8    0.22    0.28
   6  -4   8    1.36    0.67
  -6   4   8    0.71    0.35
  -6  -4  -8    0.80    0.38
  -6  -4  -8    0.62    0.29
  -6  -4   8    0.40    0.31
  -6  -4   8    0.58    0.31
  -6  -4   8    0.52    0.33
  -6   4  -8   -0.02    0.58
  -6   4  -8    0.99    0.36
  -6   4  -8    0.67    0.32
  -6  -4   8    0.42    0.25
  -6  -4   8   -0.03    0.20
   6   4   8    0.49    0.31
  -6  -4   8    0.08    0.27
  -6   4  -8    0.10    0.25
  -8  -4  -8    0.92    0.39
  -8   4   8    0.41    0.34
   8   4  -8   -0.13    0.29
  -8  -4  -8    0.68    0.42
  -8  -4  -8    0.21    0.30
  -8  -4   8   -0.02    0.33
   8   4   8    0.26    0.31
  -8  -4   8   -0.43    0.25
  -8   4  -8    0.41    0.34
   8   4   8    0.31    0.32
  -8  -4   8   -0.01    0.34
   8   4   8    0.11    0.31
  -8  -4   8    0.37    0.27
  -8  -4   8    0.07    0.27
 -10  -4  -8    0.23    0.22
 -10  -4   8    0.15    0.23
  -1  -5  -8  198.34    4.61
  -1   5   8  203.21    4.29
  -1  -5  -8  197.85    4.13
  -1   5   8  205.04    4.25
  -1  -5  -8  204.68    4.79
  -1  -5  -8  198.29    4.19
  -1  -5  -8  202.71    4.30
   1   5  -8  201.60    5.11
   1  -5   8  200.22    4.07
  -1   5   8  199.08    5.11
   1  -5   8  202.29    4.34
   1   5  -8  204.52    4.22
  -1   5   8  201.70    4.24
   1   5  -8  197.36    4.26
  -1   5   8  200.77    4.20
   1  -5   8  203.17    4.99
   1  -5   8  197.26    4.68
   1  -5   8  203.36    4.60
  -1   5   8  205.18    4.08
  -1   5  -8  205.62    4.24
  -1  -5   8  200.71    4.54
  -1  -5   8  202.64    4.33
   1  -5  -8  202.39    4.54
   1   5   8  195.61    4.83
  -1  -5   8  206.86    4.14
  -1   5  -8  204.40    4.26
   1   5   8  206.28    4.88
   1   5   8  201.15    4.15
   1   5   8  199.29    4.16
  -1   5  -8  200.98    4.15
   1   5   8  200.89    4.12
   1  -5  -8  205.03    4.75
   1  -5  -8  206.10    4.26
  -1   5  -8  202.39    5.19
   1  -5  -8  196.19    4.65
  -1   5  -8  201.63    4.34
  -1   5  -8  205.08    4.13
  -1  -5   8  205.66    4.82
   1   5   8  201.43    4.29
   3   5  -8  145.45    3.30
  -3   5   8  146.29    3.36
  -3   5   8  145.49    3.31
   3   5  -8  147.71    4.08
  -3   5   8  143.07    3.00
   3   5  -8  139.99    4.11
  -3  -5  -8  149.00    3.15
   3  -5   8  138.30    4.23
  -3  -5  -8  140.00    4.14
  -3   5   8  150.44    3.44
   3  -5   8  140.87    3.58
  -3  -5  -8  146.97    3.40
   3   5  -8  145.61    3.22
  -3   5   8  146.82    4.36
  -3  -5  -8  145.17    3.38
  -3   5   8  150.45    3.36
   3   5  -8  145.32    3.99
   3  -5   8  141.18    3.05
  -3  -5  -8  145.27    3.09
   3  -5  -8  141.73    3.89
   3   5   8  143.62    3.29
   3   5   8  140.52    3.27
  -3  -5   8  143.17    3.24
  -3  -5   8  143.07    3.16
  -3  -5   8  143.13    3.40
  -3   5  -8  142.24    3.36
  -3   5  -8  142.63    3.38
   3   5   8  150.79    4.04
  -3  -5   8  148.56    4.06
  -3  -5   8  141.07    3.26
  -3   5  -8  146.65    4.45
   3  -5  -8  141.21    3.23
  -3  -5   8  142.79    3.23
  -3   5  -8  144.22    3.39
   3   5   8  140.08    3.32
   3  -5  -8  138.58    3.57
  -3  -5   8  142.60    3.28
  -3   5  -8  147.46    3.07
   3   5   8  141.95    4.19
  -3   5  -8  146.19    3.40
   5  -5   8   83.24    2.43
  -5  -5  -8   83.54    3.41
  -5  -5  -8   84.55    2.51
   5   5  -8   84.60    2.32
   5   5  -8   85.45    3.40
  -5  -5  -8   83.81    2.38
   5  -5   8   83.31    3.31
  -5   5   8   83.05    2.33
  -5  -5  -8   86.33    2.22
  -5   5   8   86.15    1.89
  -5  -5  -8   80.39    2.18
  -5   5   8   80.07    3.29
  -5  -5  -8   82.33    2.23
   5   5  -8   79.37    3.05
  -5   5   8   79.79    2.35
  -5  -5  -8   84.60    2.49
   5   5  -8   82.19    2.99
  -5   5   8   83.36    2.35
  -5   5   8   83.71    2.46
  -5  -5  -8   83.98    2.40
  -5  -5   8   79.90    2.29
  -5   5  -8   80.66    2.40
  -5  -5   8   82.46    2.40
  -5   5  -8   83.63    1.94
   5  -5  -8   78.62    2.88
  -5   5  -8   83.83    2.45
   5  -5  -8   85.28    2.39
  -5  -5   8   82.99    2.44
   5   5   8   80.95    2.33
  -5  -5   8   80.39    3.05
  -5  -5   8   85.86    2.41
   5   5   8   88.03    3.06
  -5   5  -8   85.94    2.43
  -5   5  -8   78.40    3.36
  -5  -5   8   86.44    2.45
  -5   5  -8   81.49    2.36
  -5  -5   8   82.88    2.18
   5   5   8   79.50    3.28
  -7  -5  -8   39.54    1.49
  -7  -5  -8   40.05    1.73
  -7   5   8   38.59    1.60
  -7   5   8   41.40    1.56
  -7  -5  -8   39.60    1.48
   7   5  -8   37.67    1.47
   7   5  -8   37.61    1.59
  -7   5  -8   40.13    1.62
   7   5   8   38.41    1.53
  -7   5  -8   41.24    1.57
  -7  -5   8   38.29    1.41
  -7  -5   8   37.17    1.51
  -7  -5   8   40.84    1.47
  -7  -5   8   38.77    1.68
  -7   5  -8   40.46    1.63
  -7  -5   8   38.35    1.62
  -9  -5  -8   15.11    0.83
  -9  -5   8   16.56    0.84
   0   6   8   13.38    0.57
   0   6   8   11.36    0.60
   0   6   8   11.47    0.58
   0   6   8   10.85    0.85
   0  -6  -8   10.96    0.59
   0  -6   8   10.14    0.93
   0  -6   8   12.46    0.57
   0   6  -8   12.78    0.58
   0  -6   8   12.34    0.90
   0  -6  -8    9.91    0.88
   0   6   8   11.82    1.12
   0   6   8   10.75    0.64
   0   6  -8   10.36    0.58
   0  -6   8   12.65    0.70
   0   6  -8   11.25    0.57
   0   6  -8   12.95    0.69
   0   6  -8   11.47    0.61
   0   6  -8   12.73    1.25
   0  -6  -8   11.74    0.66
   0  -6  -8   12.29    0.85
   0  -6   8   11.10    0.98
  -2   6   8    8.96    0.60
   2   6  -8    9.12    0.57
  -2   6   8    9.19    0.62
   2   6  -8    8.87    0.59
   2   6  -8    9.51    1.11
   2  -6   8    8.13    1.02
  -2   6   8    9.43    0.62
  -2  -6  -8    8.43    0.60
  -2   6   8    9.99    0.49
   2  -6   8    9.14    0.65
  -2   6   8    9.22    0.60
  -2  -6  -8    8.33    0.96
   2  -6   8   10.05    0.88
  -2   6   8    9.50    1.11
   2  -6   8    8.35    0.82
  -2  -6  -8    9.12    0.87
  -2  -6  -8    9.39    0.65
  -2   6  -8    8.66    0.62
  -2   6  -8    9.80    0.65
   2   6   8    7.87    0.67
  -2   6  -8   10.22    0.57
   2   6   8    7.81    0.55
   2  -6  -8    9.06    0.60
  -2   6  -8   10.67    1.22
   2  -6  -8    9.08    0.85
   2   6   8    8.90    0.52
  -2  -6   8    9.23    0.55
   2   6   8    9.08    1.04
  -2   6  -8    9.19    0.52
   2  -6  -8    9.29    0.95
  -2  -6   8    9.43    0.66
   2   6   8    9.03    0.57
  -2   6  -8   10.01    0.61
  -2  -6   8    9.28    0.97
  -4  -6  -8    5.48    0.64
  -4   6   8    4.65    0.56
  -4   6   8    4.42    0.89
   4  -6   8    4.38    0.62
  -4  -6  -8    4.94    0.91
  -4   6   8    6.33    0.66
  -4   6   8    5.37    0.61
  -4  -6  -8    5.06    0.50
   4   6  -8    5.19    0.57
   4  -6   8    4.55    0.57
   4   6  -8    4.59    0.55
   4  -6   8    4.31    0.86
  -4   6   8    5.16    0.63
  -4  -6  -8    5.27    0.52
   4   6  -8    4.60    0.85
  -4  -6  -8    4.07    0.57
  -4   6   8    4.69    0.40
  -4   6  -8    4.42    0.57
  -4  -6   8    5.25    0.56
   4  -6  -8    5.18    0.55
   4   6   8    4.01    0.55
  -4  -6   8    5.17    0.63
  -4  -6   8    4.74    0.79
  -4   6  -8    7.25    1.14
   4   6   8    5.66    0.58
   4  -6  -8    5.01    0.63
  -4   6  -8    4.38    0.42
  -4   6  -8    4.75    0.58
   4   6   8    4.84    0.89
  -4  -6   8    5.46    0.53
   4   6   8    4.82    0.55
  -4  -6   8    4.74    0.54
  -4  -6   8    5.74    0.60
  -4   6  -8    4.43    0.57
   4  -6  -8    3.84    0.72
   6   6  -8    1.85    0.42
  -6  -6  -8    1.61    0.49
   6   6  -8    1.76    0.45
  -6   6   8    2.19    0.51
  -6   6   8    2.35    0.30
  -6   6   8    1.82    0.44
   6  -6   8    1.08    0.40
  -6  -6  -8    2.01    0.42
  -6  -6  -8    1.61    0.36
  -6   6   8    1.60    0.42
  -6  -6  -8    2.00    0.41
  -6   6  -8    1.86    0.30
   6   6   8    1.44    0.42
  -6  -6   8    2.17    0.41
  -6  -6   8    1.50    0.44
  -6  -6   8    1.52    0.40
   6   6   8    1.95    0.45
  -6  -6   8    2.39    0.42
  -6   6  -8    2.06    0.48
  -6  -6   8    1.50    0.44
  -6  -6   8    2.68    0.56
  -6   6  -8    2.37    0.52
  -6   6  -8    2.32    0.48
   6   6   8    1.27    0.40
  -8  -6  -8    0.82    0.34
  -8  -6   8    0.94    0.32
  -1   7   8  118.32    3.88
   1  -7   8  119.04    3.45
   1  -7   8  118.03    3.68
  -1   7   8  119.75    2.73
  -1  -7  -8  117.76    3.01
  -1   7   8  121.15    2.99
   1  -7   8  121.25    3.06
  -1  -7  -8  122.32    2.91
   1  -7   8  121.78    3.51
  -1   7   8  118.12    2.89
  -1  -7  -8  118.27    3.48
  -1   7   8  118.17    2.90
   1   7  -8  121.05    2.97
   1   7  -8  115.33    3.96
   1   7  -8  122.38    2.93
   1  -7  -8  120.67    3.56
  -1  -7   8  114.26    3.56
   1  -7  -8  118.49    3.44
   1  -7  -8  118.05    2.99
  -1   7  -8  124.61    2.95
  -1   7  -8  122.67    2.78
  -1   7  -8  123.75    2.89
  -1   7  -8  121.27    4.05
  -1   7  -8  122.44    3.07
  -1   7  -8  116.32    2.86
   1   7   8  123.65    3.74
   1   7   8  121.45    2.85
   1   7   8  119.45    2.98
  -1  -7   8  118.18    3.06
  -1  -7   8  117.11    2.73
   3  -7   8   87.61    3.43
  -3  -7  -8   91.25    2.59
   3   7  -8   91.61    2.48
  -3   7   8   93.60    2.52
   3  -7   8   87.98    2.87
  -3   7   8   92.48    2.60
   3   7  -8   89.50    3.43
  -3   7   8   87.16    3.51
  -3   7   8   90.70    2.52
  -3   7   8   90.45    2.21
   3  -7   8   91.96    2.57
  -3  -7  -8   91.68    2.58
   3   7  -8   90.60    2.38
  -3   7   8   89.87    2.50
  -3   7  -8   94.32    2.65
  -3   7  -8   95.04    2.60
   3  -7  -8   90.42    2.49
  -3  -7   8   93.65    2.38
  -3   7  -8   93.91    2.30
   3  -7  -8   87.29    2.84
  -3  -7   8   90.97    3.24
  -3   7  -8   92.94    3.67
  -3   7  -8   92.97    2.54
   3  -7  -8   93.86    3.14
   3   7   8   96.19    3.47
  -3  -7   8   89.35    2.63
   3   7   8   88.72    2.53
   5  -7   8   53.69    1.89
  -5  -7  -8   54.80    1.92
   5   7  -8   55.44    1.86
  -5   7   8   55.32    1.91
  -5  -7  -8   53.51    1.69
  -5  -7  -8   55.60    1.72
  -5   7   8   54.54    2.01
  -5   7   8   53.52    1.51
  -5   7   8   57.22    1.92
   5   7  -8   55.96    1.86
  -5  -7  -8   54.65    2.02
  -5  -7   8   55.71    1.82
  -5  -7   8   51.04    1.70
  -5   7  -8   56.58    1.60
  -5  -7   8   57.81    2.03
   5   7   8   54.36    1.83
  -5   7  -8   57.81    1.98
  -5   7  -8   53.59    1.96
  -5   7  -8   53.64    1.96
   5   7   8   54.35    1.86
   5   7   8   55.93    1.93
  -7  -7  -8   26.29    1.38
  -7  -7  -8   25.79    1.10
   7   7  -8   24.32    1.24
  -7  -7  -8   25.64    1.13
  -7   7   8   26.84    0.91
  -7   7   8   25.83    1.22
  -7  -7  -8   26.33    1.13
   7   7  -8   25.00    1.15
  -7   7   8   25.73    1.31
   7   7   8   26.94    1.25
  -7   7  -8   25.66    0.94
  -7   7  -8   26.93    1.31
  -7  -7   8   27.91    1.16
  -7   7  -8   27.58    1.28
  -7  -7   8   26.01    1.20
   7  -7  -8   26.50    1.19
   7   7   8   26.68    1.27
   7   7   8   25.00    1.23
  -7  -7   8   27.25    1.10
  -9  -7  -8   10.50    0.59
  -9  -7   8   11.79    0.61
   0   8  -8    0.13    0.43
   0   8   8    0.23    0.24
   0  -8   8   -0.22    0.34
   0  -8  -8    0.61    0.40
   0  -8   8    0.11    0.22
   0  -8  -8    0.64    0.32
   0   8  -8   -0.10    0.22
   0   8   8    0.45    0.44
   0   8   8    0.09    0.22
   0   8  -8    0.06    0.21
   0  -8  -8    0.25    0.22
   0  -8   8    0.28    0.28
  -2  -8  -8   -0.06    0.29
  -2   8   8    0.30    0.28
  -2   8   8   -0.12    0.22
  -2   8   8    0.45    0.22
   2  -8   8    0.00    0.33
   2   8  -8   -0.10    0.22
   2  -8   8   -0.01    0.23
  -2  -8  -8    0.35    0.28
   2   8  -8    0.03    0.50
  -2   8   8    0.13    0.49
   2  -8   8    0.69    0.50
  -2  -8  -8    0.63    0.45
  -2   8   8   -0.33    0.19
   2  -8   8    0.13    0.37
  -2   8   8    0.10    0.24
  -2  -8   8   -0.02    0.23
   2  -8  -8   -0.11    0.34
  -2   8  -8    0.14    0.20
  -2   8  -8    0.00    0.24
   2  -8  -8    0.18    0.26
   2   8   8    0.14    0.32
   2   8   8    0.31    0.22
   2  -8  -8    0.09    0.34
  -2   8  -8    0.71    0.31
  -2  -8   8    0.28    0.41
  -2   8  -8    0.03    0.25
   2   8   8   -0.03    0.48
  -2   8  -8   -0.01    0.20
  -2   8  -8   -0.34    0.43
  -2  -8   8   -0.20    0.25
   4  -8   8   -0.02    0.27
  -4   8   8    0.06    0.20
  -4   8   8   -0.09    0.26
   4   8  -8    0.09    0.27
   4   8  -8   -0.29    0.26
  -4   8   8    0.02    0.25
  -4  -8  -8    0.24    0.36
  -4   8   8   -0.21    0.27
  -4  -8  -8    0.05    0.32
  -4   8  -8    0.53    0.25
  -4   8  -8    0.41    0.34
  -4   8  -8   -0.24    0.24
  -4   8  -8   -0.28    0.26
   4   8   8    0.34    0.39
   4  -8  -8    0.53    0.32
  -4  -8   8    0.26    0.29
  -4  -8   8   -0.05    0.29
  -6   8   8    0.47    0.33
  -6   8   8    0.31    0.22
  -6   8   8   -0.09    0.31
   6   8  -8    0.04    0.32
  -6  -8  -8    0.04    0.36
  -6  -8  -8   -0.12    0.26
   6   8  -8    0.25    0.30
  -6  -8   8   -0.06    0.37
  -6   8  -8   -0.09    0.20
  -6   8  -8    0.40    0.35
   6   8   8    0.55    0.40
  -6   8  -8    0.22    0.33
  -6  -8   8   -0.08    0.29
  -6   8  -8    0.61    0.37
  -8  -8  -8    0.22    0.24
   1   9  -8  109.39    2.99
  -1  -9  -8  117.88    3.17
   1  -9   8  113.78    3.03
   1  -9   8  116.16    3.18
  -1   9   8  112.67    2.77
  -1   9   8  116.91    3.04
  -1   9   8  112.34    3.02
   1   9  -8  112.90    3.00
   1  -9  -8  111.02    2.93
  -1  -9   8  115.46    3.22
  -1   9  -8  112.61    2.98
   1  -9  -8  113.22    3.11
  -1   9  -8  110.04    3.13
   1   9   8  112.78    3.06
   1   9   8  110.20    2.92
   3  -9   8   89.46    2.64
  -3  -9  -8   83.46    2.58
   3   9  -8   89.41    2.58
   3  -9   8   91.23    2.65
  -3  -9  -8   83.77    2.62
  -3   9   8   90.36    2.33
  -3   9   8   85.26    2.56
  -3   9   8   83.43    2.61
  -3   9  -8   86.32    2.54
  -3   9  -8   90.44    2.76
   3  -9  -8   88.43    2.61
   3   9   8   82.05    2.58
  -3   9  -8   87.60    2.35
  -5   9   8   52.54    1.95
  -5   9   8   47.49    1.51
   5  -9   8   48.81    1.76
  -5   9   8   49.12    1.79
   5   9  -8   47.19    1.73
  -5  -9  -8   50.97    1.93
   5  -9  -8   50.29    1.81
  -5   9  -8   47.76    1.81
  -5   9  -8   48.63    1.56
  -5   9  -8   50.00    1.95
   5   9   8   48.75    1.86
  -5  -9   8   52.03    1.98
   0  10  -8   -0.05    0.25
   0 -10  -8    0.23    0.33
   0  10   8    0.40    0.32
   0  10  -8    0.12    0.26
   0 -10   8   -0.02    0.32
   0  10   8    0.22    0.31
  -2  10   8   -0.23    0.25
   2 -10   8    0.33    0.33
  -2 -10  -8   -0.09    0.35
   2  10  -8   -0.18    0.23
  -2  10   8   -0.22    0.22
  -2  10   8   -0.05    0.29
   2 -10   8    0.33    0.34
  -2  10  -8    0.50    0.32
  -2  10  -8   -0.07    0.26
   2 -10  -8    0.36    0.35
  -2 -10   8   -0.07    0.30
   2 -10  -8    0.22    0.30
   2  10   8   -0.42    0.25
  -2  10  -8    0.21    0.26
   2  10   8   -0.39    0.24
  -4  10   8   -0.03    0.23
  -4 -10  -8    0.17    0.36
   4 -10   8   -0.10    0.33
  -4 -10  -8    0.24    0.37
   4 -10   8    0.10    0.35
  -4  10   8   -0.19    0.29
   4  10  -8    0.07    0.26
  -4  10   8    0.02    0.30
  -4  10  -8    0.04    0.28
  -4 -10   8    0.25    0.36
   4 -10  -8    0.01    0.28
  -4  10  -8   -0.09    0.31
  -4  10  -8   -0.06    0.23
   4 -10  -8    0.29    0.31
   4  10   8    0.18    0.35
  -1  11   8   34.76    1.44
   1 -11   8   37.91    1.59
   1 -11   8   33.45    1.42
  -1 -11  -8   35.33    1.55
  -1  11  -8   36.08    1.46
   1  11   8   37.12    1.44
   1 -11  -8   36.04    1.55
   1  11   8   35.36    1.46
  -1  11  -8   32.66    1.47
  -3  11   8   27.47    1.27
   3  11  -8   27.87    1.26
  -3  11  -8   27.15    1.35
   3 -11  -8   27.72    1.30
   3 -11  -8   28.45    1.25
  -3 -11   8   30.09    1.43
  -1   0  -9   88.78    2.37
   1   0  -9   89.12    1.91
   1   0  -9   93.37    2.23
   1   0   9   89.18    2.24
  -1   0   9   90.11    2.18
  -1   0   9   88.77    2.31
  -1   0  -9   89.68    2.29
   1   0  -9   90.49    2.41
  -1   0   9   87.53    2.18
  -1   0  -9   88.15    2.12
   1   0   9   90.04    2.39
  -3   0  -9   42.17    1.75
   3   0   9   44.21    1.62
  -3   0  -9   40.31    1.62
  -3   0   9   42.25    0.96
  -3   0  -9   41.83    1.12
  -3   0   9   41.77    1.21
  -3   0   9   42.14    1.20
  -3   0   9   42.75    1.45
  -3   0  -9   42.29    1.24
  -3   0   9   42.09    1.56
  -3   0   9   43.21    1.23
  -3   0   9   42.71    1.25
   3   0   9   41.06    1.39
  -3   0  -9   41.52    1.23
  -3   0   9   40.79    1.15
  -3   0  -9   40.57    1.13
   3   0  -9   42.26    1.73
   3   0  -9   42.87    1.36
  -5   0  -9   17.53    0.88
   5   0  -9   17.40    1.35
   5   0  -9   17.42    0.90
  -5   0  -9   15.90    1.24
  -5   0  -9   16.33    0.77
  -5   0   9   17.12    0.55
  -5   0   9   17.54    0.89
  -5   0   9   17.29    1.18
  -5   0  -9   17.40    0.86
  -5   0   9   15.86    0.70
  -5   0   9   16.05    0.86
  -5   0  -9   15.97    0.87
  -5   0  -9   16.37    0.81
  -5   0   9   15.81    0.86
   5   0   9   18.56    1.19
  -5   0   9   17.52    0.83
  -5   0  -9   16.27    0.56
   5   0   9   18.38    0.97
   5   0   9   15.24    1.47
  -7   0  -9    6.42    0.43
  -7   0   9    6.29    0.42
  -7   0  -9    6.11    0.68
  -7   0   9    5.53    0.70
  -7   0   9    4.20    0.64
  -7   0   9    5.98    0.62
  -7   0  -9    5.00    0.70
  -7   0   9    6.87    0.78
  -7   0   9    7.42    0.73
  -7   0  -9    6.68    0.75
  -7   0  -9    6.53    0.68
  -7   0  -9    5.52    0.66
  -7   0  -9    5.85    0.61
  -9   0  -9    1.18    0.35
  -9   0   9    1.48    0.38
  -9   0  -9    1.38    0.48
   0  -1  -9    9.92    0.64
   0  -1   9    9.52    0.62
   0  -1  -9    9.49    0.45
   0   1   9   10.34    0.47
   0  -1   9   10.25    0.46
   0   1  -9    8.56    0.58
   0   1   9    9.99    0.57
   0   1  -9    9.98    0.55
   0   1  -9    9.76    0.56
   0  -1   9    9.96    0.56
   0  -1  -9    9.58    0.54
   0   1   9    9.71    0.62
  -2   1   9    7.33    0.40
  -2   1   9    7.19    0.41
  -2   1   9    8.04    0.42
   2  -1   9    8.92    0.66
   2   1  -9    7.84    0.43
   2   1  -9    8.67    0.48
  -2   1   9    8.65    0.40
   2  -1   9    9.27    0.54
  -2  -1  -9    8.47    0.44
  -2  -1  -9    9.84    0.69
  -2   1   9    8.67    0.43
  -2   1   9    7.52    0.60
   2   1  -9    8.88    0.69
  -2  -1  -9    9.23    0.67
  -2  -1  -9    7.59    0.34
   2   1  -9    8.55    0.55
  -2   1   9    6.48    0.60
  -2   1   9    7.79    0.30
  -2  -1   9    8.47    0.59
  -2   1  -9    8.31    0.45
   2   1   9    8.60    0.63
   2  -1  -9   11.58    0.58
   2   1   9    7.53    0.42
  -2   1  -9    8.22    0.61
  -2   1  -9    7.70    0.41
  -2  -1   9    7.60    0.41
  -2  -1   9    7.90    0.33
  -2  -1   9    7.53    0.42
  -2  -1   9    7.45    0.40
  -2   1  -9    7.30    0.73
   2  -1  -9    8.36    0.66
  -2   1  -9    8.03    0.34
   2   1   9    7.36    0.63
   2   1   9    8.12    0.42
  -2   1  -9    8.90    0.43
  -2  -1   9    8.69    0.54
  -4  -1  -9    7.64    0.52
   4   1  -9    7.75    0.51
  -4  -1  -9    8.67    0.58
  -4  -1  -9    7.82    0.45
  -4   1   9    6.97    0.50
  -4   1   9    8.30    0.52
   4   1  -9    8.45    0.73
  -4  -1  -9    8.10    0.39
  -4   1   9    7.68    0.79
  -4   1   9    7.56    0.54
  -4   1   9    7.77    0.30
   4   1  -9    7.77    0.95
  -4   1   9    7.37    0.53
   4  -1   9    9.00    0.92
   4  -1   9    8.01    0.66
  -4  -1  -9    6.37    0.56
  -4  -1  -9    7.15    0.60
  -4  -1  -9    7.11    0.87
  -4   1   9    7.98    0.53
  -4  -1  -9    7.25    0.47
  -4   1   9   10.11    0.93
  -4  -1   9    8.22    0.47
  -4  -1   9    7.67    0.50
   4   1   9    7.46    0.44
  -4   1  -9    8.30    0.49
  -4   1  -9    8.21    0.50
   4  -1  -9    8.65    0.57
  -4   1  -9    7.67    0.56
   4   1   9    6.34    0.88
  -4   1  -9    6.71    0.89
  -4  -1   9    8.02    0.55
   4  -1  -9    7.10    0.90
  -4  -1   9    8.83    0.38
  -4   1  -9    7.82    0.49
  -4   1  -9    7.63    0.52
  -4  -1   9    7.03    0.59
   4  -1  -9    7.89    0.44
  -4   1  -9    8.09    0.32
   4   1   9    9.06    0.85
  -4  -1   9    7.81    0.84
  -4   1  -9    7.78    0.52
  -4  -1   9    8.00    0.57
  -4   1  -9    7.97    0.88
   4   1   9    8.19    0.73
   6   1  -9    5.08    0.98
   6   1  -9    4.84    0.62
  -6  -1  -9    4.77    0.95
  -6   1   9    4.94    0.63
  -6  -1  -9    6.10    0.60
   6  -1   9    4.81    0.96
  -6   1   9    5.41    0.59
  -6   1   9    5.14    0.57
  -6   1   9    5.27    0.63
  -6  -1  -9    5.90    0.42
  -6  -1  -9    5.96    0.65
  -6  -1  -9    5.80    0.69
   6  -1   9    5.41    0.61
  -6   1   9    5.27    0.88
  -6   1   9    4.99    0.31
  -6  -1  -9    5.97    0.70
  -6   1   9    5.29    0.64
  -6  -1  -9    6.56    0.68
  -6  -1   9    4.87    0.52
  -6   1  -9    6.43    1.01
  -6  -1   9    5.14    0.64
  -6  -1   9    5.19    0.58
  -6  -1   9    4.87    0.63
  -6  -1   9    5.58    0.90
  -6   1  -9    5.44    0.57
  -6  -1   9    5.27    0.66
  -6   1  -9    5.14    0.60
   6   1   9    4.81    0.65
  -6   1  -9    5.75    0.69
  -6   1  -9    6.19    0.65
  -6   1  -9    6.06    0.60
  -6   1  -9    5.52    0.34
   6  -1  -9    6.47    1.04
  -6  -1   9    5.28    0.38
   6   1   9    5.15    0.97
   6  -1  -9    5.24    0.57
  -8  -1  -9    3.58    0.55
  -8  -1  -9    2.27    0.44
  -8   1   9    2.68    0.58
   8   1  -9    2.61    0.49
  -8   1   9    2.21    0.31
  -8   1   9    2.10    0.49
  -8  -1  -9    2.54    0.56
  -8   1   9    2.72    0.50
  -8   1   9    1.94    0.50
  -8   1   9    2.95    0.46
  -8  -1  -9    2.29    0.35
  -8  -1   9    2.58    0.46
  -8   1  -9    1.96    0.51
  -8   1  -9    2.99    0.54
  -8  -1   9    2.34    0.45
  -8  -1   9    1.35    0.49
  -8  -1   9    2.21    0.56
  -8  -1   9    2.12    0.53
  -8   1  -9    3.09    0.35
   8   1   9    1.69    0.47
   8   1   9    1.62    0.42
  -8  -1   9    2.49    0.36
 -10  -1  -9    0.93    0.29
 -10  -1   9    0.63    0.27
  -1  -2  -9   19.02    0.80
  -1  -2  -9   19.08    0.96
   1  -2   9   19.27    0.96
  -1   2   9   19.70    0.99
   1  -2   9   21.18    0.68
  -1  -2  -9   19.64    0.66
   1  -2   9   20.70    0.86
   1   2  -9   20.39    0.89
   1   2  -9   19.92    0.86
  -1   2   9   20.49    0.85
   1   2  -9   19.99    0.93
   1   2   9   19.67    0.94
  -1  -2   9   19.74    0.86
  -1   2  -9   21.72    1.02
   1  -2  -9   18.82    0.93
   1  -2  -9   19.77    0.84
  -1  -2   9   19.25    0.83
   1   2   9   21.44    0.91
  -1   2  -9   19.32    0.84
  -1  -2   9   20.42    0.86
  -3  -2  -9    8.36    0.44
  -3  -2  -9    7.09    0.82
  -3   2   9    8.21    0.31
  -3  -2  -9    8.91    0.53
   3   2  -9    7.94    0.89
   3  -2   9    8.89    0.91
   3   2  -9    7.71    0.69
  -3   2   9    8.79    0.45
  -3  -2  -9    7.46    0.49
  -3   2   9    8.04    0.50
  -3   2   9    8.53    0.49
  -3   2   9    9.77    0.88
   3   2  -9    8.18    0.61
  -3   2   9    8.50    0.86
  -3   2   9    7.70    0.46
   3   2  -9    7.99    0.48
   3  -2   9    6.61    0.57
  -3  -2  -9    8.48    0.40
   3  -2   9    8.30    0.42
  -3  -2  -9   10.25    0.55
  -3   2   9    9.24    0.53
  -3  -2  -9    8.15    0.48
  -3  -2  -9    7.82    0.41
  -3   2   9    9.67    0.52
   3  -2   9    8.17    0.42
  -3  -2   9    8.85    0.51
   3  -2  -9    8.60    0.56
  -3  -2   9    7.97    0.77
  -3  -2   9    8.26    0.39
   3   2   9    8.95    0.65
   3   2   9    7.18    0.70
  -3   2  -9    7.47    0.87
  -3   2  -9    8.27    0.48
  -3   2  -9    7.32    0.47
  -3  -2   9    7.85    0.51
  -3   2  -9    7.60    0.33
  -3   2  -9    7.71    0.62
   3  -2  -9    7.13    0.77
   3   2   9    8.89    0.45
  -3  -2   9    8.97    0.49
  -3  -2   9    8.36    0.51
  -3   2  -9    7.77    0.49
  -3   2  -9    8.37    0.44
  -3  -2   9    8.36    0.45
  -3   2  -9    9.45    0.50
   3   2   9    9.22    0.95
   5  -2   9    2.09    0.57
  -5   2   9    2.62    0.41
  -5   2   9    2.63    0.43
  -5  -2  -9    2.12    0.61
   5   2  -9    3.34    0.54
   5   2  -9    2.15    0.65
  -5   2   9    2.62    0.41
  -5   2   9    2.99    0.43
  -5  -2  -9    3.00    0.45
  -5  -2  -9    3.98    0.55
  -5  -2  -9    2.47    0.38
  -5  -2  -9    2.55    0.45
  -5   2   9    3.36    0.66
  -5   2   9    3.43    0.46
  -5  -2  -9    2.75    0.43
   5  -2   9    2.66    0.41
  -5  -2  -9    2.83    0.32
  -5  -2   9    2.88    0.32
   5   2   9    2.95    0.39
  -5   2  -9    2.97    0.40
  -5  -2   9    2.92    0.47
  -5  -2   9    2.68    0.60
  -5  -2   9    2.53    0.43
  -5   2  -9    2.79    0.74
  -5  -2   9    2.12    0.40
  -5   2  -9    2.34    0.37
  -5   2  -9    2.28    0.42
   5   2   9    2.53    0.49
   5  -2  -9    2.40    0.62
  -5   2  -9    2.83    0.45
   5   2   9    2.55    0.67
  -5  -2   9    2.51    0.37
  -5  -2   9    2.68    0.40
   5  -2  -9    2.89    0.39
   7   2  -9    1.01    0.36
  -7   2   9    1.05    0.38
  -7  -2  -9    0.68    0.37
  -7  -2  -9    0.95    0.39
  -7  -2  -9    1.14    0.40
  -7   2   9    1.28    0.36
  -7  -2  -9    0.79    0.42
  -7   2   9    0.65    0.37
  -7   2   9    0.62    0.37
  -7  -2  -9    1.15    0.29
  -7   2   9    0.97    0.38
  -7  -2  -9    0.65    0.31
  -7   2   9    1.05    0.37
  -7  -2  -9    0.49    0.32
  -7  -2   9    0.97    0.27
  -7   2  -9    1.19    0.41
  -7   2  -9    0.59    0.33
  -7  -2   9    0.96    0.40
  -7  -2   9    1.24    0.41
  -7  -2   9    0.92    0.34
  -7  -2   9    1.00    0.36
  -7   2  -9    1.75    0.46
  -7  -2   9    1.32    0.41
  -9  -2  -9    0.20    0.34
  -9  -2  -9    0.19    0.27
  -9  -2   9    0.06    0.28
   0   3  -9    0.76    0.18
   0  -3  -9    1.43    0.33
   0   3   9    1.75    0.33
   0  -3  -9    1.04    0.25
   0   3  -9    1.55    0.31
   0   3   9    1.65    0.27
   0  -3  -9    1.39    0.22
   0  -3  -9    1.22    0.25
   0   3  -9    1.48    0.28
   0  -3  -9    1.18    0.20
   0  -3   9    1.36    0.29
   0   3   9    1.10    0.31
   0   3   9    1.71    0.23
   0  -3   9    1.09    0.20
   0   3  -9    1.33    0.33
   0  -3   9    1.33    0.26
   0  -3   9    1.35    0.32
  -2  -3  -9    0.18    0.22
  -2   3   9    0.38    0.14
  -2  -3  -9    0.57    0.19
  -2   3   9    0.75    0.13
   2   3  -9    0.81    0.30
  -2  -3  -9    0.72    0.16
  -2  -3  -9    1.08    0.18
  -2  -3  -9    0.71    0.19
   2   3  -9    0.77    0.26
   2   3  -9    1.05    0.31
  -2   3   9    0.76    0.29
  -2  -3  -9    0.70    0.19
  -2   3   9    0.64    0.19
  -2   3   9    0.49    0.15
  -2   3   9    0.52    0.15
   2  -3   9    0.57    0.26
   2  -3   9    0.61    0.18
  -2   3   9    1.17    0.23
   2   3  -9    0.45    0.16
   2   3  -9    0.49    0.16
   2  -3   9    0.15    0.16
  -2   3   9    0.82    0.18
   2  -3   9    0.76    0.17
   2  -3  -9    0.51    0.26
  -2  -3   9    0.45    0.18
   2  -3  -9    0.50    0.21
  -2   3  -9    0.41    0.18
  -2  -3   9    0.23    0.21
   2   3   9    0.44    0.20
  -2   3  -9    0.53    0.16
   2   3   9    0.52    0.25
   2   3   9    0.71    0.29
  -2   3  -9    0.68    0.21
   2   3   9    0.40    0.15
  -2  -3   9    0.63    0.18
  -2   3  -9    0.77    0.19
  -2  -3   9    0.25    0.13
  -2  -3   9    0.54    0.14
  -2  -3   9    0.47    0.17
  -2   3  -9    0.46    0.14
   2   3   9    0.59    0.18
  -2   3  -9    0.39    0.15
  -2  -3   9    0.60    0.17
  -2  -3   9    0.76    0.18
  -2   3  -9    0.71    0.35
   2   3   9    0.73    0.18
   2  -3  -9    0.35    0.19
  -4   3   9    0.10    0.09
   4  -3   9    0.32    0.32
  -4   3   9   -0.16    0.15
  -4  -3  -9   -0.01    0.16
   4   3  -9    0.12    0.30
  -4   3   9    0.19    0.16
   4   3  -9    0.12    0.27
  -4  -3  -9   -0.21    0.14
  -4   3   9    0.07    0.15
   4   3  -9    0.16    0.16
  -4  -3  -9    0.16    0.27
  -4  -3  -9    0.18    0.15
   4   3  -9    0.09    0.16
  -4   3   9   -0.22    0.15
   4  -3   9   -0.20    0.14
   4   3  -9    0.08    0.23
  -4   3   9   -0.02    0.18
  -4  -3  -9    0.28    0.22
  -4   3   9    0.26    0.17
  -4   3   9    0.35    0.25
  -4  -3  -9   -0.02    0.20
  -4  -3  -9    0.21    0.20
  -4   3   9    0.12    0.28
  -4  -3   9    0.30    0.17
  -4   3  -9   -0.06    0.15
  -4  -3   9    0.04    0.16
   4   3   9    0.01    0.24
   4  -3  -9   -0.02    0.28
  -4  -3   9    0.11    0.17
  -4  -3   9    0.06    0.24
  -4   3  -9    0.33    0.36
  -4  -3   9    0.10    0.19
   4   3   9    0.05    0.31
   4   3   9    0.19    0.18
  -4   3  -9   -0.14    0.18
  -4   3  -9    0.06    0.15
  -4   3  -9    0.02    0.18
  -4   3  -9    0.09    0.17
  -4   3  -9    0.17    0.14
   4  -3  -9    0.01    0.18
  -4  -3   9   -0.07    0.17
  -4  -3   9   -0.14    0.18
  -6  -3  -9    0.08    0.20
  -6  -3  -9   -0.08    0.29
  -6  -3  -9    0.34    0.27
  -6   3   9   -0.12    0.22
  -6  -3  -9   -0.27    0.43
   6  -3   9   -0.10    0.45
  -6  -3  -9    0.01    0.28
  -6  -3  -9    0.30    0.28
   6  -3   9    0.39    0.30
   6   3  -9    0.06    0.34
  -6   3   9   -0.16    0.23
  -6   3   9    0.29    0.30
  -6  -3  -9    0.32    0.24
   6   3  -9   -0.31    0.43
  -6  -3  -9    0.12    0.24
   6   3  -9   -0.19    0.22
   6  -3  -9   -0.09    0.24
  -6  -3   9    0.83    0.50
   6   3   9    0.12    0.24
  -6   3  -9   -0.07    0.27
  -6  -3   9    0.22    0.30
  -6   3  -9    0.08    0.27
  -6  -3   9   -0.25    0.24
  -6  -3   9    0.38    0.27
  -6  -3   9    0.23    0.24
   6   3   9    0.17    0.36
  -6  -3   9    0.21    0.21
  -6   3  -9    0.16    0.51
   6  -3  -9    0.23    0.40
  -6  -3   9    0.13    0.28
  -6   3  -9    0.05    0.27
   6   3   9    0.34    0.53
  -6   3  -9    0.17    0.24
  -8   3   9    0.05    0.32
  -8  -3  -9    0.25    0.32
  -8  -3  -9    0.27    0.30
  -8   3   9    0.39    0.38
  -8  -3  -9    0.25    0.24
  -8  -3  -9    0.07    0.38
   8   3  -9    0.00    0.29
  -8  -3   9    0.10    0.35
  -8  -3   9    0.07    0.34
  -8  -3   9    0.25    0.39
  -8   3  -9    0.17    0.34
  -8  -3   9    0.23    0.30
  -8  -3   9    0.11    0.25
   8   3   9   -0.34    0.28
  -8  -3   9    0.22    0.29
   8   3   9    0.13    0.29
  -8   3  -9   -0.25    0.33
 -10  -3  -9   -0.20    0.20
 -10  -3   9    0.21    0.23
   1   4  -9   10.36    0.73
  -1   4   9   10.27    0.49
  -1  -4  -9    9.09    0.52
  -1   4   9   11.54    0.87
  -1   4   9    9.43    0.48
   1  -4   9   10.48    0.68
   1  -4   9   10.29    0.55
   1  -4   9   11.26    0.48
   1   4  -9   10.96    0.51
  -1   4   9   10.44    0.43
   1   4  -9   10.60    0.54
  -1  -4  -9   10.50    0.49
  -1  -4  -9    9.85    0.61
  -1   4   9   10.21    0.50
   1  -4   9   11.30    0.80
  -1   4   9   10.56    0.53
  -1  -4  -9    9.65    0.66
  -1   4   9   10.13    0.51
   1  -4   9   10.06    0.62
  -1  -4  -9    8.71    0.47
   1   4  -9   10.64    0.81
   1   4  -9   10.76    0.70
  -1  -4  -9   10.52    0.75
   1  -4  -9   10.19    0.51
   1  -4  -9   11.07    0.52
  -1   4  -9   10.52    0.46
  -1  -4   9   10.41    0.53
  -1   4  -9    9.49    0.50
   1   4   9    9.98    0.85
  -1  -4   9   11.08    0.70
  -1  -4   9    9.63    0.69
  -1   4  -9   10.17    0.54
   1   4   9   10.07    0.43
   1   4   9    9.37    0.73
   1  -4  -9   10.16    0.69
  -1  -4   9   10.70    0.49
   1   4   9   10.88    0.75
  -1  -4   9   10.20    0.67
  -1   4  -9    9.13    0.93
  -1   4  -9   10.11    0.45
   1   4   9   10.38    0.52
  -1   4  -9    9.66    0.49
   1   4   9   10.83    0.56
   1  -4  -9    9.23    0.65
   1  -4  -9   11.01    0.69
   1   4   9    9.82    0.50
  -3   4   9    6.04    0.33
   3  -4   9    6.00    0.83
  -3  -4  -9    4.75    0.73
  -3  -4  -9    5.58    0.39
  -3  -4  -9    6.01    0.56
  -3   4   9    5.29    0.48
   3   4  -9    5.10    0.71
   3   4  -9    4.58    0.70
   3   4  -9    6.96    0.78
   3  -4   9    4.98    0.41
  -3   4   9    5.44    0.49
  -3  -4  -9    4.68    0.49
   3   4  -9    4.11    0.43
  -3   4   9    5.15    0.52
  -3  -4  -9    5.50    0.43
  -3   4   9    6.25    0.55
   3   4  -9    5.40    0.48
  -3   4   9    4.68    0.76
   3  -4   9    5.12    0.55
  -3   4  -9    4.72    0.36
   3   4   9    5.25    0.49
  -3  -4   9    5.18    0.49
   3  -4  -9    4.84    0.55
  -3  -4   9    5.16    0.50
   3   4   9    5.35    0.49
   3  -4  -9    6.28    0.71
   3   4   9    3.90    0.60
  -3   4  -9    5.65    0.84
  -3   4  -9    5.19    0.51
  -3  -4   9    5.34    0.72
   3  -4  -9    5.78    0.46
   3   4   9    5.60    0.82
  -3  -4   9    5.06    0.48
   3  -4  -9    4.81    0.64
  -3   4  -9    5.58    0.52
  -3  -4   9    5.85    0.51
  -3  -4   9    5.03    0.45
  -3   4  -9    5.00    0.49
  -3  -4   9    5.59    0.40
   3   4   9    4.41    0.46
  -3   4  -9    6.17    0.57
  -5   4   9    4.52    0.57
  -5   4   9    2.02    0.37
  -5  -4  -9    2.42    0.39
  -5   4   9    1.56    0.55
   5   4  -9    2.39    0.75
  -5  -4  -9    2.00    0.33
   5  -4   9    2.23    0.42
  -5  -4  -9    2.15    0.45
   5  -4   9    2.91    0.70
  -5   4   9    1.97    0.40
  -5  -4  -9    2.12    0.45
  -5   4   9    2.15    0.23
   5   4  -9    1.80    0.49
  -5   4   9    1.98    0.42
  -5  -4  -9    2.40    0.44
   5   4  -9    1.70    0.36
  -5  -4  -9    1.45    0.59
  -5  -4  -9    1.50    0.36
  -5   4  -9    2.06    0.42
  -5  -4   9    2.27    0.45
  -5   4  -9    2.50    0.27
   5   4   9    1.67    0.49
   5   4   9    1.65    0.62
  -5  -4   9    2.37    0.35
  -5  -4   9    1.81    0.42
  -5  -4   9    1.92    0.41
   5  -4  -9    2.36    0.58
  -5  -4   9    2.42    0.43
  -5   4  -9    2.80    0.49
  -5  -4   9    2.14    0.38
   5   4   9    2.78    0.44
  -5   4  -9    2.18    0.40
   5  -4  -9    1.67    0.35
  -5  -4   9    2.17    0.59
  -5   4  -9    2.51    0.41
  -5   4  -9    2.44    0.73
  -7  -4  -9    1.19    0.38
  -7  -4  -9    1.38    0.48
  -7   4   9    0.48    0.33
  -7   4   9    1.02    0.40
  -7   4   9    0.69    0.40
  -7  -4  -9    0.77    0.33
   7   4  -9    0.50    0.32
  -7  -4   9    0.76    0.39
   7   4   9    1.08    0.38
  -7  -4   9    0.94    0.38
  -7   4  -9    0.65    0.37
  -7  -4   9    0.71    0.40
  -7   4  -9    0.75    0.37
  -7   4  -9    1.04    0.37
  -7  -4   9    0.87    0.33
  -7  -4   9    0.46    0.26
  -7  -4   9    1.31    0.45
  -9  -4  -9    0.10    0.26
  -9  -4   9    0.48    0.31
   0  -5  -9    6.51    0.69
   0  -5   9    6.01    0.39
   0  -5   9    6.64    0.71
   0   5   9    5.19    0.47
   0   5  -9    5.77    0.40
   0  -5  -9    7.58    0.73
   0   5  -9    6.48    0.41
   0   5   9    6.42    0.80
   0  -5  -9    5.65    0.63
   0  -5   9    5.26    0.61
   0   5  -9    5.86    0.41
   0  -5   9    5.48    0.50
   0   5   9    6.58    0.67
   0   5  -9    5.56    0.51
   0   5   9    6.33    0.40
   0  -5  -9    6.62    0.48
   0   5  -9    6.59    0.84
   0   5   9    7.06    0.43
   0  -5  -9    6.47    0.43
   0   5   9    6.08    0.37
   0   5  -9    5.92    0.39
   0  -5   9    7.39    0.77
   2   5  -9    5.43    0.78
  -2   5   9    6.96    0.55
  -2   5   9    5.69    0.36
  -2  -5  -9    6.50    0.48
   2   5  -9    6.33    0.73
   2  -5   9    6.37    0.62
   2   5  -9    5.47    0.50
  -2  -5  -9    6.18    0.53
   2  -5   9    5.71    0.64
   2  -5   9    6.01    0.82
  -2   5   9    6.86    0.91
  -2   5   9    5.81    0.54
   2  -5   9    4.54    0.49
  -2  -5  -9    7.74    0.55
  -2   5   9    7.36    0.51
  -2   5   9    5.85    0.54
  -2  -5  -9    6.01    0.78
   2  -5   9    6.07    0.40
  -2  -5  -9    6.07    0.63
   2   5  -9    5.86    0.51
   2   5   9    5.77    0.50
  -2  -5   9    5.58    0.40
  -2   5  -9    5.30    0.51
  -2   5  -9    5.82    0.45
  -2   5  -9    6.71    0.93
  -2  -5   9    6.13    0.55
   2   5   9    5.48    0.77
  -2   5  -9    5.88    0.52
  -2   5  -9    6.32    0.41
   2   5   9    6.40    0.56
   2   5   9    6.43    0.53
  -2  -5   9    6.35    0.76
   2   5   9    6.57    0.73
   2  -5  -9    6.09    0.71
   2  -5  -9    5.28    0.48
  -2   5  -9    5.97    0.55
   2  -5  -9    5.98    0.65
  -2  -5   9    6.62    0.46
  -4  -5  -9    3.90    0.53
   4   5  -9    4.99    0.82
   4  -5   9    5.05    0.60
  -4   5   9    4.98    0.35
  -4   5   9    4.18    0.52
   4   5  -9    4.28    0.50
  -4   5   9    3.46    0.76
  -4  -5  -9    5.56    0.50
  -4   5   9    5.29    0.62
  -4  -5  -9    5.09    0.91
  -4   5   9    4.43    0.52
   4   5  -9    4.97    0.75
  -4  -5  -9    4.33    0.45
  -4  -5  -9    5.39    0.63
   4   5  -9    5.94    0.96
   4  -5   9    6.34    0.98
  -4   5   9    5.31    0.58
  -4   5  -9    4.65    0.40
   4   5   9    4.44    0.86
  -4   5  -9    4.09    0.55
  -4   5  -9    4.71    0.57
  -4  -5   9    4.97    0.56
   4   5   9    4.99    0.57
  -4  -5   9    4.88    0.57
  -4  -5   9    5.34    0.81
   4   5   9    4.27    0.72
   4  -5  -9    5.04    0.60
  -4   5  -9    4.84    0.56
  -4   5  -9    3.94    0.86
   4  -5  -9    4.27    0.69
  -4  -5   9    6.18    0.61
  -4  -5   9    4.84    0.47
  -4   5  -9    5.87    0.61
   4   5   9    4.83    0.55
  -4  -5   9    5.15    0.54
  -4  -5   9    5.18    0.56
   4   5   9    4.97    0.55
  -6  -5  -9    2.72    0.46
  -6  -5  -9    3.04    0.58
   6   5  -9    3.82    0.53
  -6   5   9    3.43    0.33
  -6  -5  -9    2.90    0.43
  -6   5   9    3.39    0.58
  -6  -5  -9    2.83    0.45
  -6  -5  -9    3.72    0.59
  -6   5   9    3.95    0.58
  -6   5   9    2.59    0.52
  -6  -5   9    2.63    0.48
   6   5   9    2.60    0.49
  -6   5  -9    2.47    0.33
  -6  -5   9    3.25    0.57
   6   5   9    2.79    0.48
  -6   5  -9    3.42    0.54
  -6   5  -9    4.09    0.61
  -6  -5   9    2.83    0.54
   6   5   9    2.63    0.50
  -6  -5   9    3.36    0.45
  -6  -5   9    2.32    0.41
  -6   5  -9    3.10    0.54
  -6  -5   9    2.91    0.54
  -8  -5  -9    1.60    0.36
  -8   5   9    1.28    0.44
  -8  -5  -9    1.95    0.53
   8   5  -9    1.62    0.40
   8   5  -9    0.80    0.42
  -8  -5  -9    1.47    0.42
  -8   5   9    0.67    0.37
  -8  -5  -9    2.01    0.43
   8   5   9    1.46    0.45
  -8  -5   9    1.62    0.48
  -8  -5   9    1.92    0.45
  -8  -5   9    0.72    0.31
  -8  -5   9    0.80    0.35
   8   5   9    0.96    0.42
   8   5   9    1.85    0.42
  -8  -5   9    1.33    0.36
  -8   5  -9    0.92    0.42
 -10  -5  -9    0.50    0.22
 -10  -5   9    0.91    0.26
  -1  -6  -9   24.46    0.92
  -1   6   9   23.83    0.92
   1  -6   9   24.28    0.83
   1  -6   9   24.15    1.00
  -1  -6  -9   22.92    0.98
   1  -6   9   22.45    1.21
  -1   6   9   22.91    0.82
   1  -6   9   22.81    1.17
   1   6  -9   24.46    0.97
   1  -6   9   22.09    1.33
  -1   6   9   22.64    0.96
  -1   6   9   23.00    1.44
  -1   6   9   22.85    0.92
  -1  -6  -9   24.18    1.24
  -1  -6  -9   24.57    1.20
  -1  -6  -9   22.89    0.86
   1   6  -9   22.85    0.91
   1   6  -9   21.68    1.42
   1   6   9   23.41    0.86
  -1   6  -9   21.44    0.85
   1   6   9   25.02    1.35
   1   6   9   23.28    0.97
  -1   6  -9   23.68    1.01
  -1   6  -9   25.44    0.94
   1  -6  -9   23.40    0.96
   1  -6  -9   24.42    1.23
  -1   6  -9   24.91    1.54
  -1   6  -9   25.01    0.96
  -1   6  -9   23.62    0.86
  -1  -6   9   23.75    0.86
   1  -6  -9   21.66    1.21
  -1  -6   9   24.12    1.02
   1   6   9   23.37    1.32
  -1  -6   9   24.36    1.30
  -3  -6  -9   19.09    1.34
  -3   6   9   17.06    0.68
   3   6  -9   18.44    1.35
   3   6  -9   17.07    0.85
   3   6  -9   16.02    0.78
  -3   6   9   13.88    1.47
   3  -6   9   16.98    1.04
   3  -6   9   15.73    0.89
   3   6  -9   16.78    0.81
  -3   6   9   18.16    0.91
   3  -6   9   16.87    1.33
  -3   6   9   16.24    0.85
  -3   6   9   17.61    0.93
  -3  -6  -9   17.90    0.92
  -3   6   9   16.57    0.86
  -3  -6  -9   18.37    0.94
   3   6   9   16.99    1.30
  -3   6  -9   18.79    0.94
   3  -6  -9   16.39    0.83
  -3   6  -9   16.15    1.63
   3  -6  -9   17.80    1.05
  -3  -6   9   16.69    0.81
  -3   6  -9   16.17    0.86
   3   6   9   17.79    0.84
  -3  -6   9   16.19    1.38
   3   6   9   16.77    0.90
  -3   6  -9   18.53    0.75
  -3  -6   9   16.28    0.92
   3  -6  -9   18.98    1.23
   3   6   9   15.87    0.81
  -3   6  -9   17.47    0.93
  -5   6   9    8.04    0.77
   5   6  -9    7.97    0.75
  -5  -6  -9    8.16    0.69
  -5  -6  -9    9.61    0.64
  -5  -6  -9    9.39    0.90
  -5  -6  -9    8.23    0.62
   5   6  -9    7.92    0.75
  -5   6   9    7.90    0.77
  -5   6   9    9.65    0.83
  -5  -6  -9   10.01    0.90
  -5   6   9    8.89    0.86
  -5   6   9    8.28    0.50
   5   6   9    8.39    0.79
  -5  -6   9    9.83    0.72
  -5   6  -9    9.80    0.87
  -5  -6   9    8.68    0.68
  -5   6  -9    8.42    0.54
  -5  -6   9    8.08    0.81
  -5  -6   9    8.58    0.83
  -5  -6   9    9.68    0.83
  -5   6  -9    8.64    0.81
  -5  -6   9    7.95    0.68
  -5   6  -9    7.14    0.78
   5   6   9    8.22    0.80
   5   6   9    9.11    0.83
  -7  -6  -9    4.38    0.53
  -7   6   9    5.08    0.66
  -7   6   9    4.18    0.38
   7   6  -9    4.51    0.61
   7  -6   9    5.09    0.66
   7   6  -9    3.79    0.59
  -7  -6  -9    3.18    0.52
  -7   6   9    3.74    0.62
  -7  -6  -9    3.83    0.66
  -7  -6  -9    4.04    0.53
   7   6   9    3.45    0.56
   7   6   9    3.73    0.61
  -7  -6   9    3.87    0.51
  -7  -6   9    4.66    0.63
  -7   6  -9    4.41    0.66
   7  -6  -9    3.64    0.54
  -7  -6   9    4.20    0.68
  -7  -6   9    4.06    0.64
  -7  -6   9    3.15    0.48
  -7   6  -9    3.12    0.55
   7   6   9    3.83    0.61
  -7   6  -9    3.33    0.39
  -9  -6  -9    1.47    0.34
  -9  -6   9    1.45    0.32
   0   7  -9    4.47    0.44
   0   7  -9    2.81    0.70
   0   7  -9    4.31    0.48
   0  -7   9    4.20    0.42
   0  -7   9    4.62    0.73
   0   7  -9    3.86    0.50
   0   7   9    4.84    0.81
   0   7   9    4.55    0.53
   0   7   9    4.42    0.42
   0  -7   9    3.93    0.52
   0  -7  -9    3.91    0.45
   0   7   9    4.64    0.49
   0  -7  -9    3.50    0.62
   0  -7   9    4.11    0.47
   0  -7  -9    4.85    0.56
  -2   7   9    3.53    0.51
  -2   7   9    5.24    0.94
  -2  -7  -9    5.40    0.62
  -2  -7  -9    4.62    0.55
  -2   7   9    4.27    0.51
   2   7  -9    3.97    0.49
   2  -7   9    4.40    0.68
   2  -7   9    2.67    0.55
  -2   7   9    4.32    0.54
   2   7  -9    4.18    0.50
   2  -7   9    4.21    0.56
  -2   7   9    3.55    0.48
  -2  -7  -9    4.45    0.72
   2   7  -9    4.55    0.89
  -2   7   9    3.47    0.38
   2  -7   9    4.03    0.79
  -2   7  -9    3.49    0.51
  -2   7  -9    3.62    0.44
  -2   7  -9    4.01    0.44
  -2  -7   9    4.46    0.59
   2  -7  -9    3.82    0.67
  -2   7  -9    3.51    0.47
  -2   7  -9    6.08    1.05
   2   7   9    4.48    0.84
  -2  -7   9    4.05    0.74
   2   7   9    4.49    0.47
  -2   7  -9    3.91    0.55
   2  -7  -9    5.22    0.72
   2  -7  -9    3.12    0.47
   2   7   9    4.47    0.57
  -2  -7   9    3.82    0.45
  -4   7   9    3.22    0.55
   4   7  -9    3.44    0.52
  -4   7   9    3.06    0.37
  -4  -7  -9    3.54    0.56
  -4   7   9    4.26    0.61
  -4   7   9    3.08    0.51
  -4   7   9    3.98    0.57
   4   7  -9    2.31    0.43
   4  -7   9    2.35    0.47
  -4  -7  -9    2.54    0.50
   4   7   9    3.06    0.49
   4   7   9    2.96    0.53
  -4   7  -9    2.80    0.38
   4   7   9    2.96    0.48
  -4  -7   9    3.06    0.47
   4  -7  -9    2.00    0.42
  -4   7  -9    1.96    0.44
  -4   7  -9    2.76    0.51
  -4  -7   9    2.73    0.51
  -4   7  -9    3.21    0.53
   6   7  -9    2.16    0.46
  -6   7   9    1.88    0.50
  -6  -7  -9    2.31    0.51
  -6   7   9    1.91    0.45
  -6  -7  -9    1.92    0.41
  -6   7   9    2.00    0.33
   6  -7   9    1.32    0.45
   6   7  -9    1.52    0.41
  -6  -7  -9    1.79    0.40
  -6  -7   9    1.88    0.48
   6   7   9    1.74    0.44
  -6   7  -9    1.31    0.44
   6  -7  -9    1.13    0.38
  -6   7  -9    1.33    0.41
   6   7   9    1.51    0.46
  -6  -7   9    1.41    0.39
  -6   7  -9    1.48    0.47
  -6   7  -9    1.62    0.32
  -6  -7   9    1.36    0.42
   6   7   9    1.06    0.41
  -8  -7  -9    0.75    0.31
  -8  -7   9    0.40    0.30
  -1   8   9    4.03    0.52
   1  -8   9    3.77    0.70
  -1  -8  -9    3.17    0.69
   1  -8   9    2.85    0.45
   1  -8   9    2.51    0.48
   1   8  -9    3.75    0.50
  -1  -8  -9    4.73    0.62
  -1   8   9    3.99    0.83
   1   8  -9    3.42    0.84
  -1   8   9    4.33    0.55
  -1   8   9    3.50    0.42
   1   8  -9    2.77    0.45
  -1   8   9    4.40    0.57
  -1  -8   9    3.04    0.53
   1  -8  -9    2.49    0.62
  -1   8  -9    3.44    0.87
  -1   8  -9    3.04    0.50
   1  -8  -9    3.47    0.52
   1   8   9    2.52    0.40
  -1   8  -9    3.11    0.44
   1   8   9    3.47    0.52
   1  -8  -9    3.69    0.50
  -1   8  -9    3.96    0.50
  -1  -8   9    3.70    0.77
  -1   8  -9    2.82    0.40
  -3   8   9    2.82    0.39
  -3   8   9    3.45    0.53
  -3  -8  -9    2.03    0.49
  -3   8   9    2.07    0.45
   3  -8   9    2.99    0.52
   3   8  -9    2.92    0.50
  -3   8   9    2.76    0.49
  -3  -8  -9    2.60    0.51
  -3   8  -9    2.58    0.49
  -3  -8   9    2.49    0.51
  -3   8  -9    2.34    0.46
   3   8   9    2.21    0.50
   3  -8  -9    3.17    0.53
  -3   8  -9    2.43    0.39
  -3  -8   9    3.75    0.50
  -3   8  -9    2.98    0.54
   5   8  -9    1.79    0.46
  -5  -8  -9    0.86    0.41
  -5   8   9    1.14    0.29
  -5   8   9    1.84    0.45
  -5  -8  -9    1.50    0.45
   5   8  -9    1.39    0.39
   5  -8   9    1.33    0.41
  -5   8   9    1.90    0.48
   5   8   9    1.91    0.55
  -5  -8   9    1.67    0.41
  -5   8  -9    1.18    0.43
  -5   8  -9    1.77    0.47
  -5  -8   9    1.35    0.43
  -5   8  -9    1.32    0.41
  -5   8  -9    1.84    0.35
  -7  -8  -9    1.35    0.35
   0  -9  -9    0.04    0.30
   0   9   9    0.02    0.24
   0   9  -9    0.25    0.28
   0  -9   9   -0.21    0.25
   0   9  -9   -0.15    0.22
   0   9   9    0.52    0.30
   0  -9   9    0.32    0.33
   2  -9   9    0.51    0.32
   2  -9   9    0.53    0.34
  -2  -9  -9    0.21    0.32
  -2  -9  -9   -0.03    0.35
  -2   9   9    0.11    0.28
  -2   9   9    0.13    0.29
  -2   9   9    0.16    0.26
  -2   9   9    0.21    0.22
   2   9  -9    0.29    0.28
  -2  -9   9    0.22    0.34
  -2   9  -9    0.21    0.27
   2   9   9    0.09    0.31
   2  -9  -9   -0.05    0.26
   2  -9  -9   -0.10    0.26
  -2   9  -9    0.15    0.28
   2   9   9   -0.09    0.26
  -2   9  -9    0.07    0.23
  -2   9  -9    0.08    0.29
  -4   9   9    0.25    0.30
  -4   9   9   -0.39    0.26
  -4  -9  -9    0.23    0.36
  -4   9   9   -0.14    0.18
   4   9  -9    0.20    0.28
   4  -9   9   -0.17    0.27
  -4  -9  -9   -0.08    0.35
   4  -9  -9   -0.06    0.29
  -4   9  -9    0.12    0.31
   4   9   9   -0.22    0.32
   4  -9  -9    0.45    0.32
  -4  -9   9    0.29    0.36
  -4   9  -9    0.27    0.26
  -4   9  -9    0.14    0.21
  -4  -9   9    0.06    0.29
  -1 -10  -9    3.54    0.61
   1 -10   9    3.14    0.55
   1  10  -9    2.65    0.50
  -1  10   9    3.06    0.55
   1 -10   9    3.40    0.55
  -1  10   9    2.59    0.50
  -1  10  -9    2.30    0.50
  -1  10  -9    2.85    0.52
  -1 -10   9    2.77    0.57
   1  10   9    3.34    0.58
   1 -10  -9    3.69    0.55
   1  10   9    2.96    0.47
   1 -10  -9    2.35    0.49
  -3  10   9    2.48    0.49
  -3  10   9    1.32    0.43
   3  10  -9    2.28    0.47
  -3 -10  -9    2.00    0.49
  -3 -10  -9    1.74    0.50
   3 -10   9    1.60    0.44
   3 -10   9    1.51    0.45
  -3  10   9    2.48    0.41
  -3 -10   9    1.17    0.45
  -3  10  -9    1.95    0.45
  -3  10  -9    1.34    0.45
   3 -10  -9    1.36    0.43
   3  10   9    1.69    0.44
   3 -10  -9    1.85    0.46
  -3  10  -9    2.27    0.42
   0  11   9    1.04    0.42
   0 -11  -9   -0.04    0.35
   0 -11   9    0.78    0.43
   0  11  -9    0.93    0.38
   0  11  -9    0.14    0.32
   0  11   9    0.25    0.31
   2 -11   9    0.62    0.37
   2  11  -9   -0.06    0.29
  -2  11   9    0.01    0.30
  -2 -11  -9    0.45    0.38
   2 -11   9    0.65    0.38
  -2  11  -9    0.85    0.39
   2  11   9    0.34    0.35
  -2 -11   9    0.55    0.41
   2 -11  -9    0.46    0.37
   2 -11  -9    0.40    0.34
   0   0  10  442.13    8.95
   0   0 -10  458.64    9.18
   0   0 -10  455.91    8.91
   0   0  10  444.57    8.64
   0   0  10  458.85    9.13
   0   0 -10  448.42    8.78
  -2   0  10  302.25    5.95
   2   0  10  307.84    6.64
  -2   0 -10  314.93    6.68
  -2   0  10  299.78    5.82
  -2   0  10  316.03    6.48
  -2   0  10  312.74    6.47
  -2   0 -10  306.49    6.05
  -2   0  10  309.00    6.01
  -2   0 -10  317.90    6.72
   2   0  10  302.05    5.98
   2   0  10  307.59    6.39
  -2   0  10  302.52    6.07
  -2   0 -10  306.34    5.99
  -2   0 -10  301.16    5.92
   2   0 -10  312.78    6.34
   2   0 -10  304.75    6.70
  -2   0 -10  303.67    5.85
   2   0 -10  308.66    5.82
   2   0  10  301.73    5.97
  -2   0  10  303.60    6.05
  -2   0 -10  294.96    6.01
  -4   0 -10  156.37    3.39
  -4   0  10  159.99    3.57
   4   0 -10  159.19    4.46
  -4   0  10  162.46    4.18
  -4   0  10  156.89    3.59
  -4   0 -10  158.14    3.40
  -4   0  10  158.22    3.55
  -4   0 -10  152.00    3.56
   4   0  10  155.13    4.10
  -4   0 -10  152.48    3.53
  -4   0  10  157.33    3.14
   4   0 -10  160.20    3.76
  -4   0 -10  153.53    4.45
  -4   0  10  152.34    3.45
   4   0  10  156.53    3.81
  -4   0  10  157.55    3.32
  -4   0 -10  160.70    4.35
  -6   0  10   77.52    2.22
  -6   0  10   75.64    1.77
  -6   0  10   76.99    2.32
  -6   0 -10   73.87    2.11
   6   0 -10   79.59    3.28
  -6   0  10   77.37    2.36
   6   0 -10   75.33    2.33
  -6   0 -10   76.71    2.35
   6   0  10   68.81    3.14
  -6   0 -10   79.39    2.19
  -6   0  10   76.33    2.33
  -6   0 -10   72.54    3.08
  -6   0 -10   74.43    1.80
  -6   0 -10   79.09    2.30
  -6   0 -10   74.45    2.27
   6   0 -10   76.94    2.19
  -6   0  10   75.82    2.93
   6   0  10   76.83    2.45
  -6   0  10   77.76    2.03
   8   0  10   30.66    1.32
  -8   0  10   29.90    1.02
  -8   0  10   25.78    1.37
  -8   0 -10   29.62    1.30
   8   0  10   30.51    1.33
  -8   0  10   34.38    1.30
  -8   0  10   29.54    1.43
  -8   0 -10   29.15    1.02
  -8   0 -10   31.02    1.23
  -8   0  10   31.89    1.53
  -8   0 -10   28.96    1.44
 -10   0  10   11.49    0.64
  -1   1  10   23.74    0.93
   1  -1  10   25.10    0.97
   1   1 -10   24.41    0.87
  -1  -1 -10   25.06    0.99
  -1  -1 -10   23.63    0.64
   1   1 -10   21.61    1.04
   1  -1  10   22.44    0.64
   1   1 -10   25.66    0.98
  -1  -1 -10   23.57    1.09
  -1  -1 -10   23.26    0.90
  -1   1  10   24.40    0.92
  -1   1  10   24.76    1.08
  -1  -1  10   23.67    0.99
  -1   1 -10   23.21    0.88
   1  -1 -10   24.41    0.95
  -1  -1  10   24.88    0.96
  -1   1 -10   25.66    1.08
   1   1  10   24.31    1.00
   1   1  10   23.92    1.06
  -1  -1  10   24.42    0.92
  -1   1 -10   23.31    1.02
   1  -1 -10   26.38    1.14
  -3  -1 -10    9.47    0.93
  -3   1  10   11.61    0.58
   3   1 -10   10.71    0.56
  -3   1  10    9.94    0.56
  -3   1  10   10.17    0.89
  -3  -1 -10   10.61    0.51
  -3   1  10   11.49    0.57
   3  -1  10   10.29    0.66
   3  -1  10   10.61    0.51
  -3  -1 -10   11.11    0.43
  -3   1  10   10.23    0.75
   3  -1  10    9.92    0.96
  -3   1  10   10.22    0.56
  -3   1  10   11.50    0.53
   3   1 -10   10.83    0.60
   3   1 -10    8.17    0.91
   3  -1  10   10.86    0.51
  -3  -1 -10   10.16    0.49
  -3   1  10   10.92    0.38
   3   1 -10   11.59    0.71
  -3  -1 -10   10.05    0.55
  -3  -1 -10    9.83    0.55
  -3  -1  10   10.67    0.49
  -3   1 -10   10.90    0.54
   3   1  10   10.58    0.70
  -3  -1  10   10.87    0.53
  -3  -1  10   10.73    0.56
  -3   1 -10   10.62    0.40
   3  -1 -10   10.47    0.63
  -3  -1  10   10.08    0.55
  -3   1 -10    9.50    0.97
   3   1  10   12.14    0.57
  -3  -1  10   11.32    0.65
  -3   1 -10    9.75    0.75
   3  -1 -10   11.62    0.88
   3   1  10    9.76    0.75
  -3   1 -10   11.02    0.59
  -3  -1  10   10.93    0.77
  -3   1 -10   11.12    0.54
  -3   1 -10   11.06    0.58
  -3  -1  10   10.00    0.56
   3   1  10   10.62    0.55
  -3  -1  10   10.71    0.42
   3  -1 -10   10.69    0.49
   3   1  10   10.37    0.46
  -5   1  10    3.73    0.50
  -5  -1 -10    3.31    0.46
   5   1 -10    3.51    0.77
  -5   1  10    3.37    0.26
  -5  -1 -10    3.38    0.33
  -5  -1 -10    2.86    0.43
  -5   1  10    3.80    0.47
  -5  -1 -10    3.77    0.52
  -5   1  10    4.20    0.54
   5  -1  10    3.25    0.49
   5  -1  10    3.61    0.68
   5   1 -10    3.53    0.51
   5   1 -10    3.53    0.45
  -5   1  10    2.54    0.59
  -5  -1 -10    2.16    0.63
  -5   1  10    4.15    0.51
  -5  -1 -10    3.13    0.48
  -5  -1 -10    3.28    0.42
  -5   1  10    4.42    0.51
  -5  -1  10    3.84    0.33
  -5   1 -10    3.82    0.52
   5   1  10    4.16    0.83
  -5  -1  10    3.30    0.40
  -5   1 -10    2.99    0.41
   5  -1 -10    3.48    0.73
  -5  -1  10    3.25    0.48
   5   1  10    3.39    0.55
  -5   1 -10    2.26    0.60
  -5   1 -10    3.74    0.80
  -5   1 -10    3.53    0.49
  -5  -1  10    3.92    0.52
  -5  -1  10    3.10    0.48
  -5  -1  10    3.53    0.46
  -5   1 -10    3.25    0.41
   5  -1 -10    3.02    0.44
  -5  -1  10    4.29    0.72
  -7   1  10    1.42    0.35
  -7  -1 -10    0.59    0.35
  -7   1  10    1.51    0.43
  -7   1  10    1.16    0.24
   7  -1  10    1.04    0.34
  -7  -1 -10    2.47    0.55
  -7  -1 -10    1.15    0.39
  -7  -1 -10    1.86    0.42
  -7   1  10    1.15    0.36
   7  -1  10    1.70    0.40
  -7   1  10    1.57    0.45
  -7   1  10    1.40    0.44
  -7  -1  10    1.23    0.27
  -7  -1  10    1.32    0.45
  -7   1 -10    1.00    0.39
  -7  -1  10    0.90    0.40
  -7  -1  10    1.00    0.43
  -7   1 -10    1.48    0.44
  -7  -1  10    1.83    0.41
  -7  -1  10    1.78    0.39
  -7   1 -10    0.84    0.23
  -7   1 -10    1.20    0.42
  -9   1  10    0.17    0.27
  -9  -1 -10    0.47    0.42
  -9  -1 -10    0.16    0.25
  -9  -1  10    0.45    0.31
   0  -2  10  363.01    7.51
   0  -2 -10  359.28    7.55
   0   2 -10  363.56    7.42
   0  -2  10  362.43    7.16
   0   2  10  358.20    7.41
   0   2 -10  364.44    7.48
   0  -2 -10  368.26    7.12
   0  -2  10  352.04    7.36
   0   2  10  367.42    7.64
   0   2  10  367.93    7.07
   0  -2 -10  360.35    7.33
   0  -2 -10  346.98    6.94
   0   2 -10  359.33    7.33
  -2   2  10  259.13    5.27
   2   2 -10  266.27    5.57
   2   2 -10  257.07    5.25
  -2  -2 -10  252.68    5.27
  -2   2  10  265.80    5.26
   2   2 -10  256.01    5.65
  -2   2  10  263.31    5.94
  -2  -2 -10  265.29    6.01
   2  -2  10  263.21    5.57
  -2   2  10  257.73    5.26
  -2  -2 -10  260.09    5.10
  -2  -2 -10  269.05    5.12
  -2  -2 -10  257.31    5.16
  -2   2  10  259.74    5.18
  -2   2  10  269.93    5.75
  -2  -2 -10  253.36    5.21
  -2   2  10  259.27    5.26
   2   2 -10  266.74    5.97
  -2   2  10  256.08    5.01
   2  -2  10  263.46    5.97
  -2   2 -10  265.98    5.26
  -2   2 -10  255.29    5.26
  -2  -2  10  261.83    5.17
   2   2  10  266.92    5.25
   2   2  10  254.16    5.15
   2   2  10  258.88    5.74
  -2  -2  10  258.65    5.26
  -2  -2  10  257.39    5.25
   2  -2 -10  267.44    5.92
   2   2  10  266.69    5.26
  -2   2 -10  269.88    6.08
   2  -2 -10  263.15    5.55
  -2  -2  10  260.65    5.72
  -2   2 -10  262.36    5.07
  -2   2 -10  268.59    5.67
  -2  -2  10  264.10    5.49
  -2   2 -10  257.11    5.28
  -2  -2  10  254.80    5.17
   2  -2 -10  262.93    5.20
  -2  -2  10  252.82    5.17
   2   2  10  265.03    5.80
  -2  -2  10  265.29    5.10
  -2   2 -10  268.03    5.21
   2   2  10  272.46    5.92
  -4   2  10  139.06    3.91
   4  -2  10  139.84    4.00
  -4   2  10  142.11    3.26
  -4   2  10  141.90    3.20
   4   2 -10  139.84    3.64
  -4  -2 -10  141.38    3.00
  -4   2  10  141.82    3.22
  -4   2  10  138.80    3.89
   4  -2  10  139.90    3.43
  -4  -2 -10  143.01    3.33
   4   2 -10  134.15    4.17
  -4  -2 -10  138.33    3.29
   4  -2  10  142.82    3.08
  -4  -2 -10  141.51    4.19
   4   2 -10  140.55    3.18
   4  -2  10  138.32    3.05
  -4  -2 -10  138.82    3.11
  -4  -2 -10  141.08    3.33
  -4  -2 -10  144.84    3.26
  -4   2  10  137.75    3.28
  -4   2  10  142.75    2.80
  -4   2  10  141.85    3.30
  -4   2 -10  140.71    3.79
  -4  -2  10  141.51    3.27
  -4   2 -10  142.56    3.32
  -4  -2  10  141.76    3.19
  -4   2 -10  142.77    3.23
  -4  -2  10  137.58    3.89
  -4  -2  10  145.90    3.32
   4   2  10  132.79    4.14
   4  -2 -10  140.88    4.00
   4  -2 -10  142.15    3.38
   4  -2 -10  144.70    3.11
   4   2  10  142.41    3.62
  -4  -2  10  142.94    3.14
  -4   2 -10  142.11    3.12
  -4  -2  10  141.78    2.97
  -4  -2  10  143.28    3.36
  -4   2 -10  133.73    4.20
  -4   2 -10  137.61    3.28
   4   2  10  140.12    3.09
  -4   2 -10  137.20    2.83
   4   2  10  141.11    3.73
  -6  -2 -10   65.35    1.98
  -6   2  10   72.65    2.17
   6   2 -10   71.22    2.11
  -6   2  10   72.31    2.24
  -6   2  10   71.99    2.18
  -6  -2 -10   72.78    2.18
  -6  -2 -10   72.17    2.17
  -6  -2 -10   68.27    1.81
  -6  -2 -10   66.19    3.07
  -6  -2 -10   75.40    2.31
  -6  -2 -10   67.07    2.00
  -6   2  10   71.88    2.11
  -6   2  10   71.31    2.14
  -6   2  10   69.80    1.58
   6  -2  10   72.99    2.20
   6   2 -10   72.26    2.45
  -6  -2 -10   66.68    2.22
  -6   2  10   68.00    2.80
   6  -2 -10   65.26    2.87
  -6   2 -10   69.88    2.22
  -6   2 -10   66.83    3.09
  -6  -2  10   68.38    2.21
   6   2  10   71.67    2.53
  -6  -2  10   72.10    2.84
  -6  -2  10   70.13    1.81
  -6  -2  10   69.10    1.98
  -6   2 -10   68.24    1.99
   6   2  10   63.32    3.01
  -6  -2  10   67.97    2.26
  -6  -2  10   67.11    2.22
  -6   2 -10   70.21    2.19
  -6  -2  10   70.33    2.02
  -6   2 -10   70.74    1.62
   6  -2 -10   71.66    2.09
  -6   2 -10   70.43    2.02
   8   2 -10   29.58    1.28
  -8  -2 -10   27.34    1.23
  -8   2  10   26.40    1.12
  -8   2  10   27.82    1.37
  -8   2  10   27.25    1.27
  -8  -2 -10   29.37    1.44
  -8  -2 -10   27.81    1.04
  -8   2  10   26.36    0.88
  -8  -2 -10   26.99    1.24
   8   2  10   29.33    1.36
   8   2  10   28.43    1.33
  -8  -2  10   29.34    1.44
  -8   2 -10   25.95    1.28
  -8  -2  10   28.41    1.07
  -8   2 -10   26.85    0.95
  -8  -2  10   27.45    1.40
  -8  -2  10   29.09    1.24
  -8  -2  10   26.83    1.42
  -8  -2  10   28.66    1.23
  -8   2 -10   27.97    1.38
  -8   2 -10   27.02    1.20
 -10  -2 -10    9.39    0.59
 -10  -2  10   10.56    0.62
  -1   3  10   14.82    0.62
  -1   3  10   15.12    0.62
  -1  -3 -10   15.40    0.67
  -1  -3 -10   15.48    0.92
   1   3 -10   15.77    0.58
   1   3 -10   17.05    0.88
   1  -3  10   16.25    0.94
  -1  -3 -10   15.21    0.64
  -1  -3 -10   15.73    0.60
  -1   3  10   14.87    0.94
   1   3 -10   14.59    0.63
  -1   3  10   15.08    0.61
   1   3 -10   15.56    0.89
   1  -3  10   14.30    0.55
  -1   3  10   14.84    0.57
   1  -3  10   14.79    0.78
  -1   3  10   15.82    0.62
   1   3 -10   15.65    0.86
  -1   3  10   15.12    0.51
   1  -3  10   16.10    0.69
  -1  -3 -10   14.61    0.76
  -1  -3  10   14.95    0.57
  -1   3 -10   15.15    0.63
  -1   3 -10   14.85    0.60
   1   3  10   15.64    0.91
  -1  -3  10   15.52    0.61
  -1  -3  10   14.11    0.79
   1   3  10   14.46    0.62
  -1   3 -10   14.07    0.58
  -1   3 -10   16.36    0.57
   1   3  10   15.41    0.87
   1  -3 -10   14.91    0.88
  -1  -3  10   15.20    0.81
   1  -3 -10   14.83    0.79
  -1  -3  10   16.01    0.83
   1   3  10   15.15    0.84
  -1   3 -10   14.87    0.94
   1   3  10   15.73    0.64
  -1   3 -10   15.24    0.65
   1   3  10   14.90    0.62
   1  -3 -10   15.53    0.61
  -1   3 -10   14.64    0.74
   1  -3 -10   14.56    0.58
   1  -3 -10   16.05    0.80
   3   3 -10    7.74    0.50
   3  -3  10    9.61    0.64
  -3  -3 -10    8.39    0.96
   3   3 -10    8.61    0.51
  -3   3  10    7.44    0.51
  -3   3  10    7.90    0.35
   3   3 -10    7.24    0.75
  -3   3  10    6.98    0.52
  -3   3  10    7.83    0.49
  -3  -3 -10    8.29    0.54
  -3   3  10    7.31    0.79
  -3  -3 -10    7.14    0.44
  -3   3  10    7.49    0.86
  -3   3  10    8.75    0.52
  -3   3  10    8.13    0.50
   3   3 -10    7.54    0.75
   3   3 -10    8.80    0.97
   3  -3  10    6.43    0.83
  -3  -3 -10    7.33    0.53
  -3  -3 -10    6.93    0.43
   3   3  10    8.07    0.94
  -3  -3  10    7.28    0.48
  -3   3 -10    7.34    0.93
  -3  -3  10    7.62    0.48
  -3  -3  10    9.89    0.93
  -3   3 -10    7.97    0.50
   3  -3 -10    8.21    0.85
   3   3  10    7.73    0.49
  -3   3 -10    7.63    0.55
   3   3  10    7.43    0.75
   3   3  10    8.30    0.53
   3   3  10    7.11    0.51
  -3  -3  10    7.65    0.50
   3   3  10    7.30    0.78
  -3   3 -10    8.02    0.40
  -3  -3  10    7.74    0.44
   3  -3 -10    7.37    0.65
  -3   3 -10    7.60    0.51
  -3  -3  10    7.97    0.53
  -3  -3  10    8.11    0.52
  -3   3 -10    8.33    0.55
  -5  -3 -10    3.53    0.50
  -5  -3 -10    2.89    0.37
  -5  -3 -10    3.55    0.54
  -5  -3 -10    3.36    0.45
  -5   3  10    2.85    0.45
  -5   3  10    3.60    0.51
   5   3 -10    2.85    0.57
   5   3 -10    3.18    0.45
  -5   3  10    2.96    0.48
   5   3 -10    3.19    0.78
   5  -3  10    1.68    0.57
  -5   3  10    2.33    0.39
  -5  -3 -10    3.25    0.76
  -5   3  10    3.18    0.26
  -5   3  10    3.42    0.71
  -5  -3 -10    2.60    0.48
  -5  -3 -10    2.47    0.44
   5  -3  10    4.01    0.53
  -5   3  10    3.60    0.48
  -5   3  10    3.62    0.69
  -5   3 -10    3.57    0.32
  -5  -3  10    3.73    0.54
  -5   3 -10    2.90    0.42
  -5  -3  10    3.26    0.45
   5  -3 -10    2.50    0.65
  -5  -3  10    2.76    0.48
  -5  -3  10    3.28    0.50
  -5  -3  10    2.93    0.35
   5   3  10    2.80    0.69
  -5   3 -10    3.54    0.52
  -5   3 -10    2.34    0.40
   5   3  10    2.87    0.42
  -5   3 -10    2.87    0.48
  -5   3 -10    2.93    0.77
   5  -3 -10    2.67    0.43
  -5  -3  10    2.69    0.64
   5   3  10    2.82    0.57
  -7   3  10    1.01    0.21
   7   3 -10    2.01    0.45
  -7  -3 -10    1.35    0.38
  -7   3  10    1.42    0.46
  -7   3  10    1.19    0.42
  -7  -3 -10    1.51    0.32
  -7  -3 -10    1.35    0.41
  -7  -3 -10    0.78    0.41
  -7  -3 -10    1.30    0.39
  -7   3  10    1.04    0.40
  -7  -3  10    1.07    0.31
  -7   3 -10    1.11    0.27
  -7   3 -10    1.89    0.48
  -7  -3  10    1.90    0.42
   7   3  10    1.71    0.44
  -7  -3  10    0.98    0.40
  -7   3 -10    0.56    0.36
  -7  -3  10    0.86    0.37
  -7  -3  10    1.06    0.45
  -7  -3  10    0.82    0.36
   7   3  10    0.74    0.36
  -7   3 -10    1.61    0.46
  -9  -3 -10    0.19    0.27
  -9  -3  10    0.15    0.28
   0  -4 -10  221.11    5.00
   0   4  10  214.81    4.43
   0  -4  10  220.08    5.00
   0  -4  10  220.42    5.10
   0   4  10  219.90    4.48
   0  -4 -10  224.18    4.88
   0   4  10  224.82    5.32
   0   4 -10  217.77    4.46
   0  -4 -10  221.00    4.55
   0   4  10  223.98    4.51
   0   4 -10  218.70    4.77
   0  -4  10  224.74    4.92
   0  -4  10  217.48    4.44
   0   4  10  214.79    4.41
   0   4  10  227.83    4.39
   0   4 -10  228.16    4.46
   0   4 -10  222.52    4.43
   0   4 -10  216.13    4.43
   0  -4 -10  226.99    5.13
   0   4  10  214.44    4.77
   0   4 -10  221.69    4.61
   0  -4 -10  222.52    4.52
   0   4  10  223.21    4.57
   0  -4  10  222.55    4.59
   0   4 -10  223.66    5.35
   2   4 -10  173.97    4.48
  -2  -4 -10  177.01    3.73
   2  -4  10  176.44    3.94
   2  -4  10  179.59    4.22
  -2  -4 -10  182.49    4.64
  -2  -4 -10  173.75    3.99
   2   4 -10  183.01    3.88
  -2   4  10  178.40    3.76
  -2   4  10  177.02    3.77
  -2   4  10  181.12    3.63
  -2  -4 -10  179.58    3.72
   2  -4  10  178.38    4.65
  -2   4  10  179.92    4.76
   2  -4  10  182.06    3.70
   2   4 -10  180.40    4.47
   2   4 -10  183.09    4.45
  -2   4  10  180.51    3.83
   2   4 -10  180.36    3.83
  -2   4  10  174.01    3.88
  -2  -4 -10  174.98    3.91
  -2  -4 -10  177.08    3.82
  -2   4  10  181.38    3.92
   2   4  10  183.24    3.86
  -2  -4  10  175.46    3.79
   2   4  10  184.10    3.84
  -2  -4  10  175.83    3.75
  -2  -4  10  185.36    4.48
   2   4  10  177.14    4.48
  -2  -4  10  175.82    3.86
   2   4  10  185.66    4.40
  -2  -4  10  178.59    3.72
   2  -4 -10  183.00    4.23
  -2   4 -10  180.81    4.87
  -2   4 -10  181.18    3.89
   2   4  10  180.96    4.56
  -2   4 -10  177.92    3.69
  -2   4 -10  181.44    3.95
  -2  -4  10  179.19    3.78
  -2   4 -10  183.24    3.93
   2  -4 -10  181.67    4.38
   2   4  10  181.26    3.86
  -2  -4  10  178.94    3.78
   2  -4 -10  182.97    4.39
  -2   4 -10  185.53    3.90
   2  -4 -10  182.95    3.77
  -4   4  10  110.99    2.84
  -4   4  10  108.44    3.67
   4   4 -10  111.98    2.77
   4  -4  10  110.29    2.57
  -4   4  10  112.07    2.77
   4  -4  10  108.36    3.66
   4  -4  10  113.88    3.00
  -4  -4 -10  112.63    2.63
  -4   4  10  115.04    2.75
  -4   4  10  114.48    2.89
   4   4 -10  110.38    2.67
   4   4 -10  109.47    3.34
  -4  -4 -10  111.73    2.87
   4   4 -10  109.45    3.38
   4   4 -10  113.16    3.75
  -4  -4 -10  113.67    2.59
  -4   4  10  114.47    2.39
  -4  -4 -10  110.60    2.85
  -4  -4 -10  112.25    3.78
  -4  -4  10  113.94    2.62
   4  -4 -10  114.40    3.43
  -4  -4  10  110.67    2.81
  -4  -4  10  104.06    3.41
  -4   4 -10  111.12    2.88
   4   4  10  118.08    2.83
  -4   4 -10  110.88    2.77
   4  -4 -10  115.83    2.99
  -4   4 -10  112.11    2.84
  -4   4 -10  109.37    2.85
   4   4  10  107.72    3.40
  -4  -4  10  114.01    2.86
   4   4  10  112.27    2.82
  -4  -4  10  109.24    2.71
   4   4  10  115.35    2.76
  -4  -4  10  110.66    2.74
  -4   4 -10  112.43    2.45
  -4   4 -10  106.21    3.81
   4   4  10  105.56    3.68
  -4  -4  10  113.93    2.81
  -6   4  10   56.04    1.95
  -6  -4 -10   53.82    1.76
  -6  -4 -10   59.20    2.07
  -6   4  10   56.64    1.96
  -6  -4 -10   55.34    1.91
  -6   4  10   55.48    1.88
   6  -4  10   56.75    1.67
  -6  -4 -10   57.07    1.78
  -6   4  10   56.75    1.39
   6   4 -10   55.82    1.86
  -6  -4 -10   54.58    1.65
  -6   4 -10   57.82    1.47
   6  -4 -10   56.27    1.76
  -6  -4  10   56.54    1.71
   6   4  10   53.45    1.79
  -6  -4  10   57.00    1.98
  -6   4 -10   57.39    1.90
  -6   4 -10   56.89    2.00
  -6   4 -10   55.18    1.96
  -6  -4  10   53.67    1.73
  -6  -4  10   55.39    2.01
  -6  -4  10   58.20    2.02
  -6  -4  10   58.71    1.86
  -8  -4 -10   23.26    1.11
  -8  -4 -10   23.66    1.14
   8   4 -10   20.46    1.06
  -8  -4 -10   25.72    1.35
  -8  -4 -10   23.94    1.00
  -8   4  10   23.31    1.14
  -8   4 -10   23.91    1.21
  -8  -4  10   22.97    1.08
  -8  -4  10   21.99    1.11
   8   4  10   21.63    1.16
  -8   4 -10   23.58    1.21
  -8  -4  10   21.95    1.00
 -10  -4 -10    8.71    0.55
 -10  -4  10    9.12    0.56
  -1  -5 -10    7.66    0.55
   1  -5  10    6.65    0.80
  -1   5  10    6.55    0.46
   1  -5  10    8.43    0.80
   1  -5  10    8.12    0.56
  -1   5  10    7.96    0.54
  -1  -5 -10    7.22    0.81
   1   5 -10    6.86    0.47
  -1  -5 -10    8.05    0.49
   1   5 -10    7.98    0.53
  -1   5  10    7.89    0.96
   1   5 -10    5.24    0.76
   1  -5  10    7.35    0.46
  -1   5  10    7.63    0.49
  -1   5  10    7.39    0.42
  -1  -5 -10    8.42    0.74
  -1  -5 -10    7.69    0.47
   1  -5  10    7.99    0.75
  -1   5 -10    6.95    0.44
  -1  -5  10    7.35    0.76
  -1   5 -10    7.09    0.49
   1   5  10    6.95    0.78
   1   5  10    7.23    0.52
  -1   5 -10    6.52    0.42
   1   5  10    8.76    0.90
   1  -5 -10    7.03    0.50
   1   5  10    7.67    0.49
  -1  -5  10    9.05    0.50
  -1   5 -10    8.12    0.55
  -1   5 -10    7.48    0.48
   1   5  10    6.85    0.48
   1   5  10    7.64    0.44
   1  -5 -10    7.03    0.48
  -1  -5  10    8.81    0.56
   1  -5 -10    7.84    0.78
   1  -5 -10    8.17    0.78
  -1   5 -10    7.70    0.97
   1  -5 -10    7.22    0.70
   3   5 -10    5.35    0.80
   3  -5  10    5.28    0.45
  -3   5  10    4.61    0.50
   3   5 -10    4.61    0.72
   3   5 -10    4.17    0.47
  -3   5  10    4.86    0.54
   3  -5  10    4.10    0.57
   3   5 -10    4.89    0.48
  -3  -5 -10    4.40    0.54
  -3  -5 -10    4.50    0.51
   3  -5  10    3.44    0.69
  -3  -5 -10    4.97    0.46
  -3  -5 -10    3.49    0.69
   3   5 -10    4.56    0.76
  -3   5  10    4.28    0.36
  -3   5  10    4.41    0.79
  -3   5  10    5.07    0.55
  -3   5  10    4.33    0.49
   3   5  10    4.29    0.75
  -3  -5  10    4.10    0.46
  -3  -5  10    4.22    0.46
  -3   5 -10    5.09    0.55
  -3  -5  10    4.17    0.42
  -3  -5  10    5.22    0.52
   3   5  10    5.48    0.81
  -3   5 -10    4.06    0.51
   3   5  10    4.26    0.50
  -3  -5  10    4.52    0.52
   3   5  10    4.43    0.49
  -3   5 -10    4.05    0.50
  -3  -5  10    4.74    0.49
   3  -5 -10    5.43    0.72
   3  -5 -10    4.64    0.59
  -3  -5  10    4.52    0.72
   3   5  10    4.40    0.49
  -3   5 -10    3.02    0.75
  -3   5 -10    4.55    0.41
   3  -5 -10    4.63    0.47
  -3   5 -10    5.01    0.55
  -5   5  10    2.37    0.29
  -5  -5 -10    3.11    0.54
  -5  -5 -10    2.90    0.82
  -5  -5 -10    1.89    0.38
  -5   5  10    2.20    0.44
  -5   5  10    2.52    0.44
  -5   5  10    2.48    0.48
   5  -5  10    2.25    0.46
   5   5 -10    2.72    0.80
   5  -5  10    2.30    0.77
  -5   5  10    2.41    0.45
   5   5 -10    2.40    0.63
  -5  -5 -10    3.19    0.51
  -5   5  10    1.58    0.61
  -5  -5 -10    3.03    0.42
   5   5 -10    2.95    0.46
  -5  -5 -10    2.09    0.39
  -5  -5  10    2.09    0.45
   5   5  10    3.02    0.51
  -5   5 -10    2.04    0.31
  -5   5 -10    2.29    0.45
   5   5  10    2.60    0.45
  -5  -5  10    2.20    0.42
  -5   5 -10    2.44    0.45
  -5  -5  10    2.34    0.39
   5   5  10    1.68    0.59
   5   5  10    3.09    0.82
  -5  -5  10    2.59    0.47
  -5   5 -10    3.09    0.53
   5  -5 -10    2.04    0.44
  -5  -5  10    1.88    0.46
   5  -5 -10    1.98    0.60
  -5  -5  10    1.98    0.43
   5   5  10    2.05    0.43
  -5   5 -10    1.98    0.75
  -5   5 -10    3.26    0.53
  -5  -5  10    1.88    0.63
  -5  -5  10    2.72    0.41
  -7   5  10    1.41    0.44
  -7  -5 -10    1.00    0.33
  -7  -5 -10    0.37    0.32
  -7   5  10    0.42    0.32
  -7   5  10    0.94    0.23
  -7   5  10    1.02    0.44
  -7  -5 -10    1.00    0.36
   7   5 -10    0.99    0.36
  -7  -5  10    1.30    0.44
   7   5  10    0.77    0.37
  -7  -5  10    0.97    0.39
   7   5  10    0.88    0.39
  -7  -5  10    1.08    0.34
  -7   5 -10    0.83    0.38
  -7   5 -10    1.10    0.40
  -7  -5  10    1.10    0.42
  -7   5 -10    0.95    0.27
  -7   5 -10    0.62    0.36
  -7  -5  10    1.13    0.34
   7   5  10    1.32    0.43
  -9  -5 -10    0.68    0.29
  -9  -5  10    0.04    0.25
   0  -6  10  133.88    3.68
   0   6  10  137.90    3.03
   0   6 -10  136.20    3.22
   0  -6  10  136.10    2.95
   0   6 -10  136.57    3.06
   0   6 -10  130.92    2.94
   0   6 -10  130.71    4.08
   0  -6  10  132.56    3.60
   0   6 -10  129.64    2.97
   0   6 -10  129.85    3.00
   0  -6 -10  131.17    3.56
   0  -6  10  130.98    3.19
   0  -6 -10  129.83    3.14
   0   6  10  135.74    2.92
   0   6  10  139.54    3.19
   0   6  10  131.83    3.94
   0  -6 -10  131.75    3.05
  -2  -6 -10  114.89    2.83
  -2  -6 -10  117.68    2.96
   2  -6  10  117.55    2.97
  -2   6  10  121.11    2.86
   2   6 -10  117.25    2.84
   2  -6  10  120.25    2.64
  -2   6  10  111.89    3.85
   2  -6  10  113.82    3.70
  -2   6  10  119.30    2.92
  -2  -6 -10  115.21    3.54
  -2   6  10  118.16    2.64
   2  -6  10  110.98    3.31
  -2   6  10  114.83    2.92
   2   6 -10  114.25    3.75
   2   6 -10  115.87    2.84
   2  -6  10  115.93    3.16
  -2   6 -10  115.60    3.94
  -2   6 -10  114.93    2.86
   2   6  10  116.42    2.79
   2   6  10  114.55    3.60
  -2  -6  10  119.55    3.53
  -2   6 -10  118.68    3.00
   2   6  10  118.68    2.94
  -2  -6  10  112.58    2.94
  -2   6 -10  120.21    2.92
  -2   6 -10  118.84    2.71
   2  -6 -10  119.99    3.34
   2  -6 -10  112.83    3.41
  -2  -6  10  115.04    2.75
   2  -6 -10  118.31    2.85
   2   6  10  118.68    2.78
   4  -6  10   79.58    2.35
   4   6 -10   75.78    3.00
  -4   6  10   75.09    3.23
  -4  -6 -10   75.08    2.06
   4  -6  10   78.24    2.54
  -4  -6 -10   72.98    3.09
   4   6 -10   77.20    2.24
  -4   6  10   79.99    2.37
  -4   6  10   76.70    2.24
   4  -6  10   73.14    3.10
  -4  -6 -10   78.00    2.35
  -4  -6 -10   76.91    2.33
  -4   6  10   78.28    2.26
   4   6 -10   80.06    2.20
  -4   6  10   72.25    2.26
  -4   6  10   76.08    1.90
   4   6  10   76.22    3.14
  -4   6 -10   78.05    2.32
   4   6  10   77.39    2.22
  -4   6 -10   80.20    2.34
  -4  -6  10   79.43    2.11
  -4   6 -10   77.56    1.98
   4  -6 -10   76.58    2.12
   4  -6 -10   72.37    2.45
  -4  -6  10   77.65    2.18
   4  -6 -10   74.31    2.83
   4   6  10   78.80    2.24
  -4  -6  10   73.82    2.29
  -4   6 -10   73.88    2.30
   4   6  10   79.07    2.29
  -4  -6  10   76.55    2.96
  -4   6 -10   78.54    3.39
  -6  -6 -10   41.14    1.50
  -6  -6 -10   42.37    1.45
  -6   6  10   40.68    1.62
  -6  -6 -10   39.50    1.62
  -6  -6 -10   43.18    1.47
  -6   6  10   41.11    1.22
  -6  -6 -10   39.09    1.71
   6   6 -10   43.12    1.60
  -6   6  10   41.34    1.70
   6   6 -10   40.82    1.62
  -6   6  10   39.12    1.56
  -6   6 -10   41.83    1.29
  -6   6 -10   42.18    1.66
  -6  -6  10   39.87    1.56
   6   6  10   41.57    1.64
   6   6  10   41.90    1.61
  -6  -6  10   38.98    1.60
   6  -6 -10   39.92    1.54
   6   6  10   41.90    1.63
  -6  -6  10   42.24    1.49
  -6  -6  10   40.70    1.43
  -6   6 -10   36.77    1.63
  -6  -6  10   41.58    1.68
  -8  -6 -10   18.43    0.95
  -8  -6  10   18.28    0.90
  -1   7  10    4.25    0.43
   1  -7  10    3.64    0.65
  -1  -7 -10    5.25    0.73
  -1   7  10    3.96    0.51
   1  -7  10    5.46    0.88
   1  -7  10    4.10    0.66
   1   7 -10    3.98    0.83
  -1  -7 -10    4.20    0.56
  -1   7  10    3.41    0.76
   1   7 -10    4.43    0.50
  -1   7  10    4.71    0.53
   1   7 -10    6.00    0.62
   1  -7  10    3.56    0.51
  -1   7  10    4.62    0.53
  -1   7 -10    4.06    0.43
  -1  -7  10    4.76    0.48
   1  -7 -10    4.60    0.53
  -1   7 -10    5.29    0.53
  -1  -7  10    4.62    0.58
   1   7  10    3.73    0.50
   1  -7 -10    4.18    0.53
   1   7  10    4.31    0.47
  -1   7 -10    3.79    0.81
   1  -7 -10    2.64    0.56
   1  -7 -10    3.58    0.64
  -1   7 -10    4.87    0.52
  -1   7 -10    5.03    0.56
  -1  -7  10    3.32    0.65
  -1   7 -10    4.82    0.59
  -3  -7 -10    3.09    0.51
   3  -7  10    4.24    0.58
   3   7 -10    4.08    0.89
  -3  -7 -10    3.28    0.54
   3  -7  10    3.38    0.82
  -3   7  10    3.16    0.48
  -3   7  10    3.33    0.38
   3  -7  10    2.86    0.59
   3   7 -10    2.99    0.46
  -3   7  10    2.20    0.45
  -3   7  10    3.15    0.82
  -3   7  10    2.82    0.49
  -3  -7  10    2.30    0.65
  -3   7 -10    2.24    0.36
  -3  -7  10    2.58    0.43
   3  -7 -10    3.59    0.50
   3   7  10    3.81    0.60
  -3   7 -10    3.47    0.54
  -3  -7  10    3.03    0.52
  -3   7 -10    2.25    0.76
  -3   7 -10    3.10    0.51
   3   7  10    2.71    0.74
   3  -7 -10    2.99    0.64
   3  -7 -10    2.26    0.51
  -3   7 -10    3.48    0.51
  -5   7  10    1.42    0.41
  -5   7  10    1.89    0.47
  -5   7  10    1.82    0.47
  -5   7  10    1.30    0.29
  -5  -7 -10    1.43    0.47
   5  -7  10    2.36    0.49
  -5  -7 -10    1.57    0.45
   5   7 -10    1.30    0.38
   5   7 -10    1.41    0.38
  -5  -7 -10    1.68    0.37
  -5   7 -10    1.02    0.36
   5   7  10    1.14    0.43
   5   7  10    1.52    0.47
  -5   7 -10    1.15    0.30
  -5   7 -10    1.54    0.42
  -5   7 -10    2.07    0.46
  -5  -7  10    2.05    0.49
  -5  -7  10    2.22    0.46
   5   7  10    1.34    0.42
  -7   7  10    0.91    0.40
   7   7 -10    1.55    0.42
  -7  -7 -10    0.88    0.33
  -7  -7 -10    0.87    0.44
   7   7 -10    1.08    0.35
  -7   7  10    0.51    0.34
   7   7  10   -0.20    0.39
   7   7  10    1.50    0.49
  -7  -7  10    1.06    0.36
   7   7  10    0.94    0.45
  -7  -7  10    0.48    0.31
  -7   7 -10    0.54    0.35
  -7   7 -10    1.00    0.42
  -7   7 -10    1.06    0.30
  -9  -7 -10    0.12    0.22
  -9  -7  10    0.78    0.26
   0  -8 -10   75.43    2.32
   0   8  10   75.61    2.29
   0   8  10   79.53    3.11
   0  -8  10   80.14    2.20
   0  -8 -10   79.51    2.18
   0   8 -10   83.28    2.25
   0   8 -10   74.68    3.28
   0  -8 -10   80.13    2.84
   0   8 -10   77.34    2.35
   0   8  10   80.58    2.21
   0  -8  10   83.58    2.93
   0  -8  10   77.00    2.40
  -2   8  10   66.47    1.88
  -2  -8 -10   72.99    2.13
   2   8 -10   69.24    2.08
   2  -8  10   69.52    2.67
  -2   8  10   68.30    2.09
  -2   8  10   66.64    2.11
  -2  -8 -10   67.58    2.21
  -2   8  10   71.08    2.16
   2   8 -10   68.38    2.10
   2  -8  10   70.02    2.95
   2  -8  10   69.69    2.22
  -2  -8  10   65.42    1.92
   2  -8 -10   67.11    2.13
   2   8  10   71.00    1.95
  -2  -8  10   73.83    2.31
  -2   8 -10   71.31    2.15
   2   8  10   66.51    2.15
   2  -8 -10   68.74    2.60
  -2   8 -10   69.17    2.26
  -2   8 -10   71.38    2.10
  -2   8 -10   68.03    1.93
  -2   8 -10   67.43    2.00
   2  -8 -10   66.42    2.08
   4   8 -10   46.35    1.70
  -4   8  10   46.66    1.73
  -4   8  10   49.47    1.50
  -4  -8 -10   46.85    1.80
  -4   8  10   47.09    1.81
  -4  -8 -10   48.22    1.82
   4  -8  10   46.86    1.77
  -4   8  10   48.27    1.75
   4  -8 -10   46.00    1.66
  -4   8 -10   46.93    1.81
   4   8  10   47.51    1.82
  -4   8 -10   46.11    1.75
  -4   8 -10   44.46    1.82
  -4  -8  10   46.11    1.60
   4  -8 -10   46.00    1.73
  -4  -8  10   46.16    1.84
  -4   8 -10   48.25    1.54
  -6   8  10   25.80    0.98
  -6  -8 -10   26.28    1.10
   6   8 -10   26.96    1.22
  -6   8  10   24.30    1.29
  -6  -8 -10   27.60    1.38
   6   8 -10   27.03    1.22
   6  -8  10   25.57    1.24
  -6   8  10   24.51    1.20
  -6   8 -10   25.61    1.01
  -6   8 -10   27.48    1.34
  -6   8 -10   23.42    1.25
  -6  -8  10   25.86    1.29
  -6   8 -10   27.96    1.30
   6   8  10   28.09    1.37
  -6  -8  10   25.05    1.16
   6  -8 -10   26.64    1.25
  -8  -8 -10   11.50    0.64
   1  -9  10    2.82    0.55
   1  -9  10    2.31    0.46
  -1   9  10    2.98    0.53
   1   9 -10    3.07    0.51
   1   9 -10    2.99    0.51
  -1  -9 -10    2.45    0.54
  -1   9  10    3.18    0.50
  -1   9 -10    3.07    0.55
   1   9  10    2.97    0.52
  -1  -9  10    3.45    0.59
   1  -9 -10    2.89    0.49
   1   9  10    2.33    0.44
  -1   9 -10    3.61    0.53
   1  -9 -10    2.59    0.48
   3   9 -10    3.40    0.54
  -3  -9 -10    2.57    0.56
  -3   9  10    1.73    0.46
  -3  -9 -10    1.38    0.42
   3  -9  10    2.23    0.51
  -3   9  10    2.99    0.55
  -3   9  10    2.43    0.39
  -3   9  10    1.30    0.40
  -3  -9  10    2.05    0.52
  -3   9 -10    1.44    0.42
  -3   9 -10    2.61    0.55
  -3   9 -10    2.20    0.41
   3   9  10    1.94    0.49
   3  -9 -10    1.55    0.41
   3  -9 -10    1.92    0.46
   5  -9  10    1.45    0.44
  -5   9  10    1.63    0.44
   5   9 -10    1.04    0.38
  -5   9  10    1.03    0.40
  -5  -9 -10    1.50    0.49
  -5   9  10    1.42    0.31
  -5   9 -10    1.07    0.43
  -5   9 -10    1.29    0.39
   5  -9 -10    1.55    0.42
   5   9  10    0.80    0.42
  -5  -9  10    1.38    0.42
  -5  -9  10    1.35    0.47
   0 -10  10   45.05    1.84
   0  10  10   46.55    1.68
   0  10 -10   42.67    1.71
   0  10 -10   45.64    1.66
   0 -10 -10   45.57    1.80
   0  10  10   46.46    1.75
   2 -10  10   37.50    1.54
   2  10 -10   35.85    1.49
  -2 -10 -10   40.51    1.68
  -2  10  10   38.67    1.53
   2 -10  10   38.02    1.63
  -2  10  10   37.25    1.32
  -2  10 -10   34.46    1.59
   2 -10 -10   41.41    1.61
   2  10  10   36.82    1.56
  -2 -10  10   36.86    1.67
  -2  10 -10   38.70    1.37
   2 -10 -10   38.54    1.50
  -4  10  10   25.41    1.28
   4 -10  10   27.19    1.29
  -4 -10 -10   25.76    1.30
   4 -10  10   23.03    1.22
   4  10  10   25.95    1.27
   4 -10 -10   26.70    1.23
  -4 -10  10   27.25    1.36
  -4  10 -10   28.67    1.39
  -4  10 -10   26.03    1.09
  -4  10 -10   27.14    1.27
   4 -10 -10   25.55    1.23
   1 -11  10    2.06    0.49
  -1 -11 -10    1.58    0.49
  -1  11  10    1.82    0.43
   1  11 -10    1.47    0.40
  -1  11 -10    1.22    0.40
   1  11  10    1.38    0.43
  -1 -11  10    1.90    0.51
   1  11  10    1.47    0.40
   1 -11 -10    2.12    0.49
  -1  11 -10    2.14    0.48
  -1   0  11   88.93    2.21
  -1   0 -11   87.43    2.19
   1   0 -11   86.70    2.51
  -1   0 -11   83.96    1.95
   1   0  11   84.31    2.45
  -1   0 -11   84.29    2.44
  -1   0  11   85.54    1.99
   1   0 -11   86.07    1.92
  -1   0  11   85.50    2.40
  -1   0  11   83.72    2.24
   1   0 -11   85.53    1.99
   1   0  11   86.76    2.32
   1   0 -11   92.17    2.30
  -1   0  11   86.33    2.00
  -1   0 -11   93.54    2.38
  -3   0 -11   58.85    2.25
   3   0 -11   62.67    1.50
   3   0  11   62.69    1.62
  -3   0  11   66.33    1.69
   3   0 -11   65.06    1.92
   3   0  11   63.33    1.97
  -3   0  11   64.21    1.44
  -3   0 -11   66.09    1.72
  -3   0  11   63.73    2.09
  -3   0  11   64.22    2.00
   3   0  11   60.18    1.62
  -3   0 -11   63.16    1.62
   3   0  11   67.19    2.22
  -3   0 -11   63.15    2.22
  -3   0  11   63.02    1.71
  -3   0 -11   62.00    1.45
   3   0 -11   63.96    2.30
  -3   0  11   64.12    1.62
  -3   0  11   62.69    1.51
  -3   0  11   63.99    1.73
  -3   0 -11   62.24    1.70
  -3   0 -11   64.44    1.59
  -5   0  11   39.90    1.25
  -5   0 -11   43.11    1.54
   5   0  11   44.38    1.94
  -5   0 -11   41.89    1.35
   5   0  11   39.52    1.63
  -5   0  11   41.61    1.94
  -5   0 -11   41.98    1.31
  -5   0 -11   39.70    2.04
   5   0  11   41.05    1.38
  -5   0  11   42.89    1.50
  -5   0  11   42.01    1.49
  -5   0 -11   40.58    1.10
   5   0 -11   45.75    2.23
   5   0  11   38.65    2.12
   5   0 -11   37.48    1.52
  -5   0  11   41.63    1.10
  -5   0  11   41.67    1.52
   5   0 -11   40.10    1.40
   5   0  11   41.39    1.40
  -5   0  11   44.04    1.42
  -5   0 -11   40.11    1.45
  -7   0 -11   19.61    0.79
  -7   0 -11   19.62    1.17
  -7   0  11   21.72    1.19
  -7   0  11   20.53    1.17
   7   0  11   18.96    1.02
  -7   0  11   18.32    0.95
   7   0  11   19.41    1.02
  -7   0  11   19.83    1.14
  -7   0 -11   20.59    1.11
  -7   0 -11   20.84    1.05
  -7   0 -11   18.98    0.96
  -7   0  11   21.26    1.09
  -7   0  11   20.42    0.79
  -9   0  11    7.23    0.67
  -9   0 -11    7.78    0.67
   0   1  11  156.24    3.63
   0  -1  11  156.56    3.32
   0   1  11  149.72    3.24
   0  -1 -11  159.87    3.83
   0   1  11  158.55    3.34
   0  -1 -11  160.60    3.59
   0   1 -11  160.27    3.78
   0   1 -11  160.06    3.58
   0   1  11  151.78    3.23
   0  -1 -11  153.76    3.22
   0  -1  11  154.99    3.60
   0  -1 -11  154.23    3.32
   0   1 -11  153.98    3.54
   0  -1  11  156.19    3.75
   0   1  11  154.55    3.79
   2   1 -11  112.15    2.52
   2  -1  11  111.02    2.81
   2   1 -11  113.89    3.14
   2   1 -11  109.98    2.55
  -2   1  11  109.18    2.52
  -2   1  11  112.45    3.02
  -2  -1 -11  108.55    2.36
  -2  -1 -11  112.80    2.36
  -2  -1 -11  107.59    2.45
   2  -1  11  105.50    2.41
  -2   1  11  109.17    2.50
  -2  -1 -11  111.09    3.02
   2   1 -11  114.09    2.85
  -2   1  11  111.29    2.41
  -2   1  11  109.11    2.87
  -2  -1 -11  112.65    2.51
  -2   1  11  113.30    2.29
  -2  -1 -11  110.87    3.12
  -2   1  11  114.39    2.50
   2  -1  11  108.40    2.41
  -2  -1 -11  109.62    2.45
   2  -1  11  114.37    3.12
  -2  -1  11  108.51    2.44
   2   1  11  114.05    2.48
   2   1  11  112.79    2.92
  -2  -1  11  105.79    2.80
  -2  -1  11  113.88    2.89
   2   1  11  115.28    3.04
   2  -1 -11  109.63    2.41
   2  -1 -11  110.20    2.76
   2   1  11  109.21    2.48
  -2   1 -11  110.89    2.33
  -2   1 -11  112.60    2.48
  -2  -1  11  112.40    2.51
  -2   1 -11  115.47    3.13
  -2   1 -11  108.18    2.97
  -2  -1  11  112.28    2.42
  -2  -1  11  111.61    2.54
  -2   1 -11  109.44    2.49
   2  -1 -11  113.81    3.12
  -2  -1  11  107.26    2.38
  -2   1 -11  108.64    2.49
  -2   1 -11  111.69    2.40
  -2  -1  11  114.64    2.33
   4  -1  11   57.54    1.55
   4   1 -11   54.31    1.89
   4   1 -11   56.23    1.63
   4  -1  11   56.40    1.55
  -4  -1 -11   54.51    2.27
  -4   1  11   53.38    1.67
   4  -1  11   57.65    1.86
  -4   1  11   56.44    1.30
   4  -1  11   59.01    2.24
  -4  -1 -11   56.77    1.54
  -4   1  11   55.43    1.59
  -4  -1 -11   56.47    1.68
  -4  -1 -11   56.31    1.51
  -4   1  11   55.34    1.65
   4   1 -11   53.17    2.32
  -4   1  11   55.68    1.66
  -4  -1 -11   60.08    1.71
  -4   1  11   57.30    2.06
  -4   1  11   57.30    1.68
  -4  -1 -11   56.72    1.38
  -4   1  11   56.39    2.14
   4   1  11   56.73    2.06
   4   1  11   54.00    2.33
   4   1  11   54.99    1.62
  -4   1 -11   56.84    1.33
   4  -1 -11   54.28    1.77
  -4   1 -11   57.64    1.55
  -4  -1  11   57.14    1.61
  -4  -1  11   57.38    1.52
   4   1  11   55.75    1.95
   4  -1 -11   56.05    1.46
   4   1  11   53.42    1.59
  -4   1 -11   55.61    2.38
  -4  -1  11   56.63    1.38
   4  -1 -11   56.38    2.31
  -4   1 -11   57.73    1.71
  -4  -1  11   56.15    2.14
  -4  -1  11   57.03    1.72
  -4  -1  11   55.40    1.66
  -4   1 -11   57.23    1.68
  -4   1 -11   55.76    1.58
  -4   1 -11   53.52    2.15
  -4  -1  11   57.24    1.70
  -6   1  11   26.11    1.22
  -6  -1 -11   26.27    1.11
  -6   1  11   26.50    1.24
   6   1 -11   21.95    1.75
  -6  -1 -11   25.67    1.07
  -6   1  11   26.72    1.25
  -6   1  11   26.17    0.81
   6  -1  11   27.51    1.29
   6  -1  11   26.72    1.10
  -6   1  11   25.38    1.15
  -6  -1 -11   25.11    1.19
   6   1 -11   26.59    1.34
   6  -1  11   25.06    1.10
  -6  -1 -11   26.33    1.27
  -6   1  11   27.43    1.70
  -6  -1 -11   30.36    1.97
  -6   1  11   23.16    0.99
  -6  -1 -11   25.65    0.89
   6  -1  11   26.10    1.90
  -6  -1  11   26.67    1.26
   6   1  11   26.15    1.88
  -6   1 -11   24.08    1.23
   6   1  11   22.83    1.33
  -6  -1  11   25.90    1.06
  -6  -1  11   25.11    1.26
  -6  -1  11   26.00    1.06
  -6   1 -11   26.17    1.22
  -6  -1  11   25.81    1.15
  -6   1 -11   27.10    1.14
  -6  -1  11   23.49    1.58
   6  -1 -11   26.61    1.20
  -6   1 -11   25.45    0.83
  -6  -1  11   24.69    1.21
   6  -1 -11   27.23    1.84
  -6  -1  11   25.60    0.90
  -8   1  11   10.83    0.95
  -8  -1 -11   10.05    0.75
  -8  -1 -11   10.83    0.90
  -8  -1 -11    9.66    0.62
  -8   1  11   10.27    0.97
   8   1 -11    9.80    0.85
  -8   1  11    9.25    0.91
  -8   1  11    9.67    0.55
  -8  -1 -11   10.13    1.00
  -8   1  11   10.43    0.74
  -8   1  11    9.76    0.86
   8   1  11    9.17    0.84
   8   1  11   10.52    0.90
  -8   1 -11    7.97    0.78
  -8   1 -11   11.39    1.04
  -8  -1  11    9.82    0.61
  -8  -1  11    8.62    0.89
  -8  -1  11    9.51    0.96
  -8   1 -11    9.68    0.61
  -8  -1  11    8.50    0.89
  -8   1 -11   10.18    0.93
  -8  -1  11   10.62    0.77
 -10  -1 -11    2.89    0.38
 -10  -1  11    3.62    0.42
   1  -2  11   27.10    0.85
   1   2 -11   28.78    1.22
  -1   2  11   28.82    0.89
  -1  -2 -11   27.23    0.87
  -1   2  11   27.70    0.75
   1   2 -11   27.72    0.89
  -1   2  11   28.78    0.88
  -1   2  11   27.55    1.07
   1  -2  11   25.75    1.08
  -1  -2 -11   27.39    0.83
  -1   2  11   27.81    0.86
  -1   2  11   27.95    0.88
   1  -2  11   28.26    1.27
  -1  -2 -11   28.91    1.28
  -1  -2 -11   27.75    1.07
   1  -2  11   25.20    0.79
   1   2 -11   25.90    1.07
  -1  -2 -11   27.33    0.85
   1   2 -11   25.76    1.10
  -1   2  11   26.59    1.24
  -1   2 -11   26.61    1.24
   1  -2 -11   26.85    1.08
   1   2  11   26.94    0.82
  -1  -2  11   27.37    0.86
   1   2  11   27.04    0.87
  -1  -2  11   26.10    0.83
   1  -2 -11   28.12    0.86
  -1  -2  11   27.80    1.11
   1   2  11   28.33    1.25
  -1   2 -11   28.61    1.16
   1   2  11   27.53    0.88
  -1  -2  11   26.07    0.81
  -1  -2  11   27.85    1.13
  -1   2 -11   27.63    0.80
   1   2  11   29.82    1.16
  -1  -2  11   27.37    1.06
   1   2  11   27.72    1.16
  -1   2 -11   27.95    0.87
  -1   2 -11   26.69    0.85
   1  -2 -11   26.25    1.23
  -1   2 -11   25.84    0.86
   3   2 -11   23.38    0.88
   3  -2  11   22.32    0.78
  -3   2  11   22.49    0.65
  -3  -2 -11   21.55    0.87
   3  -2  11   21.94    1.02
   3   2 -11   23.02    1.32
  -3   2  11   21.62    0.85
  -3   2  11   22.10    0.87
  -3  -2 -11   22.61    0.89
   3   2 -11   22.84    1.02
   3   2 -11   23.50    1.11
  -3  -2 -11   21.94    0.78
  -3  -2 -11   23.05    0.79
  -3   2  11   22.56    1.24
  -3  -2 -11   22.91    1.31
   3  -2  11   22.41    0.79
  -3  -2 -11   22.09    0.74
  -3   2  11   22.21    0.88
   3  -2  11   23.51    1.31
  -3   2  11   24.44    1.23
  -3   2  11   22.84    0.84
  -3   2  11   23.47    0.90
  -3  -2  11   22.01    0.87
   3   2  11   22.41    1.14
  -3   2 -11   22.36    0.80
   3  -2 -11   21.86    0.99
   3  -2 -11   22.95    0.81
  -3   2 -11   22.89    0.81
  -3   2 -11   22.15    0.90
   3   2  11   23.82    1.17
  -3   2 -11   22.39    0.70
  -3  -2  11   22.36    0.89
  -3  -2  11   21.88    1.17
  -3   2 -11   22.48    0.87
   3  -2 -11   22.52    1.26
  -3  -2  11   22.41    0.73
   3   2  11   22.04    0.86
   3   2  11   22.00    0.87
  -3  -2  11   24.27    0.83
  -3   2 -11   22.49    1.15
  -3  -2  11   22.15    0.83
  -3   2 -11   22.19    0.88
  -3  -2  11   22.89    0.86
   3   2  11   21.10    0.77
  -3   2 -11   20.82    1.30
   3   2  11   24.42    1.34
  -5  -2 -11   17.43    0.93
   5   2 -11   15.68    1.57
  -5   2  11   16.82    0.93
  -5  -2 -11   14.74    0.90
  -5   2  11   17.85    0.89
  -5   2  11   15.46    1.36
  -5  -2 -11   17.56    0.83
   5  -2  11   16.07    0.95
   5  -2  11   17.36    1.32
  -5  -2 -11   16.37    1.58
   5   2 -11   16.04    1.04
  -5   2  11   14.99    0.86
  -5   2  11   16.55    0.57
   5   2 -11   16.25    0.81
  -5   2  11   16.60    0.90
  -5   2  11   16.59    0.86
  -5  -2  11   16.95    0.70
  -5   2 -11   17.59    0.95
  -5  -2  11   14.46    1.35
  -5   2 -11   17.58    0.85
  -5  -2  11   17.05    0.92
  -5  -2  11   17.42    0.96
  -5   2 -11   17.23    0.85
  -5   2 -11   14.23    0.87
  -5  -2  11   17.79    0.88
  -5   2 -11   20.23    1.54
   5  -2 -11   16.85    0.92
  -5   2 -11   16.71    0.62
  -5  -2  11   18.66    0.97
   5  -2 -11   15.64    1.48
  -5  -2  11   15.80    0.80
   5   2  11   17.07    1.65
   5   2  11   16.59    0.76
   5   2  11   18.11    1.16
  -7   2  11    9.23    0.84
  -7   2  11   10.51    0.93
  -7  -2 -11    8.17    0.73
  -7   2  11    9.00    0.89
  -7   2  11    9.18    0.73
  -7   2  11    8.40    0.47
  -7  -2 -11    9.04    0.87
  -7  -2 -11    9.72    0.83
  -7   2  11    8.76    0.88
  -7  -2 -11    9.11    0.94
   7   2 -11    9.65    0.85
  -7  -2 -11    7.49    0.61
  -7  -2  11    8.19    0.58
  -7   2 -11    7.96    0.55
  -7   2 -11    8.65    0.85
  -7   2 -11   10.49    1.01
   7   2  11    9.99    0.91
  -7  -2  11    7.00    0.84
  -7  -2  11    8.50    0.77
  -7   2 -11    8.59    0.78
  -7  -2  11    8.72    0.77
  -7  -2  11    8.56    0.88
  -7  -2  11    8.13    0.87
   7   2  11    9.03    0.86
  -9  -2 -11    4.12    0.53
  -9  -2  11    3.20    0.49
   0   3 -11   52.65    1.82
   0  -3 -11   49.13    1.48
   0   3 -11   50.23    1.63
   0   3 -11   48.60    1.27
   0  -3 -11   49.69    1.78
   0  -3  11   50.59    1.32
   0   3  11   47.41    1.31
   0  -3  11   50.22    1.75
   0   3  11   48.12    1.41
   0  -3 -11   49.05    1.61
   0  -3  11   48.51    1.50
   0   3  11   50.84    1.84
   0   3 -11   50.47    1.36
   0   3 -11   50.13    1.24
   0   3  11   47.54    1.30
   0   3  11   48.18    1.32
   0  -3  11   49.63    1.65
   0  -3  11   48.79    1.26
   0  -3 -11   50.23    1.31
   0   3  11   49.45    1.19
   0  -3 -11   49.38    1.31
   2  -3  11   35.93    1.37
  -2  -3 -11   35.67    0.99
  -2   3  11   37.48    1.15
   2   3 -11   36.91    1.46
  -2   3  11   36.31    1.17
  -2   3  11   37.41    1.13
  -2  -3 -11   37.98    1.13
  -2   3  11   37.19    1.67
  -2  -3 -11   37.70    1.08
  -2  -3 -11   37.12    1.19
  -2   3  11   37.00    1.16
   2   3 -11   38.92    1.12
   2   3 -11   35.45    1.56
   2   3 -11   39.02    1.50
   2   3 -11   38.32    1.16
  -2  -3 -11   38.11    1.68
   2  -3  11   37.05    1.05
  -2  -3 -11   39.99    1.07
  -2   3  11   37.82    0.97
   2  -3  11   37.07    1.63
  -2   3  11   39.14    1.11
  -2  -3  11   36.53    1.09
   2  -3 -11   38.79    1.40
   2  -3 -11   37.42    1.02
   2   3  11   35.93    1.13
  -2   3 -11   36.18    1.15
  -2   3 -11   38.06    1.35
  -2  -3  11   38.26    1.04
   2   3  11   37.12    1.15
   2   3  11   37.80    1.12
  -2  -3  11   36.12    1.11
  -2  -3  11   35.09    1.12
   2   3  11   37.51    1.57
  -2   3 -11   36.48    1.15
  -2  -3  11   36.60    1.06
  -2  -3  11   37.02    1.10
   2   3  11   36.34    1.50
   2   3  11   38.26    1.56
  -2   3 -11   37.65    1.16
  -2   3 -11   35.55    1.70
  -2  -3  11   36.85    1.48
  -2   3 -11   36.39    1.02
   2  -3 -11   37.41    1.13
   2  -3 -11   35.40    1.52
  -2   3 -11   40.35    1.22
   4   3 -11   21.12    0.90
   4   3 -11   19.35    1.39
   4   3 -11   20.68    1.18
  -4   3  11   18.69    0.63
  -4   3  11   20.63    1.26
  -4  -3 -11   21.30    1.45
  -4   3  11   21.11    1.37
   4  -3  11   19.04    1.00
  -4  -3 -11   20.50    0.83
   4  -3  11   21.65    1.40
  -4   3  11   21.04    0.89
  -4  -3 -11   18.93    0.92
  -4  -3 -11   19.40    0.77
   4   3 -11   19.15    0.87
  -4  -3 -11   20.98    0.96
  -4   3  11   20.48    0.95
  -4   3  11   20.30    0.90
  -4   3  11   21.37    0.90
  -4   3  11   20.39    0.94
  -4   3 -11   19.87    0.69
   4   3  11   19.60    1.21
   4   3  11   19.79    0.84
  -4  -3  11   18.98    0.77
  -4  -3  11   18.83    0.93
  -4  -3  11   21.30    0.94
   4  -3 -11   19.29    0.83
  -4   3 -11   18.39    0.82
  -4  -3  11   21.46    1.29
  -4  -3  11   19.54    0.84
   4   3  11   20.88    1.42
  -4  -3  11   19.56    0.93
  -4   3 -11   22.00    0.94
  -4   3 -11   19.16    1.41
   4  -3 -11   20.84    1.02
  -4   3 -11   19.08    0.83
  -4   3 -11   20.09    0.97
   4   3  11   18.87    0.89
   4   3  11   20.39    0.92
   4  -3 -11   20.60    1.28
  -4   3 -11   20.89    0.96
  -6   3  11    9.85    0.85
  -6   3  11   10.50    0.91
   6   3 -11    9.42    0.82
   6  -3  11   10.07    1.31
  -6   3  11   11.27    0.96
  -6  -3 -11    9.85    0.71
  -6   3  11   11.38    0.78
  -6  -3 -11    9.75    0.92
  -6   3  11    9.52    0.46
  -6  -3 -11   10.55    0.92
  -6  -3 -11    8.97    0.68
  -6  -3 -11    8.78    0.59
  -6   3  11    8.91    0.79
  -6  -3  11    8.71    0.88
   6   3  11    9.90    0.66
  -6  -3  11    9.74    0.93
  -6   3 -11   11.03    0.74
  -6  -3  11   10.28    0.64
  -6  -3  11    8.73    0.73
  -6  -3  11    9.19    0.87
  -6   3 -11   10.25    0.94
  -6   3 -11   10.15    0.90
  -6   3 -11    9.73    0.54
  -6   3 -11   10.34    0.73
   6   3  11    9.68    0.85
  -6  -3  11   10.36    0.74
   6   3  11    9.59    0.85
  -8   3  11    4.18    0.60
   8   3 -11    3.78    0.55
  -8  -3 -11    4.67    0.61
  -8  -3 -11    3.81    0.49
  -8  -3 -11    3.53    0.64
  -8   3  11    4.90    0.69
  -8   3  11    4.18    0.38
  -8  -3 -11    3.89    0.57
   8   3  11    4.38    0.64
  -8  -3  11    4.66    0.59
  -8   3 -11    3.64    0.61
  -8  -3  11    4.21    0.66
  -8  -3  11    3.21    0.54
  -8  -3  11    4.14    0.66
  -8   3 -11    3.79    0.63
  -8  -3  11    4.61    0.70
  -8  -3  11    3.65    0.47
   8   3  11    6.05    0.74
  -8   3 -11    5.37    0.47
 -10  -3 -11    1.64    0.32
 -10  -3  11    1.40    0.30
  -1   4  11   19.93    0.74
  -1   4  11   21.68    0.80
  -1  -4 -11   23.41    0.88
  -1  -4 -11   22.94    1.22
  -1  -4 -11   22.57    0.94
   1   4 -11   20.13    0.75
  -1   4  11   20.17    1.23
  -1   4  11   19.59    0.77
   1   4 -11   21.31    1.19
   1  -4  11   21.25    1.05
   1  -4  11   21.73    0.93
   1  -4  11   22.49    0.86
  -1  -4 -11   21.19    0.74
  -1   4  11   21.69    0.84
  -1  -4 -11   20.68    0.77
   1   4 -11   21.53    0.85
  -1   4  11   21.33    0.69
   1  -4  11   20.44    0.73
   1   4 -11   21.73    1.06
   1  -4  11   20.38    1.16
  -1   4  11   20.16    0.78
  -1   4 -11   22.06    0.86
   1   4  11   21.08    0.81
  -1   4 -11   20.68    0.79
  -1   4 -11   21.70    0.75
  -1  -4  11   19.45    1.00
   1   4  11   19.00    1.12
  -1  -4  11   20.61    0.75
  -1  -4  11   20.06    0.80
   1  -4 -11   20.39    0.79
  -1   4 -11   21.88    1.28
   1  -4 -11   20.37    1.03
   1  -4 -11   20.41    1.09
   1   4  11   21.97    1.07
   1  -4 -11   20.76    0.78
  -1   4 -11   21.46    0.79
   1   4  11   20.31    0.79
  -1  -4  11   20.59    1.04
   1   4  11   21.01    0.79
   1  -4 -11   22.33    1.05
  -3  -4 -11   19.20    0.86
  -3  -4 -11   16.49    1.23
  -3  -4 -11   18.13    0.70
  -3   4  11   18.15    1.28
   3   4 -11   19.10    0.83
  -3   4  11   17.45    0.77
   3   4 -11   18.38    1.24
  -3  -4 -11   19.63    0.76
   3  -4  11   16.39    1.22
  -3   4  11   18.12    0.64
  -3   4  11   20.36    0.84
  -3   4  11   17.01    0.84
   3  -4  11   19.02    0.74
   3   4 -11   18.03    0.81
  -3  -4 -11   18.33    0.88
   3   4 -11   20.09    1.18
   3  -4  11   17.73    0.98
  -3   4  11   18.41    0.87
   3   4 -11   17.90    1.13
  -3  -4  11   17.98    0.73
   3   4  11   18.01    1.24
   3  -4 -11   17.54    1.09
  -3   4 -11   17.90    0.88
  -3   4 -11   17.57    0.82
   3  -4 -11   16.41    0.95
   3  -4 -11   18.86    1.14
  -3   4 -11   17.84    0.85
   3   4  11   19.59    1.20
  -3  -4  11   19.35    0.83
  -3   4 -11   17.71    0.69
  -3   4 -11   17.46    1.31
   3   4  11   19.27    0.85
  -3  -4  11   17.53    0.80
  -3  -4  11   17.61    0.80
  -3   4 -11   18.71    0.85
  -3  -4  11   19.31    0.81
   3   4  11   18.48    0.82
  -3  -4  11   18.13    0.82
  -3  -4  11   17.12    1.12
   3   4  11   16.82    0.82
   5  -4  11   14.58    0.72
   5  -4  11   13.79    1.45
  -5   4  11   12.64    0.54
   5   4 -11   14.94    1.62
  -5  -4 -11   14.26    1.56
   5   4 -11   13.86    1.25
  -5  -4 -11   12.50    0.73
  -5  -4 -11   13.16    0.85
  -5   4  11   12.91    0.85
  -5  -4 -11   12.58    0.75
  -5  -4 -11   14.71    0.92
  -5   4  11   12.64    0.79
   5   4 -11   12.33    0.79
   5  -4  11   13.11    0.90
  -5   4  11   13.30    0.87
  -5  -4 -11   13.72    0.71
  -5   4  11   13.98    1.47
  -5  -4  11   14.11    0.81
  -5   4 -11   12.63    0.60
   5  -4 -11   11.89    1.20
   5   4  11   12.58    1.47
  -5   4 -11   12.81    0.86
  -5  -4  11   12.20    0.85
  -5  -4  11   11.57    1.28
  -5  -4  11   13.47    0.86
  -5   4 -11   14.06    1.61
  -5   4 -11   13.70    0.90
   5  -4 -11   13.27    0.76
  -5   4 -11   12.86    0.82
   5   4  11   13.53    1.31
   5   4  11   12.81    0.83
   5   4  11   14.35    0.87
  -5  -4  11   10.87    0.79
   5  -4 -11   14.81    0.89
  -5  -4  11   13.64    0.71
   5   4  11   12.41    0.77
   7   4 -11    4.54    0.60
  -7   4  11    6.37    0.41
  -7  -4 -11    5.97    0.68
  -7   4  11    6.24    0.71
  -7   4  11    8.63    0.88
  -7  -4 -11    7.42    0.72
  -7  -4 -11    6.18    0.61
  -7  -4 -11    5.87    0.76
  -7   4  11    5.46    0.74
  -7  -4 -11    6.94    0.79
  -7   4 -11    6.40    0.70
  -7   4 -11    6.58    0.78
  -7  -4  11    6.30    0.65
  -7  -4  11    6.91    0.73
  -7  -4  11    5.67    0.77
  -7  -4  11    5.41    0.74
  -7   4 -11    6.11    0.50
   7   4  11    4.77    0.68
  -7   4 -11    6.16    0.73
  -7  -4  11    4.81    0.70
   7   4  11    6.47    0.78
  -7  -4  11    7.13    0.65
   7   4  11    8.96    0.78
  -9  -4 -11    3.47    0.50
  -9  -4  11    3.00    0.45
   0  -5  11   71.21    2.30
   0   5  11   66.15    1.68
   0   5 -11   64.68    1.68
   0  -5 -11   67.80    1.81
   0   5  11   65.14    1.71
   0   5  11   65.20    1.62
   0  -5 -11   69.84    2.27
   0   5 -11   64.48    1.66
   0   5 -11   66.40    1.69
   0   5 -11   67.94    1.86
   0  -5  11   66.19    1.68
   0  -5 -11   67.37    2.21
   0  -5  11   66.22    2.13
   0   5  11   65.23    1.81
   0   5  11   66.81    2.46
   0   5  11   64.96    1.69
   0   5 -11   68.83    2.52
   0   5 -11   68.22    1.70
   0  -5 -11   69.75    2.14
   0  -5  11   66.98    1.84
   0  -5 -11   66.24    1.75
   0  -5  11   68.26    2.22
  -2   5  11   55.78    2.38
   2   5 -11   53.96    1.58
   2  -5  11   54.17    2.27
  -2   5  11   55.16    1.42
   2  -5  11   53.07    1.67
   2   5 -11   53.21    2.21
  -2  -5 -11   56.20    1.58
   2  -5  11   54.84    1.46
  -2  -5 -11   57.67    2.26
  -2   5  11   56.99    1.60
  -2   5  11   53.83    1.64
  -2   5  11   56.30    1.67
  -2  -5 -11   53.61    1.49
   2   5 -11   56.01    1.64
   2  -5  11   55.82    1.96
  -2  -5 -11   54.75    1.68
   2  -5 -11   55.45    1.95
   2  -5 -11   55.78    1.57
   2  -5 -11   56.07    2.05
  -2   5 -11   57.65    1.71
   2   5  11   56.74    2.18
   2   5  11   54.68    1.65
   2  -5 -11   52.67    1.60
  -2   5 -11   55.62    1.65
  -2  -5  11   56.32    1.66
   2   5  11   56.89    1.63
  -2  -5  11   54.95    2.10
  -2  -5  11   52.52    1.53
   2   5  11   56.93    2.08
  -2   5 -11   56.73    1.64
  -2   5 -11   56.29    1.49
   2   5  11   54.39    1.58
  -2   5 -11   57.05    2.48
  -4  -5 -11   35.15    1.17
   4   5 -11   34.91    1.79
   4  -5  11   34.36    1.15
  -4   5  11   38.15    2.11
  -4   5  11   34.42    1.04
  -4  -5 -11   37.16    1.43
  -4   5  11   36.02    1.42
  -4   5  11   35.30    1.32
  -4  -5 -11   36.50    1.21
   4  -5  11   34.17    2.00
  -4   5  11   34.41    1.38
   4  -5  11   35.89    1.55
   4   5 -11   35.71    1.83
  -4  -5 -11   35.15    1.40
   4   5 -11   32.49    1.26
   4   5 -11   38.99    2.04
  -4  -5 -11   34.99    2.01
  -4   5 -11   37.37    1.43
   4   5  11   35.34    1.35
   4   5  11   36.59    1.34
  -4   5 -11   36.90    1.44
  -4  -5  11   36.18    1.22
   4   5  11   32.12    1.78
   4   5  11   34.92    1.97
  -4  -5  11   34.90    1.34
  -4  -5  11   32.64    1.79
  -4   5 -11   32.96    1.33
   4  -5 -11   34.29    1.73
  -4   5 -11   35.16    1.38
  -4  -5  11   35.86    1.33
  -4  -5  11   33.81    1.33
  -4  -5  11   34.20    1.33
  -4  -5  11   33.68    1.28
  -4   5 -11   37.31    2.18
  -4   5 -11   36.94    1.12
   4  -5 -11   34.95    1.49
   4   5  11   33.76    1.31
   6   5 -11   15.54    0.93
  -6   5  11   16.98    1.06
  -6  -5 -11   16.04    0.86
  -6  -5 -11   17.69    1.12
  -6   5  11   18.04    1.00
  -6  -5 -11   17.37    0.94
  -6   5  11   17.02    0.69
  -6  -5 -11   18.73    0.94
  -6  -5 -11   18.37    1.06
  -6   5  11   18.83    1.10
  -6  -5  11   18.45    1.00
  -6   5 -11   18.30    1.04
   6   5  11   16.84    1.03
  -6  -5  11   18.78    1.11
   6   5  11   15.88    1.00
  -6  -5  11   16.64    0.89
  -6   5 -11   15.29    1.03
  -6  -5  11   18.89    0.92
  -6  -5  11   17.44    1.06
  -6   5 -11   16.31    1.04
  -6   5 -11   16.79    0.76
  -6  -5  11   17.76    1.05
   6   5  11   17.69    0.99
   6  -5 -11   16.95    0.95
  -8  -5 -11    6.88    0.68
  -8  -5 -11    6.69    0.68
  -8  -5  11    7.31    0.74
  -8  -5  11    6.10    0.64
 -10  -5 -11    1.76    0.28
  -1  -6 -11   37.56    1.37
   1   6 -11   40.21    2.00
  -1  -6 -11   40.18    1.76
   1   6 -11   41.03    1.31
   1   6 -11   40.48    1.39
  -1   6  11   39.09    1.99
   1  -6  11   40.05    1.72
  -1   6  11   39.66    1.30
   1  -6  11   39.99    1.63
  -1  -6 -11   39.87    1.26
   1  -6  11   38.58    1.19
  -1  -6 -11   41.85    1.65
   1  -6  11   40.98    1.41
  -1   6  11   40.23    1.19
  -1   6  11   38.34    1.37
   1  -6  11   41.07    1.91
  -1   6  11   40.48    1.33
  -1   6 -11   38.40    1.41
   1   6  11   40.92    1.88
  -1   6 -11   39.26    1.24
   1   6  11   41.94    1.40
  -1  -6  11   40.47    1.25
  -1  -6  11   40.86    1.75
  -1   6 -11   41.64    2.12
  -1   6 -11   41.33    1.25
  -1   6 -11   38.70    1.31
   1  -6 -11   39.11    1.69
  -1  -6  11   39.01    1.40
   1  -6 -11   41.94    1.74
   1  -6 -11   40.13    1.34
   1  -6 -11   39.74    1.36
  -1   6 -11   42.81    1.33
   1   6  11   39.91    1.21
   3  -6  11   34.69    1.37
  -3   6  11   32.84    1.31
   3  -6  11   32.35    1.88
  -3  -6 -11   30.15    1.30
  -3  -6 -11   36.33    1.33
   3  -6  11   31.51    1.51
   3   6 -11   30.72    1.80
  -3   6  11   34.13    2.01
   3   6 -11   31.49    1.22
  -3   6  11   32.84    1.25
  -3   6  11   33.62    1.33
  -3   6  11   31.00    1.04
  -3  -6 -11   36.59    1.93
   3   6 -11   31.24    1.19
  -3  -6  11   30.12    1.29
   3   6  11   30.87    1.29
  -3   6 -11   34.94    2.11
  -3  -6  11   30.91    1.69
  -3   6 -11   30.75    1.31
  -3   6 -11   30.07    1.25
   3   6  11   33.46    1.85
   3   6  11   32.57    1.25
   3  -6 -11   30.63    1.47
  -3   6 -11   32.54    1.31
  -3   6 -11   31.13    1.10
  -3  -6  11   31.23    1.18
   3  -6 -11   32.05    1.67
   3  -6 -11   33.32    1.21
   3   6  11   30.68    1.21
   5   6 -11   19.15    1.02
  -5  -6 -11   19.06    1.10
  -5  -6 -11   19.24    0.93
  -5   6  11   19.03    1.11
  -5   6  11   19.86    0.79
   5   6 -11   18.99    1.02
  -5  -6 -11   20.28    0.93
  -5  -6 -11   16.92    0.93
  -5   6  11   20.11    1.11
  -5  -6 -11   18.35    1.10
  -5   6  11   19.53    1.05
   5  -6 -11   19.76    1.05
   5   6  11   20.25    1.09
  -5  -6  11   21.09    1.07
  -5  -6  11   20.40    1.09
  -5  -6  11   19.09    1.02
  -5  -6  11   21.39    1.12
  -5   6 -11   19.67    1.09
   5   6  11   18.60    1.04
  -5   6 -11   19.62    0.85
  -5   6 -11   21.61    1.15
  -5   6 -11   19.27    1.08
  -5  -6  11   20.02    0.91
   5   6  11   19.75    1.06
  -5  -6  11   18.39    0.92
  -7   6  11    7.92    0.83
  -7   6  11    8.63    0.51
  -7  -6 -11    8.87    0.75
  -7  -6 -11   10.23    0.72
   7   6 -11    9.32    0.81
   7  -6  11   11.16    0.94
  -7  -6 -11   12.13    1.06
   7   6 -11   10.12    0.92
  -7  -6 -11    7.91    0.73
  -7   6  11    8.07    0.77
  -7  -6  11    7.63    0.70
   7   6  11   10.71    0.94
  -7   6 -11    8.09    0.86
   7   6  11    9.10    0.85
   7   6  11    9.36    0.90
  -7  -6  11   10.16    0.71
  -7  -6  11    7.46    0.75
  -7  -6  11    8.90    0.91
  -7  -6  11    9.04    0.87
  -7   6 -11    8.69    0.84
  -7   6 -11    8.46    0.56
  -9  -6 -11    4.08    0.47
  -9  -6  11    4.37    0.46
   0   7 -11   43.15    2.26
   0  -7  11   40.30    1.53
   0  -7 -11   44.29    1.87
   0   7 -11   43.91    1.56
   0  -7 -11   40.73    1.39
   0  -7  11   41.51    1.84
   0   7  11   42.44    1.50
   0   7  11   41.72    1.37
   0  -7  11   42.33    1.30
   0   7  11   40.00    2.07
   0   7 -11   43.58    1.41
   0  -7 -11   43.72    1.53
  -2  -7 -11   38.68    1.50
  -2   7  11   36.77    1.34
  -2  -7 -11   35.73    1.34
   2  -7  11   37.92    1.47
  -2   7  11   38.93    1.44
  -2   7  11   36.47    1.19
   2   7 -11   36.73    1.37
   2  -7  11   38.32    1.78
   2   7 -11   36.19    2.08
  -2   7  11   32.10    2.01
   2  -7  11   37.67    2.04
  -2   7  11   36.42    1.39
   2   7 -11   35.24    1.34
   2  -7 -11   37.69    1.75
  -2  -7  11   32.44    1.40
  -2  -7  11   37.39    1.88
  -2   7 -11   35.88    1.47
   2   7  11   35.94    1.41
  -2   7 -11   37.49    1.26
   2  -7 -11   37.82    1.39
  -2  -7  11   36.53    1.28
  -2   7 -11   36.83    1.40
  -2   7 -11   34.84    1.35
   2  -7 -11   38.46    1.85
  -2   7 -11   35.61    2.16
   2  -7 -11   37.07    1.37
  -4   7  11   24.13    1.20
  -4  -7 -11   25.56    1.25
  -4  -7 -11   23.27    1.21
   4   7 -11   23.23    1.13
  -4  -7 -11   22.40    0.99
  -4   7  11   21.56    1.18
   4  -7  11   23.32    1.19
  -4   7  11   24.64    0.94
  -4   7  11   23.12    1.14
   4  -7 -11   23.87    1.08
  -4   7 -11   23.33    0.98
  -4   7 -11   23.21    1.18
   4   7  11   24.41    1.19
  -4   7 -11   22.78    1.21
   4   7  11   23.92    1.23
   4   7  11   22.70    1.15
   4  -7 -11   21.89    1.12
  -4  -7  11   25.41    1.25
  -4   7 -11   23.98    1.21
  -4  -7  11   24.75    1.11
  -6  -7 -11   12.48    1.08
  -6   7  11   12.21    0.85
  -6  -7 -11   12.43    1.04
   6   7 -11    9.64    0.85
  -6  -7 -11   13.10    0.82
  -6   7  11   11.06    1.00
   6  -7  11   10.73    0.94
   6   7 -11   12.13    0.86
  -6   7  11   12.51    0.65
  -6   7 -11   11.33    1.01
   6   7  11   10.74    0.96
  -6   7 -11   12.15    0.89
  -6  -7  11   12.72    0.87
  -6   7 -11   11.27    0.67
   6   7  11   12.30    1.00
   6  -7 -11   13.97    0.89
  -6   7 -11   11.99    0.90
   6   7  11   12.72    1.04
  -8  -7 -11    6.47    0.59
  -8  -7  11    5.65    0.54
  -1   8  11    9.11    0.58
  -1   8  11    7.83    0.77
  -1   8  11    8.78    0.76
   1   8 -11    8.56    0.75
   1  -8  11    9.79    0.80
   1  -8  11    7.33    0.78
  -1   8  11    8.79    1.28
   1   8 -11    8.49    0.78
  -1  -8 -11    9.40    0.86
   1  -8  11    7.63    0.97
   1   8 -11   12.33    1.54
   1   8  11    9.55    0.66
  -1  -8  11    8.17    0.82
   1  -8 -11   10.17    1.17
  -1  -8  11    8.73    0.62
  -1   8 -11    7.51    1.28
   1   8  11    7.35    0.75
  -1   8 -11    8.65    0.60
  -1   8 -11    8.10    0.81
  -1   8 -11    9.28    0.66
  -1  -8  11    7.86    1.04
   1  -8 -11    9.40    0.82
   1  -8 -11   10.39    0.71
  -1   8 -11    8.69    0.74
  -3  -8 -11    8.17    0.79
   3  -8  11    6.63    0.75
  -3  -8 -11    6.96    0.81
  -3   8  11    8.05    0.81
  -3   8  11    7.11    0.72
  -3   8  11    7.74    0.79
  -3   8  11    6.87    0.60
   3   8 -11    7.69    0.75
  -3   8 -11    6.83    0.75
  -3   8 -11    7.03    0.74
  -3  -8  11    7.25    0.80
   3   8  11    7.98    0.84
  -3   8 -11    8.65    0.88
   3  -8 -11    7.89    0.78
   3  -8 -11    6.66    0.73
  -3  -8  11    7.60    0.68
  -3   8 -11    8.00    0.67
  -5  -8 -11    4.47    0.67
   5   8 -11    4.28    0.60
   5  -8  11    3.68    0.60
  -5   8  11    4.59    0.49
  -5  -8 -11    4.46    0.68
  -5   8  11    5.49    0.74
  -5   8  11    4.28    0.60
  -5   8 -11    4.14    0.61
  -5   8 -11    5.18    0.54
   5  -8 -11    5.34    0.69
  -5  -8  11    3.80    0.55
   5   8  11    3.90    0.68
  -5   8 -11    4.15    0.65
  -5  -8  11    5.26    0.73
  -5   8 -11    4.80    0.68
  -7  -8 -11    3.56    0.46
   0   9 -11   12.37    0.82
   0   9  11   11.54    0.78
   0  -9  11    9.73    0.93
   0   9  11   12.22    0.86
   0  -9 -11    9.91    0.93
   0   9 -11   13.69    0.91
   2   9 -11   10.15    0.86
   2  -9  11   10.95    0.98
  -2   9  11   12.22    0.84
  -2   9  11   10.08    0.66
  -2   9  11   10.37    0.92
  -2  -9 -11    9.79    0.94
  -2   9  11    9.75    0.84
   2  -9  11   12.50    0.86
   2   9  11    9.55    0.91
  -2  -9  11    8.99    0.93
   2  -9 -11   10.83    0.89
  -2   9 -11   11.03    0.80
  -2   9 -11    8.61    0.88
  -2   9 -11   10.67    0.71
   2  -9 -11   11.95    0.98
  -4  -9 -11    8.16    0.87
  -4   9  11    6.91    0.61
  -4  -9 -11    7.45    0.81
   4   9 -11    7.04    0.74
   4  -9  11    7.96    0.81
  -4   9  11    6.51    0.71
  -4   9  11    8.06    0.84
  -4  -9  11    7.10    0.82
   4  -9 -11    5.89    0.70
  -4   9 -11    7.34    0.79
   4   9  11    6.85    0.77
  -4   9 -11    7.25    0.64
  -4   9 -11    7.85    0.78
  -4  -9  11    7.62    0.71
   4  -9 -11   10.09    0.86
  -4   9 -11    7.68    0.86
  -1  10  11    4.07    0.59
   1 -10  11    4.25    0.67
   1  10 -11    4.74    0.64
   1  10 -11    3.32    0.53
  -1 -10 -11    2.74    0.58
  -1  10  11    4.31    0.62
   1  10  11    2.92    0.49
   1  10  11    2.96    0.55
  -1 -10  11    2.79    0.56
  -1  10 -11    2.47    0.52
   1 -10 -11    4.26    0.58
  -1  10 -11    3.91    0.57
   1 -10 -11    3.11    0.57
   3 -10  11    3.02    0.58
   3  10 -11    3.04    0.53
  -3  10  11    2.90    0.54
   3 -10  11    2.63    0.52
  -3  10  11    3.21    0.44
  -3  10  11    2.50    0.50
  -3 -10 -11    2.84    0.56
   3 -10 -11    2.96    0.54
  -3  10 -11    2.89    0.53
  -3 -10  11    2.54    0.55
   3  10  11    2.87    0.53
   3 -10 -11    3.19    0.56
  -3  10 -11    2.57    0.55
  -3  10 -11    3.10    0.46
   0 -11 -11   14.96    0.99
   0  11  11   11.69    0.96
   0  11  11   13.56    0.86
   0 -11  11   12.42    1.05
   0  11 -11   12.79    0.91
   0  11 -11   12.70    0.86
  -2  11  11   11.30    0.90
   2 -11  11   12.56    0.91
   2  11 -11   11.76    0.94
  -2 -11 -11   11.32    0.98
  -2  11 -11   10.94    0.97
  -2 -11  11   10.55    0.96
   2  11  11   13.96    0.93
   2 -11 -11   12.79    0.90
   0   0 -12   55.17    1.68
   0   0 -12   55.02    1.39
   0   0  12   53.90    1.72
   0   0  12   59.63    1.48
   0   0 -12   52.45    1.85
   0   0  12   57.46    1.86
   0   0  12   55.84    1.40
   0   0 -12   57.42    1.58
   0   0  12   56.13    1.42
  -2   0  12   37.09    1.47
   2   0  12   41.78    1.48
  -2   0  12   38.20    1.12
  -2   0  12   38.71    1.07
  -2   0 -12   40.36    1.17
  -2   0  12   39.09    1.18
   2   0  12   39.49    1.15
  -2   0 -12   39.70    1.14
   2   0 -12   39.94    1.41
  -2   0 -12   38.87    1.04
  -2   0  12   41.03    1.46
  -2   0 -12   41.19    1.62
  -2   0  12   39.07    1.00
   2   0  12   37.27    1.58
   2   0 -12   40.85    1.19
   2   0 -12   39.89    1.07
  -2   0 -12   40.77    1.63
   2   0  12   41.03    1.14
  -2   0  12   39.79    1.20
   2   0 -12   38.96    1.65
  -2   0 -12   38.46    1.13
  -2   0 -12   38.76    1.09
  -4   0  12   17.29    1.13
  -4   0  12   18.89    0.83
  -4   0 -12   18.59    0.90
   4   0 -12   18.96    0.87
  -4   0 -12   19.12    0.80
  -4   0 -12   20.62    1.32
   4   0  12   20.81    0.85
  -4   0  12   18.19    0.86
  -4   0 -12   18.47    1.33
  -4   0  12   19.89    0.93
  -4   0 -12   17.79    0.79
   4   0 -12   18.10    1.31
   4   0  12   19.14    1.21
  -4   0  12   19.72    0.91
   4   0  12   19.83    0.84
  -4   0 -12   18.84    0.67
   4   0 -12   17.94    0.99
  -4   0 -12   20.44    0.90
  -4   0  12   19.36    0.74
  -4   0  12   19.86    0.66
   4   0  12   18.39    1.04
  -6   0 -12    9.17    1.29
  -6   0  12    8.89    0.79
  -6   0  12    9.10    0.65
  -6   0  12    8.45    0.83
  -6   0 -12    9.35    0.53
   6   0  12    8.10    0.74
   6   0 -12    8.63    0.85
   6   0  12    8.54    1.29
  -6   0 -12    8.26    0.82
  -6   0  12    8.84    0.87
  -6   0 -12    9.28    0.74
   6   0 -12    8.76    1.28
  -6   0 -12    8.60    0.75
   6   0  12    8.21    0.74
  -6   0  12    8.29    1.11
   6   0 -12    9.84    0.83
  -6   0  12    8.81    0.49
   6   0  12    9.17    0.93
  -6   0 -12    9.96    0.91
  -6   0  12    8.95    0.84
  -8   0 -12    4.32    0.68
  -8   0 -12    3.22    0.44
  -8   0  12    4.47    0.70
  -8   0 -12    4.30    0.65
  -8   0  12    5.17    0.61
  -8   0  12    3.68    0.43
   8   0  12    4.77    0.62
   8   0  12    4.65    0.62
  -8   0  12    3.45    0.60
  -8   0 -12    3.10    0.58
  -8   0 -12    3.77    0.52
  -8   0  12    4.73    0.72
 -10   0  12    2.14    0.35
   1   1 -12  161.42    3.40
  -1   1  12  163.65    3.22
   1   1 -12  161.94    4.01
  -1  -1 -12  160.44    3.35
  -1  -1 -12  154.48    3.65
  -1   1  12  159.12    3.39
   1  -1  12  157.10    4.00
   1  -1  12  160.67    3.77
   1  -1  12  162.55    3.21
  -1  -1 -12  156.83    3.18
   1   1 -12  162.46    3.54
  -1   1  12  160.33    3.42
   1  -1  12  164.89    3.28
   1  -1  12  158.66    3.32
  -1  -1 -12  159.98    4.04
  -1   1  12  158.81    3.64
  -1  -1 -12  163.39    3.76
  -1  -1 -12  157.21    3.25
  -1  -1 -12  159.12    3.35
  -1   1  12  163.28    4.01
   1  -1  12  160.68    3.31
   1   1 -12  160.24    3.75
  -1   1 -12  159.21    3.33
  -1  -1  12  156.35    3.73
  -1   1 -12  161.43    3.37
  -1  -1  12  159.52    3.85
  -1  -1  12  161.64    3.38
  -1  -1  12  158.99    3.38
   1  -1 -12  156.25    3.32
   1  -1 -12  160.69    3.74
  -1  -1  12  162.62    3.23
   1   1  12  159.49    3.37
   1  -1 -12  166.50    4.04
  -1   1 -12  160.98    3.88
   1   1  12  159.61    3.97
  -1   1 -12  157.90    3.91
  -1   1 -12  158.39    3.26
  -1  -1  12  158.47    3.63
   1   1  12  162.59    3.37
   1   1  12  160.74    3.84
  -1  -1  12  155.22    3.26
  -3  -1 -12   97.01    2.15
   3   1 -12   99.38    3.13
  -3  -1 -12   98.37    2.29
   3  -1  12   97.05    2.27
   3   1 -12   97.82    2.72
  -3  -1 -12   93.09    3.03
  -3   1  12   94.54    2.88
   3  -1  12   93.89    2.99
  -3  -1 -12   99.12    2.24
  -3   1  12   96.69    2.38
   3  -1  12   97.49    2.28
  -3   1  12  101.87    2.40
  -3  -1 -12   96.07    2.38
   3   1 -12   97.62    2.37
  -3   1  12   98.77    2.86
  -3   1  12   97.37    2.08
  -3   1  12   95.63    2.29
  -3   1  12  100.25    2.42
  -3   1  12   98.19    2.39
  -3  -1 -12   97.15    2.36
   3  -1  12  103.19    2.73
  -3  -1  12   94.34    2.62
   3   1  12  100.56    2.80
  -3   1 -12   94.78    2.91
  -3  -1  12   94.66    2.21
   3   1  12   99.66    2.89
  -3  -1  12   96.91    2.34
   3  -1 -12   95.45    2.60
   3   1  12   99.17    2.34
   3   1  12  100.25    2.35
  -3   1 -12   94.79    2.32
  -3  -1  12   98.23    2.30
  -3  -1  12   95.31    2.41
  -3   1 -12   97.57    2.12
  -3  -1  12   93.69    2.38
  -3   1 -12   96.40    2.38
  -3   1 -12   93.87    2.25
  -3   1 -12   98.10    2.39
   3  -1 -12   97.07    2.22
  -3  -1  12  101.37    2.89
   3  -1 -12   92.99    3.02
  -3   1 -12   99.60    3.16
  -3  -1  12  100.35    2.14
  -5   1  12   51.49    2.19
  -5   1  12   49.00    1.26
   5  -1  12   51.34    2.25
  -5  -1 -12   51.99    1.69
   5  -1  12   47.00    1.51
  -5   1  12   47.27    1.67
  -5   1  12   46.99    1.64
  -5  -1 -12   50.83    1.74
  -5   1  12   47.54    1.68
  -5  -1 -12   50.32    2.40
   5   1 -12   50.66    2.48
  -5   1  12   53.17    1.62
   5  -1  12   52.36    1.54
  -5  -1 -12   48.20    1.33
  -5  -1 -12   51.39    1.54
  -5   1  12   49.52    1.62
   5   1 -12   49.25    1.88
   5   1 -12   48.26    1.59
   5  -1  12   47.84    1.83
  -5  -1  12   49.64    1.60
   5  -1 -12   44.80    1.70
   5   1  12   52.17    1.64
   5   1  12   49.19    1.95
  -5   1 -12   45.91    2.38
  -5  -1  12   49.11    1.68
   5   1  12   48.97    1.60
   5  -1 -12   47.20    2.30
  -5   1 -12   48.25    1.54
  -5   1 -12   50.47    1.55
  -5  -1  12   43.43    2.08
  -5  -1  12   50.34    1.33
  -5  -1  12   50.54    1.74
  -5   1 -12   46.51    2.20
   5   1  12   48.09    2.40
  -5  -1  12   49.41    1.70
  -5   1 -12   46.55    1.67
  -5   1 -12   50.53    1.70
  -5   1 -12   48.24    1.28
  -5  -1  12   49.16    1.48
  -7   1  12   19.45    0.98
  -7  -1 -12   21.57    1.15
  -7   1  12   23.71    1.24
  -7  -1 -12   22.50    1.10
  -7  -1 -12   21.95    1.04
  -7  -1 -12   22.55    0.91
  -7  -1 -12   21.80    1.23
  -7   1  12   20.89    0.80
  -7   1  12   23.02    1.21
  -7   1  12   20.20    1.09
  -7   1  12   21.18    1.19
  -7  -1  12   21.19    1.22
  -7  -1  12   21.69    1.02
  -7  -1  12   20.19    0.87
   7   1  12   20.36    1.09
  -7   1 -12   21.46    1.11
  -7   1 -12   19.66    0.83
   7  -1 -12   20.28    1.10
  -7  -1  12   21.04    1.21
  -7   1 -12   22.75    1.20
   7   1  12   22.45    1.14
  -7   1 -12   19.19    1.16
  -7  -1  12   21.19    1.03
  -7  -1  12   20.21    1.21
  -9  -1 -12    7.46    0.65
  -9   1  12    7.22    0.62
  -9  -1  12    7.63    0.69
   0  -2 -12  138.34    3.53
   0   2  12  133.65    2.92
   0   2  12  136.41    3.56
   0  -2 -12  138.05    3.02
   0  -2 -12  129.99    2.87
   0  -2 -12  133.83    3.26
   0   2 -12  135.74    3.41
   0   2  12  135.39    2.86
   0   2  12  139.24    3.36
   0   2  12  137.93    2.97
   0   2 -12  131.52    3.24
   0  -2  12  131.78    2.80
   0  -2  12  128.74    2.84
   0  -2  12  137.12    3.46
   0  -2  12  131.75    3.30
   0  -2 -12  132.01    2.84
   0  -2  12  128.52    2.83
   0   2  12  136.06    2.91
   0   2 -12  129.83    2.85
   0   2 -12  132.81    3.34
   0  -2  12  137.09    3.06
   2  -2  12  101.98    2.29
  -2  -2 -12  103.85    2.38
  -2  -2 -12  109.61    2.49
  -2   2  12  103.08    2.43
  -2  -2 -12  103.82    2.37
  -2  -2 -12  103.76    2.27
  -2   2  12  106.89    3.10
   2  -2  12   99.74    2.29
   2   2 -12  103.31    2.44
  -2   2  12  104.66    2.21
  -2   2  12  103.17    2.34
  -2  -2 -12  104.75    3.15
   2   2 -12  102.77    2.68
  -2   2  12  104.34    2.47
   2   2 -12  103.86    2.84
   2   2 -12  107.70    3.09
   2  -2  12  105.98    2.32
  -2   2  12  103.61    2.45
  -2   2  12  104.21    2.44
   2  -2  12  108.72    2.82
  -2  -2 -12  106.73    2.31
  -2   2  12  102.78    2.83
   2  -2  12  110.58    3.16
  -2  -2  12   98.95    2.69
  -2   2 -12  105.19    2.38
   2   2  12  104.24    2.43
   2   2  12  105.98    2.45
   2   2  12  104.30    2.91
   2  -2 -12  106.79    2.78
  -2  -2  12  101.92    2.44
  -2   2 -12  106.17    2.44
  -2   2 -12  103.34    2.86
   2  -2 -12  102.41    3.05
  -2   2 -12  106.81    2.29
  -2  -2  12  104.58    2.35
   2   2  12  107.85    3.01
  -2  -2  12  105.73    2.28
  -2  -2  12  103.70    2.35
  -2   2 -12  103.36    2.43
  -2  -2  12  105.21    2.45
  -2   2 -12  104.87    2.45
  -2  -2  12  102.37    2.82
   2  -2 -12  106.70    2.39
   2   2  12  103.74    2.96
   2   2  12  103.43    2.33
  -2  -2  12  105.07    2.35
  -2   2 -12  106.08    3.14
  -4   2  12   55.77    1.72
  -4  -2 -12   58.58    1.50
   4   2 -12   55.78    2.04
  -4  -2 -12   57.25    1.59
  -4   2  12   56.50    2.25
  -4  -2 -12   60.40    1.79
   4  -2  12   56.08    1.57
  -4   2  12   57.85    1.72
  -4   2  12   59.70    1.37
   4  -2  12   56.36    2.34
  -4  -2 -12   60.43    1.79
   4  -2  12   55.94    1.92
  -4   2  12   56.98    1.66
  -4   2  12   59.26    2.26
   4  -2  12   56.52    1.56
   4   2 -12   56.70    2.47
  -4  -2 -12   56.40    2.44
  -4   2  12   60.14    1.79
   4   2 -12   60.60    1.70
  -4   2  12   58.35    1.76
   4  -2 -12   56.25    1.56
  -4   2 -12   57.69    2.52
  -4  -2  12   57.27    1.76
  -4   2 -12   60.23    1.79
   4   2  12   58.15    1.56
   4   2  12   54.32    2.11
  -4  -2  12   58.47    2.24
  -4  -2  12   58.03    1.62
  -4   2 -12   59.38    1.44
   4   2  12   58.65    1.73
   4  -2 -12   58.19    1.88
   4   2  12   55.76    2.06
   4   2  12   53.15    2.40
  -4  -2  12   60.19    1.69
  -4   2 -12   59.07    1.71
  -4  -2  12   56.76    1.78
  -4   2 -12   56.46    1.75
  -4  -2  12   57.39    1.49
  -4   2 -12   56.06    2.16
  -4   2 -12   56.85    1.61
   4  -2 -12   56.94    2.34
  -4  -2  12   56.23    1.72
   4   2  12   56.55    1.70
  -6   2  12   25.43    1.07
  -6   2  12   27.99    1.21
  -6  -2 -12   27.44    1.27
  -6   2  12   28.13    0.88
   6   2 -12   29.81    1.26
  -6   2  12   28.43    1.33
  -6  -2 -12   28.47    1.37
  -6  -2 -12   26.78    1.14
  -6  -2 -12   28.35    1.18
  -6   2  12   29.40    1.31
  -6   2  12   27.57    1.25
  -6  -2 -12   25.64    1.92
  -6   2  12   30.07    1.30
  -6  -2 -12   28.87    1.03
  -6   2 -12   28.37    1.19
   6   2  12   26.02    1.23
  -6  -2  12   27.64    1.14
  -6   2 -12   28.30    2.00
  -6   2 -12   28.46    0.95
  -6  -2  12   29.23    1.17
   6  -2 -12   28.63    1.90
   6   2  12   28.21    1.25
  -6  -2  12   28.88    1.04
  -6  -2  12   26.27    1.30
  -6   2 -12   26.69    1.28
  -6   2 -12   26.31    1.17
  -6  -2  12   28.68    1.39
  -6   2 -12   29.81    1.37
  -6  -2  12   29.96    1.35
  -8   2  12   10.88    0.93
  -8  -2 -12   11.74    0.84
  -8  -2 -12   10.77    0.69
  -8  -2 -12   11.28    0.80
  -8   2  12   10.24    0.56
   8   2 -12   11.54    0.93
  -8   2  12   10.75    1.00
  -8  -2 -12   12.93    1.11
  -8   2  12   10.62    0.74
  -8   2 -12   11.35    0.63
  -8  -2  12   10.80    0.79
  -8  -2  12   10.00    0.97
  -8  -2  12   10.97    0.79
  -8   2 -12   11.43    0.82
  -8  -2  12   11.95    1.10
  -8  -2  12   11.31    1.04
   8   2  12   11.38    0.97
  -8  -2  12   10.25    0.67
  -8   2 -12   11.29    0.99
   8   2  12    9.68    0.91
  -8   2 -12   11.42    1.03
 -10  -2 -12    3.49    0.41
 -10  -2  12    4.28    0.45
   1   3 -12   38.89    1.51
  -1   3  12   40.76    1.21
   1  -3  12   43.21    1.15
  -1   3  12   39.80    1.12
   1   3 -12   43.99    1.16
  -1   3  12   45.82    1.83
   1  -3  12   40.33    1.68
   1   3 -12   38.76    1.56
  -1   3  12   40.29    1.19
  -1  -3 -12   42.46    1.20
   1   3 -12   42.20    1.60
   1  -3  12   43.55    1.55
  -1  -3 -12   41.71    1.25
  -1   3  12   44.63    1.25
  -1  -3 -12   41.44    1.23
   1  -3  12   43.11    1.28
   1   3 -12   42.47    1.27
  -1   3  12   42.75    1.07
  -1  -3 -12   40.34    1.70
   1   3 -12   41.18    1.10
  -1   3  12   41.54    1.22
  -1   3 -12   42.62    1.22
  -1  -3  12   40.64    1.09
   1   3  12   41.08    1.68
  -1   3 -12   39.65    1.46
   1  -3 -12   42.53    1.46
  -1  -3  12   43.86    1.56
  -1   3 -12   44.45    1.26
  -1  -3  12   39.48    1.15
   1   3  12   41.07    1.61
  -1  -3  12   41.77    1.16
   1   3  12   40.81    1.49
   1  -3 -12   41.69    1.20
  -1  -3  12   40.25    1.16
   1  -3 -12   43.54    1.68
   1  -3 -12   40.11    1.49
   1   3  12   40.52    1.21
  -1   3 -12   40.35    1.23
  -1   3 -12   44.01    1.15
  -1   3 -12   42.42    1.18
  -1  -3  12   40.40    1.17
   1  -3 -12   41.61    1.14
   1   3  12   41.09    1.19
   1   3  12   40.72    1.20
  -1  -3  12   40.18    1.47
  -1   3 -12   43.35    1.76
  -3   3  12   24.73    0.94
   3   3 -12   26.42    0.99
  -3   3  12   25.58    1.02
   3   3 -12   27.91    1.51
  -3  -3 -12   25.61    0.87
   3  -3  12   27.74    0.92
  -3  -3 -12   25.84    1.04
   3  -3  12   25.86    1.49
  -3  -3 -12   26.85    0.89
   3   3 -12   24.59    0.95
   3   3 -12   28.43    1.30
  -3  -3 -12   24.77    0.90
  -3   3  12   25.29    1.32
   3   3 -12   25.88    1.30
  -3   3  12   26.13    0.78
  -3  -3 -12   26.73    1.52
   3  -3  12   26.32    1.21
  -3  -3 -12   27.07    1.02
  -3   3  12   23.27    1.41
  -3   3  12   26.94    1.01
  -3   3  12   25.07    0.97
  -3   3  12   26.10    1.03
  -3   3 -12   24.97    1.01
  -3  -3  12   23.35    1.28
   3   3  12   24.21    0.96
   3   3  12   26.49    1.30
   3   3  12   26.71    1.37
   3  -3 -12   26.27    1.41
  -3   3 -12   26.92    1.02
  -3  -3  12   25.89    0.96
  -3   3 -12   27.22    0.98
   3   3  12   24.33    1.42
  -3   3 -12   25.19    1.04
   3   3  12   24.97    0.98
  -3  -3  12   26.95    1.03
  -3  -3  12   26.46    1.00
  -3   3 -12   26.56    1.58
   3  -3 -12   24.21    1.14
  -3  -3  12   25.44    0.87
   3   3  12   27.32    0.96
  -3  -3  12   27.25    0.96
   3  -3 -12   26.02    0.95
  -3   3 -12   26.10    0.85
  -5  -3 -12   15.24    1.55
   5   3 -12   15.72    1.64
  -5  -3 -12   13.61    0.77
  -5   3  12   13.43    0.55
   5   3 -12   14.37    1.21
   5  -3  12   12.63    1.35
  -5   3  12   12.96    0.78
  -5   3  12   13.19    0.85
   5   3 -12   15.32    0.85
   5  -3  12   13.76    0.93
  -5   3  12   14.93    0.90
  -5  -3 -12   15.29    0.94
   5   3 -12   14.61    0.80
  -5  -3 -12   14.59    0.71
  -5  -3 -12   13.50    0.86
  -5   3  12   14.20    1.37
  -5   3  12   14.16    0.82
  -5   3  12   16.69    1.54
  -5   3  12   14.78    0.86
   5   3  12   13.75    0.85
  -5  -3  12   12.20    0.75
  -5   3 -12   14.27    0.91
   5  -3 -12   15.63    1.46
   5   3  12   14.21    0.77
  -5  -3  12   14.71    0.92
  -5  -3  12   15.35    0.72
  -5   3 -12   15.45    1.65
   5   3  12   12.72    0.83
   5   3  12   12.13    1.17
  -5  -3  12   14.55    0.88
  -5  -3  12   13.44    1.28
  -5  -3  12   14.36    0.89
  -5   3 -12   13.85    0.63
   5   3  12   13.47    1.48
  -5   3 -12   13.79    0.78
   5  -3 -12   13.76    0.74
  -5   3 -12   13.93    0.88
  -5   3 -12   14.37    0.83
   5  -3 -12   13.49    0.87
  -7  -3 -12    7.03    0.73
  -7  -3 -12    6.23    0.74
  -7  -3 -12    6.98    0.86
   7   3 -12    7.05    0.75
  -7  -3 -12    6.06    0.58
  -7   3  12    6.15    0.71
  -7   3  12    6.60    0.76
  -7  -3 -12    7.36    0.74
  -7   3  12    6.44    0.80
  -7   3  12    7.05    0.45
   7   3  12    6.18    0.74
   7   3  12    5.81    0.72
  -7   3 -12    7.40    0.83
  -7   3 -12    8.66    0.91
  -7  -3  12    7.45    0.74
  -7  -3  12    7.46    0.84
  -7  -3  12    6.46    0.66
  -7  -3  12    7.97    0.90
  -7  -3  12    7.12    0.62
  -7   3 -12    6.52    0.53
  -7  -3  12    7.27    0.85
  -9  -3 -12    2.90    0.46
  -9  -3  12    2.78    0.44
   0  -4  12   93.03    2.12
   0  -4  12   86.40    2.69
   0   4 -12   88.55    2.47
   0  -4 -12   90.17    2.19
   0  -4 -12   90.29    2.76
   0   4  12   91.96    2.03
   0  -4 -12   90.47    2.63
   0  -4 -12   91.80    2.46
   0   4 -12   93.71    2.90
   0   4 -12   91.92    2.13
   0   4 -12   88.93    2.26
   0  -4  12   89.22    2.64
   0  -4 -12   90.72    2.18
   0  -4  12   91.02    2.49
   0   4  12   92.66    2.22
   0   4  12   88.97    2.05
   0   4 -12   93.12    2.08
   0  -4  12   90.40    2.21
   0   4  12   95.72    2.96
   0   4  12   90.58    2.18
   0   4  12   91.75    2.10
   0   4 -12   89.17    2.08
   0   4  12   90.02    2.16
   2   4 -12   77.88    2.51
  -2   4  12   73.96    1.91
  -2   4  12   75.02    1.90
   2  -4  12   74.50    1.82
   2  -4  12   73.89    2.63
  -2   4  12   73.02    2.71
  -2   4  12   74.94    1.90
  -2   4  12   73.98    1.99
   2   4 -12   71.99    1.88
   2   4 -12   76.80    1.99
   2   4 -12   73.94    2.43
  -2  -4 -12   74.78    1.86
  -2  -4 -12   71.48    1.99
  -2  -4 -12   73.74    1.82
  -2   4  12   75.11    1.74
   2  -4  12   75.44    2.33
  -2   4  12   75.14    1.98
  -2  -4 -12   78.59    2.71
   2   4 -12   71.46    2.46
  -2  -4 -12   73.42    1.90
   2  -4 -12   72.13    2.28
   2   4  12   74.26    1.95
  -2  -4  12   75.37    1.81
  -2   4 -12   73.12    1.95
  -2  -4  12   75.72    2.43
  -2   4 -12   71.56    1.80
  -2   4 -12   73.94    1.99
  -2   4 -12   76.40    2.81
   2  -4 -12   76.44    1.85
   2   4  12   77.23    2.48
   2   4  12   74.37    1.95
  -2  -4  12   73.54    1.90
  -2   4 -12   74.13    1.97
  -2  -4  12   74.50    1.88
   2   4  12   70.69    1.94
  -2  -4  12   74.04    1.93
  -2  -4  12   72.25    1.87
  -2   4 -12   74.37    2.02
   2   4  12   73.88    2.50
   2  -4 -12   72.35    2.35
   2  -4 -12   75.47    2.46
   2  -4 -12   72.42    1.93
   2   4  12   77.54    2.52
  -4  -4 -12   44.68    1.38
  -4   4  12   42.43    2.19
  -4  -4 -12   47.50    1.62
   4  -4  12   46.06    1.38
   4  -4  12   45.43    1.76
   4   4 -12   46.69    1.49
  -4   4  12   46.31    1.52
  -4   4  12   45.67    1.60
  -4  -4 -12   41.78    2.21
   4  -4  12   43.54    2.18
   4   4 -12   45.92    1.99
   4   4 -12   49.43    2.30
  -4   4  12   46.95    1.23
  -4  -4 -12   46.95    1.60
   4   4 -12   45.70    1.52
  -4  -4 -12   44.66    1.37
  -4   4  12   43.60    1.56
  -4   4 -12   48.08    1.65
  -4  -4  12   45.83    1.59
  -4   4 -12   45.70    1.60
   4  -4 -12   46.97    1.74
  -4  -4  12   45.05    2.06
  -4   4 -12   45.97    1.30
   4  -4 -12   45.80    1.49
   4  -4 -12   44.33    1.98
   4   4  12   45.60    1.56
   4   4  12   47.95    1.57
  -4   4 -12   41.49    2.25
   4   4  12   43.87    2.21
  -4  -4  12   48.55    1.60
   4   4  12   46.50    2.07
  -4   4 -12   47.38    1.59
  -4   4 -12   47.13    1.52
  -4  -4  12   45.76    1.39
  -4  -4  12   46.52    1.50
  -4  -4  12   47.10    1.54
   4   4  12   44.08    1.46
  -6  -4 -12   24.39    1.27
  -6   4  12   22.86    1.19
  -6  -4 -12   23.80    1.22
  -6   4  12   20.47    1.10
  -6  -4 -12   22.78    1.05
   6   4 -12   22.82    1.13
  -6   4  12   21.37    0.78
  -6   4  12   24.32    1.23
  -6  -4 -12   22.65    1.09
   6  -4  12   21.97    0.99
  -6  -4 -12   23.30    1.00
  -6  -4  12   21.94    1.02
  -6  -4  12   24.73    1.26
  -6   4 -12   22.21    1.14
  -6  -4  12   23.26    1.23
  -6  -4  12   22.00    0.99
  -6  -4  12   22.06    1.10
   6   4  12   22.19    1.06
  -6   4 -12   21.43    1.19
   6  -4 -12   21.81    1.03
   6   4  12   24.00    1.21
  -6   4 -12   22.77    0.87
  -6  -4  12   23.40    1.26
   6   4  12   19.89    1.12
  -6   4 -12   20.19    1.16
  -8  -4 -12    9.19    0.93
   8   4 -12    8.29    0.77
  -8   4  12    8.32    0.50
  -8   4  12    9.20    0.89
  -8   4  12    9.80    0.86
  -8  -4 -12    8.66    0.71
  -8  -4 -12   10.06    0.86
  -8  -4 -12    8.78    0.77
  -8  -4  12    9.02    0.76
  -8  -4  12    9.19    0.95
  -8  -4  12    9.14    0.82
  -8   4 -12    7.93    0.55
   8   4  12   10.19    0.92
   8   4  12    9.91    0.90
   8  -4 -12    9.65    0.87
  -8   4 -12    9.73    0.88
  -8  -4  12    9.57    0.66
  -8   4 -12   10.05    0.93
  -8  -4  12    9.43    0.91
 -10  -4 -12    3.42    0.38
 -10  -4  12    3.33    0.37
  -1  -5 -12   80.31    2.29
  -1   5  12   77.08    2.84
   1  -5  12   75.85    2.27
  -1  -5 -12   76.19    2.64
   1   5 -12   79.11    2.76
   1  -5  12   78.60    1.90
   1   5 -12   76.96    2.08
  -1   5  12   76.42    1.94
   1   5 -12   75.47    1.95
  -1   5  12   75.47    1.98
   1  -5  12   76.53    2.48
  -1  -5 -12   74.93    1.94
   1  -5  12   76.25    2.66
  -1   5  12   77.35    2.09
  -1   5  12   76.47    1.84
   1  -5  12   79.06    2.11
  -1  -5 -12   76.54    2.08
   1   5  12   77.10    2.05
   1   5  12   78.19    1.98
  -1   5 -12   73.27    2.80
  -1   5 -12   76.56    1.99
   1  -5 -12   77.68    2.46
   1  -5 -12   78.41    2.44
  -1   5 -12   77.62    1.99
  -1   5 -12   77.18    1.91
   1   5  12   75.25    1.96
  -1  -5  12   75.82    1.93
  -1  -5  12   75.90    2.45
   1  -5 -12   77.19    1.99
  -1  -5  12   78.90    2.08
   1  -5 -12   75.26    2.00
   1  -5 -12   75.68    2.47
   1   5  12   79.98    2.69
  -1   5 -12   76.96    2.12
   3  -5  12   55.27    2.48
  -3   5  12   56.49    1.47
  -3   5  12   52.60    2.50
   3   5 -12   56.39    1.69
   3   5 -12   54.88    1.68
   3  -5  12   55.79    1.53
   3   5 -12   56.23    2.29
   3  -5  12   55.44    2.04
  -3   5  12   53.12    1.75
   3   5 -12   53.56    2.25
  -3   5  12   55.04    1.68
  -3  -5 -12   56.73    1.73
  -3  -5 -12   56.85    1.57
  -3   5  12   56.19    1.78
  -3  -5 -12   56.30    1.80
  -3  -5 -12   56.15    2.45
   3   5  12   53.36    2.32
   3   5  12   54.31    1.71
   3   5  12   55.30    1.70
  -3   5 -12   55.87    1.75
  -3  -5  12   54.71    1.72
  -3  -5  12   54.47    1.64
  -3   5 -12   52.34    2.54
  -3   5 -12   57.81    1.79
   3  -5 -12   57.02    2.02
  -3   5 -12   55.29    1.78
  -3  -5  12   53.38    2.23
  -3  -5  12   56.22    1.68
   3  -5 -12   57.49    1.73
   3  -5 -12   54.80    1.58
  -3   5 -12   54.83    1.75
  -3  -5  12   54.50    1.63
  -3  -5  12   54.87    1.65
   3   5  12   56.66    1.73
  -3   5 -12   56.54    1.54
   3  -5 -12   54.78    2.16
  -3  -5  12   57.08    1.58
   5  -5  12   30.02    1.13
   5   5 -12   31.43    1.29
  -5  -5 -12   28.35    1.15
   5   5 -12   32.29    2.07
  -5   5  12   31.41    1.39
  -5  -5 -12   31.23    1.40
  -5  -5 -12   29.24    1.16
  -5   5  12   31.22    1.01
   5   5 -12   30.59    1.77
  -5   5  12   31.26    1.32
  -5  -5 -12   30.50    1.22
  -5  -5 -12   32.63    1.40
  -5   5  12   34.73    1.46
  -5  -5  12   30.26    1.36
  -5  -5  12   30.96    1.16
  -5   5 -12   31.09    1.31
  -5  -5  12   30.79    1.19
  -5  -5  12   29.78    1.32
  -5  -5  12   30.47    1.34
  -5   5 -12   31.71    1.41
  -5   5 -12   30.76    1.36
   5  -5 -12   33.75    1.32
   5   5  12   32.03    1.36
   5   5  12   30.18    1.29
   5   5  12   33.51    1.89
  -5   5 -12   30.95    1.08
  -5   5 -12   31.40    1.41
  -5  -5  12   33.62    1.34
   5   5  12   31.47    1.35
  -7  -5 -12   13.81    1.00
  -7  -5 -12   14.11    0.85
   7   5 -12   13.51    0.89
  -7  -5 -12   15.68    0.93
  -7   5  12   13.85    0.91
  -7   5  12   16.17    1.03
  -7  -5 -12   15.57    0.85
  -7   5  12   14.17    0.64
  -7   5  12   14.40    0.99
  -7   5 -12   15.25    1.02
  -7  -5  12   12.40    1.06
   7   5  12   14.67    0.93
  -7  -5  12   13.92    0.91
  -7  -5  12   14.16    0.85
  -7  -5  12   14.19    0.82
  -7  -5  12   14.02    0.99
  -7   5 -12   14.05    0.72
   7   5  12   14.29    0.96
  -7   5 -12   11.63    1.01
  -7   5 -12   14.62    0.96
   7   5  12   15.17    0.99
  -9  -5 -12    5.47    0.54
  -9  -5  12    5.23    0.52
   0   6  12   18.28    1.31
   0  -6  12   17.96    1.10
   0   6  12   15.89    0.84
   0   6 -12   14.66    1.42
   0  -6 -12   15.93    0.78
   0  -6 -12   17.73    0.88
   0   6  12   15.70    0.68
   0   6  12   17.23    0.77
   0   6 -12   16.97    0.75
   0   6 -12   15.53    0.85
   0  -6 -12   15.48    1.00
   0   6 -12   17.06    0.76
   0  -6  12   17.90    0.89
   0  -6  12   17.22    0.74
   0   6 -12   16.89    0.73
   0  -6  12   16.61    1.14
  -2   6  12   16.15    0.86
  -2  -6 -12   15.34    1.20
   2  -6  12   14.59    0.70
  -2   6  12   14.49    1.48
   2  -6  12   13.81    0.84
   2  -6  12   14.08    1.40
  -2   6  12   13.03    0.65
  -2  -6 -12   15.51    0.79
  -2   6  12   14.69    0.79
   2   6 -12   14.28    0.76
  -2  -6 -12   15.47    0.89
   2   6 -12   14.40    1.40
   2  -6  12   14.96    1.22
  -2   6  12   15.27    0.83
   2   6 -12   15.40    0.83
   2  -6 -12   15.20    1.09
   2  -6 -12   15.19    0.79
  -2   6 -12   15.30    0.85
   2   6  12   15.62    0.88
   2   6  12   15.14    0.78
  -2  -6  12   14.06    1.24
   2   6  12   15.99    1.41
   2  -6 -12   13.84    0.99
  -2   6 -12   15.11    0.73
   2   6  12   14.71    0.79
   2  -6 -12   14.78    0.82
  -2   6 -12   13.89    0.82
  -2   6 -12   15.99    0.82
  -2  -6  12   15.04    0.76
  -2   6 -12   17.58    1.71
  -2  -6  12   17.30    0.90
  -4  -6 -12    9.82    0.90
  -4   6  12    8.85    1.31
   4  -6  12   10.48    0.91
   4   6 -12   10.54    1.28
  -4   6  12   11.46    0.77
   4  -6  12    8.92    0.95
  -4  -6 -12    9.75    1.32
  -4  -6 -12    9.61    0.65
   4   6 -12    9.75    0.69
  -4   6  12    9.84    0.57
   4  -6  12    9.80    1.31
  -4   6  12    9.04    0.86
  -4  -6 -12   10.16    0.67
   4   6 -12    9.08    0.79
  -4   6  12    9.99    0.87
  -4  -6 -12   11.16    0.93
  -4  -6  12   10.17    0.88
  -4  -6  12    9.02    1.12
  -4   6 -12   10.12    1.43
  -4  -6  12    9.92    0.71
   4  -6 -12   10.23    0.85
   4  -6 -12    9.54    0.95
  -4   6 -12    9.38    0.61
  -4   6 -12   11.09    0.79
  -4   6 -12    9.16    0.86
   4   6  12    9.65    0.83
   4  -6 -12    9.68    1.14
   4   6  12   10.62    0.88
  -4   6 -12    9.17    0.83
   4   6  12    9.70    0.84
   4   6  12   10.07    1.33
  -6  -6 -12    4.39    0.55
   6   6 -12    6.15    0.72
  -6   6  12    4.65    0.66
  -6  -6 -12    6.19    0.63
  -6  -6 -12    5.49    0.71
  -6   6  12    5.46    0.72
  -6   6  12    4.21    0.60
  -6  -6 -12    4.88    0.58
   6   6 -12    5.43    0.66
  -6   6  12    4.95    0.45
   6  -6  12    3.81    0.61
  -6  -6 -12    4.85    0.72
   6   6  12    4.77    0.69
  -6  -6  12    5.03    0.63
   6   6  12    6.24    0.72
  -6   6 -12    5.11    0.51
  -6  -6  12    5.42    0.58
  -6  -6  12    5.52    0.73
   6   6  12    4.43    0.66
  -6   6 -12    7.34    0.83
  -6  -6  12    5.43    0.60
  -6   6 -12    6.50    0.77
   6  -6 -12    5.23    0.64
  -6  -6  12    5.04    0.67
  -8  -6 -12    3.14    0.48
  -8  -6  12    2.04    0.39
   1  -7  12   48.05    1.70
  -1   7  12   49.16    1.56
  -1   7  12   49.60    1.69
   1  -7  12   48.61    2.22
  -1   7  12   48.69    1.43
   1   7 -12   49.58    2.44
   1  -7  12   49.00    1.43
  -1  -7 -12   49.39    1.70
  -1  -7 -12   48.02    1.51
  -1   7  12   48.93    2.44
  -1   7  12   50.02    1.57
   1   7 -12   46.48    1.64
   1   7 -12   49.51    1.57
   1  -7  12   46.09    1.94
   1  -7 -12   48.28    1.62
   1   7  12   45.27    1.63
  -1  -7  12   47.17    1.68
  -1  -7  12   46.74    2.07
  -1   7 -12   44.43    1.43
   1   7  12   51.27    1.49
  -1  -7  12   47.85    1.48
   1  -7 -12   44.77    1.99
  -1   7 -12   48.67    1.59
  -1   7 -12   48.46    1.55
  -1   7 -12   47.13    1.50
  -1   7 -12   42.88    2.35
  -1   7 -12   49.35    1.72
   1  -7 -12   48.75    1.60
  -3   7  12   36.82    1.42
   3  -7  12   36.06    1.78
  -3  -7 -12   35.90    1.51
   3   7 -12   36.53    1.42
  -3   7  12   35.27    1.20
   3  -7  12   35.60    1.48
   3   7 -12   38.92    2.21
  -3   7  12   35.23    1.46
   3  -7  12   34.95    2.12
   3   7 -12   35.29    1.35
  -3  -7 -12   36.22    1.43
  -3   7  12   33.89    1.44
  -3   7 -12   35.38    1.51
  -3  -7  12   38.48    2.00
  -3   7 -12   36.68    1.45
   3  -7 -12   34.31    1.42
  -3  -7  12   36.16    1.50
   3  -7 -12   37.63    1.39
   3   7  12   37.29    1.38
   3   7  12   37.76    1.37
   3  -7 -12   36.08    1.88
   3  -7 -12   34.36    1.71
   3   7  12   35.16    1.47
  -3   7 -12   38.57    1.49
  -3   7 -12   37.78    1.28
  -3  -7  12   36.11    1.35
  -5   7  12   22.64    0.91
  -5  -7 -12   22.25    1.19
  -5  -7 -12   20.49    1.00
   5   7 -12   19.95    1.07
  -5   7  12   20.63    1.16
  -5   7  12   22.16    1.13
   5   7 -12   23.65    1.12
  -5   7  12   20.49    1.20
  -5  -7 -12   22.88    1.22
   5  -7  12   20.89    1.16
   5   7  12   19.24    1.17
  -5   7 -12   21.30    1.18
   5   7  12   22.02    1.19
  -5   7 -12   20.53    1.14
  -5  -7  12   20.73    1.16
   5   7  12   21.54    1.18
  -5   7 -12   20.44    0.93
  -5  -7  12   21.59    1.10
  -5   7 -12   21.44    1.20
   5  -7 -12   19.45    1.09
  -7  -7 -12   10.18    0.73
  -7  -7  12    9.88    0.77
  -7  -7  12   11.60    0.72
  -9  -7 -12    4.60    0.42
   0   8 -12   34.48    1.31
   0   8 -12   33.20    1.42
   0  -8 -12   32.54    1.74
   0  -8 -12   33.46    1.42
   0  -8  12   34.06    1.46
   0   8  12   35.23    1.31
   0  -8 -12   33.84    1.30
   0   8  12   32.32    1.97
   0   8  12   34.25    1.42
   0  -8  12   31.08    1.74
  -2   8  12   28.79    1.25
   2  -8  12   30.95    1.40
  -2  -8 -12   28.73    1.38
   2   8 -12   27.06    1.24
   2   8 -12   29.94    1.27
  -2   8  12   29.37    1.32
  -2   8  12   28.56    1.26
  -2   8  12   29.36    1.11
   2  -8 -12   31.17    1.31
   2   8  12   29.92    1.34
  -2   8 -12   30.03    1.31
  -2   8 -12   30.77    1.26
   2  -8 -12   29.17    1.29
  -2  -8  12   30.04    1.18
  -2  -8  12   28.46    1.35
  -2   8 -12   27.64    1.35
  -2   8 -12   29.33    1.14
  -4  -8 -12   18.71    1.13
   4  -8  12   20.05    1.14
  -4   8  12   20.45    1.14
  -4   8  12   19.07    0.88
   4   8 -12   19.74    1.06
  -4   8  12   19.20    1.13
  -4  -8 -12   19.90    1.11
  -4   8  12   19.41    1.06
  -4   8 -12   20.17    0.95
  -4   8 -12   19.20    1.12
  -4   8 -12   19.47    1.17
  -4   8 -12   21.07    1.14
  -4  -8  12   22.30    1.22
  -4  -8  12   20.34    1.02
   4  -8 -12   18.60    1.07
   4   8  12   19.48    1.13
  -6  -8 -12   10.66    0.71
  -6   8  12   10.01    0.84
  -6   8  12    9.58    0.60
   6   8 -12   10.82    0.88
  -6  -8 -12   11.22    0.96
  -6   8  12    9.58    0.92
  -6  -8  12    9.31    0.80
  -6   8 -12   11.86    0.88
   6  -8 -12    9.67    0.83
   6   8  12    8.10    0.82
  -6   8 -12    8.64    0.83
  -6   8 -12   10.24    0.95
  -8  -8 -12    5.23    0.47
  -1   9  12   11.16    0.89
   1   9 -12    9.06    0.87
  -1  -9 -12    9.83    0.94
   1   9 -12    8.62    0.79
   1  -9  12   10.45    0.98
   1  -9  12   10.74    0.77
  -1   9  12   11.90    0.99
  -1   9 -12    8.04    0.84
  -1   9 -12   10.78    0.86
   1   9  12    9.44    0.87
   1   9  12    9.45    0.76
  -1  -9  12   11.08    1.00
   1  -9 -12    9.78    0.88
   1  -9 -12    9.42    0.84
   3  -9  12    6.86    0.79
  -3  -9 -12    7.98    0.87
  -3   9  12    7.97    0.83
   3   9 -12    8.15    0.80
  -3   9  12    6.54    0.60
  -3   9  12    7.83    0.79
  -3   9  12    7.52    0.81
   3  -9 -12    9.11    0.85
   3  -9 -12    9.09    0.86
   3   9  12    7.67    0.82
  -3   9 -12    8.94    0.92
  -3  -9  12    8.41    0.73
  -3   9 -12    8.39    0.70
  -3   9 -12    7.71    0.77
  -3  -9  12    7.90    0.86
  -5   9  12    4.20    0.46
   5   9 -12    4.42    0.58
  -5  -9 -12    5.38    0.71
  -5  -9 -12    4.12    0.63
  -5   9  12    5.06    0.63
  -5   9  12    6.79    0.78
   5  -9  12    4.44    0.65
   5   9  12    4.96    0.65
  -5  -9  12    4.32    0.59
  -5   9 -12    5.70    0.75
  -5   9 -12    4.91    0.51
  -5   9 -12    6.38    0.76
  -5  -9  12    4.66    0.69
  -5   9 -12    5.05    0.66
   5  -9 -12    3.90    0.57
   0  10 -12   17.79    0.99
   0  10  12   18.30    0.98
   0  10  12   17.85    1.07
   0  10 -12   18.46    1.07
   0 -10 -12   19.51    1.14
   0 -10  12   18.75    1.16
   2 -10  12   16.61    1.00
   2  10 -12   16.69    0.97
  -2  10  12   17.68    0.99
  -2  10  12   18.25    1.06
   2 -10  12   16.79    1.08
  -2 -10 -12   16.24    1.08
   2  10  12   16.78    1.04
  -2  10 -12   13.87    1.01
  -2 -10  12   15.46    1.06
   2 -10 -12   15.27    0.94
   2 -10 -12   17.62    1.05
  -4  10  12   11.07    0.91
   4  10 -12   12.22    0.83
  -4  10 -12   11.87    0.90
   4 -10 -12   11.87    0.84
   4  10  12   11.67    0.97
  -1 -11 -12   14.01    1.00
   1  11 -12   15.94    0.92
  -1  11  12   14.42    0.95
   1 -11  12   14.20    0.99
  -1  11  12   15.30    0.91
   1  11  12   15.26    0.96
  -1  11 -12   14.99    0.99
  -1 -11  12   14.73    1.02
   1   0  13   60.11    1.48
   1   0  13   57.79    1.99
  -1   0 -13   56.02    1.42
   1   0 -13   56.20    1.76
  -1   0 -13   58.73    2.01
  -1   0 -13   54.21    1.37
   1   0  13   55.24    1.35
  -1   0  13   54.17    1.47
  -1   0  13   55.30    1.50
   1   0 -13   56.61    2.00
  -1   0 -13   57.32    1.46
  -1   0  13   54.34    1.90
  -1   0 -13   55.05    1.81
  -1   0  13   55.13    1.39
   1   0 -13   57.25    1.48
   1   0 -13   57.87    1.43
   1   0  13   54.92    1.82
   1   0  13   56.06    1.45
  -1   0  13   55.87    1.33
  -1   0  13   57.85    1.69
  -3   0 -13   34.10    1.15
   3   0 -13   31.66    1.11
  -3   0  13   31.93    0.90
  -3   0  13   31.29    1.09
  -3   0  13   31.53    1.14
  -3   0  13   31.91    1.43
  -3   0  13   30.59    1.12
   3   0  13   30.77    1.06
   3   0 -13   33.65    0.98
  -3   0 -13   31.03    1.02
  -3   0  13   30.84    1.38
   3   0 -13   31.26    1.61
  -3   0 -13   30.12    0.93
  -3   0  13   31.89    0.96
   3   0  13   33.06    1.40
   3   0  13   32.65    1.57
  -3   0  13   31.52    1.04
  -3   0 -13   34.41    1.66
  -3   0 -13   30.36    1.09
  -3   0 -13   32.28    1.07
   3   0 -13   32.62    1.33
  -3   0 -13   28.04    1.50
   3   0  13   31.64    1.08
   5   0 -13   14.87    0.86
   5   0 -13   13.98    1.46
   5   0  13   17.22    1.10
   5   0  13   16.33    0.86
  -5   0  13   15.67    0.94
  -5   0  13   16.10    0.92
  -5   0 -13   15.54    0.90
  -5   0 -13   17.56    0.97
  -5   0  13   18.29    1.29
   5   0  13   16.24    1.25
   5   0  13   15.09    0.83
  -5   0  13   15.16    0.91
   5   0  13   15.15    1.56
  -5   0  13   14.63    0.73
  -5   0  13   16.30    0.65
  -5   0 -13   15.87    0.83
   5   0 -13   16.18    1.01
  -5   0 -13   15.94    0.80
  -5   0  13   16.15    0.87
  -5   0 -13   16.20    0.68
  -5   0 -13   17.23    1.37
  -7   0  13    8.13    0.73
  -7   0 -13    7.10    0.67
   7   0  13    7.13    0.73
  -7   0 -13    7.41    0.81
  -7   0 -13    8.60    0.93
  -7   0 -13    5.71    0.68
  -7   0  13    6.84    0.72
  -7   0  13    7.70    0.87
  -7   0 -13    7.44    0.59
  -7   0  13    6.50    0.80
  -7   0  13    7.59    0.85
  -7   0  13    8.41    0.55
   7   0  13    6.71    0.72
  -9   0  13    2.93    0.45
   0   1  13   27.04    0.82
   0   1  13   25.63    0.88
   0   1  13   28.15    1.18
   0  -1  13   26.29    0.87
   0   1 -13   28.71    1.14
   0  -1  13   27.11    0.93
   0  -1  13   27.38    1.16
   0  -1  13   26.71    1.24
   0  -1  13   28.80    0.82
   0   1  13   26.17    0.88
   0   1 -13   26.24    1.10
   0  -1 -13   27.35    1.13
   0  -1 -13   28.47    0.89
   0  -1  13   28.03    0.87
   0   1  13   27.85    0.95
   0  -1 -13   28.06    0.86
   0   1 -13   27.07    0.86
   0   1 -13   26.94    0.89
   0  -1 -13   27.61    1.31
   0   1 -13   26.74    1.28
  -2  -1 -13   24.74    0.82
  -2  -1 -13   24.58    0.86
   2  -1  13   23.96    1.12
  -2   1  13   24.60    1.25
   2  -1  13   24.31    0.83
  -2  -1 -13   25.93    0.91
   2   1 -13   25.11    1.33
   2   1 -13   25.29    0.92
  -2   1  13   24.78    0.74
  -2   1  13   24.32    0.81
  -2   1  13   25.97    0.89
  -2  -1 -13   23.81    1.31
  -2   1  13   23.11    0.87
  -2   1  13   24.27    0.90
  -2  -1 -13   25.88    0.88
   2   1 -13   25.77    1.15
  -2   1  13   25.44    1.16
  -2  -1 -13   22.91    1.20
  -2  -1 -13   25.49    0.81
  -2   1  13   24.39    0.91
   2  -1  13   25.98    1.35
   2   1 -13   24.23    0.78
   2  -1  13   26.16    0.86
  -2  -1  13   24.99    0.85
   2   1  13   23.83    0.87
  -2   1 -13   23.49    0.80
  -2   1 -13   24.44    0.88
  -2   1 -13   25.53    0.89
  -2  -1  13   25.39    1.15
  -2  -1  13   24.05    0.90
  -2   1 -13   26.07    1.32
  -2  -1  13   24.73    1.16
  -2  -1  13   25.62    0.82
  -2   1 -13   25.92    0.89
   2  -1 -13   25.25    0.84
   2  -1 -13   24.67    1.10
   2   1  13   23.86    1.24
  -2  -1  13   26.16    0.77
   2   1  13   24.99    1.20
   2   1  13   23.28    0.88
  -2   1 -13   25.02    0.80
  -2  -1  13   25.62    0.93
  -2   1 -13   25.01    1.25
  -2  -1  13   24.03    0.82
   2  -1 -13   26.00    1.35
  -4   1  13   18.76    0.90
  -4   1  13   22.66    1.28
  -4   1  13   19.27    0.93
  -4  -1 -13   19.72    0.75
   4   1 -13   18.15    1.35
   4   1 -13   18.15    1.07
  -4  -1 -13   20.53    0.85
  -4   1  13   20.65    0.93
   4  -1  13   19.94    1.10
  -4  -1 -13   19.65    0.84
   4  -1  13   20.09    0.87
  -4   1  13   22.12    0.90
  -4   1  13   20.80    1.27
  -4   1  13   19.98    0.69
  -4  -1 -13   18.59    1.34
  -4  -1 -13   20.53    0.95
   4  -1  13   20.63    0.89
  -4  -1 -13   18.69    0.92
  -4   1  13   18.88    0.92
   4  -1  13   18.01    1.28
   4   1 -13   21.53    0.94
  -4   1 -13   21.18    0.95
  -4  -1  13   21.58    0.90
  -4   1 -13   18.94    0.85
   4  -1 -13   18.20    1.33
   4   1  13   18.97    0.88
  -4  -1  13   18.06    0.93
  -4   1 -13   20.24    1.43
  -4  -1  13   17.98    0.90
   4   1  13   18.67    1.36
  -4  -1  13   20.66    0.95
  -4   1 -13   17.97    1.23
  -4   1 -13   19.76    0.88
  -4   1 -13   20.10    0.94
   4  -1 -13   18.67    0.76
   4   1  13   22.10    1.20
  -4  -1  13   19.78    0.80
   4  -1 -13   17.35    0.99
   4   1  13   19.54    0.90
  -4   1 -13   20.53    0.74
   4   1  13   20.42    1.25
  -4  -1  13   22.61    1.32
  -4  -1  13   20.07    0.73
   6  -1  13   13.50    0.80
  -6   1  13   10.89    0.72
  -6   1  13   10.61    0.94
  -6   1  13   12.13    0.90
  -6  -1 -13   11.86    0.75
  -6  -1 -13   10.95    0.95
   6  -1  13   11.38    0.76
  -6   1  13   13.11    0.85
  -6   1  13   14.28    0.94
  -6  -1 -13   12.03    0.79
  -6  -1 -13   12.36    1.56
   6   1 -13   11.26    0.78
  -6  -1 -13   14.90    0.99
  -6   1  13   13.10    0.60
  -6  -1 -13   12.68    0.67
  -6   1 -13   12.71    0.65
  -6  -1  13   13.47    0.95
   6  -1 -13   11.65    1.43
   6   1  13   11.79    0.81
   6  -1 -13   11.16    0.80
  -6  -1  13   12.64    0.76
  -6  -1  13   11.90    1.00
  -6   1 -13   12.34    0.83
  -6   1 -13   12.01    0.86
  -6  -1  13   13.03    0.65
   6   1  13   11.52    0.80
  -6   1 -13   13.29    0.94
  -6  -1  13   13.03    0.91
  -6  -1  13   10.74    0.72
  -6  -1  13   13.22    0.84
  -8  -1 -13    5.95    0.71
  -8   1  13    7.81    0.88
  -8   1  13    6.31    0.78
  -8  -1 -13    5.36    0.55
  -8   1  13    5.52    0.75
  -8  -1 -13    4.80    0.59
  -8  -1 -13    5.05    0.75
   8   1 -13    6.20    0.69
  -8   1  13    5.18    0.59
  -8  -1 -13    5.70    0.73
  -8   1  13    5.71    0.70
  -8  -1  13    5.94    0.77
  -8   1 -13    6.76    0.82
  -8   1 -13    6.55    0.78
  -8  -1  13    5.63    0.62
   8   1  13    4.65    0.67
  -8  -1  13    5.53    0.75
  -8  -1  13    5.68    0.53
  -8   1 -13    6.07    0.57
  -8  -1  13    6.08    0.79
   8   1  13    5.41    0.70
  -8   1 -13    5.03    0.65
 -10  -1  13    2.75    0.37
   1   2 -13   98.54    2.22
  -1   2  13  100.98    2.36
  -1   2  13   98.37    2.20
  -1   2  13  102.98    2.18
  -1   2  13  100.38    2.98
  -1  -2 -13   99.82    2.21
   1  -2  13  101.94    2.25
   1   2 -13  103.44    2.68
  -1   2  13  101.20    2.37
   1   2 -13   97.23    2.71
  -1  -2 -13  102.94    3.02
   1   2 -13   97.47    2.89
  -1   2  13  100.18    2.32
  -1   2  13  100.00    2.61
   1  -2  13   99.78    2.24
   1  -2  13   98.11    2.95
  -1  -2 -13   99.69    2.32
  -1  -2 -13  101.39    2.33
  -1   2  13   99.34    2.31
   1   2 -13   99.82    2.22
   1   2 -13  101.06    2.37
   1  -2  13  101.12    2.75
  -1  -2  13  103.34    2.80
  -1   2 -13  101.75    2.24
   1  -2 -13  100.82    2.99
  -1  -2  13  102.29    2.63
   1  -2 -13   98.90    2.70
  -1  -2  13   99.56    2.18
  -1   2 -13  107.11    2.98
  -1  -2  13  100.90    2.31
  -1   2 -13   99.63    2.33
   1   2  13  101.04    2.33
  -1   2 -13   96.96    2.78
   1   2  13  101.03    2.69
  -1  -2  13   99.40    2.32
   1   2  13  101.01    2.35
  -1   2 -13   97.69    2.26
  -1   2 -13  104.16    2.34
  -1   2 -13   99.53    2.31
   1  -2 -13  102.97    2.32
   1   2  13  104.34    2.99
   1   2  13  101.25    2.82
   1   2  13   99.16    2.25
  -1  -2  13   99.25    2.24
  -3  -2 -13   66.61    1.80
  -3   2  13   64.20    1.84
  -3   2  13   65.09    1.84
  -3   2  13   64.70    1.82
   3  -2  13   63.46    1.66
   3  -2  13   63.44    1.65
   3   2 -13   70.97    2.57
  -3   2  13   66.58    2.43
  -3  -2 -13   64.57    1.71
  -3   2  13   66.50    1.53
  -3   2  13   63.94    1.81
  -3  -2 -13   64.60    2.51
   3   2 -13   62.94    2.16
  -3  -2 -13   66.65    1.64
  -3   2  13   65.06    2.26
   3   2 -13   65.95    1.79
   3  -2  13   64.53    2.45
  -3  -2 -13   64.14    1.65
  -3   2  13   66.81    1.74
   3  -2  13   61.61    2.08
  -3  -2 -13   63.95    1.83
   3   2  13   69.80    2.31
  -3  -2  13   66.51    1.62
  -3  -2  13   65.62    1.73
   3   2  13   63.23    1.77
   3  -2 -13   63.64    2.05
  -3  -2  13   65.32    1.83
   3   2  13   68.07    2.46
  -3  -2  13   67.44    1.77
  -3   2 -13   63.46    1.79
   3   2  13   64.80    1.66
   3   2  13   64.39    1.80
  -3   2 -13   68.95    1.86
   3  -2 -13   64.70    1.71
  -3  -2  13   64.42    2.26
  -3   2 -13   65.45    2.54
  -3   2 -13   66.85    1.85
  -3   2 -13   65.94    1.70
  -3   2 -13   63.76    2.23
   3  -2 -13   65.61    2.43
  -3   2 -13   65.96    1.69
  -3  -2  13   64.33    1.84
  -3   2 -13   64.57    1.60
   3   2  13   67.43    2.29
  -3  -2  13   66.34    1.71
  -5  -2 -13   32.50    1.12
  -5   2  13   34.06    1.00
  -5  -2 -13   34.07    1.40
  -5   2  13   34.05    1.30
  -5   2  13   36.68    1.38
  -5   2  13   32.92    1.35
  -5  -2 -13   33.17    2.03
   5   2 -13   34.32    1.29
  -5   2  13   32.66    1.35
   5   2 -13   32.51    2.01
  -5  -2 -13   34.42    1.40
   5  -2  13   33.16    1.51
  -5   2  13   35.66    1.87
   5   2 -13   32.69    1.60
  -5  -2 -13   35.31    1.26
  -5   2  13   34.48    1.40
   5  -2  13   35.40    1.94
  -5   2 -13   35.61    1.27
  -5  -2  13   35.80    1.40
  -5  -2  13   35.43    1.44
   5   2  13   38.09    2.15
  -5   2 -13   35.21    1.08
  -5  -2  13   33.66    1.12
   5   2  13   34.43    1.72
  -5  -2  13   35.98    1.27
  -5   2 -13   34.60    1.42
   5   2  13   34.92    1.36
   5  -2 -13   33.10    1.93
   5  -2 -13   34.15    1.45
  -5  -2  13   33.48    1.83
  -5   2 -13   33.12    1.29
  -5   2 -13   35.72    1.42
   5   2  13   37.75    1.40
  -5  -2  13   36.86    1.46
  -5   2 -13   35.26    2.13
  -7   2  13   15.00    0.98
  -7   2  13   15.40    0.67
  -7  -2 -13   16.40    0.93
  -7  -2 -13   14.50    0.78
  -7   2  13   14.82    0.99
  -7  -2 -13   13.85    1.16
  -7  -2 -13   14.27    0.89
  -7   2  13   15.80    0.96
  -7   2  13   16.13    1.05
  -7   2  13   15.99    0.87
   7   2 -13   13.40    0.90
  -7  -2 -13   15.40    0.99
  -7  -2  13   15.49    1.03
  -7  -2  13   14.75    0.89
   7   2  13   16.83    1.01
  -7  -2  13   14.76    1.08
  -7  -2  13   14.62    1.04
  -7   2 -13   14.64    1.00
  -7   2 -13   15.27    0.74
  -7  -2  13   15.02    0.90
   7  -2 -13   14.88    0.97
  -7   2 -13   14.95    0.92
  -7  -2  13   14.53    0.77
   7   2  13   15.65    0.99
  -7   2 -13   15.41    1.05
  -9  -2 -13    4.75    0.54
  -9  -2  13    5.55    0.58
   0   3  13   64.84    1.67
   0  -3 -13   66.78    1.68
   0   3  13   65.55    1.70
   0   3 -13   66.28    1.74
   0  -3 -13   63.41    1.83
   0   3 -13   65.03    2.08
   0   3 -13   64.27    1.57
   0  -3 -13   65.90    2.26
   0  -3  13   65.79    1.61
   0  -3  13   66.99    2.21
   0   3 -13   65.70    1.63
   0  -3  13   64.86    1.59
   0   3  13   63.80    1.59
   0  -3  13   63.51    1.59
   0   3  13   61.87    1.65
   0  -3  13   64.33    1.65
   0  -3  13   66.66    2.11
   0   3  13   64.57    1.53
   0  -3  13   65.77    1.88
   0  -3 -13   64.96    2.04
   0   3  13   63.47    2.27
   0   3 -13   64.96    1.53
   0   3 -13   64.44    2.19
   0   3  13   63.51    1.51
   0  -3 -13   63.59    1.65
  -2   3  13   60.35    2.31
   2   3 -13   59.47    2.05
  -2  -3 -13   57.05    1.49
   2  -3  13   57.64    2.24
   2   3 -13   58.49    1.64
   2  -3  13   59.05    1.51
   2   3 -13   58.87    1.99
   2  -3  13   57.60    1.96
   2   3 -13   56.26    2.14
  -2  -3 -13   57.28    1.43
  -2   3  13   57.74    1.40
  -2  -3 -13   55.07    2.23
  -2   3  13   57.23    1.61
  -2   3  13   58.94    1.64
   2   3 -13   58.01    1.55
  -2   3  13   57.59    1.62
  -2   3  13   57.18    1.53
  -2  -3 -13   56.73    1.64
  -2   3  13   58.13    1.64
  -2  -3 -13   60.09    1.55
  -2  -3 -13   57.93    1.55
  -2   3 -13   58.84    1.63
  -2  -3  13   59.58    1.60
  -2  -3  13   60.34    2.04
   2  -3 -13   56.76    1.93
   2  -3 -13   57.74    1.58
   2  -3 -13   57.48    1.93
  -2  -3  13   57.65    1.55
  -2   3 -13   55.92    1.59
   2   3  13   59.55    2.11
   2  -3 -13   60.16    2.19
  -2  -3  13   57.26    1.49
  -2  -3  13   57.13    1.52
  -2  -3  13   57.22    1.47
  -2   3 -13   54.56    1.62
  -2   3 -13   56.72    2.29
   2   3  13   60.66    2.16
   2   3  13   57.46    1.56
  -2   3 -13   55.97    1.60
   2   3  13   56.39    1.60
   2   3  13   55.29    2.08
  -2  -3  13   58.66    1.62
  -2   3 -13   59.45    1.49
   2   3  13   55.93    1.62
  -2   3 -13   54.90    1.88
  -4   3  13   41.53    2.06
   4   3 -13   40.28    2.08
  -4   3  13   40.69    1.40
  -4   3  13   41.90    1.40
  -4   3  13   42.21    1.14
  -4  -3 -13   42.45    1.31
   4  -3  13   40.07    1.66
   4   3 -13   42.71    1.42
   4   3 -13   40.27    1.81
  -4   3  13   43.46    1.51
   4  -3  13   42.61    1.31
  -4  -3 -13   44.60    1.51
  -4   3  13   41.20    1.90
  -4   3  13   42.05    1.44
  -4  -3 -13   41.89    1.28
  -4   3  13   43.41    1.50
   4  -3  13   41.04    2.07
  -4  -3 -13   43.67    2.19
  -4  -3 -13   41.48    1.49
   4   3 -13   42.77    1.42
   4   3  13   43.17    1.35
  -4   3 -13   40.60    1.48
  -4   3 -13   42.23    1.46
  -4  -3  13   40.59    1.36
   4   3  13   41.06    1.89
   4   3  13   39.51    1.42
  -4  -3  13   41.28    1.47
   4  -3 -13   42.28    1.36
  -4  -3  13   43.22    1.54
   4  -3 -13   43.15    2.02
   4  -3 -13   41.50    1.62
  -4  -3  13   41.55    1.44
   4   3  13   44.43    2.17
   4   3  13   41.39    1.46
  -4   3 -13   40.60    2.17
  -4   3 -13   42.54    1.21
  -4  -3  13   42.95    1.29
  -4   3 -13   43.13    1.53
  -4  -3  13   43.10    1.97
  -6  -3 -13   23.20    1.24
  -6  -3 -13   21.97    1.05
  -6   3  13   24.11    1.14
  -6  -3 -13   21.60    0.97
  -6   3  13   22.90    1.13
  -6   3  13   24.53    1.26
  -6  -3 -13   22.31    1.07
  -6   3  13   22.24    0.80
   6   3 -13   22.20    1.12
  -6   3  13   23.59    1.21
  -6   3  13   21.04    1.12
  -6  -3 -13   21.69    1.16
  -6  -3  13   23.06    1.20
  -6   3 -13   20.84    1.09
   6   3  13   23.57    1.19
  -6  -3  13   23.64    1.27
   6   3  13   21.71    1.15
  -6  -3  13   22.32    1.08
  -6   3 -13   22.70    0.89
  -6  -3  13   22.20    1.04
  -6   3 -13   22.94    1.23
  -6  -3  13   24.05    1.25
  -6  -3  13   21.53    0.96
  -6   3 -13   25.45    1.24
  -8  -3 -13   11.07    0.78
   8  -3  13    8.39    0.71
   8   3 -13    8.89    0.79
  -8  -3 -13    7.62    0.67
  -8  -3 -13    8.83    0.91
  -8   3  13    9.37    0.93
  -8   3  13    9.39    0.84
  -8  -3 -13    9.67    0.83
   8   3  13    9.50    0.91
  -8  -3  13    9.21    0.92
  -8  -3  13    8.15    0.90
  -8   3 -13   10.77    0.61
  -8   3 -13    7.91    0.83
  -8  -3  13    8.23    0.74
  -8   3 -13   10.07    0.95
  -8  -3  13    9.86    0.82
   8   3  13   10.44    0.96
  -8  -3  13    7.68    0.68
 -10  -3 -13    4.27    0.44
 -10  -3  13    3.74    0.41
  -1   4  13   71.05    1.78
   1  -4  13   72.08    1.78
  -1   4  13   72.29    1.88
   1   4 -13   70.45    1.94
  -1   4  13   73.88    1.72
  -1   4  13   69.29    2.59
   1  -4  13   72.96    1.92
   1  -4  13   70.99    2.31
  -1  -4 -13   71.23    1.93
  -1   4  13   72.98    1.86
  -1   4  13   74.30    1.88
  -1  -4 -13   73.12    1.86
   1   4 -13   74.46    2.49
   1  -4  13   72.24    2.03
   1   4 -13   72.87    2.32
  -1   4  13   68.54    1.90
   1   4 -13   71.84    1.80
  -1  -4 -13   67.92    1.98
   1  -4  13   67.79    2.48
  -1  -4 -13   73.24    2.55
  -1   4 -13   71.43    1.87
   1  -4 -13   73.58    1.89
   1  -4 -13   73.09    2.29
   1   4  13   69.60    2.19
   1  -4 -13   69.56    1.81
   1   4  13   75.16    2.56
  -1   4 -13   73.19    1.95
   1   4  13   70.20    1.88
   1  -4 -13   71.23    2.21
   1   4  13   71.03    1.86
  -1  -4  13   73.92    2.30
  -1  -4  13   71.08    1.81
  -1   4 -13   72.05    1.78
  -1  -4  13   72.25    1.87
  -1  -4  13   73.78    2.29
   1  -4 -13   76.39    2.47
  -1   4 -13   69.59    1.82
   1   4  13   72.76    1.89
  -1   4 -13   71.65    2.61
  -3   4  13   52.25    1.54
  -3   4  13   53.33    2.36
  -3  -4 -13   51.57    2.32
   3   4 -13   52.44    1.57
  -3   4  13   50.87    1.65
  -3  -4 -13   49.41    1.39
  -3  -4 -13   55.04    1.70
   3   4 -13   49.32    2.03
  -3   4  13   50.91    1.55
  -3  -4 -13   51.80    1.58
   3   4 -13   49.73    2.16
   3  -4  13   51.72    2.30
   3   4 -13   50.49    1.59
   3  -4  13   48.86    1.44
  -3   4  13   49.33    1.52
  -3   4  13   51.54    1.34
  -3  -4 -13   52.44    1.46
   3  -4  13   47.07    1.85
   3   4 -13   51.63    2.04
  -3   4  13   51.90    1.64
  -3   4 -13   49.16    2.35
   3  -4 -13   51.13    1.56
  -3  -4  13   49.55    1.59
  -3  -4  13   51.81    1.57
   3  -4 -13   48.87    2.06
   3  -4 -13   51.76    2.03
  -3   4 -13   52.65    1.43
  -3  -4  13   51.35    1.45
   3   4  13   51.83    1.57
   3   4  13   52.61    2.13
  -3   4 -13   50.46    1.60
  -3  -4  13   51.25    1.54
   3  -4 -13   52.25    1.89
  -3   4 -13   53.15    1.64
  -3  -4  13   47.49    1.51
  -3  -4  13   52.27    2.11
   3   4  13   50.27    1.60
  -3   4 -13   50.38    1.60
  -3   4 -13   49.98    1.65
   3   4  13   49.13    1.60
   3   4  13   46.05    2.12
  -3  -4  13   51.04    1.51
   5   4 -13   27.94    1.64
  -5   4  13   25.97    1.26
  -5  -4 -13   28.95    1.13
  -5   4  13   27.73    0.91
   5  -4  13   28.16    1.09
  -5  -4 -13   26.75    1.92
  -5   4  13   27.88    1.20
   5  -4  13   27.53    1.83
  -5   4  13   27.68    1.30
   5   4 -13   26.95    1.20
  -5  -4 -13   27.81    1.27
  -5  -4 -13   26.10    1.27
  -5  -4 -13   27.60    1.08
   5  -4  13   26.53    1.38
  -5   4  13   29.29    1.88
  -5  -4 -13   27.69    1.12
   5   4  13   27.86    1.17
  -5  -4  13   27.43    1.30
  -5   4 -13   27.97    1.29
   5   4  13   26.75    1.24
  -5  -4  13   27.27    1.07
   5   4  13   27.46    1.25
   5   4  13   25.71    1.64
   5   4  13   29.48    1.95
  -5  -4  13   28.12    1.10
   5  -4 -13   29.68    1.18
  -5  -4  13   25.35    1.68
  -5   4 -13   27.31    1.30
  -5  -4  13   26.94    1.25
  -5   4 -13   28.67    1.00
  -5  -4  13   28.81    1.20
   5  -4 -13   25.37    1.30
  -5   4 -13   26.54    1.23
  -5   4 -13   25.66    1.94
   5  -4 -13   25.68    1.61
  -5  -4  13   26.68    1.22
  -7   4  13   10.43    0.93
  -7  -4 -13   11.41    1.05
  -7   4  13   12.38    0.61
  -7  -4 -13   12.58    0.85
  -7   4  13   11.79    1.03
  -7  -4 -13   12.21    0.77
  -7  -4 -13   11.87    0.81
  -7  -4 -13   13.29    0.93
   7   4 -13   10.00    0.85
  -7  -4  13   13.57    0.84
  -7   4 -13   13.34    0.88
   7   4  13   12.43    1.04
  -7  -4  13   11.24    0.83
  -7   4 -13   11.85    0.66
  -7  -4  13   11.25    0.74
  -7  -4  13   12.12    1.10
  -7   4 -13   12.24    1.05
  -7  -4  13   12.55    1.06
  -7   4 -13   11.85    1.02
  -7  -4  13   12.92    1.08
   7   4  13   11.75    1.00
  -9  -4 -13    4.68    0.53
  -9  -4  13    4.59    0.51
   0   5  13   19.19    0.81
   0  -5  13   19.35    1.19
   0  -5  13   18.58    0.77
   0   5 -13   17.55    1.25
   0   5  13   18.90    0.79
   0   5 -13   19.08    0.75
   0   5  13   19.12    0.87
   0  -5  13   18.19    0.85
   0  -5 -13   18.76    0.86
   0  -5 -13   20.09    1.05
   0   5  13   19.48    1.30
   0  -5  13   18.86    1.05
   0   5 -13   17.63    0.87
   0   5 -13   18.02    0.73
   0   5  13   19.52    0.72
   0  -5 -13   18.37    0.82
   0   5 -13   18.34    0.76
   0  -5 -13   19.91    1.22
   0   5  13   18.62    0.74
   2  -5  13   17.88    0.89
  -2  -5 -13   16.13    0.76
   2   5 -13   17.92    0.82
  -2   5  13   17.09    0.85
   2  -5  13   17.05    1.26
   2  -5  13   16.89    0.75
  -2   5  13   18.83    0.83
   2   5 -13   17.98    0.87
  -2   5  13   17.45    1.33
  -2  -5 -13   18.23    0.90
  -2  -5 -13   16.24    0.78
  -2  -5 -13   18.52    1.28
   2   5 -13   17.02    1.24
  -2   5  13   18.31    0.89
   2  -5  13   17.17    1.09
  -2   5  13   16.56    0.68
  -2  -5  13   17.36    0.84
  -2   5 -13   17.42    0.76
   2  -5 -13   15.98    1.02
   2  -5 -13   17.20    0.78
  -2   5 -13   17.63    1.65
  -2  -5  13   18.21    0.81
  -2   5 -13   17.16    0.88
   2  -5 -13   17.06    1.10
   2   5  13   17.88    0.88
   2   5  13   18.51    1.21
  -2   5 -13   18.40    0.86
  -2   5 -13   15.95    0.82
   2   5  13   15.89    1.14
   2  -5 -13   18.37    0.85
   2   5  13   16.81    0.82
   2   5  13   16.96    0.83
  -2  -5  13   15.84    1.11
  -4  -5 -13   12.95    0.73
   4   5 -13   12.83    0.76
   4   5 -13   13.13    0.77
  -4  -5 -13   11.87    0.72
  -4   5  13   14.29    0.82
  -4  -5 -13   12.99    0.84
  -4   5  13   12.27    0.85
  -4  -5 -13   13.50    0.70
  -4   5  13   12.23    0.84
  -4   5  13   13.90    0.64
   4  -5  13   11.30    1.03
   4  -5  13   12.19    0.68
   4   5 -13   13.95    1.47
  -4   5  13   15.15    1.58
  -4  -5 -13   15.01    1.58
   4  -5  13   14.73    1.58
  -4  -5 -13   12.08    0.84
   4   5  13   12.62    0.84
  -4  -5  13   12.16    1.26
   4  -5 -13   13.71    0.96
  -4   5 -13   12.00    0.82
  -4   5 -13   12.02    0.86
  -4  -5  13   13.31    0.82
  -4   5 -13   13.29    0.69
  -4  -5  13   14.56    0.87
   4   5  13   14.61    0.89
   4   5  13   12.11    0.81
   4  -5 -13   13.04    0.81
  -4   5 -13   12.06    0.80
  -4  -5  13   13.24    0.79
  -4   5 -13   13.13    1.58
  -4   5 -13   12.36    0.83
  -4  -5  13   12.96    0.72
   4   5  13   12.93    1.41
   4  -5 -13   10.60    1.12
  -4  -5  13   13.22    0.81
  -6   5  13    7.53    0.82
  -6   5  13    7.55    0.49
  -6   5  13    7.41    0.77
  -6  -5 -13    8.26    0.76
   6   5 -13    7.30    0.74
  -6  -5 -13    6.51    0.78
  -6  -5 -13    7.49    0.81
  -6  -5 -13    6.66    0.65
  -6   5  13    7.90    0.86
  -6  -5 -13    5.79    0.62
  -6  -5  13    6.83    0.72
  -6  -5  13    7.10    0.66
   6   5  13    6.73    0.77
   6   5  13    8.56    0.85
  -6  -5  13    6.66    0.77
  -6   5 -13    7.14    0.80
  -6  -5  13    6.52    0.79
  -6   5 -13    8.12    0.86
  -6  -5  13    7.95    0.70
  -6  -5  13    8.20    0.83
  -6   5 -13    7.65    0.55
   6  -5 -13    6.74    0.68
  -6   5 -13    7.13    0.77
   6   5  13    7.49    0.77
  -8  -5 -13    2.88    0.48
  -8  -5  13    3.36    0.50
  -1   6  13   20.72    0.82
   1   6 -13   21.13    1.00
  -1   6  13   21.50    0.92
  -1   6  13   18.45    1.41
  -1  -6 -13   21.84    0.91
   1  -6  13   22.52    1.43
   1   6 -13   19.94    0.88
  -1  -6 -13   19.94    1.00
  -1   6  13   21.29    1.00
  -1  -6 -13   23.22    1.41
   1  -6  13   21.94    1.29
  -1   6  13   21.85    0.91
   1  -6  13   20.30    0.99
   1  -6  13   22.05    0.87
   1   6 -13   20.26    1.44
  -1   6 -13   20.60    1.01
   1   6  13   21.75    1.00
   1   6  13   20.03    0.90
   1   6  13   22.63    0.92
   1  -6 -13   21.29    1.24
  -1  -6  13   22.39    0.91
  -1   6 -13   21.53    0.93
   1  -6 -13   19.32    0.93
   1  -6 -13   21.10    1.25
  -1   6 -13   23.41    0.90
   1   6  13   21.46    1.40
  -1   6 -13   19.93    0.91
  -1  -6  13   22.22    1.31
  -1   6 -13   22.86    1.59
   1  -6 -13   21.41    0.96
  -1  -6  13   21.06    1.00
  -3   6  13   15.28    1.62
  -3   6  13   16.05    0.87
   3  -6  13   16.79    0.78
   3   6 -13   15.58    1.48
  -3   6  13   15.31    0.93
   3   6 -13   16.97    0.90
  -3   6  13   15.80    0.93
   3  -6  13   16.42    1.16
   3  -6  13   15.40    0.94
  -3  -6 -13   15.67    0.89
   3   6 -13   17.17    0.89
  -3  -6 -13   14.58    0.93
  -3  -6 -13   17.26    1.63
  -3   6  13   15.65    0.72
   3   6  13   17.57    1.60
  -3   6 -13   14.72    0.89
  -3  -6  13   15.23    0.84
   3  -6 -13   16.22    1.41
   3  -6 -13   16.46    0.85
  -3  -6  13   16.28    0.93
  -3   6 -13   16.66    0.79
  -3   6 -13   18.77    1.86
   3   6  13   15.70    0.94
  -3   6 -13   16.90    0.97
   3   6  13   16.96    0.93
   3  -6 -13   14.73    1.21
  -3  -6  13   15.84    1.43
   3  -6 -13   16.60    0.92
   3   6  13   16.52    0.91
  -3   6 -13   17.00    0.94
   5  -6  13    9.87    0.91
  -5  -6 -13    9.72    0.71
  -5  -6 -13   10.85    0.96
  -5  -6 -13   10.46    0.94
   5   6 -13    7.21    0.74
  -5   6  13    7.53    0.83
  -5   6  13    8.00    0.79
  -5   6  13    7.52    0.85
  -5   6  13    9.42    0.57
  -5  -6 -13    9.95    0.71
   5   6 -13   10.59    0.86
  -5   6 -13    7.91    0.83
  -5  -6  13    9.47    0.84
   5  -6 -13    9.21    0.82
  -5   6 -13   11.31    0.98
  -5   6 -13   10.81    0.94
  -5  -6  13   10.20    0.90
  -5  -6  13    8.86    0.80
  -5  -6  13    9.71    0.77
   5   6  13    9.61    0.88
   5   6  13    9.78    0.92
  -5   6 -13    8.91    0.61
   5   6  13    9.06    0.87
  -7  -6 -13    4.96    0.70
  -7   6  13    5.02    0.63
  -7  -6 -13    3.56    0.53
   7   6 -13    6.00    0.68
  -7   6  13    5.10    0.46
   7  -6  13    4.08    0.62
  -7  -6 -13    4.59    0.57
   7   6 -13    4.14    0.62
  -7   6  13    4.87    0.69
  -7  -6 -13    3.84    0.54
   7   6  13    3.99    0.66
   7   6  13    4.56    0.70
  -7  -6  13    4.47    0.56
  -7  -6  13    4.90    0.60
  -7   6 -13    4.02    0.61
  -7   6 -13    5.77    0.74
  -7  -6  13    5.38    0.73
  -7  -6  13    4.96    0.56
   7   6  13    4.88    0.73
  -7  -6  13    5.00    0.67
  -7   6 -13    4.49    0.48
  -9  -6 -13    1.53    0.31
  -9  -6  13    1.81    0.32
   0   7  13   12.41    1.37
   0   7 -13   11.50    1.42
   0  -7 -13   12.23    1.15
   0  -7  13   12.04    0.69
   0  -7 -13   11.14    0.72
   0   7  13   11.02    0.77
   0   7 -13   12.74    0.71
   0  -7  13   12.41    0.83
   0  -7 -13   12.23    0.82
   0   7  13   13.69    0.75
   0   7 -13   11.44    0.80
   0  -7  13   11.67    1.12
   2   7 -13   10.39    0.73
   2  -7  13   10.36    1.15
  -2  -7 -13   11.17    0.95
   2  -7  13   10.34    0.90
   2   7 -13   10.19    1.27
  -2   7  13   10.59    1.35
  -2   7  13   10.39    0.73
   2  -7  13   10.53    1.31
  -2   7  13   10.75    0.72
  -2   7  13   11.09    0.90
   2   7 -13   11.80    0.75
  -2   7  13   10.93    0.62
  -2  -7  13   11.75    1.24
  -2  -7  13    9.74    0.85
   2   7  13   10.17    0.86
  -2   7 -13   10.81    0.74
  -2   7 -13    9.40    0.87
   2  -7 -13   10.52    0.73
  -2   7 -13    9.88    0.72
  -2   7 -13   10.32    1.37
  -2  -7  13   10.49    0.70
   2  -7 -13   10.92    0.76
   2  -7 -13    8.91    1.05
  -2   7 -13    9.87    0.64
  -4  -7 -13    7.26    0.77
  -4  -7 -13    9.38    0.75
  -4   7  13    6.55    0.70
   4   7 -13    8.05    0.78
  -4   7  13    6.96    0.58
   4  -7  13    7.50    0.81
  -4   7  13    7.77    0.80
  -4   7  13    8.88    0.87
  -4  -7 -13    9.09    0.89
  -4   7 -13    7.13    0.78
   4  -7 -13    8.18    0.81
  -4   7 -13    8.98    0.87
   4   7  13    8.34    0.82
  -4   7 -13    7.51    0.64
  -4   7 -13    7.62    0.80
   4   7  13    8.08    0.84
  -4  -7  13    9.16    0.80
  -4  -7  13    6.28    0.72
   4   7  13    8.77    0.83
  -6  -7 -13    3.66    0.51
  -6   7  13    4.16    0.45
  -6   7  13    4.30    0.60
  -6   7  13    4.52    0.68
  -6   7  13    3.81    0.63
   6   7 -13    4.27    0.60
  -6  -7 -13    3.18    0.60
   6  -7  13    3.25    0.58
   6   7 -13    4.70    0.62
  -6  -7 -13    5.51    0.76
   6   7  13    5.50    0.73
  -6   7 -13    4.21    0.49
  -6  -7  13    5.26    0.66
  -6   7 -13    5.07    0.70
   6  -7 -13    5.48    0.67
  -6   7 -13    4.34    0.65
   6   7  13    4.13    0.67
   6   7  13    3.70    0.64
  -8  -7 -13    2.70    0.41
  -8  -7  13    2.47    0.38
  -1   8  13   33.54    1.28
   1   8 -13   30.40    1.25
   1   8 -13   29.28    1.31
  -1   8  13   29.76    1.10
   1  -8  13   28.83    1.37
  -1   8  13   29.65    1.34
  -1  -8 -13   29.76    1.37
   1  -8 -13   29.35    1.26
  -1   8 -13   29.09    1.37
  -1   8 -13   30.27    1.21
  -1   8 -13   29.51    1.19
   1  -8 -13   28.11    1.29
  -1  -8  13   31.38    1.40
   1   8  13   30.88    1.35
  -1   8 -13   27.41    1.12
  -1  -8  13   31.60    1.19
   3  -8  13   23.04    1.21
  -3   8  13   21.60    1.12
   3   8 -13   23.77    1.15
  -3   8  13   23.42    1.19
  -3  -8 -13   24.26    1.26
  -3   8  13   23.69    0.99
  -3   8  13   23.05    1.21
  -3   8 -13   20.91    1.21
  -3   8 -13   21.50    1.17
  -3   8 -13   21.67    1.01
   3  -8 -13   22.11    1.10
  -3  -8  13   23.74    1.25
   3  -8 -13   22.59    1.16
  -3   8 -13   24.33    1.18
  -3  -8  13   23.78    1.09
   3   8  13   22.63    1.19
  -5   8  13   13.82    0.72
  -5   8  13   13.90    0.95
  -5  -8 -13   12.50    1.05
   5  -8  13   12.58    0.90
  -5  -8 -13   13.01    0.79
  -5   8  13   13.55    0.97
  -5   8  13   10.11    0.90
  -5   8 -13   16.14    1.03
  -5  -8  13   13.36    0.87
  -5   8 -13   13.90    0.94
  -5   8 -13   13.12    0.94
   5   8  13   12.29    1.01
   5  -8 -13   12.84    0.89
  -5   8 -13   13.27    0.76
  -7  -8 -13    7.10    0.61
   0   9 -13   14.46    0.98
   0   9  13   15.10    0.97
   0  -9 -13   13.72    0.96
   0  -9  13   15.04    1.01
   0   9  13   16.47    0.90
   0  -9 -13   15.40    0.88
   0   9 -13   15.11    0.90
  -2   9  13   13.63    0.94
   2  -9  13   14.22    0.91
   2   9 -13   13.60    0.89
  -2   9  13   13.48    0.88
  -2  -9 -13   13.83    0.99
  -2   9  13   12.66    0.73
   2  -9  13   12.39    1.05
   2   9 -13   11.11    0.82
   2  -9 -13   13.88    0.93
  -2   9 -13   13.08    0.79
   2  -9 -13   13.78    0.89
  -2   9 -13   12.91    0.96
  -2  -9  13   13.85    0.98
  -2   9 -13   12.39    0.84
   2   9  13   14.40    0.95
   4  -9  13    7.75    0.83
  -4   9  13    9.72    0.91
  -4  -9 -13    8.94    0.90
   4   9 -13    9.92    0.87
  -4   9  13    9.15    0.83
  -4   9  13    9.57    0.64
  -4   9 -13    9.02    0.65
  -4   9 -13    7.96    0.83
  -4   9 -13    9.90    0.97
   4  -9 -13    9.71    0.90
  -4  -9  13    9.08    0.79
  -4   9 -13    8.37    0.84
  -4  -9  13    9.69    0.94
   4   9  13    9.85    0.91
   1 -10  13   17.07    1.08
  -1  10  13   17.74    0.99
  -1 -10 -13   14.71    1.02
   1  10 -13   16.23    0.96
  -1  10  13   16.73    1.02
   1  10 -13   17.63    1.03
   1 -10 -13   16.97    0.96
   1 -10 -13   17.21    1.07
  -1  10 -13   17.30    1.07
  -1 -10  13   15.28    1.06
   1  10  13   16.61    1.04
   3 -10  13   14.74    0.99
  -3  10  13   12.77    0.88
  -3 -10 -13   13.96    0.97
  -3  10  13   14.41    0.77
   3 -10  13   14.37    0.93
   3  10 -13   13.55    0.87
   3 -10 -13   13.71    0.91
   3  10  13   13.34    0.93
  -3  10 -13   13.13    0.96
  -3  10 -13   13.15    0.78
   3 -10 -13   12.66    0.88
  -3  10 -13   12.56    0.86
  -3 -10  13   14.38    0.97
   0 -11  13    1.68    0.50
   0 -11 -13    1.33    0.47
   0  11 -13    2.14    0.49
   0  11  13    2.34    0.51
   0   0 -14   18.98    0.85
   0   0  14   18.13    0.75
   0   0 -14   19.15    0.71
   0   0 -14   17.53    0.69
   0   0 -14   16.76    1.05
   0   0 -14   18.38    0.93
   0   0  14   19.18    0.73
   0   0  14   17.78    0.71
   0   0  14   19.98    1.01
   0   0  14   18.73    0.63
   0   0  14   19.31    1.07
   2   0 -14   12.34    0.80
  -2   0 -14   14.42    0.97
  -2   0 -14   13.78    0.64
  -2   0 -14   11.48    0.91
  -2   0  14   14.27    0.94
   2   0 -14   11.76    0.94
  -2   0  14   12.29    0.53
   2   0 -14   12.48    0.65
   2   0  14   13.34    0.87
  -2   0  14   13.92    0.69
  -2   0 -14   12.71    0.63
  -2   0  14   13.22    0.53
  -2   0  14   13.32    0.66
   2   0  14   14.04    0.64
   2   0 -14   11.84    0.56
  -2   0  14   12.50    0.81
  -2   0  14   12.71    0.61
  -2   0  14   13.64    0.58
   2   0  14   14.34    0.65
  -2   0 -14   13.45    0.58
  -2   0 -14   11.94    0.61
  -2   0 -14   13.74    0.60
   2   0  14   12.86    0.95
   4   0  14    5.77    0.74
  -4   0 -14    6.52    0.57
  -4   0  14    6.15    0.61
  -4   0  14    6.70    0.60
  -4   0  14    6.51    0.46
  -4   0  14    5.90    0.61
   4   0  14    5.11    0.54
   4   0  14    6.74    0.60
  -4   0  14    4.94    0.58
   4   0 -14    4.55    0.80
  -4   0  14    5.87    0.40
  -4   0 -14    5.85    0.54
  -4   0 -14    5.94    0.87
  -4   0  14    6.47    0.85
  -4   0 -14    7.22    1.01
  -4   0 -14    5.62    0.60
  -4   0 -14    6.11    0.62
  -4   0 -14    5.56    0.46
   4   0  14    6.28    0.88
   4   0 -14    5.34    0.67
   4   0 -14    5.67    0.59
  -6   0  14    2.54    0.48
  -6   0 -14    2.02    0.35
  -6   0  14    2.50    0.34
  -6   0  14    2.22    0.51
  -6   0 -14    2.37    0.52
  -6   0 -14    2.85    0.52
   6   0 -14    2.91    0.51
   6   0  14    3.52    0.54
  -6   0  14    3.02    0.56
  -6   0  14    2.12    0.49
  -6   0  14    2.38    0.41
  -6   0 -14    2.74    0.44
  -6   0 -14    1.80    0.73
  -6   0 -14    1.85    0.47
   6   0  14    2.56    0.47
   8   0 -14    1.18    0.40
  -8   0  14    0.90    0.43
  -8   0  14    0.64    0.34
  -8   0 -14    0.77    0.44
  -8   0 -14    0.93    0.34
  -8   0 -14    0.95    0.37
  -8   0 -14    1.33    0.45
  -8   0  14    1.37    0.47
  -8   0 -14    1.09    0.46
  -8   0  14    1.08    0.45
  -8   0  14    0.76    0.27
 -10   0  14    0.17    0.23
  -1   1  14  214.49    4.51
   1  -1  14  216.24    4.39
   1   1 -14  215.46    4.62
   1   1 -14  215.92    4.47
  -1  -1 -14  216.96    4.32
   1   1 -14  206.75    4.87
  -1   1  14  212.48    4.47
  -1   1  14  213.53    4.26
   1   1 -14  219.70    5.22
  -1   1  14  210.27    5.18
   1  -1  14  221.99    4.99
   1  -1  14  215.04    4.41
  -1  -1 -14  217.44    5.28
  -1   1  14  211.58    4.27
  -1  -1 -14  213.39    4.42
   1   1 -14  213.31    4.35
  -1   1  14  213.65    4.38
   1  -1  14  219.32    4.33
  -1  -1 -14  220.09    4.85
   1  -1  14  209.49    5.18
  -1  -1 -14  212.62    4.40
  -1   1  14  214.07    4.73
  -1  -1  14  210.92    4.72
  -1  -1  14  212.19    4.26
  -1   1 -14  221.82    4.33
  -1   1 -14  210.20    4.35
   1  -1 -14  208.54    5.21
   1  -1 -14  217.70    4.46
   1   1  14  213.70    4.46
   1   1  14  208.31    4.27
   1   1  14  209.47    4.25
   1   1  14  213.67    5.18
  -1  -1  14  208.84    4.29
  -1   1 -14  218.24    4.45
   1   1  14  211.73    5.00
  -1   1 -14  213.25    5.13
  -1  -1  14  218.70    4.32
  -1  -1  14  213.46    4.47
   1  -1 -14  212.10    4.89
  -1   1 -14  208.48    4.36
  -1   1 -14  220.70    5.04
  -1   1 -14  216.20    4.40
  -1  -1  14  214.82    5.06
  -1  -1  14  209.54    4.44
   1  -1 -14  220.90    4.42
   1   1  14  217.74    4.45
  -1  -1  14  207.31    4.26
   3  -1  14  142.43    3.77
   3   1 -14  145.65    4.22
  -3   1  14  147.16    3.24
  -3   1  14  147.53    3.90
  -3   1  14  148.26    3.06
  -3  -1 -14  145.67    3.18
  -3   1  14  147.80    3.39
  -3  -1 -14  141.85    3.36
   3  -1  14  138.92    4.09
  -3   1  14  148.53    3.43
   3   1 -14  144.87    3.76
   3  -1  14  142.11    3.22
   3   1 -14  145.50    3.35
  -3  -1 -14  147.75    3.33
  -3  -1 -14  148.91    3.28
  -3   1  14  143.39    3.33
  -3   1  14  144.37    3.99
  -3  -1 -14  146.68    3.13
  -3  -1 -14  142.43    4.23
   3  -1  14  141.12    3.22
   3  -1 -14  143.16    3.67
   3   1  14  145.28    3.32
   3   1  14  146.10    4.02
  -3   1 -14  146.72    4.09
   3   1  14  150.81    4.16
  -3  -1  14  146.88    3.91
  -3  -1  14  148.01    3.42
  -3   1 -14  146.00    3.35
  -3   1 -14  143.87    3.19
  -3   1 -14  145.50    3.35
  -3  -1  14  143.09    3.37
  -3  -1  14  144.57    3.24
  -3   1 -14  139.84    4.16
   3  -1 -14  145.65    4.16
  -3   1 -14  146.18    3.10
  -3   1 -14  142.13    3.31
  -3  -1  14  147.77    3.30
   3   1  14  146.60    3.31
   3  -1 -14  141.11    3.16
   3   1  14  140.67    3.84
  -3  -1  14  146.93    3.08
  -3  -1  14  146.35    3.17
  -5  -1 -14   81.86    2.18
   5   1 -14   76.68    3.23
  -5  -1 -14   76.48    2.33
  -5   1  14   77.08    2.93
   5  -1  14   81.30    2.66
   5  -1  14   83.55    2.23
   5   1 -14   71.52    2.56
  -5  -1 -14   74.00    3.16
  -5   1  14   82.57    2.40
  -5  -1 -14   80.64    2.40
  -5   1  14   82.64    2.42
  -5  -1 -14   80.06    2.02
   5  -1  14   79.43    3.04
  -5   1  14   79.97    2.36
   5  -1  14   80.95    2.20
  -5   1  14   78.70    1.92
  -5   1  14   80.53    2.26
   5   1 -14   81.74    2.29
  -5  -1  14   77.06    2.92
  -5  -1  14   79.43    2.26
   5   1  14   77.25    2.73
  -5  -1  14   80.41    1.99
   5   1  14   79.07    3.26
   5   1  14   79.48    2.28
  -5   1 -14   81.80    1.98
  -5  -1  14   79.09    2.11
  -5   1 -14   82.33    2.41
  -5   1 -14   79.79    2.39
  -5   1 -14   81.51    3.34
   5   1  14   81.80    2.28
   5  -1 -14   79.81    2.33
  -5   1 -14   76.99    3.03
  -5   1 -14   82.52    2.25
  -5  -1  14   82.09    2.37
   5  -1 -14   78.70    2.51
   5  -1 -14   76.02    3.16
  -5   1 -14   79.21    2.19
  -5  -1  14   78.76    2.39
  -5  -1  14   77.90    2.43
  -7  -1 -14   36.86    1.47
  -7   1  14   39.53    1.67
  -7  -1 -14   34.47    1.53
  -7   1  14   36.17    1.51
  -7   1  14   39.77    1.64
  -7   1  14   36.94    1.38
  -7   1  14   35.30    1.16
  -7  -1 -14   36.89    1.40
   7   1 -14   35.28    1.49
  -7   1  14   34.80    1.59
  -7  -1 -14   36.37    1.27
  -7  -1 -14   36.88    1.65
   7   1  14   35.48    1.48
  -7   1 -14   35.69    1.23
  -7  -1  14   36.31    1.41
  -7   1 -14   33.72    1.58
   7  -1 -14   36.14    1.50
  -7   1 -14   34.49    1.55
  -7  -1  14   36.22    1.65
  -7  -1  14   34.69    1.58
   7   1  14   38.48    1.55
  -7  -1  14   37.95    1.69
  -7   1 -14   37.42    1.46
  -7  -1  14   36.68    1.26
  -9  -1 -14   14.12    0.80
  -9   1  14   15.01    0.79
  -9  -1  14   14.27    0.81
   0   2  14   15.76    0.68
   0  -2  14   14.79    0.60
   0  -2 -14   15.79    0.64
   0   2 -14   16.25    0.66
   0  -2 -14   14.56    0.66
   0   2  14   15.37    0.56
   0  -2  14   15.58    0.65
   0  -2  14   15.85    0.64
   0   2 -14   14.66    0.58
   0  -2  14   15.34    0.92
   0   2 -14   17.15    0.98
   0  -2  14   14.86    0.60
   0  -2  14   16.42    0.75
   0   2  14   16.04    0.70
   0  -2 -14   14.52    0.70
   0  -2 -14   15.10    0.86
   0   2 -14   14.73    0.67
   0  -2 -14   15.08    1.02
   0   2  14   14.74    0.63
   0   2 -14   14.22    0.93
   0  -2 -14   14.64    0.62
   0  -2  14   14.78    0.96
   0   2  14   16.46    1.05
   2  -2  14   10.42    0.54
  -2   2  14   11.84    0.50
   2   2 -14   12.30    0.84
   2  -2  14   11.99    0.57
   2  -2  14    8.41    0.95
   2  -2  14   10.72    0.55
  -2   2  14   12.67    0.65
  -2  -2 -14   11.65    0.58
  -2  -2 -14   11.15    0.58
  -2   2  14   10.32    1.04
  -2   2  14   10.95    0.62
  -2  -2 -14   12.40    0.59
  -2  -2 -14   10.72    1.09
   2  -2  14   12.89    0.86
  -2   2  14   11.39    0.80
  -2  -2 -14   11.16    0.57
  -2   2  14   11.15    0.62
   2   2 -14   12.19    0.95
  -2   2  14   11.11    0.62
   2   2 -14   12.09    0.65
  -2  -2 -14   11.02    0.63
  -2   2  14   10.61    0.54
  -2  -2  14   10.34    0.56
  -2  -2  14   11.67    0.53
  -2   2 -14   10.33    0.82
  -2  -2  14   11.78    0.81
  -2   2 -14   11.86    1.13
   2   2  14    9.05    0.88
  -2  -2  14   11.36    0.62
  -2   2 -14   12.08    0.63
   2  -2 -14   11.89    0.81
  -2  -2  14   11.73    0.58
  -2   2 -14   11.83    0.55
   2  -2 -14   12.01    0.95
   2   2  14   11.54    0.56
   2   2  14   12.30    0.89
  -2  -2  14   11.32    0.61
   2   2  14   12.50    0.95
   2   2  14   11.25    0.64
   2  -2 -14   11.62    0.59
  -2   2 -14   12.02    0.64
  -2   2 -14   10.98    0.61
  -2   2 -14   11.08    0.57
  -2  -2  14   11.91    0.81
   2   2  14   12.21    0.66
  -4   2  14    5.66    0.60
   4  -2  14    6.63    0.96
  -4   2  14    5.84    0.38
  -4  -2 -14    6.67    0.56
  -4  -2 -14    5.63    0.53
  -4   2  14    6.82    0.66
   4   2 -14    5.01    0.85
  -4  -2 -14    5.06    0.58
   4  -2  14    5.20    0.69
  -4   2  14    6.04    0.83
  -4  -2 -14    4.62    0.45
   4   2 -14    6.00    0.59
  -4  -2 -14    5.83    0.60
  -4   2  14    5.90    0.57
   4   2 -14    5.56    0.72
  -4  -2 -14    3.80    0.77
  -4   2  14    6.40    0.91
  -4   2  14    5.56    0.59
  -4   2  14    4.97    0.57
  -4   2 -14    5.61    0.59
  -4  -2  14    4.95    0.54
  -4  -2  14    5.47    0.63
  -4  -2  14    5.05    0.51
  -4   2 -14    5.05    0.58
  -4  -2  14    6.46    0.90
  -4   2 -14    6.01    0.94
   4   2  14    5.67    0.59
  -4   2 -14    4.71    0.50
   4   2  14    6.44    0.84
  -4   2 -14    4.82    0.43
   4   2  14    6.29    0.97
   4  -2 -14    5.16    0.83
  -4  -2  14    5.29    0.45
   4   2  14    4.45    0.72
   4   2  14    4.85    0.55
  -4  -2  14    5.28    0.57
   4  -2 -14    5.51    0.66
   4  -2 -14    5.34    0.50
  -4  -2  14    5.82    0.64
  -4   2 -14    5.03    0.57
  -6  -2 -14    2.18    0.51
  -6   2  14    2.75    0.55
  -6   2  14    2.45    0.42
  -6  -2 -14    2.62    0.45
  -6   2  14    2.49    0.33
  -6  -2 -14    2.21    0.46
  -6  -2 -14    3.00    0.55
  -6  -2 -14    3.25    0.45
  -6   2  14    2.91    0.52
  -6   2  14    2.66    0.50
   6   2 -14    2.88    0.50
  -6   2  14    1.71    0.44
  -6  -2  14    2.45    0.53
  -6  -2  14    2.47    0.42
  -6  -2  14    2.50    0.53
   6   2  14    1.90    0.47
  -6   2 -14    1.85    0.45
  -6   2 -14    2.80    0.55
  -6   2 -14    2.84    0.49
  -6  -2  14    2.33    0.37
  -6   2 -14    1.91    0.35
  -6  -2  14    2.11    0.51
   6   2  14    3.73    0.58
  -6  -2  14    2.63    0.46
  -6   2 -14    1.95    0.41
  -8   2  14    0.88    0.41
  -8   2  14    0.91    0.28
  -8   2  14    0.68    0.35
  -8  -2 -14    1.63    0.46
  -8  -2 -14    0.79    0.36
  -8  -2 -14    0.50    0.31
  -8  -2 -14    1.76    0.50
  -8  -2 -14    0.90    0.44
   8   2 -14    1.39    0.43
  -8   2  14    1.04    0.34
  -8  -2  14    1.59    0.41
   8   2  14    0.45    0.43
  -8  -2  14    1.28    0.45
   8   2  14    1.34    0.48
  -8   2 -14    1.77    0.51
  -8  -2  14    0.85    0.42
  -8  -2  14    1.29    0.34
  -8   2 -14    0.94    0.31
  -8  -2  14    0.71    0.44
  -8   2 -14    0.64    0.39
 -10  -2 -14    0.22    0.22
 -10  -2  14    0.34    0.23
  -1   3  14  169.77    3.48
  -1   3  14  171.64    3.70
  -1  -3 -14  174.55    4.56
   1   3 -14  164.38    4.29
   1   3 -14  165.80    3.74
   1   3 -14  166.29    3.54
  -1  -3 -14  170.70    3.65
   1   3 -14  166.03    4.20
  -1   3  14  171.60    4.60
   1   3 -14  167.26    3.54
  -1   3  14  167.62    3.69
   1  -3  14  168.93    4.23
   1  -3  14  164.92    3.56
  -1   3  14  165.29    3.52
  -1   3  14  168.67    3.71
   1  -3  14  169.70    4.49
  -1  -3 -14  173.99    3.71
  -1   3  14  171.01    3.66
   1  -3 -14  166.95    3.99
   1  -3 -14  172.19    4.45
  -1  -3  14  168.24    3.60
   1   3  14  168.08    4.47
  -1  -3  14  166.56    4.18
  -1   3 -14  172.87    3.69
  -1   3 -14  167.86    3.60
   1  -3 -14  161.77    3.54
  -1   3 -14  177.08    4.20
   1   3  14  167.87    4.06
   1   3  14  167.52    3.68
  -1   3 -14  169.76    4.51
  -1  -3  14  163.60    3.57
   1  -3 -14  168.88    4.17
  -1   3 -14  170.63    3.72
  -1   3 -14  170.04    3.56
  -1  -3  14  169.98    4.07
  -1  -3  14  170.76    3.65
  -1  -3  14  166.57    3.61
   1   3  14  168.55    3.69
  -1   3 -14  170.69    3.67
   1   3  14  173.36    3.64
   1  -3 -14  166.92    3.67
  -3   3  14  122.98    2.86
  -3  -3 -14  121.76    2.89
   3   3 -14  120.91    2.85
  -3  -3 -14  119.97    2.71
   3   3 -14  117.25    2.90
  -3  -3 -14  115.08    3.81
  -3  -3 -14  124.30    2.76
  -3   3  14  118.16    2.91
  -3   3  14  119.29    3.81
  -3   3  14  115.18    3.46
  -3   3  14  117.62    2.61
  -3  -3 -14  124.01    2.82
  -3   3  14  123.02    2.98
  -3   3  14  123.01    2.99
   3   3 -14  116.04    3.70
   3   3 -14  122.27    3.50
   3  -3  14  115.81    2.74
   3  -3  14  116.82    3.32
  -3  -3 -14  116.00    2.95
  -3   3  14  119.98    2.95
   3  -3  14  114.49    3.76
   3  -3 -14  121.24    3.64
   3   3  14  123.07    3.53
  -3   3 -14  117.51    2.85
   3   3  14  119.45    3.59
   3  -3 -14  120.16    2.85
  -3  -3  14  119.79    2.82
  -3   3 -14  124.99    3.97
  -3  -3  14  119.17    2.83
  -3   3 -14  118.89    2.71
   3   3  14  117.44    2.80
  -3  -3  14  124.16    2.74
  -3  -3  14  120.94    2.97
  -3   3 -14  122.47    2.97
  -3  -3  14  116.48    3.49
  -3  -3  14  122.42    2.94
   3   3  14  122.68    2.97
  -3   3 -14  122.58    2.96
   3   3  14  124.03    2.95
   3   3  14  124.75    3.73
   3  -3 -14  116.76    3.25
  -3   3 -14  120.27    2.99
   5   3 -14   66.51    2.57
   5  -3  14   69.85    2.41
   5  -3  14   69.00    1.94
  -5  -3 -14   68.06    1.90
  -5  -3 -14   70.48    1.97
  -5   3  14   69.14    2.19
   5   3 -14   68.86    2.03
  -5  -3 -14   67.46    1.98
  -5   3  14   67.85    2.74
   5   3 -14   65.10    3.01
  -5   3  14   69.73    2.12
  -5   3  14   73.63    2.23
   5  -3  14   72.17    3.01
  -5  -3 -14   70.75    2.20
  -5   3  14   68.39    2.08
  -5   3  14   69.15    1.72
  -5   3  14   69.41    2.08
  -5  -3 -14   66.81    2.17
  -5  -3 -14   64.60    3.05
   5   3 -14   67.63    2.07
  -5  -3  14   69.00    2.20
  -5   3 -14   68.06    3.16
   5  -3 -14   66.80    1.93
  -5  -3  14   68.81    2.23
  -5   3 -14   68.01    1.79
  -5  -3  14   67.30    2.79
   5   3  14   66.31    1.92
  -5  -3  14   69.75    2.04
  -5   3 -14   68.21    2.21
   5  -3 -14   66.85    2.27
   5   3  14   69.83    2.16
  -5  -3  14   65.06    1.91
   5  -3 -14   67.95    2.85
  -5  -3  14   70.88    2.17
   5   3  14   72.28    2.74
   5   3  14   66.44    2.10
  -5   3 -14   70.79    2.15
  -5   3 -14   64.83    2.17
  -5  -3  14   67.94    1.88
   5   3  14   70.11    3.07
  -7   3  14   34.20    1.54
  -7  -3 -14   32.15    1.33
  -7   3  14   28.22    1.33
  -7  -3 -14   29.52    1.49
  -7   3  14   30.63    1.04
   7  -3  14   31.92    1.25
  -7  -3 -14   31.70    1.33
  -7  -3 -14   29.75    1.20
  -7  -3 -14   30.22    1.43
   7   3 -14   30.62    1.36
  -7  -3  14   33.05    1.51
  -7  -3  14   31.70    1.31
  -7   3 -14   32.17    1.48
  -7  -3  14   32.00    1.34
  -7   3 -14   32.61    1.52
  -7  -3  14   29.12    1.49
  -7  -3  14   32.96    1.53
  -7   3 -14   31.27    1.35
   7  -3 -14   30.76    1.41
   7   3  14   33.49    1.46
   7   3  14   29.11    1.40
  -7  -3  14   30.91    1.21
  -7   3 -14   29.53    1.10
  -9  -3 -14   11.83    0.73
  -9  -3  14   12.11    0.74
   0   4  14    8.52    0.98
   0   4 -14    8.67    0.59
   0  -4 -14   10.00    0.60
   0   4  14    9.19    0.57
   0   4  14    9.48    0.49
   0   4  14   10.69    0.59
   0   4 -14    9.49    0.54
   0   4 -14   10.07    0.52
   0  -4  14    8.96    0.93
   0   4  14    9.72    0.50
   0  -4  14   12.00    1.01
   0   4 -14    8.51    0.47
   0  -4  14    9.09    0.78
   0   4  14   10.17    0.60
   0   4 -14    9.01    1.00
   0  -4 -14    9.15    0.66
   0  -4  14    9.94    0.58
   0  -4  14    8.79    0.53
   0  -4 -14    9.37    0.96
   0  -4 -14   10.78    0.60
   0  -4 -14    9.77    0.90
  -2  -4 -14    6.31    0.90
   2   4 -14    8.48    0.59
  -2   4  14    7.03    0.63
  -2   4  14    8.04    0.57
   2  -4  14    7.36    0.97
  -2  -4 -14    7.00    0.54
   2   4 -14    6.73    0.55
  -2  -4 -14    8.88    0.55
  -2  -4 -14    7.51    0.66
   2   4 -14    8.59    0.93
   2  -4  14    7.33    0.49
   2   4 -14    8.51    0.94
  -2   4  14    7.30    0.43
  -2   4  14    6.56    0.58
  -2   4  14    7.57    0.54
  -2   4  14    7.33    0.51
  -2   4  14    6.85    0.96
  -2  -4 -14    7.60    0.52
   2  -4  14    8.26    0.86
   2   4  14    7.40    0.89
  -2   4 -14    7.44    0.49
  -2  -4  14    7.12    0.82
  -2   4 -14    7.86    0.57
   2  -4 -14    6.90    0.49
  -2  -4  14    7.05    0.47
  -2  -4  14    7.12    0.50
   2   4  14    6.36    0.82
  -2  -4  14    7.81    0.54
  -2  -4  14    7.90    0.54
   2   4  14    7.46    0.55
   2  -4 -14    5.76    0.71
  -2   4 -14    8.20    0.57
   2   4  14    7.01    0.60
   2  -4 -14    6.03    0.70
   2  -4 -14    8.20    0.92
  -2  -4  14    6.88    0.50
   2  -4 -14    8.33    0.57
  -2   4 -14    7.03    0.60
  -2   4 -14    4.72    0.84
   2   4  14    7.88    0.56
  -2   4 -14    7.95    0.58
   4  -4  14    3.55    0.61
  -4   4  14    4.65    0.90
  -4   4  14    4.45    0.58
  -4   4  14    4.47    0.59
   4  -4  14    3.42    0.78
  -4  -4 -14    3.30    0.43
   4   4 -14    5.37    0.87
   4   4 -14    4.92    0.57
  -4  -4 -14    4.02    0.47
  -4  -4 -14    3.77    0.54
  -4  -4 -14    3.17    0.75
   4   4 -14    3.13    0.46
  -4   4  14    4.67    0.56
  -4   4  14    4.11    0.38
  -4   4  14    5.32    0.58
   4  -4  14    4.90    0.51
  -4  -4 -14    4.35    0.59
   4   4 -14    3.35    0.77
  -4   4  14    3.96    0.51
   4   4  14    3.55    0.55
  -4  -4  14    4.20    0.76
   4   4  14    3.42    0.49
  -4   4 -14    4.45    0.56
  -4   4 -14    3.94    0.43
  -4  -4  14    3.99    0.55
   4   4  14    3.16    0.75
  -4  -4  14    3.83    0.50
  -4   4 -14    5.11    0.57
  -4   4 -14    4.06    0.59
   4   4  14    3.60    0.71
  -4  -4  14    4.52    0.46
  -4  -4  14    4.54    0.59
  -4   4 -14    2.70    0.77
   4  -4 -14    4.15    0.51
  -4  -4  14    5.44    0.59
   4   4  14    4.25    0.58
   4  -4 -14    4.69    0.66
   4  -4 -14    2.91    0.62
  -4   4 -14    3.05    0.50
  -6  -4 -14    1.88    0.48
  -6  -4 -14    1.85    0.37
   6  -4  14    1.48    0.37
  -6  -4 -14    2.62    0.54
  -6   4  14    2.19    0.33
  -6  -4 -14    2.04    0.44
  -6   4  14    1.37    0.44
  -6  -4 -14    2.11    0.45
  -6   4  14    2.00    0.49
   6   4 -14    1.83    0.43
  -6   4  14    1.87    0.44
  -6  -4  14    1.98    0.40
  -6  -4  14    1.79    0.48
  -6  -4  14    2.11    0.51
  -6   4 -14    1.47    0.33
   6   4  14    2.71    0.55
  -6   4 -14    1.75    0.48
   6   4  14    1.41    0.44
  -6  -4  14    1.24    0.43
  -6   4 -14    3.14    0.58
   6   4  14    1.95    0.44
  -6   4 -14    1.13    0.37
  -6  -4  14    1.97    0.43
  -6  -4  14    1.97    0.38
  -8  -4 -14    0.77    0.34
  -8  -4 -14    0.95    0.42
  -8  -4  14    0.85    0.37
  -8  -4  14    0.41    0.32
  -1   5  14  119.77    2.94
  -1   5  14  119.97    2.84
   1   5 -14  119.37    3.70
   1  -5  14  119.82    2.75
   1  -5  14  123.21    3.50
  -1   5  14  120.41    3.91
   1   5 -14  119.61    2.79
  -1   5  14  118.97    2.77
  -1  -5 -14  116.33    2.82
   1   5 -14  122.17    2.99
  -1   5  14  119.65    2.85
  -1   5  14  118.72    2.82
   1  -5  14  114.08    3.64
   1  -5  14  116.98    2.94
  -1  -5 -14  113.92    3.62
  -1   5  14  116.31    2.67
  -1  -5 -14  121.04    2.96
   1  -5 -14  119.44    2.84
   1  -5 -14  120.27    3.53
   1  -5 -14  116.87    2.87
   1   5  14  119.84    2.92
  -1   5 -14  123.36    2.88
  -1  -5  14  119.72    2.80
   1  -5 -14  120.24    3.46
  -1   5 -14  125.01    3.03
  -1   5 -14  116.91    2.81
  -1   5 -14  119.26    2.76
  -1  -5  14  117.37    2.89
   1   5  14  121.54    2.85
  -1  -5  14  114.85    3.37
   1   5  14  116.11    2.84
   1   5  14  120.02    3.70
  -1   5 -14  111.13    3.79
   1  -5 -14  123.03    3.35
   3   5 -14   95.89    2.48
  -3   5  14   88.91    2.39
   3   5 -14   88.68    3.12
  -3  -5 -14   88.16    3.34
   3  -5  14   91.38    2.92
  -3   5  14   89.10    3.47
  -3   5  14   88.63    2.16
  -3   5  14   90.17    2.51
  -3   5  14   89.24    2.53
  -3  -5 -14   88.42    2.27
   3   5 -14   91.69    2.40
   3  -5  14   81.09    3.25
  -3  -5 -14   91.04    2.42
  -3  -5 -14   87.28    2.52
   3  -5  14   90.05    2.25
   3   5  14   94.01    3.23
  -3  -5  14   91.59    2.41
   3   5  14   93.33    2.47
  -3   5 -14   92.32    2.53
  -3  -5  14   89.30    2.42
   3  -5 -14   86.18    2.81
  -3   5 -14   89.05    3.51
  -3  -5  14   89.50    2.39
   3  -5 -14   84.98    2.40
  -3   5 -14   93.04    2.50
  -3   5 -14   93.48    2.54
   3   5  14   89.61    2.47
  -3   5 -14   91.81    2.27
  -3  -5  14   87.28    2.25
   3   5  14   92.90    2.46
  -3  -5  14   89.54    3.10
  -3   5 -14   86.36    2.48
  -3  -5  14   88.04    2.37
   3  -5 -14   90.69    3.00
  -5   5  14   56.32    1.52
  -5  -5 -14   53.19    1.92
  -5  -5 -14   50.63    1.90
  -5  -5 -14   51.06    1.71
   5  -5  14   53.66    1.61
  -5   5  14   50.51    1.90
  -5   5  14   54.10    1.84
  -5  -5 -14   51.10    1.62
  -5   5  14   53.80    1.95
   5   5 -14   52.43    1.80
  -5  -5 -14   53.37    1.68
  -5   5 -14   53.61    1.90
   5   5  14   56.30    1.93
  -5  -5  14   52.30    1.67
  -5   5 -14   53.07    1.94
  -5  -5  14   49.80    1.85
  -5  -5  14   50.12    1.81
  -5   5 -14   52.29    1.94
  -5  -5  14   52.65    1.80
   5   5  14   56.93    1.92
  -5   5 -14   53.68    1.59
   5  -5 -14   55.79    1.82
  -5  -5  14   52.26    1.63
   5   5  14   52.61    1.79
  -5  -5  14   48.93    1.82
  -7   5  14   22.79    0.90
  -7   5  14   26.72    1.33
  -7   5  14   22.18    1.16
  -7  -5 -14   24.58    1.12
  -7  -5 -14   24.79    1.24
  -7   5  14   24.39    1.26
  -7  -5 -14   22.57    1.27
  -7  -5 -14   23.67    1.09
  -7  -5 -14   27.57    1.23
   7   5 -14   21.30    1.12
  -7   5 -14   24.37    1.24
  -7  -5  14   24.59    1.32
   7   5  14   24.13    1.31
  -7  -5  14   23.22    1.07
  -7  -5  14   25.00    1.20
  -7  -5  14   23.66    1.25
   7   5  14   24.29    1.29
  -7   5 -14   25.28    0.98
  -7   5 -14   26.11    1.32
  -7   5 -14   24.92    1.23
  -7  -5  14   25.38    1.12
  -9  -5 -14   10.23    0.64
  -9  -5  14   11.39    0.65
   0  -6  14    6.07    0.62
   0   6  14    6.37    0.64
   0  -6  14    5.75    0.76
   0   6 -14    4.51    0.85
   0  -6  14    6.71    0.51
   0   6 -14    6.01    0.53
   0   6  14    6.40    0.97
   0   6  14    6.42    0.55
   0  -6 -14    6.17    0.59
   0   6 -14    5.87    0.65
   0  -6 -14    5.77    0.62
   0  -6 -14    4.48    0.65
  -2   6  14    4.80    0.57
  -2   6  14    4.38    0.44
   2  -6  14    4.68    0.60
  -2  -6 -14    4.40    0.58
   2   6 -14    4.24    0.50
   2   6 -14    4.75    0.57
  -2   6  14    3.40    0.80
   2   6 -14    4.38    0.85
   2  -6  14    4.53    0.48
  -2   6  14    4.49    0.52
   2  -6  14    6.11    0.94
  -2  -6 -14    4.57    0.84
   2  -6  14    5.92    0.81
  -2   6  14    4.85    0.59
   2  -6 -14    4.03    0.52
  -2   6 -14    4.58    0.56
  -2   6 -14    4.93    0.57
  -2   6 -14    5.37    1.01
   2  -6 -14    5.07    0.55
  -2  -6  14    5.78    0.63
   2   6  14    3.99    0.54
  -2   6 -14    4.61    0.59
  -2   6 -14    4.33    0.48
   2  -6 -14    4.25    0.71
   2   6  14    5.01    0.56
   2  -6 -14    5.66    0.79
  -2  -6  14    4.33    0.75
  -2  -6  14    4.45    0.51
   2   6  14    5.09    0.55
  -4   6  14    3.27    0.52
   4   6 -14    3.05    0.50
  -4   6  14    3.04    0.55
   4  -6  14    2.77    0.42
  -4  -6 -14    3.11    0.55
  -4   6  14    2.09    0.33
  -4  -6 -14    3.31    0.56
  -4  -6 -14    2.87    0.44
   4  -6  14    3.06    0.54
  -4   6  14    4.49    0.62
   4   6  14    2.08    0.49
  -4   6 -14    4.44    0.62
   4  -6 -14    2.90    0.49
  -4   6 -14    3.87    0.47
  -4  -6  14    2.90    0.48
   4   6  14    3.69    0.58
   4   6  14    3.19    0.56
  -4   6 -14    2.15    0.46
  -4   6 -14    3.63    0.56
  -6  -6 -14    1.46    0.40
   6  -6  14    1.39    0.45
  -6   6  14    1.66    0.45
  -6   6  14    1.54    0.49
  -6   6  14    1.30    0.30
  -6   6  14    1.99    0.49
  -6  -6 -14    1.52    0.44
   6   6 -14    1.64    0.42
  -6  -6 -14    1.41    0.43
  -6  -6 -14    2.07    0.52
   6   6 -14    1.84    0.45
  -6  -6  14    1.37    0.44
  -6  -6  14    1.03    0.38
   6   6  14    1.95    0.53
   6   6  14    1.35    0.51
  -6   6 -14    1.14    0.32
   6   6  14    1.37    0.51
  -6   6 -14    1.41    0.46
  -6  -6  14    0.98    0.38
  -6  -6  14    1.83    0.39
   6  -6 -14    2.12    0.47
  -6   6 -14    1.70    0.46
  -6  -6  14    1.58    0.48
  -8  -6 -14    0.92    0.32
  -8  -6  14    0.85    0.31
   1   7 -14   77.27    2.14
  -1   7  14   68.66    3.07
   1  -7  14   72.24    2.27
   1  -7  14   73.78    1.99
  -1   7  14   74.15    2.10
   1  -7  14   72.08    2.90
   1   7 -14   76.91    3.19
  -1   7  14   74.29    2.27
   1   7 -14   77.08    2.32
  -1  -7 -14   75.41    2.10
  -1   7  14   75.54    1.97
  -1  -7 -14   76.01    2.31
  -1   7 -14   75.69    2.12
  -1  -7  14   77.26    2.29
  -1   7 -14   74.94    2.13
   1   7  14   74.03    2.25
   1  -7 -14   77.69    2.20
  -1  -7  14   71.44    2.72
  -1   7 -14   78.40    2.05
  -1   7 -14   70.67    2.30
   1  -7 -14   76.08    2.73
   1  -7 -14   75.55    2.22
  -1  -7  14   72.82    2.05
  -1   7 -14   70.78    3.18
  -3   7  14   56.26    1.96
  -3   7  14   59.41    1.69
   3   7 -14   56.98    1.89
  -3  -7 -14   57.29    2.02
  -3   7  14   56.30    1.99
  -3  -7 -14   59.26    1.90
   3   7 -14   58.65    1.90
   3  -7  14   57.48    2.01
  -3   7  14   57.49    1.89
  -3   7 -14   58.71    1.97
  -3   7 -14   57.60    2.04
   3  -7 -14   58.36    1.83
   3   7  14   58.54    1.97
  -3   7 -14   58.47    1.75
  -3   7 -14   57.91    1.96
  -3  -7  14   56.00    1.96
   3  -7 -14   58.38    1.94
   3   7  14   56.37    1.83
   3   7  14   58.09    1.87
  -3  -7  14   56.36    1.83
  -5   7  14   32.95    1.50
   5   7 -14   33.81    1.43
  -5  -7 -14   32.33    1.49
  -5   7  14   32.28    1.42
   5  -7  14   35.14    1.55
  -5  -7 -14   35.90    1.35
  -5   7  14   34.09    1.54
  -5  -7 -14   37.05    1.57
  -5   7  14   34.44    1.20
  -5   7 -14   34.50    1.27
  -5   7 -14   32.68    1.49
   5   7  14   32.68    1.45
  -5   7 -14   31.31    1.46
  -5  -7  14   34.75    1.42
   5   7  14   33.61    1.47
  -5   7 -14   36.06    1.55
  -7  -7 -14   18.30    0.93
   0   8  14    4.42    0.53
   0  -8 -14    4.03    0.55
   0  -8  14    3.74    0.59
   0   8 -14    3.46    0.56
   0  -8 -14    4.31    0.62
   0  -8  14    3.75    0.48
   0   8  14    4.05    0.58
   0   8 -14    4.11    0.54
  -2   8  14    3.79    0.57
   2   8 -14    3.00    0.47
   2   8 -14    3.00    0.50
  -2   8  14    4.43    0.58
  -2   8  14    2.99    0.43
  -2   8  14    2.63    0.51
   2  -8  14    3.98    0.61
  -2  -8 -14    2.45    0.51
  -2  -8  14    2.56    0.52
  -2   8 -14    3.76    0.59
   2  -8 -14    3.72    0.57
  -2   8 -14    3.50    0.48
   2  -8 -14    3.06    0.52
  -2   8 -14    2.98    0.49
  -2  -8  14    4.06    0.53
  -2   8 -14    3.33    0.52
   2   8  14    3.13    0.55
  -4  -8 -14    2.00    0.48
  -4   8  14    2.22    0.52
   4   8 -14    2.85    0.49
  -4   8  14    1.78    0.34
   4  -8  14    1.77    0.47
  -4   8  14    2.41    0.49
  -4   8  14    2.05    0.48
  -4  -8 -14    3.05    0.58
   4  -8 -14    2.46    0.50
   4   8  14    2.45    0.51
  -4   8 -14    2.86    0.54
  -4   8 -14    1.84    0.49
  -4  -8  14    1.91    0.51
  -4  -8  14    2.60    0.47
  -4   8 -14    1.98    0.47
  -4   8 -14    1.29    0.35
  -6  -8 -14    0.93    0.34
  -8  -8 -14    0.40    0.24
  -1   9  14   43.39    1.58
   1   9 -14   42.19    1.58
   1   9 -14   43.67    1.71
  -1   9  14   44.12    1.72
   1  -9  14   42.68    1.76
  -1  -9  14   43.59    1.77
   1   9  14   41.31    1.67
   1  -9 -14   41.99    1.60
  -1   9 -14   42.67    1.77
   1  -9 -14   45.09    1.72
  -3   9  14   31.68    1.22
  -3   9  14   34.02    1.42
  -3   9  14   35.99    1.53
  -3  -9 -14   36.10    1.58
   3  -9  14   33.61    1.51
  -3   9  14   32.77    1.44
   3   9 -14   31.54    1.39
   3  -9 -14   35.82    1.48
  -3   9 -14   33.42    1.43
  -3  -9  14   34.10    1.34
  -3   9 -14   35.34    1.32
   3  -9 -14   36.23    1.45
  -3  -9  14   32.50    1.50
  -3   9 -14   34.87    1.57
   3   9  14   34.46    1.50
   0  10 -14    2.68    0.53
   0 -10 -14    1.25    0.44
   0  10  14    2.24    0.45
   0 -10  14    1.94    0.51
   0  10  14    3.08    0.55
   0  10 -14    3.38    0.53
   2 -10  14    1.57    0.48
  -2  10  14    2.17    0.53
   2  10 -14    2.15    0.43
  -2  10  14    1.84    0.43
  -2 -10 -14    1.58    0.52
  -2 -10  14    1.98    0.51
  -2  10 -14    1.01    0.41
   2  10  14    1.33    0.43
   2 -10 -14    1.86    0.48
   2 -10 -14    2.20    0.50
  -1   0  15    0.08    0.13
  -1   0 -15    0.10    0.13
  -1   0  15   -0.03    0.11
  -1   0 -15    0.25    0.15
  -1   0  15    0.01    0.11
   1   0 -15    0.04    0.17
  -1   0 -15    0.03    0.14
  -1   0  15    0.00    0.13
   1   0  15   -0.13    0.20
   1   0  15    0.21    0.14
  -1   0  15   -0.07    0.13
  -1   0  15    0.12    0.24
   1   0 -15    0.04    0.13
  -1   0 -15    0.09    0.11
  -1   0 -15   -0.07    0.12
  -1   0 -15    0.22    0.25
   1   0  15    0.00    0.13
   1   0 -15    0.25    0.28
  -1   0  15    0.08    0.17
  -1   0  15    0.21    0.16
   1   0  15    0.14    0.14
   1   0 -15    0.25    0.16
  -1   0 -15    1.71    0.45
   1   0  15   -0.21    0.18
  -3   0  15    0.08    0.14
  -3   0  15    0.44    0.22
   3   0 -15    0.38    0.23
  -3   0 -15   -0.13    0.18
   3   0  15    0.20    0.20
   3   0  15    0.22    0.21
  -3   0  15    0.37    0.21
  -3   0  15    0.12    0.25
  -3   0 -15    0.36    0.20
  -3   0 -15   -0.01    0.21
   3   0 -15    0.45    0.32
   3   0 -15   -0.09    0.16
  -3   0  15   -0.04    0.16
  -3   0 -15    0.30    0.18
  -3   0  15    0.46    0.23
  -3   0 -15   -0.17    0.17
   3   0  15    0.12    0.29
  -3   0 -15    0.26    0.30
  -3   0  15    0.08    0.24
  -3   0 -15    0.90    0.39
   3   0 -15    0.09    0.23
  -3   0  15    0.23    0.16
   3   0  15   -0.03    0.23
  -5   0  15    0.42    0.28
  -5   0 -15    0.67    0.28
   5   0 -15    0.74    0.34
  -5   0  15    0.64    0.22
   5   0  15    0.53    0.49
  -5   0 -15    0.01    0.42
  -5   0 -15   -0.11    0.21
  -5   0 -15    0.57    0.31
   5   0  15    0.18    0.31
  -5   0 -15    0.49    0.33
  -5   0  15   -0.03    0.35
   5   0 -15    0.23    0.46
  -5   0 -15    0.18    0.28
  -5   0  15    0.29    0.28
   5   0  15    0.22    0.35
   5   0 -15    0.43    0.34
   5   0  15    1.26    0.39
  -5   0  15    0.44    0.28
   5   0  15    0.56    0.54
  -5   0  15    0.60    0.30
   7   0 -15    0.36    0.35
   7   0  15    0.30    0.39
   7   0  15   -0.28    0.37
  -7   0  15    0.41    0.30
  -7   0  15    0.00    0.32
  -7   0  15    0.26    0.35
  -7   0  15    0.62    0.35
  -7   0  15    0.09    0.22
  -7   0 -15    0.72    0.39
  -7   0 -15    0.99    0.44
  -7   0 -15    0.75    0.40
  -7   0 -15    0.52    0.32
  -7   0  15    0.05    0.33
  -7   0 -15    0.18    0.27
  -9   0  15    0.07    0.26
   0  -1 -15   12.95    0.82
   0  -1 -15   14.25    0.64
   0   1  15   12.67    0.95
   0   1 -15   14.01    0.83
   0   1  15   12.73    0.56
   0   1 -15   12.22    0.91
   0  -1  15   13.97    0.63
   0  -1 -15   12.85    0.95
   0  -1  15   13.86    0.64
   0   1  15   14.29    0.66
   0   1 -15   14.07    0.62
   0  -1 -15   12.46    0.56
   0  -1  15   14.10    0.57
   0  -1 -15   13.43    0.61
   0  -1  15   14.84    0.91
   0  -1  15   15.85    1.02
   0   1  15   13.92    0.52
   0  -1  15   13.00    0.66
   0   1 -15   14.02    0.63
   0   1  15   12.63    0.63
   0   1  15   14.32    0.68
   2  -1  15    9.19    0.50
  -2   1  15   10.69    0.54
  -2  -1 -15    9.67    1.03
  -2   1  15    9.62    0.60
  -2  -1 -15    9.54    0.53
  -2   1  15    8.96    0.93
   2   1 -15    9.02    0.98
  -2   1  15   10.35    0.48
  -2  -1 -15   10.63    0.55
   2  -1  15    8.04    0.52
  -2   1  15    9.27    0.55
   2  -1  15    9.19    0.86
   2  -1  15    9.39    0.54
   2   1 -15    9.54    0.49
  -2  -1 -15   10.15    0.55
   2   1 -15   12.17    0.99
  -2  -1 -15    9.43    0.58
  -2   1  15    9.47    0.87
  -2  -1 -15   10.47    0.58
   2   1 -15    9.91    0.61
   2  -1  15    8.92    0.97
  -2   1  15    9.77    0.61
   2   1  15   10.83    0.59
  -2   1 -15    8.94    0.55
   2  -1 -15    9.56    0.84
  -2  -1  15   10.71    0.61
  -2  -1  15    9.97    0.80
  -2  -1  15    9.64    0.48
   2  -1 -15    9.87    1.04
  -2  -1  15   10.05    0.52
  -2   1 -15   10.30    1.01
   2   1  15   10.11    0.93
  -2  -1  15   10.24    0.59
  -2  -1  15    9.63    0.53
   2   1  15   10.87    0.59
  -2   1 -15    9.79    0.52
   2   1  15   11.96    0.94
  -2   1 -15    8.87    0.55
  -2   1 -15    9.29    0.51
   2  -1 -15    9.22    0.59
  -2   1 -15    9.41    0.57
  -2  -1  15   10.51    0.55
  -2   1 -15   10.21    1.01
  -2  -1  15   10.07    0.87
   2  -1 -15    9.74    0.55
  -4  -1 -15    4.51    0.83
  -4  -1 -15    5.02    0.54
  -4   1  15    4.47    0.40
  -4   1  15    5.46    0.81
  -4  -1 -15    4.63    0.57
  -4  -1 -15    4.84    0.52
   4   1 -15    5.10    0.57
   4  -1  15    5.82    0.91
   4   1 -15    4.34    0.67
  -4   1  15    5.27    0.60
  -4  -1 -15    4.90    0.58
  -4   1  15    4.13    0.53
  -4  -1 -15    5.14    0.48
  -4   1  15    4.26    0.55
   4  -1  15    4.03    0.63
  -4   1  15    4.43    0.50
   4  -1  15    4.61    0.51
   4  -1  15    5.33    0.55
   4   1 -15    4.64    0.86
  -4   1 -15    4.59    0.56
  -4   1 -15    3.63    0.74
   4   1  15    5.61    0.60
  -4  -1  15    4.84    0.53
   4   1  15    4.30    0.67
  -4   1 -15    5.26    0.55
   4  -1 -15    2.74    0.51
  -4  -1  15    4.73    0.74
  -4  -1  15    4.45    0.57
  -4  -1  15    4.40    0.53
   4   1  15    5.28    0.82
  -4  -1  15    4.67    0.42
  -4   1 -15    5.35    0.53
   4  -1 -15    6.36    0.96
  -4   1 -15    4.23    0.43
  -4   1 -15    6.02    1.00
   4  -1 -15    4.92    0.59
  -4   1 -15    4.81    0.57
  -4  -1  15    4.08    0.53
   4   1  15    6.80    1.01
  -4  -1  15    4.96    0.48
   4   1  15    5.03    0.57
  -6   1  15    2.10    0.51
   6  -1  15    1.84    0.47
  -6   1  15    2.15    0.32
  -6  -1 -15    2.81    0.48
  -6  -1 -15    2.44    0.49
   6  -1  15    2.19    0.50
  -6   1  15    2.32    0.41
  -6   1  15    1.96    0.50
  -6  -1 -15    2.40    0.41
  -6   1  15    2.94    0.57
   6   1 -15    1.56    0.41
  -6  -1 -15    1.67    0.48
  -6   1  15    2.54    0.49
  -6  -1 -15    1.82    0.47
   6   1  15    1.95    0.46
  -6  -1  15    1.97    0.35
  -6  -1  15    2.01    0.41
  -6  -1  15    1.85    0.39
  -6   1 -15    1.59    0.40
  -6  -1  15    2.37    0.47
   6  -1 -15    2.50    0.52
  -6   1 -15    1.58    0.44
  -6  -1  15    2.59    0.54
  -6   1 -15    2.50    0.54
  -6   1 -15    1.68    0.37
   6   1  15    1.83    0.46
  -6  -1  15    2.23    0.52
  -6  -1  15    1.73    0.46
  -6   1 -15    2.06    0.46
  -8  -1 -15    1.02    0.43
  -8  -1 -15    0.44    0.33
  -8   1  15    1.02    0.45
  -8   1  15    0.96    0.38
  -8  -1 -15    2.37    0.52
  -8   1  15    0.99    0.36
   8   1 -15    1.03    0.37
  -8  -1 -15    0.50    0.39
  -8  -1 -15    0.81    0.34
  -8   1  15    1.16    0.46
  -8   1  15    1.16    0.46
  -8   1  15    0.75    0.27
  -8   1 -15    0.59    0.37
   8   1  15    0.43    0.44
   8   1  15    0.90    0.47
  -8  -1  15    0.82    0.43
  -8   1 -15    0.91    0.32
  -8  -1  15    0.68    0.35
  -8   1 -15    0.58    0.42
  -8  -1  15    1.16    0.45
  -8  -1  15    0.88    0.42
  -8  -1  15    0.79    0.28
  -8   1 -15    1.51    0.44
 -10  -1  15    0.16    0.22
  -1   2  15    8.57    0.51
   1   2 -15    7.68    0.43
  -1  -2 -15    9.73    0.55
  -1   2  15    7.49    0.89
  -1   2  15    8.78    0.45
  -1  -2 -15    7.97    0.47
   1  -2  15    7.76    0.89
   1  -2  15    9.10    0.85
   1   2 -15    8.47    0.82
  -1  -2 -15    8.99    0.52
   1   2 -15    8.56    0.53
  -1   2  15    8.70    0.56
   1   2 -15    7.20    0.82
   1   2 -15    8.23    0.75
  -1   2  15    9.02    0.55
  -1   2  15    8.67    0.75
   1   2 -15    9.28    0.49
   1  -2  15    8.53    0.49
  -1   2  15    8.32    0.44
   1  -2  15    7.90    0.47
  -1  -2 -15    9.44    1.00
   1  -2  15    8.66    0.48
  -1   2 -15    7.85    0.47
   1   2  15    6.50    0.81
   1   2  15   10.86    0.75
  -1  -2  15    8.00    0.81
  -1  -2  15    8.93    0.53
  -1  -2  15    7.32    0.70
  -1  -2  15    8.44    0.45
  -1   2 -15    8.14    0.45
   1   2  15    9.13    0.50
   1  -2 -15    8.90    0.52
  -1   2 -15    9.06    0.52
   1   2  15    9.76    0.92
  -1   2 -15    9.10    0.53
  -1  -2  15    8.07    0.48
   1   2  15    8.25    0.43
   1  -2 -15    8.45    0.95
   1  -2 -15    7.79    0.76
   1   2  15    7.61    0.52
  -1   2 -15    7.70    0.82
  -1   2 -15    9.06    0.93
  -1  -2  15    8.56    0.53
  -1   2 -15    8.31    0.52
   1   2  15    9.01    0.55
   3  -2  15    7.96    0.51
  -3   2  15    8.27    0.89
   3   2 -15    6.37    0.90
  -3  -2 -15    8.48    0.62
   3   2 -15    7.57    0.58
  -3   2  15    7.40    0.65
  -3   2  15    7.55    0.98
   3  -2  15    7.79    0.52
   3  -2  15    7.25    0.50
  -3  -2 -15    8.20    0.56
  -3  -2 -15    7.60    1.01
   3  -2  15    8.18    1.03
  -3   2  15    8.50    0.61
  -3   2  15    7.83    0.45
  -3   2  15    8.31    0.71
  -3  -2 -15    8.14    0.54
  -3   2  15    8.47    0.60
  -3  -2 -15    8.88    0.60
  -3  -2 -15    8.15    0.58
   3   2 -15    7.72    0.86
  -3   2  15    7.73    0.53
   3  -2  15    7.82    0.82
  -3   2 -15    8.94    0.98
   3   2  15    6.69    0.91
   3   2  15    8.13    0.69
  -3   2 -15    8.43    0.59
  -3   2 -15    8.13    0.68
   3  -2 -15    7.64    0.54
  -3   2 -15    7.28    0.49
  -3  -2  15    8.05    0.68
   3   2  15    9.87    1.00
  -3   2 -15    8.58    0.61
  -3  -2  15    7.47    0.61
  -3  -2  15    9.72    0.59
  -3   2 -15    7.67    1.02
  -3  -2  15    8.15    0.49
   3  -2 -15    7.54    0.95
  -3  -2  15    8.64    0.55
   3   2  15    8.06    0.52
  -3  -2  15    8.22    0.88
   3   2  15    8.30    0.95
   3  -2 -15    7.85    0.79
   3   2  15    8.46    0.69
  -3  -2  15    7.46    0.67
   5  -2  15    5.21    0.74
  -5  -2 -15    5.19    0.56
  -5   2  15    6.12    0.92
  -5  -2 -15    5.61    0.59
  -5   2  15    5.61    0.68
   5  -2  15    5.33    0.97
  -5   2  15    4.82    0.64
   5   2 -15    5.74    0.62
   5   2 -15    5.14    0.97
  -5  -2 -15    5.47    0.68
  -5   2  15    5.92    0.64
  -5  -2 -15    6.47    0.58
   5   2 -15    6.36    0.85
  -5  -2 -15    5.34    0.67
  -5   2  15    5.36    0.45
  -5   2  15    4.51    0.60
  -5  -2  15    5.99    0.72
  -5  -2  15    6.22    0.54
   5   2  15    5.17    0.65
   5   2  15    4.46    0.94
  -5   2 -15    5.88    0.61
  -5   2 -15    5.48    0.67
  -5   2 -15    5.71    0.64
  -5  -2  15    5.67    0.59
  -5   2 -15    5.44    0.67
  -5  -2  15    4.88    0.64
   5  -2 -15    5.02    0.94
  -5  -2  15    5.70    0.93
  -5   2 -15    6.18    0.53
  -5   2 -15    5.78    1.08
  -5  -2  15    5.33    0.64
  -5  -2  15    4.93    0.52
   5   2  15    5.69    0.66
   5   2  15    5.69    0.90
   5  -2 -15    4.88    0.71
  -7   2  15    2.62    0.45
   7   2 -15    2.62    0.51
  -7  -2 -15    2.47    0.51
  -7   2  15    2.26    0.34
  -7  -2 -15    2.35    0.51
  -7  -2 -15    2.57    0.48
  -7   2  15    4.22    0.69
  -7   2  15    2.83    0.52
  -7  -2 -15    2.37    0.45
  -7  -2 -15    3.52    0.62
  -7   2  15    3.46    0.63
  -7   2  15    3.77    0.65
   7   2  15    2.55    0.54
  -7   2 -15    2.82    0.43
  -7  -2  15    2.86    0.59
  -7  -2  15    2.05    0.43
  -7   2 -15    3.21    0.60
  -7  -2  15    3.58    0.54
   7  -2 -15    2.36    0.52
   7   2  15    2.80    0.58
  -7  -2  15    3.49    0.63
  -7  -2  15    3.39    0.45
  -7  -2  15    2.34    0.55
  -7   2 -15    3.37    0.63
  -9  -2 -15    0.80    0.31
  -9  -2  15    1.42    0.37
   0  -3 -15   36.53    1.70
   0  -3  15   33.93    1.09
   0   3  15   36.63    1.03
   0  -3  15   35.87    1.10
   0  -3  15   36.18    1.12
   0  -3  15   35.48    1.54
   0  -3 -15   36.01    1.10
   0  -3 -15   34.98    1.16
   0   3  15   37.82    1.21
   0  -3  15   35.90    1.12
   0  -3 -15   35.04    1.48
   0   3 -15   35.88    1.06
   0  -3  15   35.28    1.63
   0   3 -15   35.79    1.13
   0   3 -15   33.63    1.51
   0   3  15   35.59    1.18
   0  -3 -15   35.54    1.14
   0  -3  15   38.38    1.34
   0   3  15   34.64    1.14
   0  -3 -15   37.18    1.29
   0   3  15   35.74    1.71
   0   3 -15   37.76    1.64
   0   3 -15   36.20    1.22
  -2   3  15   29.51    0.91
  -2  -3 -15   28.29    0.99
   2   3 -15   30.74    1.13
  -2   3  15   28.03    1.08
  -2  -3 -15   28.53    0.94
   2  -3  15   27.19    1.58
  -2   3  15   28.55    1.09
   2   3 -15   28.67    1.41
  -2  -3 -15   26.59    1.56
   2  -3  15   29.94    0.99
   2   3 -15   28.04    1.51
  -2   3  15   29.08    1.00
  -2  -3 -15   28.40    1.02
  -2  -3 -15   29.06    1.02
  -2  -3 -15   29.22    1.12
  -2   3  15   28.78    1.09
   2  -3  15   30.40    1.43
  -2   3  15   29.80    1.63
  -2   3  15   27.94    1.10
   2   3 -15   29.56    1.02
   2   3  15   28.93    1.01
  -2   3 -15   30.16    1.11
   2   3  15   28.36    1.50
  -2   3 -15   26.91    1.05
  -2  -3  15   28.82    1.08
  -2   3 -15   28.22    1.09
  -2   3 -15   29.54    0.99
   2  -3 -15   28.99    1.34
   2  -3 -15   28.19    1.57
  -2   3 -15   29.13    1.07
  -2  -3  15   31.74    1.44
   2  -3 -15   27.88    1.34
   2   3  15   30.48    1.47
   2   3  15   28.03    1.08
  -2  -3  15   29.31    1.03
   2   3  15   30.20    1.56
   2   3  15   29.50    1.11
   2  -3 -15   26.22    1.02
  -2  -3  15   30.79    0.96
  -2  -3  15   32.66    1.11
  -2   3 -15   30.65    1.66
  -4   3  15   16.24    0.69
   4  -3  15   16.23    1.55
   4   3 -15   19.25    1.45
  -4  -3 -15   15.73    1.58
   4  -3  15   16.70    0.81
   4  -3  15   16.70    1.10
  -4   3  15   17.26    0.87
  -4   3  15   16.79    0.91
   4   3 -15   16.07    1.36
   4   3 -15   17.29    0.86
  -4   3  15   18.79    1.40
  -4   3  15   16.52    0.94
  -4   3  15   15.72    0.92
  -4  -3 -15   17.58    0.96
   4   3 -15   18.01    0.90
  -4  -3 -15   18.23    0.84
  -4  -3 -15   17.41    0.83
  -4   3  15   16.72    1.41
  -4   3  15   17.21    0.90
  -4  -3 -15   17.77    0.95
   4  -3 -15   17.09    0.85
   4   3  15   15.49    1.54
   4   3  15   16.27    0.93
  -4  -3  15   15.80    1.41
  -4   3 -15   17.38    0.98
  -4  -3  15   16.21    0.76
  -4  -3  15   18.00    0.98
   4  -3 -15   16.74    1.06
  -4   3 -15   17.27    0.95
   4   3  15   16.69    1.40
  -4  -3  15   17.25    0.85
  -4   3 -15   15.58    0.89
  -4   3 -15   17.58    0.77
   4   3  15   17.76    0.88
  -4   3 -15   17.17    1.69
   4  -3 -15   16.74    1.33
  -4  -3  15   18.35    0.92
  -4  -3  15   17.74    0.95
   4   3  15   15.25    0.92
  -6   3  15    8.07    0.86
   6   3 -15    7.68    0.78
  -6   3  15    8.63    0.88
  -6   3  15    7.71    0.77
  -6   3  15    7.75    0.51
  -6  -3 -15    8.86    0.87
  -6   3  15    8.95    0.86
  -6  -3 -15    7.01    0.70
  -6  -3 -15    7.65    0.85
  -6   3  15    9.30    0.90
  -6  -3 -15    9.41    0.81
  -6   3  15    8.72    0.72
   6  -3  15    7.86    0.69
  -6  -3 -15    7.85    0.69
   6   3  15    8.10    0.83
  -6   3 -15    7.85    0.80
  -6  -3  15    9.77    0.95
  -6  -3  15    7.99    0.72
  -6  -3  15    8.05    0.92
   6   3  15    6.25    0.75
  -6  -3  15    6.56    0.79
  -6   3 -15    6.87    0.79
  -6  -3  15    7.81    0.68
  -6  -3  15    9.41    0.82
  -6   3 -15    7.91    0.86
  -6   3 -15    7.66    0.62
  -8  -3 -15    3.25    0.52
  -8  -3 -15    3.35    0.58
   8  -3  15    3.38    0.49
  -8  -3 -15    2.74    0.48
   8   3 -15    3.81    0.53
  -8  -3 -15    1.97    0.52
  -8   3  15    2.45    0.49
  -8  -3  15    2.22    0.54
   8   3  15    3.03    0.63
   8   3  15    2.75    0.61
  -8   3 -15    3.41    0.61
  -8  -3  15    2.52    0.54
  -8  -3  15    2.22    0.40
  -8   3 -15    2.60    0.52
  -8  -3  15    3.16    0.52
  -8  -3  15    3.16    0.52
  -8  -3  15    2.86    0.60
 -10  -3  15    0.58    0.24
   1  -4  15    7.03    0.60
  -1   4  15    7.01    0.61
  -1  -4 -15    9.10    1.04
   1   4 -15    7.28    0.89
   1  -4  15    7.91    0.51
  -1   4  15    8.28    0.58
  -1   4  15    6.79    0.44
   1   4 -15    8.04    0.88
  -1   4  15    8.40    0.56
   1   4 -15    8.79    0.51
  -1  -4 -15    8.92    0.61
   1  -4  15    7.50    0.96
  -1  -4 -15    7.60    0.55
  -1   4  15    8.07    1.01
   1  -4  15    8.02    0.85
  -1   4  15    7.97    0.53
  -1   4  15    8.88    0.51
   1   4 -15    7.47    0.56
   1  -4 -15    8.43    0.97
  -1   4 -15    8.58    1.02
  -1   4 -15    8.02    0.50
  -1  -4  15    7.43    0.82
  -1  -4  15    8.77    0.55
   1  -4 -15    8.29    0.80
  -1   4 -15    7.67    0.54
  -1  -4  15    7.64    0.80
  -1   4 -15    8.43    0.59
   1   4  15    7.48    0.93
  -1  -4  15    7.19    0.49
   1  -4 -15    7.47    0.78
   1   4  15    7.44    0.60
   1   4  15    7.99    0.55
  -1   4 -15    8.27    0.55
   1   4  15    8.46    0.58
   1  -4 -15    6.59    0.58
   1  -4 -15    7.21    0.57
  -3   4  15    6.42    0.44
   3   4 -15    6.46    0.60
   3   4 -15    7.09    0.66
  -3   4  15    8.55    1.13
  -3  -4 -15    7.22    0.60
  -3   4  15    5.98    0.63
   3  -4  15    7.16    0.52
  -3   4  15    6.54    0.62
  -3   4  15    6.28    0.62
  -3  -4 -15    7.17    0.71
  -3  -4 -15    6.80    0.57
  -3  -4 -15    7.79    1.09
  -3   4  15    7.45    0.63
  -3  -4 -15    7.87    0.68
   3   4 -15    6.57    0.95
   3  -4  15    6.85    0.83
  -3  -4 -15    6.76    0.55
  -3   4  15    7.85    0.73
   3  -4  15    6.54    1.00
  -3   4 -15    7.01    0.50
  -3   4 -15    7.08    0.70
  -3  -4  15    7.84    0.64
   3  -4 -15    5.23    0.89
  -3   4 -15    7.45    0.69
  -3  -4  15    6.42    0.63
   3   4  15    7.44    0.69
  -3   4 -15    5.77    0.98
   3   4  15    7.59    0.96
  -3   4 -15    7.22    0.66
  -3   4 -15    6.13    0.62
   3  -4 -15    7.06    0.88
   3   4  15    7.41    0.70
  -3  -4  15    6.48    0.86
  -3  -4  15    6.73    0.65
  -3  -4  15    7.10    0.51
  -3  -4  15    6.96    0.63
   3   4  15    7.69    1.02
   3   4  15    7.58    0.65
   3  -4 -15    6.57    0.79
   3  -4 -15    7.11    0.64
   5   4 -15    3.94    0.57
  -5   4  15    4.48    0.43
   5  -4  15    4.78    0.54
  -5  -4 -15    3.52    0.51
  -5  -4 -15    5.56    0.68
  -5   4  15    4.64    0.60
  -5   4  15    5.14    0.69
  -5  -4 -15    4.36    0.54
  -5  -4 -15    5.73    0.59
   5   4 -15    5.17    0.61
  -5   4  15    4.40    0.64
  -5  -4 -15    4.58    0.66
   5   4  15    4.23    0.59
   5   4  15    4.68    0.66
   5  -4 -15    5.05    0.59
  -5  -4  15    5.76    0.71
  -5  -4  15    4.23    0.60
  -5  -4  15    4.61    0.52
  -5  -4  15    5.00    0.56
  -5   4 -15    3.69    0.60
  -5   4 -15    4.67    0.68
  -5  -4  15    4.77    0.60
  -5   4 -15    4.77    0.49
   5   4  15    3.83    0.61
  -5  -4  15    5.52    0.72
  -5   4 -15    4.28    0.60
   7  -4  15    2.10    0.41
  -7  -4 -15    1.60    0.44
  -7  -4 -15    2.32    0.50
  -7   4  15    2.53    0.50
   7   4 -15    2.13    0.46
  -7   4  15    2.56    0.36
  -7  -4 -15    2.97    0.51
  -7   4  15    1.45    0.49
  -7  -4 -15    1.89    0.52
  -7  -4 -15    2.03    0.51
  -7   4 -15    2.30    0.54
  -7  -4  15    3.42    0.51
  -7   4 -15    2.21    0.51
  -7   4 -15    2.36    0.51
  -7  -4  15    1.93    0.51
   7   4  15    1.63    0.53
  -7   4 -15    2.42    0.40
   7   4  15    1.39    0.50
  -7  -4  15    1.99    0.51
  -7  -4  15    1.93    0.47
  -7  -4  15    2.51    0.54
  -7  -4  15    1.82    0.40
  -9  -4 -15    1.16    0.31
  -9  -4  15    1.27    0.33
   0   5 -15    6.53    0.65
   0   5  15    6.89    0.59
   0   5  15    6.15    0.61
   0  -5  15    6.83    0.78
   0  -5  15    6.77    0.51
   0   5  15    6.73    0.59
   0  -5 -15    7.70    0.96
   0   5  15    7.71    0.50
   0   5 -15    7.61    0.49
   0  -5 -15    7.40    0.77
   0   5 -15    6.10    0.54
   0  -5 -15    6.72    0.59
   0  -5  15    5.55    0.82
   0   5 -15    8.49    1.08
   0  -5 -15    7.42    0.65
   0   5  15    7.62    1.02
   0  -5  15    6.96    0.63
  -2   5  15    6.60    0.45
  -2   5  15    6.24    0.97
  -2  -5 -15    5.80    0.55
  -2   5  15    6.25    0.58
   2   5 -15    5.52    0.55
   2  -5  15    6.56    0.84
   2   5 -15    5.17    0.59
  -2   5  15    5.58    0.58
   2   5 -15    7.11    0.95
   2  -5  15    4.79    0.47
   2  -5  15    4.48    0.82
  -2  -5 -15    4.30    0.80
   2  -5  15    5.31    0.60
  -2  -5 -15    5.24    0.61
  -2   5  15    5.02    0.58
   2   5  15    6.90    0.64
   2  -5 -15    5.27    0.58
  -2   5 -15    6.03    0.63
  -2  -5  15    5.26    0.57
   2  -5 -15    5.58    0.77
   2   5  15    5.98    0.60
  -2   5 -15    6.10    0.53
  -2   5 -15    6.51    1.02
  -2  -5  15    7.38    0.92
  -2  -5  15    5.17    0.53
  -2   5 -15    6.31    0.62
  -2   5 -15    5.38    0.58
   2  -5 -15    4.60    0.69
   2  -5 -15    6.35    0.57
   2   5  15    5.25    0.84
   2   5  15    6.49    0.62
  -4   5  15    4.00    0.60
   4   5 -15    3.85    0.53
  -4  -5 -15    4.36    0.53
   4  -5  15    3.06    0.44
  -4   5  15    3.82    0.53
  -4  -5 -15    3.49    0.54
  -4   5  15    3.36    0.39
  -4  -5 -15    3.15    0.54
  -4   5  15    4.46    0.62
  -4  -5 -15    3.68    0.89
  -4  -5 -15    3.53    0.50
   4  -5  15    3.64    0.69
  -4   5  15    3.16    0.84
   4  -5  15    2.86    0.78
   4   5 -15    3.97    0.54
  -4  -5  15    3.31    0.52
  -4   5 -15    4.41    0.59
   4   5  15    4.56    0.93
  -4   5 -15    3.72    0.45
  -4  -5  15    3.82    0.54
   4   5  15    3.44    0.57
   4  -5 -15    3.05    0.61
  -4   5 -15    2.82    0.50
  -4  -5  15    4.35    0.48
   4   5  15    3.97    0.56
   4   5  15    4.39    0.60
  -4  -5  15    2.92    0.42
  -4   5 -15    3.80    0.93
  -4  -5  15    3.38    0.52
   4  -5 -15    4.62    0.80
  -4  -5  15    2.56    0.71
  -4   5 -15    3.36    0.53
  -4  -5  15    3.77    0.53
  -4   5 -15    3.44    0.56
   4  -5 -15    3.93    0.54
  -6  -5 -15    2.27    0.53
  -6   5  15    1.61    0.32
  -6  -5 -15    1.12    0.39
  -6  -5 -15    1.39    0.47
  -6  -5 -15    1.42    0.40
   6   5 -15    1.91    0.45
  -6  -5 -15    1.94    0.44
  -6   5  15    1.45    0.47
  -6   5  15    1.65    0.49
  -6   5  15    1.85    0.44
   6   5  15    1.44    0.52
  -6  -5  15    2.20    0.50
  -6  -5  15    1.99    0.40
   6   5  15    1.54    0.52
   6   5  15    1.95    0.54
  -6   5 -15    2.29    0.40
  -6   5 -15    1.89    0.50
  -6  -5  15    2.15    0.52
  -6  -5  15    2.10    0.51
  -6  -5  15    1.83    0.49
   6  -5 -15    1.64    0.43
  -6  -5  15    1.72    0.40
  -6   5 -15    2.80    0.54
  -6   5 -15    1.80    0.48
  -8  -5 -15    0.79    0.33
  -8  -5  15    1.10    0.34
  -1   6  15    0.24    0.23
  -1   6  15    0.13    0.19
  -1   6  15    0.04    0.17
   1   6 -15    0.26    0.20
  -1  -6 -15   -0.18    0.21
   1   6 -15    0.19    0.38
   1  -6  15   -0.02    0.19
  -1  -6 -15   -0.04    0.24
  -1  -6 -15   -0.42    0.36
  -1   6  15   -0.07    0.22
   1  -6  15    0.09    0.24
  -1   6  15    0.28    0.39
   1   6 -15    0.40    0.26
   1  -6  15    0.08    0.39
   1  -6 -15    0.08    0.24
  -1   6 -15    0.02    0.22
   1   6  15    0.21    0.22
  -1   6 -15   -0.04    0.18
   1  -6 -15    0.13    0.24
   1   6  15   -0.08    0.19
  -1   6 -15   -0.31    0.36
  -1  -6  15    0.07    0.21
  -1   6 -15   -0.05    0.22
   1  -6 -15    0.42    0.35
  -1   6 -15   -0.05    0.19
  -1  -6  15    0.15    0.24
   1   6  15    0.21    0.25
  -1  -6  15    0.35    0.38
   1   6  15    0.21    0.37
  -3  -6 -15    0.05    0.22
   3  -6  15    0.25    0.28
  -3   6  15    0.55    0.56
  -3   6  15    0.11    0.26
   3  -6  15   -0.06    0.23
  -3  -6 -15    0.16    0.49
  -3   6  15    0.14    0.24
   3  -6  15   -0.05    0.46
  -3   6  15   -0.34    0.22
  -3   6  15    0.12    0.18
   3   6 -15    0.04    0.23
   3  -6  15   -0.16    0.33
  -3  -6 -15    0.09    0.28
   3   6 -15    0.14    0.23
  -3  -6 -15    0.27    0.28
  -3  -6  15   -0.01    0.24
  -3   6 -15    0.26    0.26
   3  -6 -15   -0.19    0.27
   3   6  15    0.16    0.25
   3  -6 -15    0.07    0.38
   3   6  15    1.00    0.32
  -3  -6  15    0.39    0.29
   3   6  15    0.10    0.25
  -3   6 -15    0.04    0.25
  -3   6 -15   -0.10    0.52
  -3   6 -15   -0.15    0.20
  -3   6 -15    0.16    0.22
   3  -6 -15    0.19    0.27
  -3  -6  15    0.05    0.39
  -5  -6 -15    0.12    0.27
  -5  -6 -15   -0.06    0.31
   5  -6  15    0.08    0.30
   5   6 -15    0.21    0.29
  -5   6  15    0.30    0.35
  -5   6  15    0.02    0.26
  -5   6  15   -0.08    0.28
  -5   6  15   -0.07    0.19
  -5  -6 -15    0.21    0.34
  -5   6 -15   -0.15    0.21
   5   6  15   -0.15    0.36
  -5  -6  15    0.45    0.31
  -5   6 -15   -0.07    0.27
   5   6  15    0.27    0.36
   5  -6 -15    0.46    0.30
  -5   6 -15   -0.08    0.29
  -5  -6  15    0.13    0.32
  -5   6 -15   -0.15    0.29
   5   6  15    0.31    0.38
  -7  -6 -15    0.01    0.27
  -7  -6  15    0.39    0.31
  -7  -6  15    0.42    0.34
  -9  -6 -15   -0.07    0.19
  -9  -6  15    0.03    0.23
   0   7  15    3.78    0.86
   0  -7 -15    4.59    0.55
   0  -7 -15    3.53    0.55
   0   7 -15    6.62    1.14
   0  -7  15    4.23    0.58
   0  -7  15    4.36    0.50
   0   7 -15    4.38    0.60
   0   7 -15    4.40    0.51
   0   7  15    4.15    0.58
   0   7  15    5.28    0.54
   2   7 -15    4.14    0.58
  -2   7  15    3.98    0.45
  -2   7  15    4.05    0.54
  -2  -7 -15    2.86    0.54
   2  -7  15    3.98    0.59
   2   7 -15    3.79    0.53
   2   7 -15    2.27    0.74
   2  -7  15    2.75    0.81
  -2   7  15    3.75    0.58
  -2   7  15    4.62    0.58
   2  -7  15    5.09    0.53
  -2  -7  15    3.46    0.49
  -2   7 -15    4.06    0.49
  -2  -7  15    3.68    0.57
   2   7  15    4.74    0.63
   2  -7 -15    3.45    0.54
  -2   7 -15    4.49    0.59
  -2   7 -15    3.52    0.51
   2  -7 -15    4.24    0.56
  -2   7 -15    3.12    0.54
  -4   7  15    1.75    0.47
   4  -7  15    3.05    0.56
  -4   7  15    3.65    0.56
  -4  -7 -15    2.48    0.43
  -4  -7 -15    3.36    0.59
   4   7 -15    2.01    0.44
  -4   7  15    2.35    0.51
  -4  -7 -15    2.74    0.54
  -4   7  15    3.29    0.42
   4   7  15    2.43    0.49
  -4   7 -15    2.89    0.54
   4  -7 -15    2.41    0.50
  -4   7 -15    2.71    0.54
   4   7  15    2.51    0.51
   4   7  15    2.69    0.49
  -4  -7  15    2.48    0.48
  -4   7 -15    2.14    0.48
  -4   7 -15    2.31    0.42
  -6  -7 -15    1.01    0.45
  -6   7  15    1.61    0.32
   6   7 -15    1.41    0.40
  -6   7  15    1.13    0.42
  -6   7  15    2.09    0.52
  -6  -7 -15    1.71    0.50
   6  -7  15    1.27    0.45
  -6  -7 -15    1.00    0.34
  -6   7  15    1.36    0.40
   6   7  15    0.97    0.44
  -6   7 -15    1.59    0.46
   6   7  15    1.21    0.45
  -6   7 -15    2.03    0.48
  -6  -7  15    1.02    0.38
   6   7  15    0.87    0.44
  -6   7 -15    2.36    0.39
   6  -7 -15    1.51    0.42
  -8  -7 -15    0.88    0.28
  -1   8  15    1.72    0.39
   1   8 -15    2.33    0.43
  -1   8  15    2.33    0.47
   1   8 -15    2.12    0.48
   1  -8  15    1.77    0.47
  -1  -8 -15    2.10    0.52
   1   8  15    2.31    0.50
  -1  -8  15    1.91    0.46
  -1   8 -15    3.52    0.59
   1  -8 -15    2.63    0.50
  -1  -8  15    2.48    0.44
   1  -8 -15    1.60    0.45
   3   8 -15    2.27    0.46
   3  -8  15    1.42    0.44
  -3  -8 -15    1.60    0.44
  -3   8  15    1.95    0.50
  -3   8  15    2.43    0.48
  -3   8  15    1.45    0.39
  -3   8  15    1.50    0.34
  -3   8 -15    1.65    0.46
   3   8  15    1.53    0.46
  -3   8 -15    2.34    0.47
  -3  -8  15    2.34    0.44
   3  -8 -15    2.64    0.52
   3  -8 -15    2.12    0.46
  -3   8 -15    2.38    0.49
  -3  -8  15    2.59    0.54
  -3   8 -15    1.61    0.37
  -5  -8 -15    1.12    0.40
   5   8 -15    2.08    0.45
  -5   8  15    0.83    0.27
  -5   8  15    1.11    0.40
  -5  -8 -15    0.82    0.42
  -5  -8 -15    1.03    0.33
  -5   8  15    1.73    0.50
  -5   8  15    1.09    0.44
   5  -8  15    0.53    0.36
  -5   8 -15    0.91    0.41
  -5   8 -15    1.62    0.38
   5  -8 -15    1.10    0.42
  -5   8 -15    1.53    0.43
   5   8  15    0.84    0.40
  -5  -8  15    0.73    0.37
  -5   8 -15    1.15    0.41
  -7  -8 -15    0.67    0.29
   0  -9 -15    9.25    0.91
   0   9  15    9.02    0.79
   0   9  15    8.82    0.87
   0   9 -15   10.58    0.74
   0  -9 -15   11.23    0.80
   0   9 -15    9.30    0.93
   0  -9  15   10.57    0.98
   2   9 -15   10.08    0.91
  -2   9  15    9.46    0.91
   2  -9  15    7.22    0.73
   2   9 -15    8.20    0.79
   2  -9  15    8.83    0.90
  -2   9  15    9.01    0.80
  -2  -9 -15    8.05    0.88
  -2  -9  15    7.95    0.72
  -2  -9  15    8.56    0.89
  -2   9 -15    7.97    0.77
   2   9  15    6.89    0.77
  -2   9 -15    7.85    0.87
   2  -9 -15    9.89    0.88
   2  -9 -15    7.24    0.77
  -4   9  15    4.72    0.65
   4   9 -15    6.29    0.69
   4  -9  15    6.42    0.76
  -4  -9 -15    6.63    0.80
  -4   9  15    5.37    0.55
  -4   9  15    6.88    0.74
  -4   9  15    6.69    0.76
  -4   9 -15    5.50    0.74
  -4   9 -15    6.09    0.61
   4   9  15    5.02    0.67
  -4   9 -15    7.10    0.79
  -4  -9  15    6.29    0.67
  -4  -9  15    6.19    0.76
   4  -9 -15    7.09    0.76
  -4   9 -15    6.80    0.78
   1  10 -15    1.39    0.39
   1  10 -15    0.57    0.36
  -1 -10 -15    0.97    0.42
  -1  10  15    1.25    0.44
  -1  10  15    1.53    0.42
   1 -10  15    1.09    0.43
   1  10  15    0.78    0.41
  -1  10 -15    1.44    0.45
   1 -10 -15    1.15    0.40
  -1 -10  15    1.18    0.45
   1 -10 -15    0.92    0.42
  -3 -10 -15    1.23    0.47
  -3  10  15    1.29    0.39
   3  10 -15    0.46    0.34
   3 -10  15    1.18    0.43
   3 -10 -15    0.74    0.37
   3  10  15    0.56    0.34
  -3  10 -15    0.59    0.38
   0   0 -16  348.06    6.96
   0   0  16  352.19    7.01
   0   0  16  343.72    7.84
   0   0 -16  358.12    7.92
   0   0  16  351.95    6.80
   0   0 -16  350.94    6.95
   0   0  16  344.64    6.98
  -2   0 -16  290.96    5.94
  -2   0  16  289.95    6.81
  -2   0 -16  297.27    5.86
  -2   0 -16  303.85    6.84
   2   0 -16  277.57    6.48
  -2   0 -16  297.18    6.02
   2   0  16  299.35    6.01
   2   0  16  295.22    5.85
  -2   0 -16  283.98    6.98
  -2   0  16  296.74    6.12
  -2   0  16  288.81    5.94
  -2   0  16  290.35    5.80
   2   0  16  290.60    6.67
   2   0 -16  288.47    5.89
  -2   0  16  296.39    5.79
   2   0 -16  292.54    7.03
   2   0  16  301.03    5.99
  -2   0  16  295.32    6.08
  -2   0  16  289.59    5.85
  -2   0  16  288.76    6.49
  -2   0 -16  292.37    6.00
   2   0 -16  288.47    6.06
   2   0  16  284.17    6.90
   4   0 -16  182.63    4.73
  -4   0 -16  183.24    4.21
   4   0  16  191.36    4.22
  -4   0  16  190.68    4.44
   4   0 -16  180.54    4.29
  -4   0  16  192.28    5.08
   4   0  16  189.59    4.25
   4   0  16  171.78    4.81
  -4   0 -16  176.61    5.26
   4   0  16  182.07    5.13
  -4   0 -16  188.75    5.40
  -4   0  16  190.67    4.32
  -4   0  16  189.36    3.96
  -4   0 -16  191.02    4.02
  -4   0  16  192.67    4.21
  -4   0 -16  194.25    4.15
  -4   0  16  182.06    3.98
  -4   0 -16  185.98    4.32
  -4   0  16  187.05    4.39
  -4   0 -16  186.38    4.33
  -6   0 -16   96.55    2.85
  -6   0  16   94.61    2.35
  -6   0  16   91.11    2.52
  -6   0  16   93.96    2.84
  -6   0 -16   94.75    2.62
   6   0  16   92.02    2.67
  -6   0 -16   91.81    2.50
  -6   0 -16   99.64    2.90
  -6   0 -16   93.00    2.41
   6   0  16   95.95    2.67
  -6   0  16   95.73    2.89
  -6   0  16   96.83    2.71
   6   0 -16   94.28    2.73
  -6   0  16   93.43    2.90
  -8   0  16   37.78    1.64
  -8   0 -16   37.52    1.64
  -8   0 -16   37.10    1.37
  -8   0 -16   39.74    1.49
  -8   0  16   40.98    1.46
   8   0 -16   37.24    1.51
  -8   0 -16   37.38    1.58
  -8   0  16   38.65    1.69
  -8   0 -16   39.29    1.33
  -8   0  16   37.88    1.62
  -8   0  16   37.85    1.28
 -10   0  16   13.95    0.62
  -1   1  16    0.38    0.15
   1  -1  16    0.05    0.15
   1  -1  16    0.32    0.17
  -1   1  16    0.08    0.16
  -1   1  16    0.24    0.23
   1  -1  16   -0.02    0.14
  -1   1  16    0.04    0.26
   1   1 -16   -0.13    0.19
  -1  -1 -16   -0.06    0.23
  -1  -1 -16    0.26    0.18
  -1   1  16    0.18    0.13
   1   1 -16    0.02    0.26
  -1   1  16    0.09    0.14
   1   1 -16   -0.07    0.14
   1  -1  16    0.23    0.29
  -1   1  16    0.15    0.16
   1  -1  16    0.07    0.26
   1   1 -16    0.23    0.17
  -1  -1 -16    0.05    0.14
  -1  -1 -16    0.17    0.16
  -1  -1 -16    0.54    0.20
  -1   1  16    0.27    0.15
  -1   1 -16    0.13    0.15
   1   1  16    0.75    0.23
  -1  -1  16    0.13    0.13
   1   1  16    0.26    0.26
  -1   1 -16    0.30    0.18
  -1  -1  16    0.29    0.16
   1  -1 -16    0.02    0.17
  -1   1 -16   -0.01    0.24
  -1  -1  16    0.48    0.17
   1   1  16    0.66    0.22
   1   1  16    0.25    0.16
   1   1  16    0.21    0.27
  -1   1 -16    0.18    0.16
  -1   1 -16    0.18    0.16
  -1  -1  16    0.04    0.15
  -1   1 -16    0.81    0.23
   1  -1 -16    0.18    0.17
   1  -1 -16    0.54    0.28
   1   1  16    0.84    0.19
  -1  -1  16    0.18    0.16
  -1  -1  16   -0.12    0.18
  -1  -1  16    0.15    0.24
   1  -1 -16    0.14    0.37
  -1   1 -16   -0.30    0.21
  -3  -1 -16    0.66    0.27
   3  -1  16    0.35    0.22
   3   1 -16    0.44    0.28
  -3   1  16    0.29    0.32
  -3   1  16    0.82    0.27
  -3  -1 -16    0.14    0.30
   3  -1  16    0.59    0.43
  -3  -1 -16    0.40    0.23
  -3  -1 -16    0.67    0.22
  -3   1  16    0.26    0.19
  -3   1  16    0.48    0.18
   3   1 -16    0.44    0.35
   3  -1  16    0.52    0.31
  -3   1  16    0.32    0.31
  -3   1  16    0.01    0.18
  -3   1  16    0.25    0.21
  -3  -1 -16    0.15    0.20
  -3  -1 -16    0.95    0.28
   3   1 -16    0.78    0.29
   3  -1  16    0.39    0.22
   3   1  16    0.38    0.32
  -3  -1  16    0.56    0.34
  -3   1 -16    0.15    0.21
  -3   1 -16    1.34    0.29
   3   1  16    0.37    0.33
   3   1  16    0.25    0.34
  -3   1 -16    0.26    0.31
   3   1  16    0.13    0.24
  -3  -1  16    0.57    0.21
  -3  -1  16    0.42    0.24
  -3  -1  16    0.05    0.15
  -3  -1  16    0.65    0.25
   3  -1 -16    0.31    0.27
  -3  -1  16    0.21    0.19
  -3   1 -16    0.43    0.21
  -3  -1  16    0.22    0.22
  -3   1 -16    0.72    0.26
  -3   1 -16    0.31    0.34
   3  -1 -16    0.24    0.23
   3  -1 -16    0.32    0.38
   3  -1 -16    0.45    0.22
   3   1  16    0.35    0.25
   5   1 -16    0.12    0.28
  -5  -1 -16    0.59    0.33
   5  -1  16    0.26    0.34
  -5  -1 -16    0.06    0.28
  -5   1  16    0.51    0.32
  -5  -1 -16    0.81    0.30
   5  -1  16    0.65    0.32
   5  -1  16    0.23    0.44
  -5  -1 -16    0.61    0.35
   5   1 -16    0.41    0.55
  -5  -1 -16   -0.01    0.46
  -5  -1 -16    0.53    0.28
   5   1 -16    0.44    0.34
  -5   1  16    0.29    0.26
   5  -1  16    0.75    0.32
  -5   1  16    0.55    0.28
  -5   1  16    0.14    0.28
  -5   1  16    0.09    0.38
  -5   1  16    0.42    0.21
  -5   1  16   -0.06    0.28
   5   1  16    0.62    0.35
  -5  -1  16    0.16    0.19
   5   1  16    0.30    0.40
  -5  -1  16    0.44    0.41
  -5  -1  16    0.52    0.28
  -5   1 -16    0.43    0.51
   5  -1 -16    0.78    0.52
  -5  -1  16    0.09    0.27
   5  -1 -16    0.21    0.31
   5   1  16   -0.03    0.30
  -5   1 -16    0.50    0.27
  -5  -1  16    0.32    0.30
  -5  -1  16    0.64    0.33
  -5  -1  16    0.25    0.26
  -5   1 -16    0.60    0.34
  -5   1 -16    0.52    0.54
  -5   1 -16    0.61    0.34
   5  -1 -16    0.00    0.27
   5   1  16   -0.23    0.47
  -5   1 -16   -0.05    0.26
  -5   1 -16    0.25    0.25
  -5  -1  16    0.69    0.28
  -7   1  16    0.05    0.35
  -7   1  16    0.18    0.34
  -7   1  16   -0.21    0.25
  -7   1  16    0.10    0.36
  -7   1  16    0.49    0.30
  -7  -1 -16    0.34    0.38
   7   1 -16   -0.03    0.29
  -7  -1 -16   -0.09    0.25
  -7   1  16   -0.21    0.20
  -7  -1 -16    0.03    0.31
  -7  -1 -16    0.18    0.34
  -7  -1 -16    0.02    0.37
  -7  -1  16    0.21    0.37
  -7   1 -16    0.17    0.33
  -7  -1  16    0.52    0.33
  -7  -1  16    0.11    0.23
   7   1  16   -0.12    0.37
  -7   1 -16    0.15    0.34
  -7   1 -16    0.32    0.28
   7   1  16   -0.08    0.39
  -7   1 -16    0.02    0.35
  -7  -1  16    0.05    0.33
   7  -1 -16    0.44    0.36
  -7  -1  16    0.17    0.37
  -9   1  16   -0.07    0.26
  -9  -1 -16    0.04    0.25
  -9  -1  16    0.14    0.26
   0   2  16  188.40    4.10
   0  -2 -16  191.16    4.96
   0  -2 -16  189.72    4.08
   0   2 -16  195.30    4.66
   0   2 -16  190.87    4.06
   0   2 -16  186.30    4.76
   0  -2 -16  193.14    4.01
   0  -2  16  189.89    3.95
   0  -2  16  188.64    3.95
   0   2 -16  194.01    4.14
   0   2  16  190.67    4.13
   0   2  16  190.45    5.01
   0   2  16  189.98    4.01
   0  -2  16  188.48    4.03
   0  -2  16  188.72    4.05
   0  -2 -16  185.60    3.97
   0  -2  16  182.72    4.79
  -2   2  16  153.23    4.07
  -2  -2 -16  165.73    3.48
  -2  -2 -16  159.14    3.64
   2  -2  16  165.09    4.23
   2  -2  16  163.63    3.52
   2   2 -16  153.13    4.43
  -2  -2 -16  159.29    3.58
  -2   2  16  157.33    4.52
   2   2 -16  162.64    3.70
  -2  -2 -16  159.25    3.41
  -2   2  16  155.61    3.39
   2  -2  16  157.45    3.48
  -2   2  16  165.29    3.70
  -2   2  16  160.24    3.47
  -2  -2 -16  158.21    4.60
  -2   2  16  163.17    3.64
   2  -2  16  164.87    3.50
   2   2 -16  161.70    4.19
   2  -2  16  158.25    4.54
  -2  -2 -16  157.39    3.50
  -2   2  16  164.80    3.74
   2   2 -16  159.87    3.49
  -2   2 -16  160.95    3.65
  -2   2 -16  164.27    3.61
   2  -2 -16  157.41    4.11
   2   2  16  151.52    3.61
  -2  -2  16  160.73    4.14
   2  -2 -16  159.43    4.50
   2   2  16  163.26    3.45
  -2   2 -16  157.37    4.45
   2  -2 -16  164.04    3.58
   2   2  16  156.60    4.40
  -2  -2  16  162.35    3.49
   2   2  16  165.05    4.27
  -2  -2  16  161.57    4.13
  -2   2 -16  163.69    3.49
  -2   2 -16  161.18    3.63
   2   2  16  161.34    4.29
   2   2  16  160.71    3.63
  -2  -2  16  160.23    3.51
  -2   2 -16  163.45    3.58
  -2   2 -16  162.61    4.32
  -2  -2  16  160.44    3.65
  -2  -2  16  162.87    3.70
  -2  -2  16  162.43    3.43
  -4   2  16  105.06    2.84
  -4  -2 -16  102.04    2.56
  -4   2  16   94.73    3.29
   4   2 -16  100.14    3.22
  -4   2  16  102.27    3.52
  -4   2  16  105.04    2.80
  -4   2  16  106.49    2.42
   4   2 -16  105.97    3.77
   4   2 -16  106.61    2.74
  -4  -2 -16  105.32    2.62
   4  -2  16  106.12    3.24
   4  -2  16  102.54    2.57
  -4   2  16  104.47    2.79
  -4  -2 -16  106.19    2.55
   4  -2  16  105.03    3.67
  -4  -2 -16  101.06    2.74
  -4   2  16  101.90    2.65
  -4  -2 -16  106.49    2.83
  -4  -2 -16  100.02    3.75
  -4  -2  16  109.05    2.90
  -4   2 -16  103.79    2.75
  -4   2 -16  104.43    2.79
  -4   2 -16  100.94    2.47
  -4  -2  16  103.47    2.81
   4   2  16  101.21    2.74
   4  -2 -16   99.78    3.60
  -4  -2  16  102.72    3.42
  -4   2 -16  101.41    3.77
   4   2  16  103.80    3.41
  -4   2 -16  104.69    2.79
   4  -2 -16  102.79    3.11
   4  -2 -16  103.57    2.57
   4   2  16  104.55    3.40
   4   2  16  105.42    2.79
  -4  -2  16  103.30    2.60
  -4  -2  16  103.33    2.49
  -4  -2  16  105.66    2.73
   4   2  16  102.87    3.66
  -6  -2 -16   54.82    1.81
  -6  -2 -16   57.59    2.05
  -6  -2 -16   54.69    1.71
  -6   2  16   53.79    1.87
  -6   2  16   57.41    2.06
  -6   2  16   52.15    1.95
  -6  -2 -16   52.82    1.79
  -6   2  16   51.57    1.69
   6   2 -16   52.32    1.87
   6   2 -16   54.43    1.86
  -6   2  16   53.25    1.54
  -6  -2 -16   52.65    1.97
  -6   2  16   52.60    1.97
   6   2  16   59.04    1.99
  -6  -2  16   56.29    2.00
  -6   2 -16   55.13    2.01
  -6   2 -16   53.95    2.01
  -6  -2  16   55.45    1.68
  -6   2 -16   51.86    1.61
  -6   2 -16   54.23    1.87
   6  -2 -16   56.84    1.99
  -6  -2  16   55.09    1.80
  -6  -2  16   56.43    2.10
   6   2  16   56.64    1.99
  -6  -2  16   53.77    2.03
  -6  -2  16   53.16    1.76
   8   2 -16   23.34    1.15
  -8   2  16   22.09    1.12
  -8  -2 -16   22.61    1.13
  -8  -2 -16   20.38    1.00
  -8   2  16   22.01    0.89
  -8   2  16   24.56    1.27
   8  -2  16   22.64    1.04
  -8   2  16   23.24    1.03
  -8  -2 -16   23.86    1.29
  -8  -2 -16   24.26    1.13
  -8  -2  16   23.58    1.10
  -8   2 -16   23.13    1.21
   8   2  16   22.60    1.18
  -8   2 -16   23.38    1.26
  -8  -2  16   22.35    1.23
  -8  -2  16   21.60    0.97
  -8  -2  16   20.79    1.21
  -8   2 -16   23.30    0.96
   8   2  16   23.34    1.22
 -10  -2  16    8.86    0.52
   1  -3  16   10.97    0.58
  -1   3  16   12.04    0.57
   1  -3  16   11.79    1.17
  -1   3  16   10.83    0.65
   1   3 -16   11.32    0.56
   1   3 -16   11.08    1.06
  -1   3  16   10.60    0.61
  -1  -3 -16   11.70    0.66
   1   3 -16   11.90    0.59
  -1  -3 -16   11.00    0.64
  -1   3  16   10.85    0.63
  -1   3  16   11.77    1.22
  -1   3  16   12.47    0.71
   1   3 -16   11.79    0.90
   1  -3  16   11.25    1.00
  -1  -3 -16   13.52    1.27
   1   3 -16   10.59    0.66
  -1   3  16   11.69    0.55
  -1   3 -16   11.27    0.61
  -1  -3  16   11.46    0.60
   1   3  16   12.20    0.63
  -1   3 -16   13.96    1.08
  -1   3 -16   11.99    0.90
   1   3  16   11.99    1.19
  -1  -3  16   11.73    0.64
   1  -3 -16   10.32    0.75
   1  -3 -16   10.57    0.58
   1  -3 -16   10.94    1.08
   1  -3 -16   12.94    1.06
  -1  -3  16   12.80    0.84
   1   3  16   10.81    0.63
  -1   3 -16   11.60    0.64
   1   3  16   10.94    0.64
   1  -3 -16   10.75    0.63
  -1  -3  16   12.32    0.92
  -1  -3  16   11.08    0.62
  -1   3 -16   12.98    0.61
  -1   3 -16   11.36    0.65
  -3   3  16    7.45    0.70
   3   3 -16    8.00    0.55
  -3  -3 -16    7.26    1.04
  -3  -3 -16    6.86    0.57
   3  -3  16    7.17    0.85
   3   3 -16    6.07    0.61
  -3  -3 -16    6.93    0.58
   3  -3  16    8.04    1.08
   3   3 -16    6.50    0.87
  -3   3  16    8.00    0.48
  -3   3  16    6.58    0.63
  -3  -3 -16    7.36    0.63
  -3  -3 -16    7.14    0.61
  -3   3  16    7.77    0.63
  -3   3  16    5.61    0.88
  -3   3  16    7.68    0.71
  -3  -3 -16    6.74    0.66
   3   3 -16    7.32    1.03
  -3   3  16    7.13    0.67
   3  -3  16    6.71    0.52
   3   3  16    6.92    0.67
  -3   3 -16    7.84    0.66
  -3  -3  16    7.30    0.69
  -3  -3  16    7.42    0.68
  -3   3 -16    6.67    0.66
  -3  -3  16    7.63    0.56
   3  -3 -16    7.59    0.64
   3   3  16    8.07    0.62
   3  -3 -16    7.63    1.02
  -3   3 -16    8.30    0.72
  -3  -3  16    6.26    0.51
  -3  -3  16    8.07    0.58
   3   3  16    7.47    0.96
   3   3  16    5.96    0.87
   3  -3 -16    6.13    0.74
  -3   3 -16    7.10    0.66
   3   3  16    6.53    0.93
  -3  -3  16    7.09    0.89
  -3   3 -16    6.47    0.54
   3   3  16    8.17    0.72
  -3   3 -16    4.89    0.88
  -5  -3 -16    3.59    0.51
  -5  -3 -16    2.35    0.46
   5   3 -16    3.01    0.49
  -5   3  16    2.68    0.51
   5   3 -16    3.17    0.70
  -5  -3 -16    3.75    0.50
  -5   3  16    3.80    0.55
   5   3 -16    2.95    0.49
  -5   3  16    3.32    0.55
  -5   3  16    3.91    0.51
  -5   3  16    2.93    0.53
  -5   3  16    3.54    0.55
  -5  -3 -16    2.90    0.54
  -5   3  16    2.88    0.37
   5  -3  16    3.20    0.47
  -5  -3 -16    2.75    0.52
  -5   3 -16    3.27    0.56
   5  -3 -16    2.24    0.74
   5   3  16    4.53    0.64
  -5  -3  16    3.67    0.58
   5  -3 -16    3.82    0.51
  -5  -3  16    3.74    0.51
   5   3  16    4.20    0.64
  -5   3 -16    3.15    0.56
   5   3  16    2.18    0.65
  -5  -3  16    2.28    0.38
  -5  -3  16    3.78    0.48
  -5   3 -16    3.15    0.43
  -5  -3  16    2.60    0.50
  -5  -3  16    2.93    0.54
  -5   3 -16    3.21    0.52
  -7  -3 -16    1.13    0.38
  -7   3  16    1.32    0.40
   7   3 -16    0.80    0.36
  -7  -3 -16    1.85    0.52
   7  -3  16    1.39    0.38
  -7   3  16    0.92    0.28
  -7  -3 -16    1.71    0.46
  -7  -3 -16    0.91    0.44
  -7  -3 -16    1.00    0.38
  -7   3  16    1.91    0.51
  -7  -3  16    0.83    0.40
  -7   3 -16    1.51    0.43
   7   3  16    1.14    0.50
  -7   3 -16    1.10    0.33
  -7  -3  16    1.47    0.42
  -7  -3  16    1.00    0.36
  -7  -3  16    1.13    0.33
   7  -3 -16    1.31    0.46
  -7  -3  16    0.99    0.45
  -7   3 -16    2.34    0.53
   7   3  16    0.78    0.44
  -7   3 -16    1.44    0.43
  -7  -3  16    0.94    0.42
  -9  -3 -16    0.10    0.23
  -9  -3  16   -0.08    0.24
   0   4  16  141.77    4.31
   0  -4  16  147.78    3.23
   0  -4  16  142.79    4.06
   0   4 -16  150.34    3.46
   0   4  16  140.43    3.32
   0  -4 -16  145.26    3.30
   0   4  16  136.42    3.28
   0   4 -16  141.56    3.24
   0  -4 -16  137.86    3.30
   0   4 -16  150.61    4.20
   0  -4 -16  141.49    4.16
   0  -4  16  144.16    3.27
   0   4  16  140.17    3.32
   2  -4  16  124.50    3.64
  -2   4  16  125.32    2.81
  -2  -4 -16  124.88    4.05
   2   4 -16  125.15    2.93
  -2   4  16  125.36    3.04
   2   4 -16  127.84    3.13
  -2   4  16  125.11    3.07
   2  -4  16  125.25    2.90
  -2   4  16  122.65    3.09
   2  -4  16  120.67    3.96
   2   4 -16  124.66    3.78
  -2   4  16  123.85    2.92
  -2  -4 -16  122.91    3.10
  -2   4  16  125.34    3.07
  -2  -4 -16  127.82    2.97
  -2   4  16  121.86    4.08
   2  -4 -16  120.71    3.76
   2  -4 -16  127.66    3.05
  -2   4 -16  126.10    3.02
   2  -4 -16  118.96    3.52
  -2   4 -16  127.01    3.08
  -2  -4  16  126.97    3.62
  -2  -4  16  120.18    2.96
  -2   4 -16  130.38    4.13
  -2  -4  16  123.42    3.00
  -2  -4  16  124.77    2.97
  -2   4 -16  124.09    3.09
   2   4  16  124.16    2.99
   2  -4 -16  124.64    3.51
  -2   4 -16  127.86    3.13
   2   4  16  126.49    3.83
  -2   4 -16  124.80    2.90
   2   4  16  121.89    3.06
   2   4  16  124.71    3.05
  -4   4  16   86.95    2.42
  -4   4  16   83.88    2.48
   4  -4  16   86.27    2.25
  -4   4  16   86.87    2.53
   4   4 -16   86.11    3.36
  -4  -4 -16   78.87    2.23
   4  -4  16   77.90    2.79
  -4  -4 -16   84.65    2.50
  -4  -4 -16   84.48    2.20
   4   4 -16   81.87    2.39
  -4   4  16   83.44    2.09
  -4  -4 -16   83.40    2.23
  -4   4  16   82.97    2.36
  -4  -4 -16   86.02    2.42
  -4   4  16   80.62    3.37
  -4   4  16   83.82    2.35
   4   4 -16   82.61    2.36
  -4  -4 -16   81.25    3.41
   4  -4  16   76.73    3.28
  -4   4 -16   84.61    2.20
   4   4  16   83.50    3.28
  -4   4 -16   84.49    2.48
   4  -4 -16   80.34    2.97
   4   4  16   85.28    2.31
  -4  -4  16   86.49    2.49
   4  -4 -16   84.10    2.79
  -4   4 -16   85.72    2.52
  -4  -4  16   82.47    2.43
  -4   4 -16   84.26    2.47
  -4  -4  16   82.93    2.32
  -4   4 -16   77.19    3.40
  -4  -4  16   82.15    2.21
   4  -4 -16   86.49    2.35
  -4  -4  16   86.84    3.16
  -4   4 -16   83.89    2.37
  -4  -4  16   84.30    2.35
   4   4  16   84.80    2.45
   4   4  16   87.52    2.51
  -6  -4 -16   46.26    1.64
  -6   4  16   44.91    1.77
   6  -4  16   42.86    1.49
  -6  -4 -16   41.26    1.72
  -6  -4 -16   42.53    1.55
  -6  -4 -16   44.53    1.56
  -6   4  16   43.89    1.79
  -6  -4 -16   45.45    1.82
   6   4 -16   47.11    1.71
  -6   4  16   45.27    1.69
  -6   4  16   40.59    1.33
  -6   4 -16   44.55    1.44
  -6  -4  16   43.18    1.77
  -6  -4  16   43.38    1.52
  -6   4 -16   43.82    1.71
  -6   4 -16   43.39    1.79
   6   4  16   44.33    1.78
  -6  -4  16   48.71    1.89
  -6   4 -16   45.66    1.83
   6   4  16   40.97    1.76
  -6  -4  16   42.74    1.64
  -6  -4  16   44.82    1.56
  -8  -4 -16   20.68    1.03
  -8  -4  16   19.77    0.98
  -1   5  16    0.11    0.20
  -1   5  16    0.56    0.24
  -1  -5 -16    0.94    0.32
  -1   5  16    0.02    0.33
  -1  -5 -16    0.67    0.42
   1   5 -16    0.33    0.23
  -1   5  16    0.43    0.26
  -1   5  16    0.20    0.18
   1  -5  16    0.21    0.20
   1   5 -16    0.29    0.21
   1  -5  16    0.98    0.49
  -1  -5 -16    0.20    0.22
   1  -5  16    0.79    0.29
   1   5 -16    0.75    0.42
  -1   5  16   -0.06    0.19
  -1   5  16    0.50    0.27
  -1   5 -16    0.18    0.20
  -1   5 -16    0.23    0.22
  -1  -5  16    0.33    0.23
   1   5  16    0.70    0.27
  -1   5 -16    0.80    0.27
  -1   5 -16    0.80    0.49
   1   5  16    0.46    0.25
  -1  -5  16    0.42    0.25
   1  -5 -16    0.61    0.35
   1   5  16   -0.25    0.30
   1  -5 -16    0.66    0.42
  -1   5 -16    0.14    0.19
   1  -5 -16    0.15    0.23
   1   5  16    0.36    0.24
  -1  -5  16    0.31    0.33
   1  -5 -16    0.27    0.24
  -3   5  16    0.30    0.24
  -3   5  16    0.38    0.48
  -3   5  16    0.32    0.27
  -3  -5 -16   -0.07    0.25
  -3  -5 -16    0.14    0.44
  -3   5  16    0.11    0.17
  -3  -5 -16    0.30    0.29
   3   5 -16    0.11    0.23
   3   5 -16    0.53    0.27
   3  -5  16   -0.29    0.32
  -3   5  16    0.36    0.29
   3  -5  16    0.49    0.26
   3  -5  16    0.21    0.44
   3  -5 -16    0.57    0.40
  -3   5 -16   -0.02    0.20
  -3  -5  16    0.12    0.24
   3  -5 -16    0.31    0.28
   3   5  16    0.16    0.25
  -3  -5  16    0.49    0.40
  -3  -5  16    0.23    0.26
   3   5  16   -0.01    0.26
   3   5  16    0.12    0.25
  -3   5 -16    0.52    0.28
  -3  -5  16    0.52    0.28
  -3   5 -16    0.86    0.31
   3  -5 -16   -0.11    0.28
  -3   5 -16    0.21    0.25
  -3   5 -16    0.12    0.47
  -5   5  16    0.07    0.29
  -5   5  16    0.01    0.31
   5   5 -16   -0.10    0.23
  -5  -5 -16    0.09    0.26
  -5   5  16    0.22    0.27
  -5  -5 -16    0.24    0.34
  -5  -5 -16    0.50    0.34
  -5  -5 -16    0.10    0.32
  -5   5  16    0.20    0.21
  -5  -5 -16    0.11    0.31
   5  -5  16    0.19    0.27
  -5  -5  16    0.34    0.34
  -5  -5  16    0.10    0.29
  -5  -5  16    0.18    0.28
  -5   5 -16   -0.04    0.31
   5   5  16   -0.10    0.36
   5  -5 -16    0.28    0.29
   5   5  16    0.07    0.36
  -5   5 -16    0.18    0.23
  -5  -5  16    0.31    0.30
   5   5  16    0.04    0.35
  -5  -5  16    0.00    0.25
  -5   5 -16    0.48    0.31
  -5   5 -16    0.69    0.36
  -5  -5  16    0.29    0.31
  -7  -5 -16   -0.15    0.27
  -7   5  16    0.08    0.21
   7   5 -16   -0.06    0.27
  -7  -5 -16   -0.11    0.34
  -7   5  16    0.02    0.28
  -7   5  16    0.39    0.37
  -7  -5 -16    0.16    0.37
  -7  -5 -16    0.09    0.36
  -7  -5 -16   -0.13    0.36
  -7   5 -16    0.21    0.25
  -7  -5  16    0.18    0.29
   7   5  16   -0.19    0.38
  -7  -5  16   -0.11    0.30
  -7  -5  16    0.37    0.38
  -7   5 -16   -0.05    0.31
  -7  -5  16    0.01    0.28
   7   5  16   -0.12    0.40
  -7  -5  16   -0.07    0.33
  -7   5 -16    0.01    0.32
  -9  -5 -16   -0.10    0.20
  -9  -5  16    0.15    0.24
   0  -6 -16  166.97    3.91
   0  -6  16  156.60    3.86
   0   6  16  169.63    3.96
   0   6 -16  161.11    4.98
   0   6  16  159.03    4.97
   0  -6 -16  165.08    3.84
   0  -6  16  167.49    3.72
   0   6 -16  158.73    3.98
  -2   6  16  144.82    4.86
  -2   6  16  145.77    3.56
   2   6 -16  145.35    4.51
   2  -6  16  142.01    4.61
   2   6 -16  145.41    3.62
  -2  -6 -16  149.16    4.63
   2  -6  16  143.16    3.64
  -2  -6 -16  145.65    3.40
  -2   6  16  142.68    3.27
   2  -6  16  141.43    3.32
  -2   6  16  145.05    3.44
  -2   6  16  145.26    3.67
   2   6 -16  141.56    3.44
   2  -6  16  147.35    4.31
  -2  -6 -16  144.27    3.66
   2   6  16  141.32    3.50
   2   6  16  144.57    3.49
  -2   6 -16  143.72    3.51
  -2   6 -16  142.92    4.86
  -2   6 -16  142.66    3.37
   2   6  16  140.52    3.55
  -2   6 -16  147.31    3.72
  -2  -6  16  139.70    3.53
   2  -6 -16  141.67    4.15
  -2   6 -16  145.77    3.57
  -2  -6  16  140.30    4.23
  -2  -6  16  142.62    3.46
   2  -6 -16  141.79    3.43
   2  -6 -16  147.36    4.18
   2  -6 -16  141.84    3.55
  -4   6  16   95.17    2.82
  -4   6  16   94.39    2.82
   4  -6  16   92.99    2.81
   4   6 -16   91.39    2.64
  -4  -6 -16   98.22    2.72
  -4  -6 -16   92.72    2.54
  -4   6  16   95.39    2.69
   4   6 -16   94.03    2.68
  -4  -6 -16   94.18    2.84
  -4   6  16   97.03    2.42
   4  -6  16   93.56    2.44
  -4   6 -16   92.37    2.77
   4  -6 -16   97.81    2.74
  -4  -6  16   98.03    2.69
  -4   6 -16   95.29    2.81
   4   6  16   98.75    2.72
   4   6  16   94.78    2.72
  -4   6 -16   98.81    2.52
  -4   6 -16   99.16    2.85
   4   6  16   97.87    2.77
  -6   6  16   47.52    1.88
   6   6 -16   50.04    1.80
  -6   6  16   48.41    1.89
  -6   6  16   47.45    1.47
   6  -6  16   47.41    1.84
  -6  -6 -16   49.61    1.88
  -6  -6 -16   48.02    1.85
  -6  -6 -16   52.78    1.75
  -6   6  16   48.50    1.79
  -6   6 -16   49.40    1.91
  -6  -6  16   49.61    1.79
  -6  -6  16   49.93    1.61
   6   6  16   49.50    1.87
   6   6  16   50.23    1.77
   6  -6 -16   52.46    1.77
  -6   6 -16   48.30    1.86
  -6  -6  16   51.06    1.88
   6   6  16   52.04    1.90
  -6  -6  16   49.83    1.82
  -8  -6 -16   22.23    0.97
  -8  -6  16   21.90    0.92
   1  -7  16    0.59    0.33
  -1  -7 -16   -0.02    0.29
   1   7 -16    0.08    0.27
  -1  -7 -16    0.52    0.31
   1   7 -16    0.15    0.23
   1  -7  16   -0.13    0.21
  -1   7  16    0.29    0.25
  -1   7  16    0.41    0.29
   1   7 -16    0.50    0.60
  -1   7 -16    0.28    0.25
   1  -7 -16    0.21    0.28
   1  -7 -16    0.40    0.29
  -1   7 -16    0.17    0.25
  -1  -7  16    0.21    0.27
   1   7  16    0.09    0.28
  -1  -7  16   -0.18    0.43
  -1  -7  16    0.34    0.27
  -3   7  16    0.42    0.24
  -3  -7 -16    0.01    0.29
  -3   7  16   -0.04    0.26
   3  -7  16    0.18    0.30
  -3   7  16   -0.05    0.31
   3   7 -16    0.42    0.29
  -3   7  16    0.07    0.26
   3   7 -16    0.32    0.29
  -3  -7 -16   -0.16    0.24
  -3  -7  16   -0.14    0.23
  -3  -7  16    0.07    0.30
   3  -7 -16    0.20    0.31
   3   7  16   -0.07    0.28
  -3   7 -16    0.22    0.31
   3   7  16    0.17    0.30
   3   7  16    0.50    0.33
  -3   7 -16    0.15    0.31
  -3   7 -16   -0.12    0.21
  -3   7 -16    0.11    0.25
  -5   7  16    0.08    0.22
   5   7 -16    0.12    0.30
  -5  -7 -16   -0.23    0.30
  -5   7  16   -0.15    0.26
   5  -7  16   -0.17    0.31
  -5  -7 -16    0.16    0.35
  -5  -7 -16    0.20    0.28
  -5   7  16    0.05    0.36
  -5   7  16    0.21    0.31
  -5   7 -16    0.09    0.23
  -5   7 -16   -0.04    0.31
  -5  -7  16    0.23    0.30
  -5   7 -16    0.09    0.30
  -5   7 -16    0.07    0.30
   5   7  16    0.27    0.33
   5   7  16   -0.57    0.28
   5  -7 -16   -0.36    0.29
   5   7  16   -0.11    0.32
  -7  -7 -16   -0.24    0.22
   0   8 -16   61.25    2.18
   0  -8 -16   66.03    2.03
   0  -8  16   63.94    2.16
   0  -8  16   62.97    1.88
   0  -8 -16   61.11    2.11
   0   8  16   62.23    2.12
  -2  -8 -16   53.88    2.01
   2  -8  16   54.26    1.99
  -2   8  16   55.40    1.99
   2   8 -16   52.61    1.81
  -2   8  16   51.46    1.79
  -2   8  16   54.24    1.67
  -2   8 -16   56.33    1.74
  -2  -8  16   55.16    1.78
  -2   8 -16   55.00    1.88
   2  -8 -16   57.56    1.91
  -2  -8  16   52.56    1.93
  -2   8 -16   52.93    2.03
   2  -8 -16   54.67    1.91
   2   8  16   56.09    1.97
  -2   8 -16   57.95    1.89
  -4  -8 -16   36.57    1.61
  -4   8  16   36.09    1.29
   4   8 -16   38.33    1.50
  -4   8  16   36.37    1.57
  -4   8  16   34.28    1.45
  -4   8  16   38.15    1.60
   4  -8 -16   40.37    1.59
  -4  -8  16   37.28    1.46
  -4   8 -16   36.46    1.37
  -4   8 -16   38.18    1.58
  -4   8 -16   34.02    1.58
  -4   8 -16   35.01    1.52
   4   8  16   38.73    1.58
  -6  -8 -16   20.88    0.96
   1  -9  16    2.75    0.57
  -1  -9 -16    3.18    0.61
   1   9 -16    2.84    0.49
   1   9 -16    3.17    0.57
  -1   9  16    2.74    0.48
  -1   9  16    2.35    0.51
  -1   9 -16    2.76    0.57
   1  -9 -16    2.79    0.56
  -1  -9  16    2.63    0.53
   1   9  16    3.51    0.59
   1  -9 -16    3.02    0.54
  -3   9  16    1.55    0.41
  -3   9  16    3.30    0.61
  -3   9  16    2.27    0.40
  -3   9  16    1.97    0.47
  -3  -9 -16    2.37    0.54
   3   9 -16    2.12    0.45
   3  -9  16    1.96    0.49
  -3  -9  16    2.01    0.44
  -3   9 -16    1.68    0.43
   3   9  16    2.44    0.52
   3  -9 -16    2.01    0.48
  -3   9 -16    1.19    0.44
  -3  -9  16    3.70    0.60
  -3   9 -16    2.05    0.40
   0  10 -16   34.79    1.54
   0 -10  16   34.67    1.56
   0  10  16   34.20    1.50
   0 -10 -16   33.49    1.51
   2  10 -16   28.02    1.24
   2 -10  16   30.25    1.42
  -2 -10 -16   29.84    1.41
  -2  10  16   32.81    1.42
  -2  10  16   29.57    1.27
   2  10  16   27.15    1.33
  -2  10 -16   29.08    1.41
  -2 -10  16   28.42    1.39
   2 -10 -16   30.38    1.31
   2 -10 -16   31.02    1.35
  -1   0  17    0.49    0.31
  -1   0  17    0.57    0.29
  -1   0 -17    0.89    0.21
  -1   0 -17    1.05    0.24
   1   0  17    0.89    0.24
   1   0 -17    0.52    0.20
   1   0 -17    1.23    0.38
  -1   0 -17    0.83    0.37
   1   0 -17    0.82    0.24
  -1   0 -17    0.50    0.21
   1   0  17    0.56    0.18
  -1   0 -17    0.79    0.22
   1   0  17    0.87    0.35
  -1   0  17    0.52    0.20
  -1   0 -17    0.33    0.29
  -1   0  17    0.77    0.19
  -1   0  17    0.38    0.20
  -1   0  17    1.06    0.23
   1   0 -17    1.02    0.47
   1   0  17    0.80    0.23
   1   0  17    1.41    0.41
  -3   0  17    0.06    0.20
   3   0  17    0.36    0.23
  -3   0  17    0.43    0.23
  -3   0 -17    0.54    0.24
  -3   0 -17    0.41    0.36
   3   0  17    0.43    0.23
   3   0 -17    0.23    0.28
  -3   0  17    0.33    0.21
  -3   0 -17    0.68    0.25
  -3   0 -17    0.61    0.39
  -3   0 -17    0.26    0.22
  -3   0 -17    0.25    0.22
   3   0  17    0.10    0.29
   3   0 -17    0.46    0.39
  -3   0 -17    0.34    0.22
   3   0 -17    0.82    0.24
  -3   0  17    0.22    0.17
  -3   0  17    0.51    0.37
  -3   0  17    0.29    0.23
  -3   0  17    0.43    0.34
   3   0 -17    0.24    0.24
  -3   0  17    0.17    0.18
   3   0  17    0.37    0.38
   5   0  17    0.55    0.44
   5   0 -17    0.51    0.34
   5   0  17   -0.05    0.26
  -5   0 -17    0.24    0.25
   5   0  17   -0.03    0.26
   5   0 -17    0.41    0.50
   5   0  17    0.40    0.55
  -5   0  17    0.36    0.30
   5   0 -17    0.55    0.35
  -5   0 -17   -0.11    0.30
  -5   0  17    0.04    0.29
  -5   0 -17    0.47    0.31
  -5   0  17   -0.12    0.25
  -5   0 -17    0.38    0.27
  -5   0  17    0.28    0.44
   5   0  17    0.10    0.49
  -5   0 -17   -0.23    0.46
  -5   0 -17    0.51    0.30
  -5   0 -17   -0.03    0.25
  -5   0  17    0.37    0.25
  -5   0  17    0.34    0.23
  -5   0  17    0.25    0.21
  -7   0 -17    0.04    0.25
  -7   0  17    0.33    0.32
  -7   0  17    0.00    0.22
  -7   0  17    0.65    0.40
  -7   0 -17   -0.26    0.29
   7   0  17    0.39    0.38
  -7   0  17    0.26    0.30
  -7   0  17   -0.02    0.31
  -7   0 -17    0.53    0.39
   7   0 -17    0.30    0.34
  -7   0 -17   -0.01    0.34
  -7   0  17   -0.36    0.34
  -7   0 -17    0.16    0.29
   7   0  17    0.22    0.36
  -9   0  17    0.05    0.26
   0   1  17    6.31    0.44
   0  -1  17    5.79    0.52
   0  -1  17    6.06    0.41
   0   1  17    5.13    0.50
   0   1 -17    7.02    0.49
   0   1  17    5.80    0.52
   0  -1 -17    6.32    0.43
   0  -1  17    6.62    0.83
   0  -1 -17    6.62    0.48
   0  -1 -17    6.44    0.47
   0   1 -17    6.29    0.70
   0  -1  17    5.77    0.51
   0   1  17    6.21    0.82
   0   1 -17    7.15    0.86
   0   1  17    5.88    0.38
   0  -1 -17    6.18    0.82
   0   1 -17    5.91    0.51
   2   1 -17    5.94    0.48
   2   1 -17    4.40    0.77
  -2   1  17    4.35    0.39
   2   1 -17    4.53    0.49
  -2   1  17    5.41    0.50
  -2  -1 -17    4.88    0.81
  -2   1  17    4.51    0.72
   2  -1  17    5.29    0.46
  -2  -1 -17    4.29    0.47
   2  -1  17    3.21    0.66
   2  -1  17    4.97    0.48
  -2   1  17    4.68    0.52
  -2  -1 -17    5.03    0.50
  -2   1  17    4.93    0.54
  -2  -1 -17    4.71    0.44
   2  -1  17    4.96    0.49
   2   1 -17    4.21    0.62
   2  -1  17    2.65    0.53
  -2   1  17    4.94    0.66
  -2  -1 -17    4.76    0.46
  -2   1  17    4.92    0.44
   2  -1 -17    5.34    0.49
   2  -1 -17    4.08    0.49
  -2   1 -17    4.79    0.49
  -2   1 -17    4.66    0.45
  -2  -1  17    5.48    0.77
  -2   1 -17    4.47    0.48
   2   1  17    4.78    0.77
  -2  -1  17    4.02    0.49
   2   1  17    5.20    0.73
   2   1  17    5.49    0.76
   2   1  17    4.92    0.43
  -2   1 -17    5.02    0.45
  -2  -1  17    4.16    0.62
   2   1  17    5.56    0.54
   2   1  17    4.46    0.49
  -2  -1  17    5.05    0.48
  -2  -1  17    4.22    0.51
  -2  -1  17    4.43    0.42
  -2   1 -17    4.30    0.47
  -2   1 -17    4.26    0.70
   2  -1 -17    4.55    0.64
   2  -1 -17    4.49    0.76
  -2  -1  17    4.33    0.39
  -2   1 -17    4.62    0.76
  -2  -1  17    5.25    0.47
  -4   1  17    1.16    0.48
  -4  -1 -17    1.91    0.62
   4   1 -17    2.49    0.56
  -4   1  17    2.34    0.32
  -4  -1 -17    1.89    0.42
  -4  -1 -17    1.67    0.38
  -4   1  17    2.56    0.48
   4   1 -17    2.83    0.74
   4  -1  17    2.65    0.43
  -4  -1 -17    2.99    0.45
  -4   1  17    2.29    0.45
  -4  -1 -17    2.07    0.40
   4  -1  17    3.13    0.46
  -4   1  17    3.15    0.45
  -4  -1 -17    2.23    0.40
   4  -1  17    2.90    0.71
   4  -1  17    2.78    0.59
   4   1 -17    2.86    0.49
  -4   1  17    2.65    0.48
  -4  -1  17    1.74    0.53
  -4   1 -17    1.77    0.59
  -4  -1  17    2.43    0.45
  -4  -1  17    2.87    0.40
   4  -1 -17    2.62    0.55
  -4   1 -17    1.86    0.65
  -4   1 -17    2.95    0.49
   4  -1 -17    2.02    0.63
  -4   1 -17    2.62    0.44
   4   1  17    3.31    0.72
   4   1  17    2.74    0.73
   4  -1 -17    2.54    0.48
  -4  -1  17    2.19    0.40
  -4   1 -17    2.06    0.36
  -4   1 -17    2.12    0.44
   4   1  17    1.63    0.49
   4   1  17    2.25    0.45
  -4  -1  17    2.72    0.38
  -4  -1  17    2.60    0.50
   4   1  17    1.96    0.43
  -4  -1  17    2.32    0.45
  -6   1  17    0.36    0.34
  -6  -1 -17    1.19    0.36
   6  -1  17    0.92    0.37
  -6  -1 -17    1.09    0.43
  -6   1  17    0.66    0.34
  -6  -1 -17    1.43    0.44
  -6   1  17    0.91    0.34
  -6  -1 -17    1.40    0.46
   6   1 -17    1.38    0.42
  -6   1  17    1.12    0.40
  -6   1  17    0.69    0.39
   6  -1  17    0.92    0.37
  -6   1  17    1.03    0.29
  -6  -1 -17    1.42    0.39
  -6   1 -17    0.56    0.36
  -6  -1  17    1.02    0.40
   6  -1 -17    0.78    0.39
   6   1  17    1.64    0.50
  -6   1 -17    2.15    0.45
  -6   1 -17    1.32    0.45
  -6   1 -17    0.81    0.38
  -6   1 -17    0.36    0.30
  -6  -1  17    1.97    0.44
   6   1  17    1.31    0.46
  -6  -1  17    1.17    0.46
  -6  -1  17    0.79    0.28
  -6  -1  17    0.76    0.40
  -6  -1  17    1.05    0.37
  -8   1  17    0.50    0.27
   8  -1  17    0.85    0.35
  -8  -1 -17    0.54    0.31
  -8  -1 -17    0.92    0.34
  -8  -1 -17    0.40    0.38
   8   1 -17    0.00    0.29
  -8   1  17    0.50    0.39
  -8  -1 -17    0.81    0.39
  -8   1  17    0.55    0.32
  -8  -1  17    0.14    0.35
  -8   1 -17    0.19    0.37
  -8  -1  17    0.02    0.35
  -8  -1  17    0.55    0.30
  -8  -1  17    0.84    0.40
  -8  -1  17    0.44    0.29
  -8   1 -17    0.17    0.27
   1   2 -17    4.60    0.73
  -1   2  17    5.27    0.55
   1  -2  17    5.70    0.74
   1   2 -17    5.51    0.43
  -1  -2 -17    4.76    0.49
  -1   2  17    4.86    0.40
  -1   2  17    5.63    0.50
   1  -2  17    4.50    0.44
  -1   2  17    4.46    0.73
  -1  -2 -17    4.88    0.48
   1   2 -17    4.20    0.47
   1  -2  17    4.96    0.47
  -1   2  17    5.17    0.53
   1  -2  17    4.22    0.72
  -1  -2 -17    4.63    0.77
  -1   2  17    4.47    0.38
   1   2 -17    4.73    0.45
   1  -2  17    4.82    0.44
  -1  -2  17    4.25    0.47
   1  -2 -17    4.46    0.62
  -1   2 -17    4.89    0.44
   1  -2 -17    5.26    0.52
  -1   2 -17    4.35    0.70
  -1   2 -17    4.80    0.48
   1  -2 -17    4.94    0.76
  -1  -2  17    3.79    0.64
  -1   2 -17    4.83    0.45
   1   2  17    3.78    0.45
  -1  -2  17    4.69    0.44
  -1   2 -17    4.96    0.49
   1   2  17    3.86    0.45
  -1  -2  17    4.91    0.60
   1   2  17    5.27    0.79
  -1   2 -17    4.77    0.46
  -1  -2  17    4.59    0.47
   1  -2 -17    5.07    0.50
   1   2  17    4.86    0.39
   1   2  17    4.83    0.44
  -1   2 -17    4.12    0.68
  -3   2  17    4.36    0.41
  -3   2  17    4.26    0.46
   3  -2  17    4.33    0.85
  -3   2  17    5.36    0.87
  -3  -2 -17    3.76    0.51
  -3  -2 -17    4.30    0.47
  -3  -2 -17    3.99    0.48
   3   2 -17    4.50    0.54
  -3   2  17    4.10    0.53
   3   2 -17    4.87    0.84
  -3   2  17    4.54    0.70
  -3  -2 -17    4.95    0.53
  -3   2  17    4.21    0.56
  -3  -2 -17    4.79    0.49
   3  -2  17    6.45    0.84
  -3   2  17    4.72    0.54
   3  -2  17    4.26    0.48
   3  -2  17    4.85    0.49
   3   2 -17    4.66    0.72
  -3  -2 -17    4.14    0.84
   3  -2  17    4.51    0.48
  -3  -2  17    4.92    0.58
   3  -2 -17    3.20    0.48
   3   2  17    2.94    0.67
  -3   2 -17    6.75    1.02
   3   2  17    4.37    0.76
  -3  -2  17    5.80    0.64
  -3   2 -17    4.32    0.45
  -3  -2  17    4.43    0.47
  -3  -2  17    6.19    0.83
   3  -2 -17    4.06    0.47
   3  -2 -17    4.15    0.79
  -3   2 -17    3.74    0.73
   3   2  17    3.40    0.63
  -3   2 -17    4.12    0.52
  -3  -2  17    4.11    0.43
  -3  -2  17    4.55    0.51
   3  -2 -17    3.54    0.62
   3   2  17    4.41    0.53
   3   2  17    4.55    0.54
  -3   2 -17    4.18    0.52
  -3   2 -17    4.40    0.52
  -5   2  17    2.71    0.37
  -5   2  17    4.01    0.61
   5  -2  17    3.12    0.47
   5   2 -17    2.56    0.47
  -5  -2 -17    2.72    0.47
  -5  -2 -17    3.62    0.58
  -5  -2 -17    3.71    0.50
  -5   2  17    4.28    0.53
  -5  -2 -17    2.83    0.54
   5   2 -17    3.31    0.51
  -5   2  17    2.62    0.52
   5  -2  17    2.59    0.78
   5   2 -17    2.76    0.61
  -5  -2 -17    3.05    0.51
  -5   2  17    3.79    0.58
  -5   2  17    2.65    0.49
  -5   2 -17    2.85    0.54
  -5   2 -17    2.58    0.51
   5  -2 -17    2.38    0.79
   5   2  17    3.03    0.71
  -5  -2  17    2.80    0.53
  -5  -2  17    2.91    0.41
  -5  -2  17    3.61    0.49
  -5  -2  17    3.68    0.61
   5   2  17    2.90    0.82
   5  -2 -17    3.41    0.57
   5   2  17    3.42    0.58
   5   2  17    3.21    0.57
  -5   2 -17    2.54    0.41
  -5  -2  17    3.35    0.49
  -5   2 -17    3.16    0.51
  -5  -2  17    2.24    0.49
  -7   2  17    1.74    0.53
  -7  -2 -17    1.35    0.40
  -7   2  17    0.76    0.44
  -7  -2 -17    0.95    0.42
   7   2 -17    1.02    0.36
  -7   2  17    1.70    0.33
  -7  -2 -17    1.34    0.41
   7  -2  17    1.24    0.38
  -7  -2 -17    1.57    0.48
  -7   2  17    1.80    0.42
  -7   2  17    2.57    0.51
  -7  -2 -17    1.08    0.42
  -7   2  17    1.59    0.48
  -7  -2  17    1.43    0.35
   7  -2 -17    1.57    0.48
  -7   2 -17    3.31    0.61
  -7  -2  17    1.11    0.39
  -7   2 -17    2.03    0.39
   7   2  17    1.43    0.49
  -7   2 -17    1.17    0.44
  -7  -2  17    2.55    0.58
  -7  -2  17    0.98    0.44
   7   2  17    2.08    0.55
  -7  -2  17    1.76    0.45
  -7  -2  17    1.44    0.48
  -9  -2 -17    0.59    0.29
  -9  -2  17    0.97    0.32
   0  -3  17   24.24    0.91
   0  -3 -17   22.82    1.44
   0   3  17   24.07    1.48
   0   3 -17   24.36    1.32
   0   3  17   22.81    0.97
   0   3  17   23.50    0.97
   0   3 -17   24.12    1.37
   0   3 -17   22.37    0.91
   0  -3 -17   25.27    0.95
   0  -3  17   21.75    1.34
   0  -3 -17   25.05    0.99
   0  -3 -17   24.52    0.92
   0   3  17   24.12    0.95
   0  -3  17   22.99    0.90
   0  -3  17   23.22    0.89
   0  -3  17   22.71    0.91
   0   3 -17   22.30    0.98
  -2   3  17   18.10    0.92
   2   3 -17   19.20    0.83
   2   3 -17   19.36    0.92
  -2  -3 -17   18.41    1.37
  -2   3  17   19.85    0.93
   2   3 -17   18.80    1.31
  -2   3  17   21.25    0.94
  -2   3  17   20.32    0.83
  -2   3  17   19.55    0.77
  -2   3  17   16.66    1.31
   2  -3  17   19.60    1.22
  -2  -3 -17   20.77    0.96
  -2   3  17   19.86    0.90
  -2  -3 -17   19.99    0.83
   2  -3  17   17.97    0.80
   2  -3  17   16.02    1.29
  -2  -3 -17   18.43    0.85
   2  -3 -17   17.78    1.08
  -2   3 -17   21.10    0.94
  -2  -3  17   20.85    1.20
   2   3  17   19.51    0.84
  -2  -3  17   19.29    0.90
  -2  -3  17   18.55    0.84
   2  -3 -17   19.93    1.36
  -2  -3  17   19.79    0.78
  -2   3 -17   18.64    0.91
   2   3  17   23.33    1.42
   2   3  17   19.22    0.90
   2  -3 -17   19.06    0.87
  -2  -3  17   17.32    0.87
  -2   3 -17   20.03    0.90
  -2   3 -17   20.04    0.91
  -2   3 -17   20.32    0.83
   2   3  17   17.94    0.90
  -2   3 -17   17.55    1.35
   2  -3 -17   16.32    1.08
  -4  -3 -17   10.36    0.90
  -4  -3 -17   11.66    0.81
  -4   3  17   11.30    0.79
   4  -3  17   12.30    1.19
  -4   3  17    8.96    0.84
  -4   3  17   12.54    0.84
   4  -3  17   11.42    0.70
   4   3 -17   11.23    0.73
   4  -3  17   11.70    1.37
  -4  -3 -17   10.07    1.33
   4   3 -17   12.28    1.43
  -4  -3 -17   12.44    0.74
   4   3 -17   12.51    0.79
   4   3 -17    9.93    1.12
  -4   3  17   12.69    0.64
  -4  -3 -17   11.67    0.71
  -4   3  17   10.46    1.29
  -4   3  17   10.57    0.72
  -4   3  17   12.71    0.85
  -4  -3 -17   11.35    0.74
  -4  -3  17   13.30    0.85
  -4   3 -17   10.16    1.37
  -4   3 -17   10.48    0.90
  -4  -3  17   11.68    0.83
  -4  -3  17   10.14    0.70
   4   3  17   13.53    1.46
  -4   3 -17   12.59    0.82
   4  -3 -17   11.71    0.73
  -4  -3  17   10.70    1.19
  -4   3 -17   12.84    0.85
   4   3  17   12.33    0.85
   4  -3 -17    9.39    1.18
   4  -3 -17   10.17    0.99
  -4   3 -17   10.51    0.66
  -4  -3  17   10.90    0.65
   4   3  17   12.07    0.85
  -4  -3  17   12.49    0.78
   4   3  17   11.27    1.28
  -6   3  17    4.83    0.49
  -6  -3 -17    5.97    0.68
  -6   3  17    5.15    0.65
  -6  -3 -17    3.95    0.56
  -6  -3 -17    5.43    0.66
  -6   3  17    6.52    0.77
   6  -3  17    5.08    0.60
  -6   3  17    4.48    0.66
  -6   3  17    6.23    0.77
  -6   3  17    5.14    0.59
  -6  -3 -17    6.10    0.76
   6   3 -17    4.33    0.61
  -6  -3 -17    5.46    0.72
  -6   3 -17    5.19    0.71
   6   3  17    4.80    0.72
  -6  -3  17    4.74    0.55
  -6   3 -17    5.26    0.69
  -6  -3  17    6.72    0.68
  -6  -3  17    6.08    0.76
   6   3  17    5.97    0.78
  -6   3 -17    6.20    0.59
   6  -3 -17    5.28    0.72
  -6  -3  17    5.93    0.67
  -6  -3  17    4.20    0.64
  -6  -3  17    6.95    0.80
  -6   3 -17    5.05    0.72
  -8  -3 -17    2.30    0.46
  -8  -3  17    2.27    0.45
   1   4 -17    3.52    0.69
  -1   4  17    3.82    0.39
  -1   4  17    3.97    0.42
  -1  -4 -17    3.57    0.73
   1  -4  17    3.34    0.41
   1  -4  17    3.15    0.69
  -1   4  17    4.12    0.48
  -1  -4 -17    4.15    0.51
   1   4 -17    4.87    0.56
  -1   4  17    3.68    0.43
  -1  -4 -17    4.53    0.52
  -1   4  17    4.07    0.81
  -1   4  17    3.75    0.48
   1   4 -17    4.53    0.45
  -1   4  17    3.98    0.50
   1  -4  17    4.36    0.50
   1   4 -17    3.13    0.70
  -1  -4  17    4.06    0.46
   1   4  17    4.60    0.50
   1  -4 -17    5.58    0.69
   1  -4 -17    3.37    0.46
  -1   4 -17    3.69    0.47
  -1  -4  17    3.95    0.64
  -1   4 -17    4.34    0.44
  -1   4 -17    4.33    0.80
   1  -4 -17    3.11    0.66
   1  -4 -17    3.97    0.63
   1  -4 -17    3.86    0.46
  -1   4 -17    3.62    0.48
   1   4  17    3.60    0.46
   1   4  17    3.66    0.71
   1   4  17    3.69    0.49
  -1  -4  17    3.52    0.42
   3  -4  17    2.85    0.75
  -3   4  17    2.52    0.45
   3  -4  17    4.10    0.48
   3   4 -17    3.24    0.49
  -3   4  17    2.95    0.37
  -3  -4 -17    4.09    0.58
   3   4 -17    3.14    0.46
   3  -4  17    2.69    0.58
  -3  -4 -17    3.16    0.46
  -3   4  17    3.28    0.50
  -3  -4 -17    2.62    0.72
   3   4 -17    2.93    0.73
  -3   4  17    2.84    0.48
  -3   4  17    4.31    0.58
  -3  -4 -17    3.24    0.45
  -3   4  17    3.69    0.82
  -3   4  17    4.07    0.50
  -3  -4 -17    3.77    0.49
  -3   4 -17    3.16    0.51
  -3  -4  17    3.17    0.49
   3  -4 -17    4.65    0.86
   3   4  17    3.18    0.50
   3   4  17    2.95    0.67
  -3  -4  17    2.45    0.59
   3   4  17    3.27    0.46
   3  -4 -17    2.06    0.50
  -3   4 -17    3.87    0.56
  -3  -4  17    3.47    0.48
   3   4  17    3.62    0.52
   3  -4 -17    1.92    0.51
  -3  -4  17    3.58    0.43
  -3   4 -17    3.56    0.45
  -3  -4  17    4.14    0.55
  -3   4 -17    2.53    0.44
  -3   4 -17    3.33    0.50
  -3   4 -17    2.88    0.75
   3  -4 -17    3.57    0.51
  -5  -4 -17    1.69    0.43
  -5   4  17    2.74    0.53
  -5  -4 -17    1.60    0.45
  -5   4  17    2.32    0.51
  -5   4  17    1.76    0.43
   5   4 -17    2.68    0.49
   5   4 -17    2.31    0.47
   5  -4  17    2.09    0.41
  -5  -4 -17    2.78    0.55
  -5  -4 -17    2.97    0.50
  -5  -4 -17    2.03    0.45
  -5   4  17    2.89    0.40
  -5  -4  17    1.83    0.47
   5   4  17    2.88    0.57
  -5  -4  17    2.15    0.51
  -5   4 -17    1.70    0.46
  -5   4 -17    1.84    0.46
   5  -4 -17    2.38    0.46
  -5   4 -17    2.77    0.55
   5   4  17    2.67    0.56
  -5  -4  17    1.77    0.38
  -5  -4  17    1.93    0.41
  -5  -4  17    1.77    0.37
  -5  -4  17    2.71    0.56
  -5   4 -17    1.78    0.38
  -7   4  17    0.78    0.45
  -7  -4 -17    1.02    0.44
  -7  -4 -17    0.67    0.34
  -7   4  17    1.12    0.40
  -7  -4 -17    0.40    0.37
   7   4 -17    1.26    0.37
   7  -4  17    1.31    0.39
  -7  -4 -17    1.27    0.45
  -7  -4 -17    0.95    0.46
  -7  -4  17    1.45    0.48
   7   4  17    1.04    0.48
  -7  -4  17    0.96    0.34
  -7   4 -17    1.00    0.41
  -7   4 -17    1.19    0.32
   7  -4 -17    1.20    0.42
  -7  -4  17    1.17    0.46
  -7   4 -17    1.10    0.43
   7   4  17    0.17    0.43
  -7  -4  17    0.75    0.39
  -7  -4  17    1.08    0.38
  -7   4 -17    0.50    0.40
  -7  -4  17    0.46    0.37
  -9  -4 -17    0.10    0.22
  -9  -4  17    0.30    0.26
   0  -5  17    2.72    0.67
   0   5  17    3.32    0.46
   0   5  17    3.01    0.43
   0  -5 -17    3.88    0.50
   0  -5  17    3.54    0.45
   0  -5 -17    3.22    0.49
   0  -5  17    3.73    0.48
   0   5  17    3.68    0.77
   0  -5 -17    4.31    0.81
   0   5 -17    2.54    0.68
   0   5 -17    3.92    0.47
   0   5  17    3.78    0.51
   0   5 -17    3.60    0.50
  -2  -5 -17    3.24    0.45
   2  -5  17    3.33    0.78
   2   5 -17    2.46    0.41
  -2   5  17    3.34    0.49
   2   5 -17    2.34    0.45
  -2   5  17    2.50    0.43
   2  -5  17    3.41    0.69
  -2   5  17    3.26    0.78
  -2   5  17    2.54    0.39
  -2  -5 -17    3.76    0.83
  -2   5  17    2.94    0.50
  -2   5  17    2.54    0.43
   2  -5  17    2.54    0.46
  -2   5  17    3.28    0.40
   2  -5  17    2.90    0.41
  -2  -5 -17    2.93    0.50
   2  -5 -17    2.32    0.56
  -2   5 -17    2.85    0.48
  -2  -5  17    2.98    0.45
  -2  -5  17    3.38    0.68
  -2   5 -17    3.25    0.49
   2   5  17    3.89    0.79
  -2   5 -17    2.39    0.73
  -2   5 -17    3.63    0.45
   2  -5 -17    2.49    0.58
   2  -5 -17    3.54    0.50
   2   5  17    2.95    0.46
   2   5  17    2.39    0.44
  -2  -5  17    3.46    0.47
   2   5  17    2.68    0.45
   4   5 -17    2.36    0.44
  -4  -5 -17    1.76    0.39
  -4  -5 -17    1.66    0.41
  -4  -5 -17    2.51    0.50
  -4   5  17    1.40    0.31
  -4   5  17    2.00    0.46
  -4   5  17    1.44    0.38
  -4   5  17    1.81    0.44
   4   5 -17    2.52    0.47
   4  -5  17    1.41    0.34
  -4   5 -17    1.89    0.46
   4   5  17    1.80    0.45
  -4  -5  17    1.08    0.34
   4   5  17    2.72    0.48
   4   5  17    2.42    0.48
  -4  -5  17    1.95    0.46
  -4  -5  17    2.31    0.46
  -4   5 -17    2.10    0.38
  -4   5 -17    1.42    0.40
  -4  -5  17    1.62    0.40
  -4   5 -17    1.86    0.42
  -4   5 -17    0.67    0.32
   4  -5 -17    2.86    0.51
  -6  -5 -17    0.95    0.42
  -6  -5 -17    0.85    0.37
  -6  -5 -17    1.12    0.42
  -6   5  17    1.19    0.31
   6   5 -17    0.78    0.38
  -6   5  17    1.63    0.45
  -6   5  17    0.22    0.29
  -6  -5 -17    0.79    0.40
  -6   5  17    0.94    0.45
   6  -5  17    0.93    0.35
  -6  -5 -17    0.81    0.42
  -6  -5  17    1.06    0.47
  -6   5 -17    0.58    0.39
  -6   5 -17    0.63    0.39
   6   5  17    0.42    0.42
   6   5  17    0.98    0.44
  -6   5 -17    0.78    0.30
  -6  -5  17    1.38    0.47
   6  -5 -17    1.21    0.39
  -6   5 -17    0.67    0.38
  -6  -5  17    0.74    0.34
  -6  -5  17    1.71    0.46
  -6  -5  17    0.98    0.34
  -6  -5  17    0.81    0.36
  -8  -5 -17    0.44    0.29
  -8  -5  17    0.60    0.30
  -1  -6 -17    0.14    0.27
   1  -6  17   -0.47    0.40
  -1   6  17    0.51    0.23
   1  -6  17    0.15    0.25
  -1   6  17    0.36    0.24
   1   6 -17    0.27    0.48
  -1  -6 -17   -0.05    0.46
   1  -6  17    0.02    0.22
   1   6 -17    0.22    0.21
  -1   6  17   -0.04    0.22
  -1   6  17    0.15    0.47
   1   6 -17    0.01    0.24
  -1  -6 -17    0.16    0.28
  -1  -6  17   -0.04    0.24
   1   6  17    0.26    0.25
  -1   6 -17    0.16    0.27
  -1   6 -17    0.53    0.26
   1  -6 -17    0.53    0.31
   1   6  17   -0.01    0.24
  -1  -6  17    0.23    0.42
   1   6  17    0.60    0.27
  -1   6 -17   -0.32    0.45
   1  -6 -17   -0.15    0.25
  -1  -6  17   -0.18    0.22
  -1   6 -17    0.16    0.23
   1   6  17   -0.31    0.42
   3   6 -17   -0.15    0.22
  -3   6  17    0.11    0.29
  -3   6  17    0.12    0.24
   3   6 -17    0.31    0.26
  -3  -6 -17    0.22    0.25
   3  -6  17    0.23    0.28
  -3   6  17   -0.04    0.17
   3  -6  17   -0.06    0.22
  -3   6  17   -0.08    0.24
  -3  -6 -17    0.09    0.31
  -3  -6  17   -0.10    0.24
   3   6  17   -0.06    0.24
   3   6  17    0.00    0.26
  -3   6 -17    0.12    0.20
  -3   6 -17    0.38    0.30
   3   6  17    0.18    0.27
   3  -6 -17    0.20    0.30
  -3   6 -17    0.07    0.26
  -3   6 -17   -0.07    0.25
  -5  -6 -17   -0.09    0.26
  -5   6  17   -0.04    0.33
  -5  -6 -17    0.20    0.36
  -5   6  17    0.27    0.34
  -5   6  17    0.08    0.21
  -5   6  17    0.01    0.27
   5   6 -17   -0.11    0.27
   5  -6  17    0.09    0.31
  -5  -6 -17    0.03    0.31
  -5  -6  17   -0.03    0.30
   5   6  17    0.26    0.34
   5   6  17   -0.17    0.29
   5   6  17    0.70    0.36
  -5   6 -17   -0.27    0.25
  -5   6 -17    0.00    0.23
   5  -6 -17    0.34    0.33
  -5   6 -17   -0.22    0.29
  -7  -6 -17   -0.32    0.26
  -7  -6  17   -0.27    0.26
   0  -7 -17    2.30    0.46
   0   7  17    3.02    0.54
   0   7 -17    2.94    0.55
   0  -7  17    2.23    0.42
   0  -7  17    2.29    0.48
   0  -7 -17    2.15    0.47
   2  -7  17    2.31    0.50
  -2   7  17    2.14    0.37
  -2   7  17    2.29    0.47
   2  -7  17    2.74    0.44
  -2   7  17    2.29    0.42
   2   7 -17    2.42    0.44
  -2  -7 -17    2.01    0.49
  -2   7  17    2.35    0.46
   2   7 -17    2.54    0.51
  -2  -7  17    2.56    0.49
   2  -7 -17    2.10    0.45
   2   7  17    3.12    0.54
  -2   7 -17    2.08    0.48
  -2  -7  17    1.62    0.39
  -2   7 -17    2.14    0.39
  -2   7 -17    1.76    0.42
  -2   7 -17    2.66    0.48
   2  -7 -17    2.47    0.50
  -4   7  17    1.47    0.43
  -4  -7 -17    1.66    0.50
  -4   7  17    1.21    0.42
   4  -7  17    0.98    0.41
  -4   7  17    1.34    0.41
  -4   7  17    1.28    0.33
  -4  -7 -17    1.76    0.40
   4   7 -17    1.64    0.42
  -4   7 -17    1.43    0.40
   4   7  17    1.16    0.41
   4   7  17    1.78    0.46
  -4   7 -17    1.52    0.46
  -4   7 -17    1.20    0.35
  -4  -7  17    1.11    0.38
   4   7  17    1.40    0.42
   4  -7 -17    1.29    0.44
  -4   7 -17    0.56    0.36
  -6  -7 -17    1.05    0.34
  -6  -7  17    0.94    0.37
  -8  -7 -17    0.49    0.24
  -1   8  17    1.15    0.37
   1  -8  17    0.75    0.34
  -1   8  17    0.81    0.38
   1   8 -17    1.90    0.41
  -1  -8 -17    1.20    0.44
   1   8 -17    1.24    0.41
   1  -8  17    0.64    0.37
   1  -8 -17    1.13    0.41
  -1  -8  17    1.58    0.40
   1  -8 -17    0.95    0.39
  -1  -8  17    0.52    0.34
   1   8  17    0.82    0.37
  -1   8 -17    1.11    0.41
  -3   8  17    1.16    0.39
  -3   8  17    1.14    0.41
   3   8 -17    0.65    0.35
  -3  -8 -17    1.28    0.46
  -3   8  17    0.97    0.31
   3   8 -17    1.21    0.37
  -3   8  17    0.78    0.36
   3  -8  17    0.49    0.35
  -3  -8  17    0.80    0.32
  -3   8 -17    0.84    0.38
   3  -8 -17    0.94    0.39
  -3   8 -17    0.95    0.42
  -3   8 -17    0.83    0.38
   3   8  17    0.65    0.37
  -3   8 -17    0.66    0.31
  -3  -8  17    1.16    0.42
   5   8 -17    0.06    0.27
  -5   8  17    0.33    0.31
  -5   8  17    1.25    0.44
   5  -8  17    0.73    0.41
  -5  -8 -17    0.49    0.36
  -5  -8 -17    0.78    0.32
  -5   8  17    0.54    0.36
  -5  -8  17    0.51    0.34
  -5   8 -17    0.80    0.36
  -5   8 -17   -0.02    0.31
   5   8  17    0.38    0.33
   5  -8 -17    0.95    0.39
  -5   8 -17    0.32    0.28
  -7  -8 -17    0.15    0.24
   0  -9 -17    7.46    0.77
   0   9 -17    6.28    0.78
   0  -9  17    6.54    0.76
   0  -9 -17    9.01    0.90
   0   9  17    6.16    0.77
   2   9 -17    7.05    0.79
  -2   9  17    6.74    0.69
  -2  -9 -17    6.30    0.78
  -2   9  17    5.69    0.73
   2   9 -17    6.25    0.69
   2  -9  17    5.99    0.75
   2  -9 -17    5.12    0.65
   2  -9 -17    5.86    0.72
  -2  -9  17    6.76    0.67
   2   9  17    5.81    0.71
  -2   9 -17    8.56    0.91
  -2  -9  17    5.57    0.71
   4   9 -17    2.56    0.49
   4  -9  17    5.39    0.70
   4  -9 -17    4.19    0.61
  -4  -9  17    4.38    0.58
  -1 -10 -17    0.07    0.34
  -1  10  17    0.30    0.35
   1 -10  17    0.27    0.35
   1  10 -17    0.22    0.32
  -1 -10  17   -0.29    0.34
   1 -10 -17   -0.03    0.34
   1  10  17    0.40    0.37
   1 -10 -17    0.42    0.37
  -1  10 -17    0.22    0.32
   0   0 -18    8.54    0.55
   0   0  18    7.77    0.54
   0   0 -18    6.52    0.87
   0   0  18    6.59    0.57
   0   0  18    7.41    0.45
   0   0 -18    6.95    0.51
   0   0  18    7.51    0.92
  -2   0  18    5.69    0.59
   2   0  18    4.87    0.45
  -2   0 -18    5.06    0.48
  -2   0  18    5.65    0.58
   2   0 -18    4.00    0.74
  -2   0  18    5.58    0.52
  -2   0  18    7.53    0.82
   2   0  18    4.60    0.79
   2   0 -18    5.28    0.56
  -2   0 -18    6.17    0.57
   2   0  18    7.03    0.85
  -2   0  18    6.52    0.88
   2   0  18    6.48    0.58
  -2   0  18    5.57    0.45
  -2   0 -18    6.68    0.56
  -2   0 -18    5.79    0.81
  -2   0  18    5.79    0.47
  -2   0 -18    6.17    0.57
  -2   0  18    6.68    0.52
   2   0 -18    5.55    0.73
  -2   0 -18    3.98    0.72
   2   0  18    5.49    0.55
   2   0 -18    5.17    0.49
  -4   0 -18    1.88    0.63
  -4   0  18    3.14    0.50
  -4   0 -18    2.80    0.42
   4   0 -18    3.65    0.56
  -4   0  18    3.29    0.55
   4   0  18    3.41    0.79
  -4   0 -18    3.27    0.51
  -4   0 -18    2.95    0.46
   4   0 -18    2.82    0.58
   4   0  18    3.37    0.49
  -4   0  18    3.18    0.70
  -4   0  18    3.47    0.56
  -4   0 -18    2.79    0.45
  -4   0  18    3.68    0.51
   4   0 -18    3.58    0.82
   4   0  18    2.70    0.45
  -4   0 -18    3.09    0.51
  -4   0  18    2.70    0.37
   4   0  18    2.46    0.59
  -6   0 -18    1.47    0.48
  -6   0  18    1.03    0.42
  -6   0  18    1.59    0.35
  -6   0  18    1.31    0.46
  -6   0  18    1.24    0.39
   6   0  18    1.84    0.45
  -6   0  18    0.94    0.35
   6   0 -18    1.25    0.42
  -6   0 -18    1.25    0.40
   6   0  18    1.07    0.41
  -6   0  18    0.96    0.43
  -6   0 -18    1.57    0.39
  -6   0 -18    2.51    0.54
  -6   0 -18    1.57    0.39
  -8   0  18    0.65    0.34
  -1  -1 -18  146.58    4.35
  -1  -1 -18  149.83    3.43
  -1   1  18  150.30    3.69
   1   1 -18  146.82    4.31
   1  -1  18  150.13    3.40
   1  -1  18  149.20    4.08
  -1   1  18  147.47    3.50
   1  -1  18  150.56    4.34
   1   1 -18  148.36    3.47
  -1   1  18  152.10    3.50
  -1   1  18  148.63    4.31
  -1   1  18  151.40    3.34
   1  -1  18  147.89    3.27
  -1   1  18  153.76    3.21
  -1   1  18  148.57    3.16
  -1  -1 -18  149.17    3.35
   1  -1  18  149.22    3.37
   1   1 -18  148.47    3.35
  -1   1 -18  146.01    3.42
   1   1  18  147.84    3.20
   1  -1 -18  145.15    4.31
  -1  -1  18  146.74    3.45
  -1   1 -18  146.59    3.36
  -1  -1  18  152.86    4.21
  -1   1 -18  148.10    3.30
  -1  -1  18  149.25    3.48
  -1   1 -18  148.27    4.26
  -1   1 -18  155.10    3.28
   1  -1 -18  149.31    3.44
  -1   1 -18  153.72    4.02
   1   1  18  149.30    3.44
  -1  -1  18  147.87    3.68
  -1  -1  18  154.21    3.28
   1   1  18  158.32    3.51
   1  -1 -18  149.92    3.98
   1  -1 -18  148.80    3.40
   1   1  18  151.88    4.34
  -3   1  18  108.63    2.90
  -3  -1 -18  111.47    2.63
   3  -1  18  111.61    2.74
  -3  -1 -18  109.79    2.79
  -3   1  18  111.73    2.82
  -3   1  18  110.18    2.69
  -3  -1 -18  107.16    3.83
  -3  -1 -18  111.48    2.85
   3  -1  18  111.24    2.67
  -3   1  18  111.77    2.96
   3  -1  18  109.89    2.74
   3  -1  18  111.18    3.73
  -3  -1 -18  112.08    2.66
  -3   1  18  110.43    2.56
  -3   1  18  110.95    3.62
   3  -1  18  110.00    3.44
   3   1 -18  106.73    2.83
  -3  -1 -18  114.32    2.78
   3   1 -18  103.06    3.69
   3   1 -18  111.20    3.35
  -3   1  18  107.57    3.34
  -3   1 -18  112.47    2.66
   3   1  18  110.22    3.61
  -3   1 -18  111.70    2.83
   3  -1 -18  108.05    2.67
  -3   1 -18  115.12    3.76
  -3  -1  18  106.49    2.67
  -3   1 -18  110.38    2.81
   3  -1 -18  107.81    3.28
  -3  -1  18  108.14    3.34
  -3   1 -18  111.29    3.73
   3   1  18  111.91    2.83
  -3  -1  18  109.86    2.91
  -3  -1  18  113.67    2.59
  -3  -1  18  109.61    2.64
   3   1  18  110.94    2.80
   3   1  18  109.41    3.47
  -3  -1  18  108.89    2.92
  -3  -1  18  110.64    2.76
   3  -1 -18  105.90    3.71
  -3   1 -18  107.88    2.83
   3   1  18  111.07    3.62
   3  -1 -18  110.37    2.88
  -5  -1 -18   62.84    1.87
   5  -1  18   67.25    1.99
   5  -1  18   67.33    1.98
  -5   1  18   64.10    1.77
  -5  -1 -18   63.42    2.13
   5  -1  18   64.33    2.86
  -5   1  18   63.89    2.17
  -5  -1 -18   61.93    1.96
  -5   1  18   65.32    2.23
  -5   1  18   65.72    2.03
  -5  -1 -18   63.06    1.94
  -5   1  18   64.47    2.15
   5   1 -18   63.06    2.07
  -5   1  18   62.69    1.89
  -5  -1 -18   63.24    1.94
  -5  -1 -18   62.12    2.13
   5   1  18   62.33    2.06
  -5  -1  18   62.85    2.10
  -5  -1  18   65.57    1.81
  -5  -1  18   58.55    1.87
  -5  -1  18   66.01    2.21
   5   1  18   62.41    2.05
  -5   1 -18   60.91    2.11
  -5  -1  18   61.24    1.97
  -5  -1  18   65.90    2.26
  -5  -1  18   61.23    1.86
  -5   1 -18   61.58    2.04
  -5   1 -18   68.63    2.21
  -5   1 -18   66.88    1.88
   5  -1 -18   64.85    2.14
  -7  -1 -18   31.33    1.47
   7   1 -18   26.57    1.30
  -7  -1 -18   29.72    1.19
  -7   1  18   28.31    1.43
  -7   1  18   28.07    1.10
  -7   1  18   30.63    1.27
  -7   1  18   29.44    1.50
  -7  -1 -18   30.20    1.27
  -7   1  18   29.93    1.45
  -7   1  18   27.01    1.29
  -7  -1 -18   30.93    1.47
  -7  -1 -18   27.72    1.26
  -7  -1  18   30.03    1.51
   7   1  18   29.35    1.36
  -7  -1  18   27.83    1.49
  -7  -1  18   30.14    1.16
   7   1  18   29.02    1.35
  -7  -1  18   32.97    1.32
  -7   1 -18   29.92    1.17
  -7   1 -18   29.35    1.45
  -9   1  18   10.67    0.65
  -9  -1 -18   11.98    0.66
  -9  -1  18   12.16    0.70
   0  -2 -18    6.43    0.53
   0   2 -18    6.42    0.78
   0  -2 -18    6.08    0.53
   0  -2  18    5.22    0.78
   0  -2  18    6.12    0.46
   0  -2 -18    5.89    0.55
   0   2 -18    5.77    0.56
   0   2 -18    6.39    0.85
   0  -2 -18    3.98    0.72
   0  -2  18    5.61    0.52
   0   2  18    5.77    0.51
   0   2  18    6.41    0.59
   0   2 -18    6.36    0.56
   0   2  18    5.16    0.53
   0   2  18    6.14    0.87
   0  -2  18    6.19    0.55
   2  -2  18    4.50    0.48
  -2  -2 -18    4.88    0.86
  -2   2  18    4.71    0.68
   2  -2  18    4.92    0.49
  -2  -2 -18    5.19    0.53
   2   2 -18    4.88    0.47
  -2   2  18    5.46    0.45
  -2   2  18    4.86    0.56
  -2   2  18    4.46    0.80
   2   2 -18    4.13    0.51
  -2   2  18    4.25    0.50
   2   2 -18    4.91    0.83
   2  -2  18    3.84    0.74
  -2  -2 -18    4.27    0.44
   2  -2  18    4.14    0.43
  -2   2  18    5.23    0.49
  -2   2  18    4.48    0.54
  -2  -2 -18    4.31    0.51
   2  -2  18    3.64    0.66
   2   2  18    5.03    0.57
  -2   2 -18    4.05    0.44
   2  -2 -18    5.17    0.71
  -2   2 -18    5.03    0.53
  -2  -2  18    4.88    0.48
  -2  -2  18    4.40    0.66
   2   2  18    4.22    0.51
   2   2  18    5.10    0.82
  -2   2 -18    3.33    0.65
   2  -2 -18    5.00    0.88
   2   2  18    5.81    0.47
  -2   2 -18    4.90    0.50
  -2  -2  18    5.47    0.57
   2  -2 -18    5.05    0.53
  -2   2 -18    4.31    0.78
  -2  -2  18    4.93    0.76
  -2   2 -18    4.23    0.51
  -2   2 -18    3.76    0.47
  -2  -2  18    4.93    0.57
  -2  -2  18    4.42    0.42
   2  -2 -18    4.18    0.52
  -4   2  18    2.49    0.68
  -4  -2 -18    2.85    0.44
  -4   2  18    3.12    0.46
  -4   2  18    2.37    0.63
   4   2 -18    3.01    0.76
  -4  -2 -18    2.23    0.41
  -4   2  18    2.88    0.49
  -4  -2 -18    1.49    0.37
   4   2 -18    1.99    0.43
   4  -2  18    2.95    0.45
  -4  -2 -18    2.92    0.80
  -4  -2 -18    2.58    0.49
   4   2 -18    3.17    0.65
   4  -2  18    3.01    0.67
  -4  -2 -18    2.53    0.46
  -4  -2 -18    2.55    0.43
   4   2 -18    1.96    0.39
  -4   2  18    2.90    0.37
  -4   2  18    3.33    0.54
  -4   2  18    2.03    0.45
   4  -2  18    2.50    0.74
   4   2  18    3.54    0.76
  -4   2 -18    3.00    0.49
   4  -2 -18    2.30    0.70
  -4  -2  18    2.25    0.43
  -4  -2  18    2.45    0.46
  -4   2 -18    2.35    0.71
   4   2  18    3.70    0.79
   4   2  18    2.67    0.78
   4  -2 -18    2.17    0.40
   4  -2 -18    2.10    0.53
   4  -2 -18    2.76    0.50
  -4  -2  18    2.75    0.43
  -4   2 -18    2.10    0.42
  -4   2 -18    3.04    0.43
  -4   2 -18    2.20    0.47
  -4  -2  18    2.84    0.68
  -4  -2  18    2.68    0.51
   4   2  18    3.39    0.53
   4   2  18    2.70    0.49
  -4  -2  18    3.08    0.45
  -4  -2  18    2.35    0.38
   6  -2  18    0.95    0.37
  -6   2  18    0.93    0.43
  -6   2  18    1.04    0.43
   6   2 -18    1.43    0.42
  -6  -2 -18    0.69    0.36
  -6  -2 -18    1.29    0.46
  -6   2  18    1.55    0.32
  -6   2  18    0.92    0.36
  -6  -2 -18    1.35    0.38
  -6  -2 -18    0.56    0.40
  -6   2  18    0.88    0.41
  -6   2  18    0.77    0.35
  -6  -2 -18    0.71    0.36
   6   2 -18    1.10    0.40
  -6   2 -18    0.87    0.40
  -6  -2  18    0.90    0.41
  -6  -2  18    1.62    0.36
  -6  -2  18    0.66    0.34
  -6  -2  18    1.42    0.47
   6   2  18    1.17    0.44
   6   2  18    1.38    0.48
  -6   2 -18    1.32    0.35
  -6   2 -18    1.35    0.41
  -6  -2  18    1.28    0.44
  -6  -2  18    1.22    0.38
   6  -2 -18    1.38    0.46
  -6   2 -18    1.14    0.45
  -8   2  18    0.21    0.30
  -8  -2 -18    0.41    0.29
  -8  -2  18    0.16    0.31
  -1   3  18  127.64    3.10
   1  -3  18  120.11    3.87
   1   3 -18  119.94    3.75
  -1  -3 -18  128.50    3.05
  -1   3  18  122.75    4.03
  -1   3  18  126.68    3.13
   1   3 -18  128.44    3.15
   1  -3  18  123.64    2.97
  -1   3  18  127.79    3.05
  -1  -3 -18  128.31    4.06
  -1  -3 -18  119.89    3.01
  -1   3  18  126.32    2.83
   1   3 -18  122.46    2.90
   1  -3  18  121.26    2.90
  -1   3 -18  125.36    3.06
   1  -3 -18  125.78    3.05
  -1   3 -18  130.45    3.70
  -1  -3  18  131.98    3.02
   1   3  18  124.85    3.96
  -1   3 -18  122.32    3.79
   1   3  18  126.33    3.08
   1  -3 -18  125.08    3.89
  -1   3 -18  126.59    2.89
   1  -3 -18  127.77    3.02
  -1  -3  18  126.68    3.03
   1   3  18  126.06    2.96
   1   3  18  134.63    3.15
  -1  -3  18  128.14    3.40
  -1   3 -18  127.33    3.09
   1  -3 -18  125.39    3.31
  -1  -3  18  126.42    2.94
  -1  -3  18  126.62    3.67
  -3   3  18   96.61    2.64
   3   3 -18   96.54    2.62
  -3   3  18   95.19    2.46
  -3  -3 -18   90.33    2.37
  -3   3  18   91.15    2.29
  -3  -3 -18   96.59    2.50
  -3  -3 -18   94.05    2.32
  -3   3  18   94.65    2.61
  -3   3  18   90.96    3.49
  -3   3  18   96.47    2.67
  -3  -3 -18   96.61    2.50
  -3  -3 -18   95.21    2.62
   3   3 -18   94.36    2.46
   3  -3  18   95.56    3.16
   3  -3  18   94.33    2.41
  -3  -3 -18   98.46    3.66
   3   3 -18   90.24    3.40
   3  -3  18   98.40    3.58
  -3   3 -18   94.87    2.41
   3  -3 -18   93.06    3.03
  -3   3 -18   99.77    2.65
   3  -3 -18   90.66    3.01
   3  -3 -18   92.90    3.41
  -3   3 -18  101.48    3.62
  -3  -3  18  100.23    2.67
   3   3  18   92.78    2.57
  -3  -3  18   96.14    2.61
   3  -3 -18   94.83    2.50
  -3   3 -18   95.73    2.53
  -3  -3  18   97.07    2.49
   3   3  18   96.19    2.61
  -3  -3  18   91.57    2.34
  -3   3 -18   94.84    2.58
  -3  -3  18   92.46    3.13
   3   3  18   94.91    3.31
  -3   3 -18   93.79    2.62
   3   3  18   93.42    2.38
   5   3 -18   52.53    1.86
  -5  -3 -18   58.03    2.04
  -5   3  18   53.65    1.71
  -5  -3 -18   56.90    1.80
  -5   3  18   61.51    2.09
  -5  -3 -18   57.94    1.81
  -5  -3 -18   57.74    1.99
  -5   3  18   57.39    2.02
  -5   3  18   56.47    1.88
  -5  -3 -18   55.60    1.83
   5  -3  18   55.31    1.77
  -5   3  18   57.26    1.65
  -5   3  18   58.53    2.02
   5   3 -18   54.46    1.88
  -5  -3  18   55.08    2.02
  -5   3 -18   57.21    1.74
  -5   3 -18   56.40    2.03
   5  -3 -18   57.09    1.80
  -5  -3  18   55.96    2.05
  -5  -3  18   54.46    1.90
  -5   3 -18   55.75    1.97
  -5   3 -18   59.74    2.07
  -5  -3  18   56.28    1.86
   5   3  18   57.07    2.01
   5   3  18   59.10    2.05
   5  -3 -18   60.41    2.08
  -5  -3  18   56.03    1.78
  -5  -3  18   55.50    1.74
  -7   3  18   25.02    1.33
  -7   3  18   26.64    1.10
  -7  -3 -18   24.11    1.32
  -7  -3 -18   24.87    1.20
   7  -3  18   25.87    1.12
  -7  -3 -18   26.07    1.20
  -7  -3 -18   26.42    1.16
  -7   3  18   26.22    1.01
  -7  -3 -18   26.60    1.33
  -7   3  18   24.93    1.23
   7  -3 -18   28.62    1.37
  -7  -3  18   28.31    1.40
  -7  -3  18   27.29    1.21
   7   3  18   30.79    1.41
  -7  -3  18   29.39    1.38
  -7  -3  18   26.22    1.20
  -7   3 -18   26.01    1.34
  -7   3 -18   25.45    1.07
   7   3  18   26.63    1.33
  -7   3 -18   25.50    1.26
  -7  -3  18   25.23    1.39
  -7  -3  18   25.51    1.11
  -9  -3 -18   11.24    0.64
  -9  -3  18    9.91    0.63
   0   4  18    3.88    0.77
   0   4 -18    4.61    0.81
   0  -4  18    4.62    0.50
   0  -4  18    4.79    0.81
   0  -4 -18    4.74    0.54
   0   4  18    5.06    0.55
   0   4  18    4.86    0.54
   0   4  18    4.75    0.54
   0  -4 -18    4.31    0.50
   0  -4  18    3.79    0.45
   0   4 -18    4.16    0.47
   0   4 -18    4.33    0.54
   0  -4 -18    3.99    0.78
  -2   4  18    3.96    0.43
   2   4 -18    3.87    0.53
  -2  -4 -18    3.93    0.49
  -2  -4 -18    3.83    0.55
  -2   4  18    4.60    0.57
  -2   4  18    3.42    0.48
  -2   4  18    3.49    0.78
   2   4 -18    4.08    0.47
   2  -4  18    3.68    0.81
   2   4 -18    4.54    0.80
   2  -4  18    3.74    0.72
   2  -4  18    3.60    0.44
  -2   4  18    4.26    0.54
  -2   4  18    4.58    0.50
  -2  -4 -18    3.39    0.78
  -2   4  18    3.38    0.51
   2  -4 -18    4.66    0.71
   2   4  18    4.43    0.81
   2  -4 -18    4.11    0.69
  -2   4 -18    4.71    0.54
   2  -4 -18    3.52    0.50
   2   4  18    3.37    0.48
  -2   4 -18    3.64    0.51
  -2  -4  18    4.66    0.56
   2   4  18    3.57    0.50
  -2   4 -18    4.05    0.46
   2  -4 -18    4.59    0.80
  -2  -4  18    4.24    0.71
  -2   4 -18    3.68    0.78
  -2  -4  18    4.02    0.48
   2   4  18    3.71    0.47
  -2  -4  18    3.27    0.48
  -2   4 -18    3.53    0.51
  -4   4  18    2.09    0.43
   4   4 -18    2.22    0.72
   4   4 -18    2.34    0.46
  -4  -4 -18    2.20    0.48
  -4  -4 -18    2.25    0.44
  -4   4  18    1.98    0.43
  -4   4  18    2.32    0.47
  -4  -4 -18    2.45    0.48
  -4  -4 -18    2.26    0.41
  -4  -4 -18    2.21    0.44
  -4   4  18    1.92    0.46
  -4   4  18    2.36    0.37
   4  -4  18    2.74    0.43
   4   4 -18    2.15    0.43
  -4   4  18    1.96    0.46
  -4   4 -18    2.44    0.50
   4   4  18    2.98    0.47
  -4  -4  18    2.04    0.38
   4  -4 -18    2.37    0.45
  -4  -4  18    2.29    0.40
  -4  -4  18    2.14    0.48
  -4   4 -18    2.53    0.49
  -4   4 -18    2.20    0.39
   4   4  18    2.30    0.48
  -4  -4  18    1.72    0.40
  -4  -4  18    2.52    0.50
   4   4  18    1.77    0.44
  -4   4 -18    2.58    0.51
  -6  -4 -18    0.44    0.40
  -6  -4 -18    1.78    0.43
   6   4 -18    0.54    0.33
  -6  -4 -18    0.69    0.41
  -6  -4 -18    1.04    0.39
  -6   4  18    0.80    0.35
  -6   4  18    0.96    0.29
   6  -4  18    1.34    0.38
  -6  -4 -18    1.03    0.41
  -6   4  18    0.85    0.44
   6   4  18    1.39    0.47
   6   4  18    1.22    0.47
  -6   4 -18    1.12    0.43
  -6  -4  18    1.78    0.50
   6  -4 -18    1.48    0.46
  -6   4 -18    1.51    0.35
  -6  -4  18    1.08    0.43
  -6   4 -18    0.84    0.41
  -6  -4  18    1.28    0.44
  -6   4 -18    1.45    0.43
  -6  -4  18    1.35    0.37
  -6  -4  18    0.27    0.32
  -6  -4  18    1.29    0.38
  -8  -4 -18    0.35    0.29
  -8  -4  18    0.73    0.33
  -1   5  18   90.33    2.47
  -1  -5 -18   90.28    3.38
  -1   5  18   93.95    3.59
  -1   5  18   92.62    2.41
  -1   5  18   90.66    2.47
  -1  -5 -18   92.76    2.48
   1  -5  18   88.02    3.31
   1   5 -18   90.04    2.60
   1   5 -18   94.52    2.33
   1   5 -18   91.01    3.25
  -1  -5 -18   94.06    2.55
   1  -5  18   88.58    2.34
  -1   5  18   90.05    2.29
  -1   5  18   94.68    2.56
   1  -5  18   90.60    2.49
   1  -5 -18   91.06    3.25
  -1   5 -18   94.03    3.48
  -1   5 -18   88.90    2.32
   1   5  18   88.32    2.46
   1  -5 -18   94.41    2.44
   1  -5 -18   90.07    2.50
  -1   5 -18   91.35    2.48
   1   5  18   91.48    2.51
  -1  -5  18   92.83    2.44
  -1   5 -18   92.78    2.62
   1   5  18   90.26    2.49
  -1  -5  18   88.81    2.39
   1   5  18   90.68    3.42
   3  -5  18   68.40    2.20
   3  -5  18   69.93    1.98
   3  -5  18   66.62    2.68
  -3   5  18   66.54    2.17
  -3  -5 -18   69.84    2.24
   3   5 -18   70.97    2.07
   3   5 -18   66.42    2.16
  -3  -5 -18   67.95    1.99
  -3   5  18   69.76    1.90
  -3   5  18   65.15    2.03
  -3   5  18   67.80    2.20
  -3  -5 -18   70.83    3.14
  -3   5 -18   69.62    3.20
   3   5  18   71.47    2.10
  -3  -5  18   69.83    2.11
  -3   5 -18   71.54    2.16
   3   5  18   70.07    2.19
   3  -5 -18   69.19    2.61
  -3   5 -18   70.18    2.21
   3  -5 -18   75.93    2.74
  -3   5 -18   71.62    2.22
  -3   5 -18   68.32    1.97
   3   5  18   70.30    2.16
   3  -5 -18   70.99    2.16
  -3  -5  18   67.37    2.72
  -5  -5 -18   41.51    1.51
  -5   5  18   43.19    1.73
  -5  -5 -18   40.58    1.65
  -5   5  18   42.30    1.74
  -5  -5 -18   42.05    1.74
  -5  -5 -18   44.06    1.56
   5   5 -18   39.70    1.56
  -5   5  18   39.85    1.58
  -5   5  18   41.93    1.38
  -5  -5  18   40.06    1.43
  -5   5 -18   40.59    1.69
   5   5  18   43.76    1.70
   5   5  18   40.33    1.52
  -5  -5  18   38.43    1.55
  -5   5 -18   43.03    1.72
  -5  -5  18   42.81    1.73
   5  -5 -18   45.52    1.62
  -5   5 -18   39.53    1.68
  -5  -5  18   40.92    1.66
   5   5  18   39.81    1.66
  -5   5 -18   39.84    1.43
  -7  -5 -18   21.85    1.07
  -7  -5  18   20.70    1.00
  -9  -5 -18    8.41    0.52
  -9  -5  18    8.22    0.52
   0   6  18    3.21    0.50
   0   6  18    3.77    0.54
   0  -6 -18    2.93    0.50
   0  -6 -18    3.67    0.55
   0   6 -18    3.62    0.57
   0   6  18    2.73    0.46
   0  -6  18    4.60    0.58
   0   6 -18    2.15    0.76
   0   6  18    3.99    0.89
   0  -6  18    2.70    0.42
  -2  -6 -18    3.41    0.55
  -2  -6 -18    2.93    0.81
  -2   6  18    2.86    0.51
  -2  -6 -18    3.17    0.49
   2   6 -18    3.20    0.48
  -2  -6 -18    2.83    0.44
   2  -6  18    2.83    0.51
  -2   6  18    2.85    0.40
  -2   6  18    3.01    0.50
   2   6 -18    2.07    0.45
  -2   6  18    3.26    0.47
   2  -6  18    2.97    0.43
   2   6  18    2.49    0.46
   2  -6 -18    2.29    0.62
   2   6  18    2.89    0.49
  -2   6 -18    2.71    0.47
   2  -6 -18    2.17    0.46
  -2  -6  18    1.99    0.40
  -2  -6  18    3.51    0.78
  -2   6 -18    2.77    0.52
   2   6  18    2.83    0.50
  -2  -6  18    2.46    0.48
  -2   6 -18    3.14    0.46
  -2   6 -18    2.34    0.47
   4  -6  18    2.15    0.52
  -4  -6 -18    1.71    0.47
  -4   6  18    1.67    0.34
   4  -6  18    1.57    0.37
  -4   6  18    1.44    0.40
   4   6 -18    1.41    0.40
   4   6 -18    1.44    0.40
  -4   6  18    1.57    0.45
  -4  -6 -18    2.06    0.42
  -4   6  18    2.05    0.50
   4  -6 -18    2.05    0.48
   4   6  18    1.89    0.46
   4   6  18    2.57    0.49
  -4  -6  18    2.38    0.48
  -4   6 -18    2.49    0.50
  -4   6 -18    0.87    0.31
  -4   6 -18    0.57    0.36
  -4   6 -18    1.81    0.47
   4   6  18    1.55    0.42
  -6   6  18    0.43    0.30
  -6  -6 -18    0.85    0.41
  -6   6  18    1.61    0.48
  -6  -6 -18    0.80    0.34
   6  -6  18    1.03    0.41
  -6   6  18    0.46    0.26
  -6  -6 -18    1.02    0.44
   6   6 -18    1.12    0.38
   6  -6 -18    1.57    0.42
  -6  -6  18    0.79    0.36
  -6  -6  18    1.24    0.37
   6   6  18    1.07    0.40
  -6   6 -18    0.81    0.40
  -6   6 -18    0.80    0.31
   6   6  18    1.16    0.44
  -6   6 -18    0.90    0.37
  -8  -6 -18    0.25    0.25
  -8  -6  18    0.53    0.29
  -1   7  18   63.16    2.10
   1   7 -18   62.79    2.15
  -1  -7 -18   59.88    2.08
   1  -7  18   62.64    2.09
   1  -7  18   61.93    1.85
   1   7 -18   61.54    1.86
  -1   7  18   64.64    1.87
  -1  -7 -18   58.63    1.92
   1  -7 -18   61.28    2.02
  -1  -7  18   62.01    2.04
  -1   7 -18   58.78    1.91
   1   7  18   61.22    2.07
  -1   7 -18   62.99    2.18
   1  -7 -18   60.57    2.00
  -1  -7  18   61.06    1.90
  -3   7  18   46.60    1.83
  -3   7  18   46.65    1.67
   3  -7  18   49.95    1.56
   3   7 -18   48.11    1.77
   3  -7  18   45.69    1.79
  -3   7  18   48.16    1.78
   3   7 -18   47.12    1.67
  -3   7  18   47.86    1.52
  -3  -7 -18   45.33    1.82
  -3  -7 -18   47.01    1.57
   3   7  18   46.84    1.75
  -3   7 -18   45.09    1.70
  -3   7 -18   44.27    1.82
   3   7  18   46.63    1.68
  -3   7 -18   47.65    1.79
  -3  -7  18   45.61    1.65
   3  -7 -18   44.89    1.74
   3   7  18   48.41    1.72
  -3   7 -18   45.95    1.58
  -5  -7 -18   29.12    1.22
  -5   7  18   27.47    1.36
  -5   7  18   26.42    1.08
  -5   7  18   28.67    1.38
   5  -7  18   26.88    1.36
   5   7 -18   26.54    1.25
  -5   7  18   29.18    1.30
  -5  -7 -18   29.01    1.39
  -5   7 -18   27.03    1.33
   5   7  18   27.26    1.27
  -5   7 -18   27.27    1.34
  -5   7 -18   27.28    1.13
   5  -7 -18   29.40    1.31
   5   7  18   27.80    1.29
   5   7  18   27.23    1.28
  -5  -7  18   28.22    1.27
  -7  -7 -18   15.92    0.81
   0  -8 -18    2.27    0.49
   0  -8  18    2.59    0.53
   0   8 -18    1.54    0.47
   0  -8 -18    1.87    0.50
   0  -8  18    2.51    0.45
   0   8  18    1.69    0.45
   2   8 -18    1.41    0.42
  -2   8  18    2.90    0.50
  -2  -8 -18    1.28    0.46
   2  -8  18    1.46    0.44
   2   8 -18    1.72    0.41
  -2   8  18    2.08    0.49
   2   8  18    1.97    0.47
   2  -8 -18    2.00    0.47
  -2  -8  18    1.89    0.42
  -2  -8  18    1.83    0.48
   2  -8 -18    2.48    0.51
  -2   8 -18    1.93    0.46
  -2   8 -18    1.81    0.48
  -4  -8 -18    1.33    0.46
   4  -8  18    1.41    0.44
  -4   8  18    1.60    0.36
  -4   8  18    1.27    0.42
  -4   8  18    1.62    0.46
   4   8 -18    1.22    0.38
  -4   8  18    1.24    0.40
   4   8  18    1.13    0.41
  -4   8 -18    0.94    0.40
   4  -8 -18    1.00    0.40
  -4   8 -18    1.69    0.46
  -4   8 -18    1.32    0.44
  -4   8 -18    1.77    0.39
  -4  -8  18    0.48    0.35
  -6  -8 -18    0.36    0.29
  -1  -9 -18   33.92    1.54
   1  -9  18   33.89    1.54
   1   9 -18   35.67    1.56
  -1   9  18   34.03    1.54
   1  -9 -18   35.42    1.45
  -1  -9  18   35.21    1.54
  -1   9 -18   35.77    1.62
   1   9  18   36.42    1.56
  -1  -9  18   36.42    1.36
   3   9 -18   27.58    1.22
  -3   9  18   27.31    1.34
   3  -9  18   29.25    1.38
  -3   9  18   27.10    1.22
  -3  -9 -18   29.43    1.41
  -3   9 -18   27.64    1.38
  -3   9 -18   27.31    1.26
   0 -10  18    1.60    0.45
   0  10  18    1.00    0.41
   0  10 -18    1.44    0.47
   0 -10 -18    1.45    0.45
  -1   0  19   25.81    0.91
   1   0 -19   23.66    0.95
   1   0 -19   24.66    1.01
  -1   0  19   24.89    1.05
  -1   0  19   22.37    1.43
   1   0  19   23.76    1.00
  -1   0  19   25.36    0.88
  -1   0 -19   24.43    0.93
   1   0  19   23.89    0.88
  -1   0 -19   25.55    1.02
  -1   0 -19   24.47    1.52
   1   0  19   22.77    0.99
  -1   0 -19   24.66    0.94
  -1   0  19   24.40    1.03
   1   0  19   22.62    1.44
   1   0 -19   26.29    1.56
  -3   0  19   17.96    0.90
  -3   0  19   19.04    0.99
  -3   0  19   16.91    0.77
   3   0 -19   18.60    1.44
  -3   0 -19   17.29    0.90
   3   0 -19   18.63    0.97
   3   0  19   19.10    1.31
  -3   0 -19   15.58    1.56
  -3   0  19   17.12    0.84
  -3   0  19   17.54    0.77
  -3   0 -19   18.50    0.84
  -3   0 -19   19.37    1.37
  -3   0 -19   17.44    0.90
   3   0  19   17.79    0.82
  -3   0  19   17.28    0.97
  -3   0  19   17.70    1.29
  -3   0  19   16.97    1.19
   3   0  19   18.25    1.38
   3   0 -19   17.15    1.18
   3   0  19   17.88    0.93
   3   0  19   16.54    0.89
  -3   0 -19   18.14    0.93
   3   0 -19   17.10    0.80
  -5   0 -19    8.82    0.89
  -5   0  19   11.03    1.03
   5   0  19   10.47    0.87
  -5   0  19   10.31    0.65
  -5   0  19   10.49    0.86
  -5   0 -19    8.83    0.75
   5   0 -19   11.52    0.86
  -5   0  19   10.38    0.74
  -5   0  19   12.12    1.00
  -5   0 -19    9.79    0.73
  -5   0  19   11.78    1.06
  -5   0 -19   11.21    0.79
   5   0  19    9.77    0.84
  -5   0 -19    9.37    0.68
  -5   0 -19    9.49    0.90
  -7   0  19    4.20    0.66
  -7   0 -19    4.63    0.70
  -7   0  19    4.59    0.52
  -7   0  19    5.42    0.63
   7   0 -19    5.48    0.69
  -7   0 -19    5.54    0.59
  -7   0  19    5.03    0.77
  -7   0 -19    4.54    0.67
   7   0  19    4.79    0.64
   7   0  19    5.38    0.67
  -7   0  19    5.84    0.77
  -7   0 -19    5.65    0.62
  -9   0  19    1.64    0.35
   0   1  19   16.09    0.65
   0  -1  19   13.29    0.74
   0  -1 -19   16.03    0.75
   0  -1  19   15.42    0.80
   0   1  19   14.95    0.69
   0   1 -19   14.02    0.72
   0  -1 -19   15.99    0.79
   0   1  19   16.12    1.20
   0  -1  19   13.94    0.67
   0   1  19   14.95    0.78
   0  -1 -19   14.76    1.17
   0  -1  19   17.36    1.21
   0   1 -19   14.89    1.13
   0   1 -19   15.17    0.77
   0   1  19   14.48    0.79
  -2   1  19   14.45    1.37
   2   1 -19   14.58    0.81
  -2  -1 -19   15.12    1.48
  -2  -1 -19   14.27    0.77
  -2   1  19   14.97    0.68
   2   1 -19   14.49    1.40
   2  -1  19   15.00    0.72
   2  -1  19   14.07    0.76
  -2  -1 -19   14.73    0.72
   2  -1  19   16.37    1.35
  -2   1  19   14.38    1.00
  -2   1  19   16.30    0.88
  -2   1  19   14.46    0.82
   2   1 -19   12.72    0.67
  -2  -1 -19   14.23    0.77
   2  -1  19   13.13    0.73
   2  -1  19   13.72    1.36
  -2   1  19   14.57    0.75
  -2   1  19   13.09    0.67
   2   1  19   12.73    0.76
  -2  -1  19   14.36    0.66
  -2   1 -19   16.02    1.20
  -2  -1  19   14.01    1.10
   2   1  19   14.42    0.81
  -2  -1  19   14.85    0.69
  -2  -1  19   12.82    0.79
  -2  -1  19   14.13    0.81
   2  -1 -19   12.72    1.11
  -2   1 -19   14.59    0.72
   2   1  19   14.43    1.39
   2  -1 -19   14.92    0.77
  -2  -1  19   14.88    1.01
  -2   1 -19   14.63    1.38
  -2  -1  19   14.69    0.73
  -2   1 -19   12.15    0.72
  -2  -1  19   13.91    0.69
  -2   1 -19   12.99    0.75
  -2   1 -19   14.13    0.76
   2  -1 -19   13.48    0.81
   2  -1 -19   13.00    1.36
   2   1  19   15.49    0.70
  -4  -1 -19   10.21    0.87
  -4  -1 -19   10.91    0.72
   4   1 -19   10.26    1.08
  -4   1  19   11.91    0.82
   4   1 -19    9.66    1.29
  -4  -1 -19   12.76    0.80
   4   1 -19   10.64    0.79
  -4   1  19   11.92    0.99
  -4   1  19   10.89    0.97
  -4   1  19   10.23    0.70
  -4  -1 -19   11.37    0.71
  -4  -1 -19   11.55    0.81
   4  -1  19   11.74    0.72
  -4  -1 -19   10.53    0.71
  -4  -1 -19    9.73    1.32
   4  -1  19   10.47    1.16
   4  -1  19   10.72    0.73
  -4   1  19   11.49    1.23
   4  -1  19   12.91    1.43
  -4   1  19   11.39    0.64
  -4   1  19   11.49    0.74
   4  -1  19   11.57    0.73
  -4  -1  19   12.14    0.88
  -4  -1  19   11.33    0.73
  -4  -1  19   11.69    0.69
  -4  -1  19   11.17    0.73
   4   1  19   11.47    0.78
   4   1  19   11.68    1.23
  -4  -1  19   11.46    0.79
  -4   1 -19   10.22    0.89
  -4  -1  19   11.78    1.21
  -4  -1  19   10.97    0.64
   4  -1 -19   10.26    1.33
   4  -1 -19   12.04    1.16
  -4   1 -19   10.17    1.29
  -4   1 -19    9.22    1.25
  -4   1 -19   12.82    0.74
  -4  -1  19   12.41    0.87
   4   1  19   10.42    1.30
   4  -1 -19   12.02    0.85
  -4   1 -19   11.17    0.78
  -4   1 -19   11.26    0.80
   4   1  19   11.48    0.78
   4   1  19   10.49    1.26
  -6   1  19    7.04    0.69
  -6   1  19    6.75    0.83
  -6  -1 -19    5.89    0.66
  -6   1  19    6.54    0.74
  -6   1  19    5.20    0.52
  -6   1  19    5.99    0.77
   6   1 -19    7.87    0.82
  -6   1  19    7.43    0.90
  -6  -1 -19    5.82    0.68
   6  -1  19    7.18    0.71
  -6  -1 -19    7.16    0.80
  -6  -1 -19    6.00    0.77
  -6  -1 -19    6.82    0.67
  -6  -1  19    5.30    0.56
   6  -1 -19    8.50    0.87
  -6   1 -19    8.32    0.81
   6   1  19    6.59    0.74
  -6   1 -19    5.67    0.73
  -6   1 -19    5.98    0.60
  -6  -1  19    5.73    0.78
  -6  -1  19    6.37    0.67
  -6  -1  19    6.29    0.75
  -6   1 -19    6.59    0.81
  -6  -1  19    5.58    0.76
   6   1  19    6.07    0.73
  -8   1  19    3.31    0.49
  -8  -1 -19    2.48    0.43
  -8  -1  19    3.64    0.53
  -1   2  19   49.63    1.64
   1   2 -19   50.14    1.49
  -1   2  19   49.78    1.51
   1  -2  19   50.90    1.46
   1  -2  19   50.51    2.25
  -1  -2 -19   50.40    1.57
   1  -2  19   52.22    1.55
  -1   2  19   49.35    1.37
   1   2 -19   49.70    1.61
  -1   2  19   52.67    1.64
  -1  -2 -19   45.00    2.24
  -1   2  19   47.51    2.22
   1  -2  19   50.94    1.52
   1   2 -19   50.03    2.23
  -1  -2 -19   49.66    1.52
  -1   2 -19   47.16    1.53
  -1  -2  19   48.50    1.46
  -1   2 -19   51.29    2.11
  -1  -2  19   50.13    1.57
   1  -2 -19   49.95    2.26
   1   2  19   49.01    1.61
   1  -2 -19   49.15    1.55
   1   2  19   51.34    2.30
  -1   2 -19   48.73    2.12
   1   2  19   49.42    1.44
   1   2  19   52.57    1.62
   1  -2 -19   49.28    1.56
  -1   2 -19   47.87    1.45
  -1   2 -19   47.44    1.56
  -1  -2  19   47.77    1.56
  -1  -2  19   49.75    2.13
  -1   2 -19   49.16    1.43
   1   2  19   49.98    1.33
   3   2 -19   36.98    2.07
  -3  -2 -19   36.67    1.31
  -3   2  19   36.60    1.28
   3  -2  19   39.36    2.11
   3  -2  19   36.92    1.27
  -3   2  19   35.00    1.37
   3  -2  19   36.33    1.28
  -3   2  19   38.33    1.47
  -3  -2 -19   34.57    1.25
   3   2 -19   36.59    1.29
  -3  -2 -19   37.66    1.36
  -3  -2 -19   32.74    2.04
  -3  -2 -19   37.16    1.43
  -3   2  19   38.37    2.08
  -3   2  19   37.47    1.20
   3  -2  19   39.31    1.30
  -3   2  19   37.41    1.49
   3   2 -19   36.41    1.43
   3  -2  19   36.74    1.82
  -3   2  19   35.02    1.75
  -3  -2  19   33.64    1.73
  -3   2 -19   36.97    1.27
  -3   2 -19   34.75    2.00
   3  -2 -19   35.05    1.70
   3   2  19   33.69    1.36
   3  -2 -19   35.70    1.43
  -3   2 -19   35.81    1.39
  -3  -2  19   38.17    1.32
   3  -2 -19   35.77    1.31
   3   2  19   37.29    1.39
   3   2  19   37.00    1.96
  -3  -2  19   36.75    1.47
  -3   2 -19   38.30    1.40
  -3  -2  19   33.81    1.38
   3  -2 -19   37.40    2.08
  -3  -2  19   36.71    1.22
  -3   2 -19   35.22    1.38
  -3  -2  19   37.34    1.30
  -5   2  19   18.04    1.13
  -5  -2 -19   18.84    1.09
  -5  -2 -19   20.87    1.02
  -5  -2 -19   21.48    1.17
   5  -2  19   20.98    1.01
   5   2 -19   21.39    1.13
  -5   2  19   19.72    1.15
  -5   2  19   21.15    1.00
   5   2 -19   21.32    1.09
  -5   2  19   23.69    1.12
  -5  -2 -19   22.19    1.03
  -5   2  19   21.61    0.91
  -5  -2 -19   20.75    1.05
  -5   2  19   21.69    1.19
  -5  -2  19   18.97    1.07
  -5   2 -19   22.27    1.21
   5   2  19   21.83    1.14
  -5  -2  19   20.18    1.17
  -5   2 -19   19.38    0.94
  -5   2 -19   20.73    1.16
   5  -2 -19   21.84    1.19
   5   2  19   20.54    1.13
  -5   2 -19   20.52    1.10
  -5  -2  19   19.50    0.99
  -5  -2  19   21.61    1.04
  -5  -2  19   19.95    1.20
  -5  -2  19   20.39    0.94
  -7   2  19    8.63    0.84
   7  -2  19   10.47    0.74
  -7   2  19   10.98    1.02
  -7   2  19    9.81    0.98
  -7   2  19    8.40    0.72
  -7  -2 -19    8.30    0.73
   7   2 -19    8.90    0.84
  -7  -2 -19   10.05    0.98
  -7  -2 -19    8.14    0.86
  -7   2  19    9.64    0.62
  -7  -2 -19    9.76    0.83
  -7  -2 -19    9.31    0.81
  -7   2  19    9.02    0.91
  -7  -2  19    9.66    0.96
  -7   2 -19    9.90    0.68
   7   2  19   10.36    0.94
  -7   2 -19   10.37    1.00
  -7  -2  19    9.19    0.81
   7  -2 -19    8.31    0.85
  -7  -2  19   10.14    0.95
   7   2  19   10.02    0.93
  -7   2 -19    8.68    0.90
  -7  -2  19    7.26    0.87
  -9  -2 -19    3.38    0.40
  -9  -2  19    3.80    0.45
   0   3 -19   37.00    1.26
   0   3 -19   35.32    1.32
   0  -3  19   38.97    1.90
   0  -3  19   35.39    1.23
   0   3  19   34.89    1.24
   0   3  19   37.26    1.33
   0   3  19   35.79    1.92
   0  -3 -19   36.48    1.94
   0   3 -19   35.24    1.70
   0   3  19   36.96    1.34
   0  -3 -19   35.17    1.29
   0  -3  19   35.43    1.24
   0  -3  19   36.47    1.21
   0  -3 -19   33.62    1.21
   2  -3  19   35.23    1.96
  -2   3  19   32.47    1.13
   2   3 -19   32.55    1.15
  -2   3  19   34.26    1.31
   2  -3  19   32.88    1.17
  -2   3  19   33.11    1.11
   2   3 -19   30.18    1.73
  -2   3  19   33.90    1.95
  -2  -3 -19   32.35    1.23
   2  -3  19   32.64    1.73
  -2   3  19   31.90    1.29
  -2  -3 -19   35.75    2.03
  -2  -3 -19   32.51    1.29
  -2   3  19   32.41    1.32
   2   3 -19   31.11    1.29
   2  -3 -19   31.70    1.52
   2  -3 -19   29.52    1.55
   2  -3 -19   34.59    1.88
  -2  -3  19   32.52    1.20
   2   3  19   31.98    1.27
  -2   3 -19   32.74    1.29
  -2   3 -19   32.53    1.87
  -2  -3  19   33.50    1.31
   2   3  19   34.41    1.33
  -2  -3  19   33.83    1.61
   2   3  19   31.64    1.81
  -2   3 -19   31.94    1.25
   2  -3 -19   31.33    1.28
  -2   3 -19   31.79    1.15
   2   3  19   33.05    1.17
  -2  -3  19   33.66    1.29
   2  -3 -19   33.31    1.27
  -2   3 -19   32.73    1.23
  -2   3 -19   31.96    1.26
  -4   3  19   25.50    1.11
  -4   3  19   23.87    0.95
   4   3 -19   22.77    1.74
   4  -3  19   21.26    1.00
  -4  -3 -19   21.44    1.00
  -4   3  19   23.03    1.02
   4   3 -19   24.22    1.09
  -4   3  19   22.83    1.18
  -4  -3 -19   21.96    1.11
   4  -3  19   20.58    1.43
   4   3 -19   22.42    1.11
  -4   3  19   21.92    1.14
  -4  -3 -19   20.90    1.14
  -4   3  19   21.65    1.16
  -4  -3 -19   23.85    1.02
  -4  -3 -19   20.29    1.00
  -4  -3 -19   23.57    1.06
   4  -3 -19   22.65    1.05
  -4  -3  19   23.24    1.19
  -4   3 -19   21.63    1.14
  -4  -3  19   20.96    1.13
  -4  -3  19   21.66    0.96
  -4  -3  19   21.69    0.99
  -4  -3  19   21.29    1.53
   4  -3 -19   23.87    1.48
  -4   3 -19   23.73    1.01
  -4   3 -19   23.53    1.18
   4   3  19   21.33    1.12
   4  -3 -19   22.65    1.18
   4  -3 -19   20.49    1.34
  -4   3 -19   20.51    1.98
  -4  -3  19   22.28    1.06
  -4   3 -19   21.20    1.14
  -4  -3  19   24.17    1.10
   4   3  19   22.52    1.15
   4  -3 -19   22.14    1.71
   6   3 -19   12.32    0.85
  -6  -3 -19   12.77    0.87
  -6   3  19   12.27    0.80
  -6   3  19   10.57    0.66
  -6  -3 -19   10.92    0.82
   6  -3  19   12.23    0.80
  -6   3  19   10.98    1.03
  -6   3  19    9.46    0.86
  -6  -3 -19   12.96    1.08
   6   3 -19   12.31    0.86
  -6  -3 -19   11.73    1.02
  -6   3  19   13.47    1.11
  -6  -3 -19   12.30    0.84
  -6  -3  19   11.70    0.99
   6   3  19   12.97    1.06
  -6  -3  19   14.06    1.19
  -6  -3  19   12.30    0.84
  -6   3 -19   12.73    1.05
  -6  -3  19   12.52    0.83
  -6  -3  19   10.67    0.73
   6   3  19   12.80    0.93
  -6   3 -19   11.48    0.75
  -6   3 -19   12.05    1.08
   6  -3 -19   12.80    0.96
  -6   3 -19   12.48    1.07
  -6  -3  19   12.28    1.09
  -8  -3 -19    4.82    0.57
  -8  -3  19    5.57    0.59
   1   4 -19   37.97    1.48
   1  -4  19   40.89    1.36
  -1   4  19   40.38    1.45
   1  -4  19   40.23    1.41
  -1  -4 -19   40.63    1.45
  -1   4  19   41.96    1.48
  -1  -4 -19   39.47    2.12
  -1  -4 -19   38.79    1.41
   1  -4  19   39.37    2.08
  -1   4  19   37.63    2.12
  -1   4  19   40.43    1.48
  -1   4  19   40.77    1.27
   1  -4 -19   41.15    2.09
  -1  -4  19   39.72    1.35
   1   4  19   42.53    1.51
   1  -4 -19   43.04    1.43
   1   4  19   43.95    1.45
   1  -4 -19   37.69    1.42
   1   4  19   42.62    1.48
  -1   4 -19   42.13    1.32
  -1   4 -19   38.86    2.06
   1   4  19   37.86    2.06
  -1   4 -19   41.47    1.51
  -1   4 -19   42.34    1.47
   3  -4  19   27.93    1.67
  -3   4  19   31.31    1.35
  -3  -4 -19   29.28    1.19
  -3   4  19   31.40    1.33
  -3   4  19   27.90    1.94
  -3   4  19   30.30    1.10
  -3   4  19   34.57    1.37
   3  -4  19   27.90    1.92
   3  -4  19   30.33    1.17
  -3   4  19   30.76    1.33
  -3  -4 -19   29.98    1.17
  -3   4  19   30.59    1.20
   3   4 -19   28.07    1.83
   3   4 -19   30.48    1.20
   3   4 -19   30.78    1.32
  -3  -4 -19   27.44    1.92
  -3  -4 -19   28.97    1.31
   3  -4 -19   29.29    1.08
  -3  -4  19   29.06    1.69
   3   4  19   30.09    1.31
  -3   4 -19   31.24    1.17
  -3   4 -19   32.47    1.32
   3   4  19   28.02    1.17
   3  -4 -19   30.38    1.82
  -3  -4  19   27.70    1.27
  -3   4 -19   29.86    1.97
  -3   4 -19   31.31    1.29
  -3  -4  19   31.99    1.26
   3   4  19   30.63    1.31
  -3   4 -19   33.17    1.36
   3  -4 -19   30.01    1.64
   3  -4 -19   31.20    1.27
   3  -4 -19   29.16    1.60
  -3  -4  19   29.28    1.28
  -3   4 -19   26.68    1.27
  -3  -4  19   28.01    1.10
  -5   4  19   18.62    1.01
  -5   4  19   17.31    1.10
  -5  -4 -19   16.48    1.07
  -5   4  19   16.94    0.83
  -5  -4 -19   17.08    0.93
   5  -4  19   17.14    0.90
  -5  -4 -19   17.86    0.96
  -5  -4 -19   17.57    0.99
   5   4 -19   17.77    0.99
   5   4 -19   17.30    0.99
  -5  -4 -19   19.89    1.10
  -5   4 -19   16.59    0.87
  -5  -4  19   16.62    0.89
  -5   4 -19   18.00    1.10
  -5  -4  19   15.82    0.95
   5  -4 -19   17.66    0.97
  -5  -4  19   16.84    1.08
   5   4  19   16.22    1.04
   5   4  19   14.23    0.99
  -5  -4  19   15.97    0.98
   5  -4 -19   17.89    1.11
  -5  -4  19   16.08    1.03
  -5   4 -19   16.52    1.04
  -5  -4  19   17.48    0.93
  -5   4 -19   17.90    1.07
   7   4 -19    7.14    0.71
  -7  -4 -19    8.39    0.74
  -7   4  19    8.72    0.81
   7  -4  19    7.91    0.68
  -7   4  19    7.67    0.55
  -7  -4 -19    6.52    0.69
  -7   4  19    7.31    0.80
  -7   4 -19    7.27    0.62
  -7  -4  19    8.16    0.77
  -7  -4  19    8.38    0.87
   7   4  19    8.74    0.86
   7  -4 -19    9.23    0.91
  -7   4 -19    7.48    0.82
  -7  -4  19    8.62    0.87
  -7  -4  19    8.43    0.73
  -7   4 -19    8.90    0.89
   7   4  19    9.01    0.85
  -9  -4 -19    3.11    0.37
  -9  -4  19    3.51    0.40
   0   5 -19    9.48    0.85
   0  -5  19    9.70    0.69
   0   5  19    9.53    1.26
   0  -5 -19   10.42    1.27
   0  -5 -19   11.10    0.77
   0   5 -19   11.64    1.34
   0   5 -19   10.77    0.70
   0   5  19   11.65    0.76
   0  -5  19    9.59    0.67
   0   5  19   10.51    0.73
   0  -5 -19   10.53    0.75
   0   5  19   11.45    0.74
  -2  -5 -19   11.17    0.73
  -2   5  19    9.59    0.66
  -2  -5 -19    8.69    0.83
  -2   5  19   10.30    0.86
  -2   5  19   10.71    0.75
   2  -5  19   11.31    0.77
  -2  -5 -19    6.46    1.12
   2  -5  19    8.90    1.25
   2  -5  19    9.16    0.65
  -2   5  19   10.32    0.74
   2   5 -19    8.74    0.72
  -2  -5 -19    9.34    0.66
  -2   5  19   10.18    0.62
  -2   5  19    8.42    0.81
   2   5 -19   10.07    0.89
  -2   5  19   10.22    1.41
  -2   5 -19    9.70    0.70
   2   5  19    9.58    1.26
  -2   5 -19    7.72    0.76
   2   5  19    9.61    0.83
   2   5  19   10.38    0.72
  -2  -5  19   11.09    1.17
   2   5  19   10.05    0.85
   2  -5 -19    8.48    0.79
  -2   5 -19    9.19    0.63
  -2   5 -19   10.46    0.78
  -2  -5  19    9.99    0.70
  -2   5 -19    9.51    1.34
   4   5 -19    5.73    0.68
   4  -5  19    7.35    0.66
  -4   5  19    6.29    0.76
  -4   5  19    6.21    0.73
   4   5 -19    6.88    0.71
  -4  -5 -19    7.48    0.82
  -4   5  19    6.81    0.70
  -4   5  19    6.66    0.60
  -4  -5 -19    6.81    0.69
  -4   5 -19    6.80    0.64
   4  -5 -19    6.40    0.69
  -4   5 -19    6.95    0.78
   4   5  19    7.39    0.73
  -4  -5  19    6.56    0.76
   4   5  19    6.46    0.74
  -4   5 -19    6.21    0.72
  -4  -5  19    7.39    0.75
  -4  -5  19    7.00    0.64
  -4   5 -19    7.79    0.79
   4   5  19    7.07    0.77
  -4  -5  19    6.96    0.74
  -6  -5 -19    3.90    0.63
  -6   5  19    3.70    0.63
   6   5 -19    3.86    0.57
  -6   5  19    3.41    0.55
  -6  -5 -19    4.09    0.64
  -6  -5 -19    4.34    0.58
  -6   5  19    3.50    0.45
   6  -5  19    3.59    0.51
   6   5  19    3.70    0.60
  -6   5 -19    3.72    0.62
   6  -5 -19    3.09    0.58
  -6  -5  19    3.73    0.50
  -6  -5  19    3.50    0.61
   6   5  19    3.14    0.59
  -6   5 -19    4.00    0.64
  -6   5 -19    3.73    0.49
  -6  -5  19    3.81    0.59
  -6  -5  19    3.25    0.58
  -8  -5 -19    2.46    0.40
  -8  -5  19    1.63    0.36
   1   6 -19   12.44    0.88
  -1  -6 -19   12.46    0.74
  -1  -6 -19   13.88    0.85
  -1  -6 -19   13.51    0.91
   1  -6  19   15.32    1.61
  -1   6  19   12.60    0.86
   1  -6  19   14.05    0.81
   1  -6  19   12.17    0.84
   1   6  19   14.56    0.85
  -1  -6  19   12.89    0.81
  -1  -6  19   13.41    0.81
  -1   6 -19   12.60    0.90
   1  -6 -19   12.82    0.83
   1  -6 -19   14.70    0.91
   1   6  19   13.70    1.53
   1   6  19   14.11    0.88
   1   6  19   13.79    0.83
  -1   6 -19   13.14    0.84
   3   6 -19   10.27    0.84
   3  -6  19    9.71    0.68
  -3   6  19   10.36    0.95
   3   6 -19   11.18    0.84
  -3  -6 -19    9.41    0.77
  -3   6  19    9.96    0.82
  -3   6  19   11.40    0.68
  -3   6  19    7.65    0.78
  -3  -6 -19   10.34    0.96
   3  -6  19   11.07    0.96
  -3  -6  19   10.71    0.77
   3   6  19   11.73    0.95
   3   6  19   10.77    0.89
  -3   6 -19    8.94    0.88
  -3   6 -19   10.87    0.95
  -3   6 -19   11.37    0.82
   3   6  19   11.30    0.95
   3  -6 -19   11.07    0.94
  -3   6 -19   10.31    0.69
   5  -6  19    5.63    0.59
  -5   6  19    6.26    0.68
  -5   6  19    5.44    0.71
  -5  -6 -19    7.20    0.82
  -5  -6 -19    7.26    0.70
  -5   6  19    6.01    0.58
  -5   6  19    6.17    0.79
   5   6 -19    6.78    0.72
   5  -6  19    6.07    0.75
  -5   6 -19    5.89    0.60
  -5   6 -19    6.09    0.72
  -5   6 -19    5.13    0.66
   5  -6 -19    5.64    0.69
  -5  -6  19    6.15    0.69
   5   6  19    6.12    0.70
   5   6  19    4.98    0.67
   5   6  19    5.53    0.69
  -7  -6 -19    3.25    0.50
  -7  -6  19    4.18    0.50
   0   7 -19    5.45    0.73
   0  -7 -19    5.66    0.70
   0  -7 -19    5.66    0.70
   0  -7  19    6.75    0.66
   0   7  19    5.35    0.68
   0  -7  19    6.12    0.70
  -2   7  19    5.48    0.70
   2  -7  19    5.59    0.57
   2   7 -19    5.48    0.62
  -2  -7 -19    6.70    0.79
   2  -7  19    5.23    0.68
   2   7 -19    6.14    0.75
  -2   7  19    4.67    0.61
  -2   7  19    5.17    0.60
  -2   7  19    5.68    0.57
  -2  -7  19    5.51    0.65
   2   7  19    4.48    0.64
  -2  -7  19    6.25    0.70
  -2   7 -19    4.38    0.61
  -2   7 -19    3.98    0.64
  -2   7 -19    4.77    0.55
   2   7  19    5.51    0.64
   2   7  19    4.41    0.61
   2  -7 -19    4.98    0.65
  -4   7  19    4.28    0.67
   4   7 -19    3.51    0.52
  -4   7  19    3.23    0.56
  -4  -7 -19    4.07    0.55
  -4   7  19    3.25    0.45
  -4   7  19    2.95    0.51
  -4  -7 -19    3.60    0.64
   4  -7  19    2.90    0.56
  -4   7 -19    4.51    0.66
  -4   7 -19    3.35    0.47
  -4  -7  19    2.75    0.50
   4   7  19    3.49    0.58
   4  -7 -19    4.27    0.65
   4   7  19    4.07    0.60
  -4   7 -19    3.63    0.62
  -4   7 -19    3.80    0.60
   4   7  19    2.65    0.52
  -6  -7 -19    2.36    0.43
  -8  -7 -19    1.31    0.29
   1  -8  19   17.93    1.09
   1   8 -19   17.85    1.12
  -1  -8 -19   18.02    1.09
   1  -8  19   17.34    0.91
  -1   8  19   18.24    1.09
  -1   8 -19   17.54    1.11
  -1  -8  19   16.89    0.94
   1  -8 -19   20.46    1.10
  -1  -8  19   17.59    1.05
   1   8  19   16.78    1.05
   1  -8 -19   16.66    1.02
  -3   8  19   13.21    0.85
  -3   8  19   14.53    0.98
   3   8 -19   12.68    0.83
  -3   8  19   13.14    0.78
  -3   8  19   13.96    0.92
   3   8 -19   13.82    0.93
  -3  -8 -19   13.66    1.12
   3  -8  19   13.14    0.94
  -3   8 -19   13.91    0.81
   3  -8 -19   13.51    0.94
  -3  -8  19   14.63    0.89
  -3   8 -19   13.73    0.92
  -3   8 -19   14.82    0.95
   3   8  19   13.61    0.92
  -3   8 -19   13.97    0.98
  -5  -8 -19    8.70    0.65
  -7  -8 -19    3.54    0.40
   0   9  19    6.49    0.76
   0  -9 -19    8.17    0.84
   0  -9 -19    8.53    0.80
   0  -9  19    7.66    0.82
  -2  -9 -19    7.81    0.84
  -2   9  19    6.24    0.76
   2   9 -19    6.23    0.72
   2  -9  19    5.66    0.72
   2   9 -19    6.97    0.69
  -2   9  19    6.43    0.66
  -2  -9  19    7.41    0.71
   2  -9 -19    6.69    0.74
  -2  -9  19    6.14    0.73
   2   9  19    7.26    0.78
  -2   9 -19    6.98    0.81
   0   0  20   23.27    1.49
   0   0  20   25.31    1.04
   0   0 -20   24.63    1.03
   0   0 -20   25.18    1.01
   0   0  20   26.53    0.92
   0   0  20   25.17    1.07
   0   0 -20   23.38    1.50
  -2   0 -20   22.89    0.98
  -2   0 -20   20.73    1.48
   2   0  20   20.00    0.96
  -2   0  20   21.01    0.85
  -2   0  20   22.89    0.88
   2   0  20   20.03    0.98
  -2   0  20   24.19    1.08
  -2   0  20   21.56    1.24
   2   0  20   21.96    0.89
   2   0 -20   22.58    0.94
   2   0 -20   19.48    0.99
  -2   0 -20   20.61    0.89
  -2   0  20   21.71    0.86
  -2   0  20   23.19    1.48
  -2   0  20   21.27    1.04
   2   0  20   20.38    1.46
   2   0 -20   20.68    1.53
  -2   0  20   22.11    0.93
  -2   0 -20   20.15    0.97
  -4   0 -20   13.08    0.78
  -4   0 -20   13.31    0.78
  -4   0  20   13.86    1.36
  -4   0 -20   14.87    0.92
   4   0 -20   15.08    1.37
  -4   0  20   15.50    0.99
   4   0  20   13.91    0.79
   4   0 -20   12.78    1.48
   4   0  20   12.88    1.43
   4   0 -20   13.41    0.91
   4   0  20   14.93    0.87
  -4   0  20   16.10    0.87
  -4   0  20   13.30    0.72
   4   0  20   15.47    0.89
   4   0  20   15.61    1.67
  -4   0  20   13.15    0.86
  -4   0 -20   13.52    0.85
  -4   0 -20   14.30    0.91
  -4   0  20   14.23    0.82
  -4   0 -20   13.30    1.54
   4   0  20   10.16    1.19
  -4   0  20   13.65    0.93
  -6   0 -20    6.41    0.64
  -6   0 -20    6.11    0.65
  -6   0 -20    8.94    0.92
  -6   0  20    7.27    0.72
   6   0  20    7.16    0.75
  -6   0  20    7.26    0.76
  -6   0  20    7.44    0.87
  -6   0  20    8.58    0.89
  -6   0  20    6.61    0.61
   6   0 -20    8.34    0.85
   6   0  20    9.55    0.86
  -6   0 -20    7.26    0.83
  -6   0  20    7.11    0.85
  -8   0  20    3.09    0.49
   1   1 -20   51.40    2.33
  -1  -1 -20   56.12    1.71
   1  -1  20   53.62    2.35
   1  -1  20   52.34    1.53
  -1   1  20   56.26    1.76
   1   1 -20   54.61    1.71
  -1   1  20   53.28    1.57
   1   1 -20   54.51    1.63
  -1   1  20   55.25    1.74
  -1   1  20   52.25    2.35
  -1  -1 -20   51.94    2.40
   1  -1  20   54.62    1.64
   1  -1  20   56.92    1.70
  -1  -1 -20   55.84    1.62
   1  -1 -20   56.71    2.44
  -1   1 -20   52.31    1.62
  -1  -1  20   55.91    1.75
   1   1  20   55.34    1.49
   1   1  20   53.94    1.69
  -1  -1  20   55.53    2.32
   1  -1 -20   55.11    1.66
  -1   1 -20   55.23    1.71
   1   1  20   54.05    2.40
  -1   1 -20   50.51    2.28
   1   1  20   52.55    1.69
  -1  -1  20   53.42    1.70
  -1  -1  20   52.64    1.53
   1  -1 -20   54.48    1.68
  -3   1  20   40.62    1.58
  -3  -1 -20   40.36    1.35
   3   1 -20   38.46    1.85
  -3  -1 -20   37.96    1.39
  -3  -1 -20   40.69    1.47
  -3   1  20   41.02    1.57
  -3   1  20   40.92    1.47
  -3   1  20   40.57    1.89
  -3  -1 -20   38.58    1.47
   3  -1  20   40.26    1.97
  -3   1  20   39.55    1.28
   3   1 -20   40.73    1.52
   3   1 -20   39.22    2.16
   3  -1  20   41.79    2.20
   3  -1  20   41.16    1.44
  -3  -1 -20   36.20    2.16
  -3   1  20   41.05    1.37
  -3   1  20   38.11    2.05
   3  -1  20   39.85    1.34
   3  -1  20   40.76    1.41
  -3   1 -20   42.43    1.48
  -3   1 -20   39.03    2.10
  -3  -1  20   41.74    1.37
   3   1  20   38.05    1.45
  -3  -1  20   39.10    1.54
   3   1  20   41.94    1.33
  -3   1 -20   40.05    1.50
  -3   1 -20   41.65    1.49
  -3   1 -20   39.92    1.35
  -3  -1  20   39.09    1.32
  -3  -1  20   39.54    1.56
   3   1  20   43.43    2.17
  -3   1 -20   38.14    2.12
  -3  -1  20   39.51    1.28
  -3  -1  20   38.79    1.86
   3   1  20   39.39    1.48
   3  -1 -20   40.66    1.54
   3   1  20   39.72    1.97
  -3  -1  20   39.61    1.41
   3  -1 -20   39.60    2.15
   3  -1 -20   38.00    1.35
   3  -1 -20   40.10    1.88
   5  -1  20   24.19    1.12
  -5  -1 -20   22.45    1.21
  -5  -1 -20   24.45    1.16
  -5   1  20   21.88    1.07
  -5   1  20   23.34    0.98
   5  -1  20   21.29    1.09
  -5  -1 -20   22.83    1.07
   5   1 -20   22.37    1.17
   5  -1  20   23.48    1.10
  -5   1  20   23.35    1.27
  -5  -1 -20   22.81    1.06
  -5   1  20   23.52    1.24
  -5   1  20   23.90    1.30
  -5  -1 -20   22.50    1.09
  -5  -1 -20   22.70    1.21
  -5   1  20   24.21    1.16
  -5   1 -20   23.79    1.19
  -5   1 -20   24.67    1.27
  -5   1 -20   25.43    1.27
  -5   1 -20   22.61    1.05
  -5  -1  20   24.85    1.11
   5   1  20   23.72    1.19
  -5  -1  20   24.33    1.03
   5  -1 -20   23.08    1.24
  -5  -1  20   24.51    1.29
  -5  -1  20   22.75    1.30
  -5  -1  20   23.33    1.20
   5   1  20   21.34    1.13
  -7   1  20   10.49    0.98
   7   1 -20   10.14    0.89
   7  -1  20    9.64    0.73
  -7   1  20    8.85    0.94
  -7  -1 -20   11.08    0.77
  -7   1  20   11.11    1.00
  -7  -1 -20    9.63    0.77
  -7   1  20    9.12    0.82
  -7  -1 -20   10.92    0.98
  -7  -1 -20    8.62    0.89
  -7   1  20   10.93    0.77
   7   1  20    9.59    0.88
   7   1  20   10.25    0.88
  -7  -1  20    9.33    0.95
  -7  -1  20    9.19    0.96
   7  -1 -20   10.18    0.93
  -7  -1  20   11.49    1.01
  -7  -1  20   11.06    0.70
  -7   1 -20   12.65    1.07
  -7  -1  20    8.27    0.77
  -7   1 -20   10.54    0.98
  -7   1 -20   10.18    0.71
  -9   1  20    3.54    0.43
  -9  -1  20    3.50    0.42
   0   2  20   68.47    1.99
   0  -2 -20   62.91    2.67
   0  -2  20   65.78    1.88
   0   2  20   65.04    2.71
   0   2 -20   66.85    2.55
   0   2  20   64.24    1.93
   0  -2  20   65.88    1.90
   0  -2  20   64.90    2.58
   0   2 -20   66.70    1.89
   0  -2 -20   68.21    1.84
   0  -2 -20   66.50    1.93
   0   2  20   64.99    1.81
   0  -2  20   62.55    1.76
   0   2 -20   63.06    1.91
   2   2 -20   52.42    1.56
  -2  -2 -20   54.13    1.73
  -2   2  20   54.41    1.80
  -2   2  20   56.32    1.74
   2   2 -20   50.62    2.40
  -2   2  20   59.06    2.14
   2  -2  20   55.69    2.50
  -2   2  20   53.95    2.51
  -2  -2 -20   53.68    2.57
  -2   2  20   57.65    1.86
  -2  -2 -20   56.15    1.76
   2  -2  20   57.82    1.69
   2  -2  20   55.47    1.64
   2  -2  20   51.34    1.59
  -2   2  20   53.68    1.53
   2   2 -20   54.54    1.78
   2  -2  20   53.95    2.30
  -2   2  20   55.94    1.58
  -2  -2  20   55.76    2.13
  -2  -2  20   53.13    1.63
  -2   2 -20   54.42    1.60
   2   2  20   57.26    1.80
   2  -2 -20   54.15    1.77
   2   2  20   59.19    1.83
  -2   2 -20   57.00    2.45
   2  -2 -20   55.40    1.72
   2   2  20   56.32    2.47
   2  -2 -20   52.76    2.16
  -2   2 -20   52.85    1.76
  -2  -2  20   53.33    1.76
  -2  -2  20   53.13    1.79
   2   2  20   54.39    1.51
  -2   2 -20   55.59    1.68
   2  -2 -20   51.71    2.43
  -2   2 -20   56.15    1.70
  -2   2 -20   56.06    1.70
  -2   2 -20   51.32    2.32
  -4   2  20   35.67    1.91
  -4   2  20   34.18    1.53
  -4   2  20   35.99    1.23
  -4  -2 -20   36.86    1.40
  -4   2  20   38.22    1.55
   4   2 -20   35.41    1.37
  -4  -2 -20   34.45    1.34
  -4   2  20   38.02    1.40
  -4   2  20   35.75    1.30
   4   2 -20   36.51    1.49
  -4   2  20   36.89    1.49
  -4  -2 -20   36.42    1.51
  -4  -2 -20   35.17    1.31
   4  -2  20   33.73    1.29
  -4  -2 -20   36.50    1.29
   4  -2  20   34.98    1.88
  -4  -2 -20   34.83    1.41
  -4  -2  20   35.33    1.93
  -4   2 -20   34.84    1.46
  -4  -2  20   34.57    1.38
   4   2  20   35.92    1.47
  -4   2 -20   35.15    1.49
  -4  -2  20   32.11    1.27
   4  -2 -20   34.58    1.51
   4  -2 -20   35.69    1.78
   4  -2 -20   36.05    2.16
  -4  -2  20   35.02    1.34
  -4   2 -20   32.97    2.15
   4   2  20   38.44    2.09
  -4   2 -20   35.81    1.31
   4   2  20   36.42    1.46
  -4  -2  20   34.60    1.50
  -4  -2  20   35.08    1.25
  -4   2 -20   37.27    1.49
   4  -2 -20   36.05    1.34
  -4  -2  20   34.51    1.53
  -6  -2 -20   17.73    1.00
   6   2 -20   17.45    1.02
  -6   2  20   18.80    1.15
  -6   2  20   17.93    0.85
  -6   2  20   16.75    1.10
  -6   2  20   17.72    1.03
  -6  -2 -20   16.75    1.08
  -6  -2 -20   17.95    0.95
   6   2 -20   18.61    1.05
  -6   2  20   18.96    0.99
  -6  -2 -20   20.14    1.03
   6  -2  20   16.92    0.95
  -6   2  20   19.45    1.16
   6   2  20   17.60    1.08
  -6  -2  20   17.59    1.07
  -6   2 -20   17.75    1.12
  -6   2 -20   16.95    1.10
  -6  -2  20   17.64    1.17
   6  -2 -20   17.12    1.11
  -6  -2  20   20.18    1.01
   6   2  20   18.60    1.10
  -6  -2  20   19.98    1.03
  -6  -2  20   17.74    0.91
  -6   2 -20   18.64    1.08
  -6   2 -20   16.91    0.92
  -6  -2  20   18.09    1.15
  -8   2  20    7.66    0.64
  -8  -2 -20    7.36    0.67
  -8  -2  20    7.21    0.68
   1  -3  20   13.90    0.73
  -1   3  20   12.29    1.38
  -1  -3 -20   14.62    0.82
   1  -3  20   13.32    1.38
   1   3 -20   12.37    0.80
  -1   3  20   13.88    0.82
  -1   3  20   14.75    0.81
  -1  -3 -20   13.12    0.77
  -1   3  20   15.62    0.88
   1   3 -20   14.05    1.33
   1   3 -20   14.38    0.74
  -1  -3 -20   13.22    1.42
   1  -3  20   14.10    0.75
  -1   3  20   13.79    0.67
   1  -3 -20   14.55    0.83
  -1  -3  20   13.36    0.74
  -1   3 -20   14.42    0.81
   1  -3 -20   11.00    1.26
  -1   3 -20   14.74    1.41
   1  -3 -20   14.26    0.79
  -1  -3  20   11.18    1.18
  -1  -3  20   12.58    0.77
   1   3  20   17.56    1.63
   1   3  20   13.02    0.80
  -1   3 -20   13.69    0.81
  -1  -3  20   14.57    0.82
   1   3  20   12.63    0.81
   1   3  20   14.03    0.75
  -3  -3 -20   12.35    0.83
  -3   3  20   13.28    0.84
   3  -3  20   10.44    1.20
   3   3 -20   12.18    0.82
  -3   3  20   10.14    1.35
  -3  -3 -20   12.12    1.46
   3   3 -20   10.42    0.69
   3   3 -20    9.99    1.28
  -3  -3 -20   10.87    0.73
  -3   3  20   11.13    0.70
  -3   3  20   10.30    0.62
  -3   3  20   12.36    0.86
   3  -3  20   10.56    0.69
   3  -3  20   10.58    1.39
  -3  -3 -20   10.48    0.71
  -3   3  20   11.33    0.81
   3   3  20   11.53    1.33
  -3   3 -20   10.65    0.68
  -3   3 -20    9.78    0.84
   3  -3 -20   10.72    0.75
  -3   3 -20   10.41    0.75
   3  -3 -20   11.55    0.82
   3   3  20    9.57    0.83
  -3  -3  20    9.94    0.70
   3  -3 -20   10.68    1.11
  -3  -3  20   11.72    1.22
  -3   3 -20   12.07    1.45
   3  -3 -20    9.27    1.03
  -3  -3  20    9.55    0.85
  -3  -3  20    9.64    0.84
  -3   3 -20   10.75    0.79
   3   3  20    8.96    0.82
   3  -3 -20    9.52    1.25
   3   3  20    9.09    0.61
  -3  -3  20   10.49    0.69
  -5   3  20    5.94    0.69
  -5  -3 -20    7.11    0.82
   5  -3  20    6.20    0.65
  -5   3  20    7.03    0.81
  -5  -3 -20    6.40    0.65
  -5   3  20    6.48    0.78
  -5  -3 -20    6.99    0.69
  -5   3  20    6.51    0.66
  -5  -3 -20    6.47    0.76
  -5   3  20    7.21    0.83
  -5   3  20    6.16    0.57
  -5  -3 -20    5.31    0.64
   5   3 -20    7.32    0.75
   5   3 -20    6.96    0.77
  -5   3 -20    6.06    0.61
  -5   3 -20    5.99    0.75
  -5  -3  20    6.38    0.79
  -5  -3  20    6.70    0.70
  -5  -3  20    6.45    0.80
   5   3  20    7.22    0.79
   5  -3 -20    6.47    0.80
  -5  -3  20    5.18    0.60
  -5  -3  20    7.59    0.67
  -5   3 -20    8.33    0.84
  -5   3 -20    6.14    0.77
   5   3  20    6.01    0.72
  -5  -3  20    7.10    0.76
   7   3 -20    3.00    0.53
  -7  -3 -20    3.14    0.51
  -7  -3 -20    4.17    0.63
  -7  -3 -20    3.64    0.63
  -7   3  20    3.07    0.42
  -7   3  20    3.75    0.52
  -7  -3 -20    4.33    0.59
  -7   3  20    3.47    0.63
  -7  -3 -20    2.91    0.47
   7  -3  20    3.23    0.51
  -7   3  20    3.39    0.55
  -7  -3  20    3.01    0.51
  -7   3 -20    2.71    0.43
   7  -3 -20    2.56    0.54
  -7   3 -20    3.32    0.59
   7   3  20    2.52    0.52
  -7  -3  20    3.02    0.46
  -7   3 -20    3.66    0.62
  -7  -3  20    3.72    0.66
  -7  -3  20    3.87    0.57
   7   3  20    3.20    0.53
  -7  -3  20    4.07    0.62
  -7  -3  20    2.71    0.54
  -9  -3 -20    1.14    0.28
  -9  -3  20    1.18    0.30
   0  -4 -20   50.22    1.71
   0   4  20   52.86    1.70
   0  -4 -20   50.49    2.45
   0  -4  20   52.17    1.62
   0   4  20   50.51    1.70
   0  -4  20   49.46    2.30
   0   4  20   52.02    2.55
   0  -4 -20   54.96    1.68
   0  -4  20   51.56    1.60
   0   4 -20   53.73    1.67
   0   4  20   52.15    1.74
   0   4 -20   52.46    1.80
  -2  -4 -20   44.30    2.42
  -2   4  20   43.99    1.62
   2   4 -20   42.98    1.64
  -2   4  20   45.77    1.44
   2   4 -20   45.55    1.44
  -2   4  20   44.60    2.42
  -2  -4 -20   46.19    1.56
   2  -4  20   40.21    2.25
  -2  -4 -20   45.74    1.64
  -2   4  20   42.72    1.38
  -2  -4 -20   41.30    1.42
   2  -4  20   44.68    1.46
  -2   4  20   44.08    1.60
   2  -4  20   45.80    1.58
  -2   4  20   44.97    1.63
   2   4  20   43.33    1.61
   2  -4 -20   43.08    1.58
  -2  -4  20   42.74    1.49
  -2   4 -20   45.61    1.63
  -2   4 -20   42.96    1.44
   2  -4 -20   43.83    1.58
  -2  -4  20   42.98    1.55
   2   4  20   42.67    1.49
   2   4  20   44.70    1.62
  -2  -4  20   44.42    1.54
   2   4  20   46.58    2.30
  -2   4 -20   44.13    2.32
   2  -4 -20   42.51    2.18
  -2   4 -20   43.82    1.61
  -2   4 -20   44.38    1.51
   4   4 -20   30.57    1.35
  -4   4  20   32.11    1.40
  -4   4  20   28.99    1.32
  -4   4  20   27.82    1.10
  -4   4  20   28.76    1.37
  -4   4  20   28.33    1.24
  -4  -4 -20   29.52    1.40
   4   4 -20   29.52    1.24
   4  -4  20   29.00    1.20
  -4  -4 -20   30.72    1.25
  -4   4 -20   27.40    1.35
  -4   4 -20   30.17    1.36
  -4   4 -20   29.66    1.38
  -4  -4  20   29.47    1.34
  -4  -4  20   28.18    1.16
  -4   4 -20   27.35    1.16
  -4  -4  20   28.93    1.25
   4  -4 -20   26.85    1.09
   4   4  20   28.81    1.33
  -4  -4  20   29.74    1.39
   4  -4 -20   28.01    1.25
   4  -4 -20   28.76    1.38
   4   4  20   30.92    1.39
  -6  -4 -20   14.92    1.02
   6   4 -20   15.74    0.95
  -6  -4 -20   15.10    0.88
  -6  -4 -20   13.53    0.84
  -6   4  20   13.46    0.75
   6  -4  20   14.32    0.84
  -6   4  20   13.81    0.91
  -6  -4 -20   14.21    0.92
  -6  -4 -20   16.57    1.02
  -6   4  20   14.28    1.02
  -6  -4  20   15.61    1.04
  -6  -4  20   15.91    0.90
   6   4  20   13.63    0.97
  -6   4 -20   13.28    1.12
  -6  -4  20   14.32    0.84
  -6   4 -20   15.77    1.02
  -6   4 -20   12.43    0.78
  -6  -4  20   15.00    1.06
  -6  -4  20   15.25    0.93
   6   4  20   14.54    0.99
   6  -4 -20   14.98    1.05
  -6   4 -20   17.17    1.08
  -6  -4  20   14.60    0.97
  -8  -4 -20    7.64    0.68
  -8  -4  20    6.50    0.61
  -1  -5 -20   33.30    2.03
  -1   5  20   30.60    1.30
  -1  -5 -20   36.76    1.42
  -1   5  20   33.07    1.35
  -1   5  20   33.64    2.14
   1  -5  20   32.09    1.24
   1   5 -20   33.57    1.44
   1  -5  20   33.86    1.97
  -1   5  20   34.54    1.40
  -1  -5 -20   34.00    1.34
  -1  -5 -20   32.32    1.22
   1  -5  20   35.86    1.35
   1   5  20   35.30    2.09
   1  -5 -20   33.57    1.38
  -1   5 -20   36.33    1.47
  -1   5 -20   31.07    1.31
   1  -5 -20   28.66    1.84
   1   5  20   32.99    1.34
   1   5  20   35.73    1.40
  -1  -5  20   33.43    1.28
   1   5  20   36.17    1.39
   1  -5 -20   31.91    1.15
  -1   5 -20   33.53    2.06
  -3   5  20   24.30    1.10
   3   5 -20   23.48    1.10
  -3  -5 -20   26.83    1.30
  -3  -5 -20   24.94    1.11
  -3   5  20   23.68    1.24
   3  -5  20   25.45    1.25
   3   5 -20   25.41    1.24
  -3   5  20   26.63    1.05
   3  -5  20   24.48    1.07
   3   5  20   23.92    1.20
   3   5  20   26.06    1.16
  -3  -5  20   23.59    1.14
   3  -5 -20   26.16    1.23
   3   5  20   27.73    1.28
  -3   5 -20   27.09    1.11
  -3   5 -20   25.01    1.24
  -3   5 -20   26.60    1.22
  -3   5 -20   26.86    1.27
  -5  -5 -20   15.57    1.06
  -5  -5 -20   15.29    0.99
  -5  -5 -20   15.67    0.93
   5   5 -20   15.36    0.96
  -5   5  20   14.33    1.00
  -5   5  20   16.07    0.82
   5  -5  20   17.14    0.90
   5   5 -20   15.61    0.94
  -5   5  20   14.29    0.91
  -5   5 -20   16.77    1.06
  -5  -5  20   16.49    0.89
  -5   5 -20   14.67    0.83
   5   5  20   15.57    1.02
  -5  -5  20   16.45    1.07
   5   5  20   15.44    1.00
   5  -5 -20   15.98    0.97
  -5  -5  20   15.26    1.00
  -5  -5  20   14.80    0.95
   5  -5 -20   14.96    1.03
  -5   5 -20   16.62    1.02
  -7  -5 -20    7.26    0.70
  -7  -5  20    7.26    0.66
   0  -6 -20   14.44    0.90
   0  -6  20   13.36    0.78
   0   6  20   13.54    0.83
   0  -6 -20   12.64    0.85
   0   6  20   12.03    0.84
   0  -6  20   11.21    0.80
   0   6  20   13.05    0.88
   0   6 -20   13.23    0.92
  -2   6  20   11.78    0.69
   2   6 -20   11.78    0.87
   2  -6  20   11.66    0.84
  -2  -6 -20   10.55    0.72
  -2  -6 -20   11.79    0.79
  -2   6  20   12.24    0.87
  -2   6  20   11.72    0.74
   2   6 -20   11.47    0.74
  -2  -6 -20    9.48    0.89
   2  -6  20   10.92    0.72
  -2   6 -20   11.55    0.84
   2   6  20   11.92    0.86
  -2   6 -20   11.77    0.72
   2   6  20   12.20    0.83
   2   6  20   12.17    0.85
  -2   6 -20   12.06    1.04
   2  -6 -20   10.81    0.94
  -2  -6  20   10.94    0.77
   4  -6  20    7.74    0.71
  -4   6  20    8.15    0.87
  -4  -6 -20    7.57    0.84
  -4   6  20    7.46    0.74
  -4  -6 -20    8.51    0.78
   4   6 -20    9.58    0.89
   4  -6  20    8.51    0.87
   4   6 -20    9.52    0.82
  -4   6  20    8.54    0.69
   4   6  20    8.73    0.81
  -4  -6  20    8.34    0.80
   4   6  20    7.50    0.80
   4  -6 -20    7.59    0.78
  -4   6 -20    9.10    0.88
  -4   6 -20    8.84    0.73
  -4   6 -20    9.33    0.88
  -4   6 -20    6.81    0.78
   4   6  20    7.67    0.81
  -6  -6 -20    4.65    0.57
  -6  -6  20    5.25    0.64
  -6  -6  20    6.64    0.60
  -8  -6 -20    2.21    0.34
  -8  -6  20    2.07    0.34
   1   7 -20   21.05    1.21
  -1  -7 -20   23.52    1.23
  -1  -7 -20   23.38    1.12
   1  -7  20   22.45    1.05
  -1   7  20   23.32    1.22
   1  -7  20   23.11    1.17
   1  -7 -20   23.58    1.16
  -1   7 -20   21.38    1.22
  -1  -7  20   23.54    1.17
   1   7  20   22.76    1.18
  -1  -7  20   22.14    1.06
   1  -7 -20   24.42    1.22
  -1   7 -20   23.05    1.12
  -3   7  20   17.39    1.10
  -3  -7 -20   17.91    0.94
   3  -7  20   16.94    0.90
  -3   7  20   17.31    0.88
  -3   7  20   17.48    1.02
   3   7 -20   18.22    1.06
  -3   7  20   17.63    0.97
  -3  -7 -20   19.78    1.16
   3   7 -20   17.17    0.95
   3  -7  20   16.31    1.04
   3   7  20   17.54    1.03
  -3   7 -20   15.14    0.87
   3   7  20   17.03    1.01
  -3   7 -20   16.94    1.09
  -3   7 -20   16.77    1.03
   3  -7 -20   19.80    1.10
  -3   7 -20   18.06    1.03
   3   7  20   16.84    0.99
  -3  -7  20   19.50    1.02
  -5  -7 -20    9.71    0.91
  -5   7  20   11.67    0.99
  -5   7  20    9.91    0.65
  -5   7  20    9.39    0.82
   5  -7  20   10.58    0.92
  -5  -7 -20   11.18    0.76
   5   7 -20    9.51    0.82
   5  -7 -20   11.68    0.83
  -5  -7  20   11.00    0.79
   5   7  20   11.02    0.92
  -5   7 -20   12.87    1.04
  -5   7 -20    9.92    0.68
  -5   7 -20    7.44    0.79
   5   7  20   10.05    0.90
  -7  -7 -20    5.62    0.53
   0  -8 -20   23.71    1.18
   0   8  20   22.46    1.21
   0  -8 -20   24.18    1.24
   0  -8  20   22.62    1.19
   0   8 -20   20.72    1.23
   0  -8  20   23.25    1.08
  -2  -8 -20   17.26    1.11
   2   8 -20   19.60    1.12
  -2   8  20   19.10    0.98
  -2   8  20   18.63    1.12
   2  -8  20   18.22    1.09
   2   8 -20   20.85    1.01
  -2   8 -20   20.73    1.09
   2   8  20   19.60    1.11
  -2  -8  20   18.25    0.98
  -2   8 -20   17.62    1.14
   2  -8 -20   18.39    1.09
  -4   8  20   12.43    0.74
  -4   8  20   12.51    0.82
   4   8 -20   13.68    0.85
  -4  -8 -20   13.23    0.94
   4  -8  20   12.88    0.90
  -4  -8 -20   13.74    0.80
  -4   8  20   12.88    0.93
  -4   8 -20   12.74    0.89
   4  -8 -20   12.96    0.90
  -4   8 -20   12.75    0.92
  -6  -8 -20    7.70    0.62
  -1  -9 -20    3.94    0.63
   1   9 -20    4.86    0.68
  -1   9  20    4.39    0.65
   1  -9  20    5.30    0.69
  -1  -9  20    4.83    0.67
   1  -9 -20    6.38    0.75
   1   9  20    4.34    0.65
   1  -9 -20    3.92    0.59
  -1   9 -20    5.73    0.73
  -1  -9  20    4.53    0.56
   1   0 -21   36.41    1.36
  -1   0 -21   39.14    1.29
  -1   0 -21   39.75    1.28
   1   0  21   36.24    1.35
   1   0 -21   35.76    1.29
  -1   0  21   38.17    1.98
  -1   0 -21   34.65    1.93
  -1   0 -21   37.69    1.37
   1   0  21   38.88    1.37
  -1   0  21   36.26    1.17
   1   0  21   36.26    1.97
   1   0  21   36.33    1.19
   1   0 -21   37.50    1.97
  -1   0  21   36.39    1.39
  -1   0  21   35.72    1.38
  -3   0 -21   31.23    1.99
   3   0 -21   28.35    1.86
  -3   0  21   29.34    1.15
  -3   0  21   30.45    1.23
  -3   0  21   28.37    1.31
  -3   0  21   30.50    1.10
  -3   0  21   30.56    1.36
  -3   0 -21   28.85    1.14
   3   0 -21   30.11    1.13
  -3   0 -21   28.86    1.25
  -3   0 -21   30.30    1.27
   3   0  21   28.88    1.22
   3   0  21   30.68    1.14
   3   0 -21   26.13    1.25
  -3   0 -21   28.81    1.19
  -3   0  21   28.63    1.58
   3   0  21   29.12    1.82
  -3   0  21   29.58    1.16
   3   0  21   33.11    1.30
  -5   0  21   17.10    0.85
  -5   0  21   20.15    1.04
  -5   0  21   18.86    1.15
   5   0  21   20.30    1.03
  -5   0 -21   18.23    1.12
   5   0  21   18.77    1.03
  -5   0 -21   19.76    1.11
  -5   0 -21   18.10    0.93
   5   0 -21   16.55    1.05
  -5   0  21   17.28    0.97
   5   0  21   17.75    0.94
  -5   0 -21   18.46    1.03
  -5   0  21   20.52    1.22
  -5   0 -21   16.72    0.93
  -5   0  21   17.31    1.04
   7   0 -21    8.53    0.83
  -7   0  21    7.91    0.90
  -7   0  21    8.61    0.89
  -7   0  21    8.94    0.77
  -7   0  21    8.90    0.88
   7   0  21    8.26    0.75
  -7   0 -21    8.15    0.71
   7   0 -21    8.73    0.80
  -7   0 -21    8.69    0.88
  -7   0  21    7.67    0.64
  -7   0 -21    9.46    0.77
  -7   0 -21    6.92    0.80
  -9   0  21    3.10    0.39
   0  -1 -21   47.23    1.55
   0   1 -21   50.13    2.28
   0  -1  21   52.40    1.50
   0  -1  21   53.39    1.68
   0   1  21   50.82    1.68
   0   1  21   50.67    1.66
   0   1 -21   51.50    1.63
   0  -1 -21   51.59    1.64
   0  -1  21   50.51    2.33
   0  -1  21   50.80    1.64
   0  -1 -21   50.48    2.36
   0   1 -21   49.88    1.61
   0   1  21   49.42    1.40
   0   1  21   50.82    2.36
   2  -1  21   41.32    2.18
   2   1 -21   45.16    1.61
   2   1 -21   43.65    2.27
  -2  -1 -21   37.25    2.16
  -2   1  21   41.41    1.57
   2  -1  21   42.31    1.47
  -2   1  21   43.46    1.58
  -2  -1 -21   44.13    1.51
  -2   1  21   43.35    1.32
  -2  -1 -21   42.81    1.52
   2   1 -21   44.00    1.41
   2  -1  21   43.92    1.48
  -2   1  21   44.38    2.21
  -2   1  21   42.96    1.45
   2  -1  21   43.16    1.38
  -2  -1  21   41.53    1.57
  -2   1 -21   41.03    2.15
  -2  -1  21   41.24    1.36
  -2  -1  21   40.67    1.54
  -2   1 -21   42.56    1.54
   2  -1 -21   42.47    1.46
   2   1  21   39.28    2.10
  -2   1 -21   44.71    1.45
  -2   1 -21   43.37    1.47
   2  -1 -21   46.30    1.59
  -2   1 -21   42.46    1.39
   2   1  21   43.58    1.35
   2   1  21   45.86    1.57
   2   1  21   42.69    1.55
  -2  -1  21   42.71    2.07
   2  -1 -21   46.17    2.30
  -4   1  21   31.28    1.41
  -4  -1 -21   27.13    1.16
  -4   1  21   27.05    1.07
  -4   1  21   28.74    1.40
  -4   1  21   28.01    1.29
  -4   1  21   28.93    1.18
  -4  -1 -21   28.20    1.24
  -4  -1 -21   27.24    1.29
  -4  -1 -21   26.87    1.14
   4  -1  21   28.57    1.21
  -4  -1 -21   29.05    1.26
   4   1 -21   29.63    1.32
  -4   1  21   27.17    1.17
   4  -1  21   26.32    1.19
   4  -1  21   27.04    1.14
  -4  -1  21   27.51    1.09
  -4  -1  21   27.98    1.37
  -4   1 -21   31.34    1.33
  -4   1 -21   25.37    1.24
  -4  -1  21   28.59    1.13
  -4  -1  21   27.35    1.17
  -4   1 -21   25.74    1.27
   4  -1 -21   28.83    1.35
  -4  -1  21   26.40    1.15
   4   1  21   26.21    1.70
   4   1  21   25.49    1.22
  -4   1 -21   26.77    1.13
  -4   1 -21   25.94    1.09
   4   1  21   27.09    1.26
  -4  -1  21   26.17    1.31
   4   1  21   28.10    1.13
  -4  -1  21   27.07    1.22
  -6   1  21   12.37    1.09
   6   1 -21   13.87    0.93
  -6  -1 -21   14.29    0.89
  -6   1  21   11.91    1.02
  -6  -1 -21   12.77    0.81
   6  -1  21   12.84    0.84
  -6  -1 -21   14.11    1.01
  -6   1  21   11.96    1.06
  -6   1  21   13.14    0.86
  -6   1  21   14.28    0.90
  -6  -1 -21   13.85    0.98
   6   1 -21   12.93    0.93
  -6   1  21   13.40    0.77
  -6   1 -21   14.37    0.94
   6   1  21   12.71    0.83
   6   1  21   12.91    0.90
  -6   1 -21   15.05    1.01
  -6  -1  21   14.87    0.99
  -6   1 -21   14.33    1.00
  -6   1 -21   13.15    0.82
  -6  -1  21   14.71    1.22
  -6  -1  21   14.22    0.90
  -6  -1  21   14.02    0.80
  -6  -1  21   14.15    1.21
   6  -1 -21   12.66    1.07
   6   1  21   15.03    0.93
  -8  -1 -21    5.92    0.58
  -8   1  21    5.93    0.58
  -8  -1  21    6.03    0.61
   1   2 -21   14.30    0.84
  -1   2  21   12.29    0.73
  -1   2  21   14.01    1.47
  -1  -2 -21   14.36    0.80
  -1   2  21   15.34    0.87
   1  -2  21   12.85    0.75
   1   2 -21   16.10    1.29
  -1  -2 -21   13.79    0.80
   1  -2  21   14.16    0.78
   1  -2  21   13.55    1.37
   1   2 -21   12.49    0.72
  -1   2  21   14.00    0.85
   1  -2  21   12.88    0.71
  -1  -2 -21   12.40    1.39
   1   2  21   13.43    0.83
  -1   2 -21   12.97    1.29
   1  -2 -21   13.63    0.81
  -1  -2  21   12.81    0.78
  -1  -2  21   14.04    0.73
   1  -2 -21   12.88    0.79
   1  -2 -21   13.00    1.37
  -1   2 -21   13.87    0.81
  -1  -2  21   14.65    0.83
  -1  -2  21   15.52    1.22
  -1   2 -21   12.56    0.76
   1   2  21   13.34    0.82
   1   2  21   14.88    1.46
  -3   2  21   12.15    0.74
  -3   2  21   10.16    0.90
  -3  -2 -21   11.19    0.72
  -3   2  21   11.42    1.38
   3   2 -21   11.11    1.33
   3  -2  21    9.45    0.66
  -3   2  21    8.78    0.86
  -3  -2 -21   12.04    1.51
  -3  -2 -21   11.31    0.73
   3   2 -21   11.20    0.80
   3  -2  21   11.18    0.71
   3  -2  21   10.04    1.31
  -3   2  21    9.07    1.07
  -3   2  21   12.17    0.77
   3  -2  21   10.42    1.20
  -3  -2 -21   12.83    0.80
  -3   2  21   11.51    0.65
  -3   2  21   10.09    0.85
   3  -2  21   10.28    0.69
   3   2 -21   12.23    0.73
  -3  -2 -21   13.62    0.88
   3  -2 -21    9.75    1.09
  -3  -2  21   11.35    0.72
  -3   2 -21   11.27    0.80
  -3   2 -21   11.52    1.38
   3   2  21   12.10    0.83
   3   2  21   12.15    0.68
  -3   2 -21   10.66    0.70
   3   2  21   11.74    0.81
   3   2  21   14.35    1.47
  -3  -2  21   10.71    0.94
  -3  -2  21   11.69    0.72
   3  -2 -21   12.15    1.45
  -3   2 -21   10.83    0.76
  -3  -2  21    9.10    0.84
   3  -2 -21   10.69    0.73
   3  -2 -21   12.33    0.86
  -3  -2  21   10.38    1.11
  -3   2 -21   10.53    0.76
  -3  -2  21   12.23    0.70
  -5  -2 -21    7.42    0.82
  -5   2  21    5.73    0.73
  -5  -2 -21    8.08    0.84
   5  -2  21    7.83    0.72
  -5   2  21    7.27    0.71
  -5   2  21    7.15    0.84
  -5  -2 -21    6.69    0.67
   5   2 -21    7.12    0.75
   5   2 -21    7.42    0.77
  -5   2  21    6.58    0.71
  -5  -2 -21    5.94    0.67
  -5   2  21    7.15    0.83
  -5   2  21    7.36    0.63
  -5   2 -21    7.68    0.83
   5   2  21    5.66    0.70
  -5  -2  21    6.43    0.79
  -5   2 -21    7.87    0.69
  -5  -2  21    7.58    0.89
  -5  -2  21    7.23    0.70
   5   2  21    6.02    0.74
  -5  -2  21    7.33    0.77
  -5   2 -21    6.00    0.72
  -5  -2  21    6.31    0.61
  -5  -2  21    7.93    0.74
  -5   2 -21    7.39    0.81
   5  -2 -21    6.98    0.81
  -7   2  21    4.21    0.56
  -7   2  21    4.46    0.49
  -7  -2 -21    3.99    0.63
  -7   2  21    4.11    0.59
  -7  -2 -21    3.58    0.61
   7  -2  21    4.05    0.53
  -7  -2 -21    3.45    0.54
   7   2 -21    2.81    0.50
  -7   2  21    3.71    0.63
  -7  -2 -21    3.73    0.51
   7   2  21    3.47    0.58
  -7   2 -21    2.93    0.46
  -7  -2  21    3.77    0.54
  -7  -2  21    3.41    0.60
   7  -2 -21    3.73    0.60
   7   2  21    3.41    0.57
  -7   2 -21    4.06    0.62
  -7  -2  21    4.01    0.67
  -7  -2  21    4.38    0.69
  -7  -2  21    3.33    0.48
  -7   2 -21    4.19    0.66
  -9  -2 -21    1.36    0.28
  -9  -2  21    1.71    0.33
   0  -3  21   19.16    1.38
   0   3  21   18.51    0.97
   0   3 -21   19.13    1.33
   0   3  21   18.38    1.46
   0  -3 -21   20.13    0.99
   0   3  21   22.18    0.97
   0  -3  21   20.81    0.95
   0   3 -21   21.13    0.97
   0  -3  21   19.68    0.89
   0   3 -21   20.48    1.02
   0  -3  21   20.11    0.92
   0   3  21   19.07    1.00
   0  -3 -21   18.49    1.47
   2   3 -21   17.27    1.67
  -2   3  21   16.63    0.81
  -2  -3 -21   17.21    0.92
  -2   3  21   15.97    1.61
  -2  -3 -21   18.34    0.96
  -2   3  21   17.60    0.94
  -2   3  21   17.32    0.98
  -2  -3 -21   14.65    0.84
  -2  -3 -21   16.84    1.72
   2  -3  21   15.20    0.82
   2   3 -21   17.64    0.99
   2  -3  21   18.14    1.74
   2   3 -21   18.48    0.84
  -2   3  21   17.22    0.98
  -2   3  21   15.81    0.77
   2  -3 -21   16.63    0.94
   2  -3 -21   17.79    0.95
   2   3  21   17.46    0.96
   2   3  21   19.03    1.46
  -2   3 -21   19.16    1.46
  -2  -3  21   17.39    0.96
  -2   3 -21   17.24    0.93
   2   3  21   16.42    0.95
  -2  -3  21   18.27    1.00
   2  -3 -21   18.40    1.44
  -2  -3  21   16.35    0.86
  -2   3 -21   15.98    0.82
  -2   3 -21   17.29    0.90
  -2   3 -21   16.86    0.95
  -4   3  21   10.58    0.77
  -4   3  21   11.12    0.95
   4   3 -21   11.41    0.84
  -4  -3 -21   11.24    0.81
  -4   3  21   11.82    0.69
  -4   3  21    9.79    0.90
  -4  -3 -21   12.03    0.78
  -4  -3 -21   11.43    0.79
   4  -3  21   10.85    0.73
   4   3 -21   10.82    0.87
  -4   3  21    9.79    0.82
  -4   3  21    9.42    0.92
  -4  -3 -21   10.55    0.94
  -4  -3 -21   12.04    0.80
   4  -3 -21   12.47    0.92
   4  -3 -21   11.06    0.90
  -4  -3  21   11.23    0.75
  -4   3 -21   12.60    0.89
  -4   3 -21   10.68    0.71
  -4   3 -21   12.98    0.91
  -4   3 -21   11.47    0.97
  -4  -3  21   11.41    1.01
   4   3  21   11.28    0.95
   4   3  21   11.48    0.72
  -4  -3  21    9.97    0.74
   4   3  21   12.05    0.86
  -4  -3  21   11.05    0.70
  -4  -3  21   11.69    1.03
   6   3 -21    5.51    0.66
  -6   3  21    8.12    0.88
  -6   3  21    6.69    0.79
  -6   3  21    5.96    0.69
   6   3 -21    5.88    0.71
  -6  -3 -21    5.06    0.61
  -6   3  21    5.44    0.64
  -6   3  21    5.22    0.55
  -6  -3 -21    6.30    0.71
  -6  -3 -21    4.90    0.68
  -6  -3 -21    6.34    0.78
  -6   3  21    6.82    0.80
   6  -3  21    7.69    0.71
   6  -3 -21    7.34    0.83
   6   3  21    6.70    0.78
  -6  -3  21    6.09    0.79
  -6  -3  21    5.89    0.67
  -6  -3  21    5.30    0.59
  -6   3 -21    5.28    0.70
  -6   3 -21    5.73    0.61
  -6  -3  21    5.88    0.75
  -6  -3  21    5.11    0.67
  -6   3 -21    5.72    0.74
  -6  -3  21    6.15    0.67
   6   3  21    5.36    0.69
  -8  -3 -21    2.36    0.41
  -8  -3  21    2.63    0.43
   1  -4  21    8.77    1.17
  -1  -4 -21   10.24    0.74
   1  -4  21   11.29    0.71
  -1  -4 -21   10.28    0.74
  -1  -4 -21   11.03    1.37
  -1   4  21   11.41    0.78
  -1  -4 -21   10.46    0.67
   1  -4  21   11.99    0.76
  -1   4  21    9.85    0.84
  -1   4  21   10.97    0.78
  -1   4  21    8.91    1.24
   1   4 -21   11.31    0.82
   1  -4 -21   10.26    1.26
   1   4  21   11.50    0.74
  -1  -4  21   10.04    0.68
  -1   4 -21   10.32    1.25
   1  -4 -21   10.72    0.78
   1   4  21   13.06    1.43
  -1   4 -21   11.91    0.81
  -1   4 -21    9.99    0.73
   1  -4 -21   10.80    0.67
   1   4  21   11.62    0.79
   1   4  21   12.47    0.81
   1  -4 -21   11.04    0.75
   3  -4  21    9.21    0.67
  -3  -4 -21    7.90    0.71
  -3   4  21    8.55    0.83
   3   4 -21    8.36    0.81
  -3   4  21    8.63    0.76
   3   4 -21   11.09    0.72
  -3   4  21    8.92    0.61
  -3   4  21    9.13    0.84
  -3  -4 -21    9.90    0.82
  -3   4  21    8.95    0.86
  -3  -4 -21    8.00    0.83
   3   4  21    8.63    0.85
  -3   4 -21   10.13    0.87
  -3   4 -21    8.30    0.84
   3   4  21   10.15    0.89
   3  -4 -21    9.04    0.65
  -3   4 -21    7.71    0.77
  -3   4 -21    7.80    0.68
  -3  -4  21    7.94    0.73
  -3  -4  21    9.16    0.84
   3  -4 -21    8.43    0.83
   3  -4 -21    9.03    0.83
  -3  -4  21    8.57    0.71
  -3  -4  21    8.11    0.82
  -5  -4 -21    6.02    0.77
   5   4 -21    5.62    0.66
  -5   4  21    5.06    0.53
   5  -4  21    4.93    0.60
  -5   4  21    6.13    0.70
  -5  -4 -21    6.61    0.73
   5   4 -21    5.87    0.72
  -5  -4 -21    4.10    0.63
  -5   4  21    5.68    0.74
   5  -4 -21    4.73    0.63
   5   4  21    5.75    0.70
  -5   4 -21    6.02    0.76
  -5  -4  21    5.78    0.62
  -5  -4  21    5.38    0.73
   5  -4 -21    6.70    0.63
   5  -4 -21    5.26    0.72
  -5  -4  21    5.92    0.67
   5   4  21    6.49    0.78
  -5   4 -21    5.83    0.75
  -5  -4  21    7.02    0.85
  -5   4 -21    4.93    0.69
  -5   4 -21    6.01    0.61
  -7  -4 -21    2.95    0.48
  -7  -4  21    2.93    0.47
   0  -5 -21   33.21    2.02
   0  -5  21   32.32    1.26
   0   5  21   33.76    1.37
   0   5 -21   31.44    1.27
   0   5  21   32.80    1.36
   0   5 -21   34.28    1.46
   0  -5 -21   33.56    1.38
   0  -5  21   33.44    1.29
   0  -5 -21   33.51    1.33
   0  -5 -21   30.54    1.16
   0   5  21   32.17    1.37
  -2   5  21   29.26    1.28
  -2  -5 -21   27.52    1.14
   2  -5  21   25.62    1.23
   2   5 -21   27.90    1.13
  -2  -5 -21   27.98    1.21
  -2   5  21   30.49    1.35
  -2   5  21   29.82    1.31
  -2  -5 -21   31.39    1.37
   2  -5  21   28.54    1.16
   2   5 -21   26.58    1.31
  -2   5  21   28.48    1.10
   2  -5 -21   27.86    1.25
  -2   5 -21   26.96    1.29
  -2   5 -21   26.07    1.25
   2  -5 -21   27.17    1.28
  -2  -5  21   25.96    1.17
   2   5  21   29.57    1.33
   2  -5 -21   26.76    1.06
   2   5  21   27.35    1.22
   2   5  21   26.72    1.25
  -2   5 -21   26.60    1.11
  -4   5  21   20.49    1.05
  -4  -5 -21   18.66    1.01
   4  -5  21   19.99    1.13
   4   5 -21   19.81    1.03
  -4  -5 -21   17.47    1.09
  -4   5  21   18.40    0.91
   4   5 -21   19.54    1.10
   4  -5  21   20.09    0.99
  -4   5  21   20.77    1.17
  -4  -5  21   19.47    0.94
  -4   5 -21   19.16    1.08
  -4   5 -21   17.85    0.95
  -4  -5  21   22.05    1.12
   4  -5 -21   19.04    1.07
   4   5  21   17.26    1.07
   4   5  21   18.21    1.09
  -4  -5  21   20.57    1.12
  -4  -5  21   19.70    1.12
  -4   5 -21   19.35    1.14
   4  -5 -21   21.03    1.19
  -6   5  21    9.27    0.89
   6  -5  21    9.22    0.68
  -6   5  21    9.60    0.85
   6  -5  21    8.96    0.86
  -6  -5 -21   11.37    0.81
  -6  -5 -21    8.80    0.86
  -6   5  21    9.78    0.64
  -6   5 -21    7.63    0.81
   6   5  21   12.47    1.02
  -6  -5  21   10.57    0.80
  -6   5 -21    8.52    0.85
  -6  -5  21   10.47    0.95
  -6  -5  21   12.57    0.90
   6   5  21   11.56    0.97
  -6   5 -21   10.14    0.68
   6  -5 -21   10.15    0.96
  -6  -5  21   11.54    0.76
  -8  -5 -21    4.52    0.49
  -8  -5  21    4.01    0.43
  -1  -6 -21   17.16    0.89
   1  -6  21   20.09    1.06
  -1   6  21   16.94    1.04
  -1  -6 -21   17.38    1.03
   1   6 -21   18.92    1.10
   1  -6  21   18.23    0.93
  -1  -6 -21   18.35    1.02
   1   6  21   17.59    1.01
  -1  -6  21   17.78    0.95
   1   6  21   18.94    1.02
  -1   6 -21   18.21    0.99
  -1   6 -21   18.73    1.12
   1  -6 -21   18.24    1.07
   1   6  21   19.25    1.04
   3  -6  21   15.08    0.99
  -3   6  21   14.48    0.86
  -3   6  21   15.60    1.01
   3   6 -21   14.41    0.96
  -3  -6 -21   13.59    0.98
   3  -6  21   14.38    0.82
   3   6 -21   15.28    0.88
  -3  -6 -21   13.06    0.82
  -3   6  21   14.72    0.80
  -3   6 -21   14.86    0.85
   3   6  21   13.50    0.92
  -3   6 -21   14.25    0.96
  -3   6 -21   14.67    0.94
   3   6  21   13.14    0.93
   3  -6 -21   13.67    0.94
  -3   6 -21   13.46    0.96
  -3  -6  21   15.21    0.91
   3   6  21   12.58    0.87
  -5   6  21    7.64    0.83
  -5  -6 -21    7.28    0.82
   5  -6  21    8.64    0.72
  -5   6  21    8.53    0.68
  -5   6  21    8.28    0.78
   5   6 -21    9.24    0.81
   5  -6  21    5.79    0.73
  -5  -6 -21    9.34    0.81
  -5  -6  21    9.24    0.85
   5  -6 -21    8.73    0.90
  -5   6 -21    8.74    0.87
   5  -6 -21    9.02    0.84
   5   6  21    8.42    0.83
   5   6  21    8.82    0.83
  -5   6 -21    9.88    0.92
  -5   6 -21    7.40    0.67
  -7  -6 -21    5.57    0.58
  -7  -6  21    5.55    0.54
   0  -7 -21   23.14    1.17
   0   7  21   20.96    1.16
   0  -7 -21   19.66    1.10
   0  -7  21   21.91    1.14
   0   7 -21   22.50    1.23
   0  -7  21   23.08    1.09
   2  -7  21   18.86    1.09
   2  -7  21   18.27    0.94
   2   7 -21   18.75    1.12
  -2   7  21   16.87    1.08
  -2  -7 -21   18.13    1.12
  -2  -7 -21   18.27    0.92
  -2  -7  21   21.42    1.07
   2   7  21   18.73    1.07
  -2   7 -21   19.74    1.09
  -2   7 -21   19.28    1.15
   2   7  21   18.90    1.03
   2  -7 -21   19.94    1.12
   2   7  21   20.04    1.06
  -4  -7 -21   15.06    1.02
   4  -7  21   13.78    0.93
   4   7 -21   12.37    0.87
  -4   7  21   12.63    0.75
   4   7 -21   14.04    0.86
  -4  -7 -21   12.59    0.79
  -4   7  21   12.05    0.83
  -4   7 -21   12.44    0.78
   4  -7 -21   11.35    0.96
   4   7  21   15.15    0.95
  -4  -7  21   10.64    0.81
  -4   7 -21   14.66    0.93
  -4   7 -21   12.91    0.91
   4   7  21   12.80    0.90
  -4   7 -21   14.01    0.95
   4  -7 -21   13.08    0.93
  -6  -7 -21    8.47    0.70
   1  -8  21    3.54    0.50
  -1   8  21    3.90    0.63
   1   8 -21    2.83    0.55
  -1  -8 -21    3.28    0.59
   1  -8  21    4.36    0.64
  -1  -8  21    3.45    0.58
   1  -8 -21    3.88    0.60
  -1  -8  21    4.09    0.57
   1   8  21    3.49    0.60
   1  -8 -21    4.00    0.63
  -1   8 -21    3.74    0.64
   3   8 -21    2.94    0.53
  -3   8  21    1.85    0.50
  -3   8  21    4.05    0.55
  -3  -8 -21    2.54    0.55
   3  -8  21    2.56    0.51
   3   8 -21    3.79    0.52
   3  -8 -21    3.29    0.57
  -3   8 -21    3.59    0.56
  -3   8 -21    3.26    0.59
   3   8  21    3.30    0.56
  -3  -8  21    2.36    0.47
  -5  -8 -21    2.66    0.41
   0  -9  21    7.70    0.80
   0   9 -21    7.27    0.82
   0  -9 -21    8.74    0.86
   0  -9 -21    6.95    0.74
   0   9  21    8.49    0.84
  -2  -9  21    8.12    0.73
   0   0 -22   96.15    2.56
   0   0 -22   92.67    3.43
   0   0 -22   95.23    2.50
   0   0  22   94.80    2.62
   0   0  22   91.86    3.40
   0   0  22   95.69    2.33
   0   0  22   96.67    2.60
  -2   0 -22   79.78    3.24
  -2   0  22   80.84    2.08
  -2   0  22   78.43    2.40
   2   0  22   74.58    3.11
   2   0 -22   76.82    3.20
  -2   0  22   78.21    3.06
   2   0  22   83.07    2.14
  -2   0  22   79.33    2.17
   2   0  22   82.15    2.34
  -2   0 -22   82.50    2.27
   2   0 -22   81.99    2.21
  -2   0 -22   81.42    2.35
   2   0 -22   77.82    2.33
   2   0  22   84.05    2.33
  -2   0  22   80.81    2.40
  -4   0  22   51.16    1.83
  -4   0  22   55.91    2.04
  -4   0  22   54.66    1.76
   4   0  22   51.18    1.69
  -4   0  22   51.46    1.71
  -4   0  22   53.42    1.64
  -4   0 -22   53.69    1.88
  -4   0 -22   55.17    1.86
   4   0 -22   54.70    1.94
  -4   0 -22   54.51    1.73
  -4   0  22   58.03    2.04
   4   0  22   51.92    1.80
  -4   0 -22   53.22    1.90
  -4   0 -22   51.41    1.70
   4   0  22   53.70    1.85
  -6   0  22   29.06    1.48
  -6   0 -22   27.25    1.19
  -6   0  22   27.07    1.12
  -6   0 -22   27.65    1.36
   6   0  22   25.47    1.24
  -6   0 -22   26.39    1.18
  -6   0  22   29.83    1.48
  -6   0 -22   27.44    1.38
   6   0  22   26.87    1.25
   6   0 -22   30.06    1.38
  -6   0  22   28.72    1.25
   6   0  22   27.89    1.22
  -6   0  22   30.23    1.41
  -8   0  22   12.05    0.73
   1   1 -22    7.15    1.04
  -1  -1 -22    5.80    0.63
   1  -1  22    6.38    0.65
  -1   1  22    6.22    0.66
  -1   1  22    6.70    0.61
   1   1 -22    6.13    0.64
   1  -1  22    7.17    1.05
   1  -1  22    6.32    0.57
  -1   1  22    5.80    0.65
  -1   1  22    5.38    0.91
  -1  -1 -22    6.70    1.04
  -1  -1 -22    5.53    0.57
   1  -1  22    6.96    0.69
   1   1 -22    5.93    0.58
  -1   1 -22    5.07    0.58
   1   1  22    7.35    0.51
  -1   1 -22    6.67    1.00
  -1  -1  22    9.83    1.21
   1  -1 -22    5.69    0.60
  -1  -1  22    5.72    0.62
   1   1  22    5.47    0.94
   1  -1 -22    7.10    1.07
   1   1  22    6.05    0.64
   1   1  22    5.58    0.63
  -1   1 -22    7.02    0.64
  -1  -1  22    6.80    0.52
  -1  -1  22    5.22    0.62
   1  -1 -22    5.29    0.60
   3  -1  22    4.33    0.55
  -3   1  22    5.30    0.59
  -3   1  22    4.33    0.81
  -3   1  22    3.20    0.55
  -3   1  22    4.02    0.50
  -3  -1 -22    4.56    1.00
  -3   1  22    3.71    0.52
  -3   1  22    3.46    0.59
  -3  -1 -22    4.89    0.61
   3   1 -22    5.23    1.01
  -3  -1 -22    5.01    0.55
   3  -1  22    4.40    0.95
   3   1 -22    4.97    0.66
   3  -1  22    4.12    0.51
  -3  -1 -22    4.09    0.52
  -3   1  22    4.16    0.47
   3  -1  22    4.25    0.56
  -3  -1 -22    5.26    0.62
  -3   1  22    5.77    1.00
   3  -1 -22    3.74    0.97
  -3  -1  22    5.40    0.67
  -3   1 -22    4.89    0.62
   3   1  22    5.11    0.62
   3  -1 -22    4.95    0.64
  -3   1 -22    4.82    0.62
   3   1  22    3.91    0.57
  -3   1 -22    5.49    1.05
  -3   1 -22    3.84    0.48
  -3  -1  22    4.09    0.52
  -3  -1  22    4.83    0.52
  -3  -1  22    4.32    0.48
  -3  -1  22    3.84    0.59
  -3   1 -22    5.34    0.61
  -3  -1  22    5.11    0.58
  -3   1 -22    4.03    0.50
  -3  -1  22    6.06    0.93
   3   1  22    4.23    0.49
   3  -1 -22    3.91    0.52
  -5   1  22    2.34    0.46
  -5   1  22    2.40    0.41
  -5  -1 -22    3.00    0.49
  -5  -1 -22    3.47    0.56
  -5  -1 -22    2.26    0.44
   5   1 -22    2.33    0.51
  -5   1  22    1.88    0.52
  -5  -1 -22    2.88    0.54
   5  -1  22    2.11    0.46
   5  -1  22    3.62    0.53
  -5   1  22    2.61    0.49
   5   1 -22    2.90    0.49
  -5   1  22    2.36    0.50
   5  -1  22    3.08    0.51
  -5  -1 -22    2.89    0.56
  -5   1  22    2.78    0.57
  -5  -1  22    1.26    0.35
   5   1  22    3.12    0.56
  -5   1 -22    1.73    0.48
  -5   1 -22    1.83    0.41
   5   1  22    2.00    0.42
  -5  -1  22    2.73    0.49
  -5   1 -22    3.53    0.58
  -5  -1  22    1.99    0.53
   5  -1 -22    2.92    0.56
  -5   1 -22    3.51    0.61
   5   1  22    2.83    0.53
  -5  -1  22    2.63    0.50
  -5  -1  22    2.94    0.59
  -7   1  22    1.30    0.39
  -7  -1 -22    1.43    0.37
   7  -1  22    0.72    0.34
  -7  -1  22    1.18    0.39
   7   1  22    0.81    0.38
  -9  -1  22    0.18    0.26
   0  -2  22   92.51    2.44
   0   2 -22   89.11    2.41
   0   2  22   86.95    2.28
   0  -2 -22   83.43    3.34
   0  -2 -22   87.65    2.43
   0  -2  22   89.55    2.28
   0  -2  22   94.09    2.47
   0   2 -22   88.79    2.47
   0   2 -22   88.07    3.20
   0  -2 -22   85.71    2.30
   0  -2  22   86.72    3.25
   0   2  22   86.19    2.47
   0   2  22   82.83    2.47
   0   2  22   83.48    3.33
   2  -2  22   73.86    2.12
   2   2 -22   78.12    3.19
  -2  -2 -22   79.12    2.28
   2  -2  22   79.04    2.13
  -2   2  22   76.78    2.37
  -2   2  22   74.33    3.16
  -2  -2 -22   76.45    2.24
  -2   2  22   75.69    2.33
   2  -2  22   78.30    2.18
   2   2 -22   76.48    2.32
  -2   2  22   76.49    2.21
  -2  -2 -22   70.88    3.20
   2  -2  22   78.02    3.21
  -2  -2 -22   73.39    2.09
  -2   2  22   74.01    1.99
  -2  -2  22   80.55    2.36
   2  -2 -22   73.88    2.04
   2   2  22   71.32    2.27
  -2   2 -22   76.83    2.17
   2   2  22   78.48    2.00
  -2  -2  22   77.54    2.13
  -2   2 -22   79.43    2.19
  -2   2 -22   78.37    2.19
  -2   2 -22   76.31    2.09
  -2   2 -22   75.44    2.30
   2   2  22   79.52    3.19
   2  -2 -22   75.38    2.28
  -2  -2  22   73.31    2.07
   2  -2 -22   78.89    2.24
   2   2  22   77.61    2.30
  -2  -2  22   81.40    2.34
   2  -2 -22   77.33    3.16
  -4   2  22   51.65    1.97
  -4  -2 -22   51.24    1.69
   4  -2  22   51.97    1.70
  -4  -2 -22   50.21    1.71
   4   2 -22   54.39    1.90
  -4   2  22   48.80    1.89
  -4  -2 -22   51.79    1.89
   4   2 -22   49.91    1.71
  -4  -2 -22   50.31    1.76
  -4   2  22   48.13    1.57
  -4   2  22   51.81    1.73
  -4  -2 -22   52.60    1.79
  -4   2  22   50.13    1.69
  -4   2  22   52.81    1.87
  -4  -2  22   49.28    1.67
  -4  -2  22   48.68    1.60
   4   2  22   53.46    1.89
  -4   2 -22   52.43    1.87
  -4  -2  22   55.84    1.79
  -4   2 -22   52.75    1.88
   4   2  22   51.14    1.63
   4  -2 -22   53.40    1.73
  -4  -2  22   49.62    1.90
  -4  -2  22   51.09    1.69
  -4   2 -22   51.47    1.87
  -4   2 -22   49.92    1.67
   4  -2 -22   49.45    1.89
  -4  -2  22   51.69    1.98
   4   2  22   53.74    1.88
  -6   2  22   29.25    1.44
  -6  -2 -22   29.40    1.22
  -6  -2 -22   26.95    1.31
  -6   2  22   25.90    1.24
  -6  -2 -22   27.00    1.24
   6  -2  22   26.86    1.20
  -6   2  22   25.92    1.17
   6   2 -22   28.62    1.31
   6   2 -22   28.25    1.28
  -6   2  22   26.37    1.37
  -6   2  22   26.41    1.08
  -6   2  22   25.54    1.32
  -6  -2 -22   26.51    1.36
  -6   2 -22   25.94    1.29
  -6  -2  22   24.48    1.36
  -6   2 -22   30.78    1.44
   6  -2 -22   26.39    1.33
  -6   2 -22   25.01    1.13
  -6  -2  22   27.32    1.24
   6   2  22   27.21    1.31
  -6  -2  22   26.60    1.38
  -6   2 -22   25.92    1.34
   6   2  22   26.34    1.17
   6   2  22   30.87    1.39
  -6  -2  22   27.17    1.31
  -6  -2  22   25.02    1.11
  -8  -2 -22   11.36    0.70
  -8  -2  22   12.47    0.74
  -1   3  22    4.84    0.59
  -1  -3 -22    4.49    0.51
   1  -3  22    7.14    1.13
   1  -3  22    6.31    0.61
   1   3 -22    6.21    0.96
  -1  -3 -22    5.22    0.59
  -1  -3 -22    5.20    0.62
   1   3 -22    5.79    0.58
   1   3 -22    4.67    0.60
  -1   3  22    4.76    0.62
  -1   3  22    5.11    0.63
  -1   3  22    5.00    0.99
  -1  -3 -22    4.90    0.96
   1  -3 -22    5.04    0.59
   1   3  22    4.06    0.57
   1   3  22    5.22    0.62
  -1  -3  22    6.32    0.67
   1  -3 -22    4.93    0.92
  -1   3 -22    4.43    0.57
   1   3  22    4.88    0.55
   1  -3 -22    4.83    0.60
  -1  -3  22    5.87    0.58
  -1   3 -22    5.16    0.60
   1   3  22    3.45    0.79
  -1  -3  22    5.03    0.60
   1  -3 -22    5.56    0.54
   3   3 -22    3.25    0.57
  -3   3  22    3.93    0.60
  -3   3  22    3.93    0.46
  -3   3  22    5.18    0.67
  -3  -3 -22    4.42    0.62
  -3  -3 -22    3.94    0.55
  -3   3  22    4.52    0.62
  -3  -3 -22    3.89    0.51
   3  -3  22    4.44    0.55
  -3   3  22    3.99    0.52
   3   3 -22    4.39    0.54
  -3   3 -22    3.78    0.50
   3  -3 -22    3.55    0.58
  -3   3 -22    2.88    0.52
  -3  -3  22    4.31    0.65
   3  -3 -22    4.38    0.51
  -3  -3  22    3.40    0.56
   3   3  22    3.76    0.58
   3  -3 -22    3.19    0.52
   3   3  22    3.97    0.59
  -3  -3  22    3.48    0.52
  -3   3 -22    3.42    0.54
  -3   3 -22    4.22    0.60
  -3  -3  22    4.60    0.55
  -5  -3 -22    2.25    0.46
  -5   3  22    0.85    0.42
   5   3 -22    2.90    0.52
  -5   3  22    1.83    0.37
  -5   3  22    2.20    0.52
   5  -3  22    1.93    0.42
  -5  -3 -22    2.45    0.53
  -5  -3 -22    2.76    0.55
  -5   3  22    2.18    0.46
  -5  -3 -22    2.51    0.47
  -5   3  22    2.30    0.54
  -5   3  22    2.61    0.50
   5   3 -22    2.15    0.50
  -5  -3  22    2.27    0.53
  -5  -3  22    1.85    0.40
  -5  -3  22    2.57    0.56
   5  -3 -22    1.52    0.47
   5   3  22    1.94    0.48
  -5   3 -22    2.24    0.49
  -5   3 -22    2.31    0.51
  -5   3 -22    2.01    0.40
  -5   3 -22    2.14    0.50
  -5  -3  22    2.03    0.43
  -5  -3  22    2.40    0.48
   5   3  22    2.37    0.53
   5   3  22    2.41    0.45
  -7  -3 -22    1.28    0.37
  -7  -3  22    1.08    0.39
  -9  -3  22    0.24    0.25
   0  -4  22   68.85    2.81
   0  -4 -22   68.75    1.92
   0   4 -22   67.53    2.18
   0   4  22   66.71    2.04
   0  -4 -22   67.82    3.00
   0   4  22   68.94    2.17
   0   4 -22   68.09    2.04
   0  -4  22   66.55    1.98
   0   4  22   69.17    2.14
   0   4  22   65.15    3.04
   0  -4 -22   70.11    2.14
  -2   4  22   63.24    2.05
  -2  -4 -22   60.57    1.86
  -2   4  22   59.75    2.00
  -2  -4 -22   59.42    1.94
  -2   4  22   61.39    1.75
   2  -4  22   62.03    1.87
  -2   4  22   60.67    2.05
   2  -4  22   62.21    1.95
  -2  -4 -22   57.76    1.98
   2   4 -22   62.54    2.09
   2   4  22   60.87    2.06
  -2   4 -22   59.48    1.80
  -2   4 -22   59.98    2.02
   2   4  22   59.98    2.02
  -2   4 -22   59.83    2.01
  -2  -4  22   61.58    1.98
   2  -4 -22   60.22    1.99
  -2  -4  22   62.35    1.90
   2   4  22   58.91    1.86
  -2  -4  22   62.63    1.97
   2  -4 -22   57.74    1.74
   2  -4 -22   61.01    1.99
  -4   4  22   40.90    1.40
   4   4 -22   37.65    1.47
  -4  -4 -22   39.62    1.67
  -4   4  22   41.80    1.65
  -4   4  22   42.01    1.68
  -4   4  22   39.49    1.66
   4  -4  22   41.31    1.49
   4   4 -22   39.63    1.64
  -4  -4 -22   41.83    1.53
  -4   4  22   41.88    1.54
   4   4  22   39.71    1.67
   4  -4 -22   40.26    1.70
  -4  -4  22   41.61    1.70
  -4  -4  22   43.24    1.46
  -4   4 -22   39.60    1.46
  -4   4 -22   38.92    1.66
   4   4  22   41.94    1.68
   4  -4 -22   42.43    1.60
   4  -4 -22   40.55    1.39
  -4   4 -22   40.46    1.63
  -4  -4  22   41.44    1.57
  -4   4 -22   42.43    1.65
  -4  -4  22   41.74    1.67
  -6   4  22   23.79    1.25
   6  -4  22   22.50    1.04
  -6   4  22   20.97    1.10
  -6  -4 -22   20.68    1.19
  -6  -4 -22   23.00    1.13
  -6  -4  22   22.41    1.22
   6   4  22   22.27    1.18
   6   4  22   22.82    1.21
  -6  -4  22   23.51    1.27
  -6  -4  22   24.36    1.14
  -6   4 -22   21.52    1.17
  -6   4 -22   22.14    1.02
   6  -4 -22   22.26    1.23
  -6  -4  22   21.49    1.06
  -6   4 -22   23.96    1.23
  -6   4 -22   24.10    1.23
  -8  -4 -22   10.25    0.63
  -8  -4  22    9.53    0.62
  -1  -5 -22    5.07    0.65
  -1  -5 -22    4.38    0.52
  -1   5  22    3.58    0.57
  -1   5  22    4.27    0.59
   1  -5  22    5.71    0.65
   1   5 -22    5.88    0.71
   1  -5  22    4.52    0.56
  -1   5  22    5.51    0.66
  -1  -5 -22    4.58    0.61
   1   5  22    4.84    0.62
   1   5  22    3.63    0.55
   1  -5 -22    4.50    0.52
  -1  -5  22    4.44    0.56
   1   5  22    4.45    0.59
   1  -5 -22    4.08    0.59
  -1   5 -22    4.73    0.60
  -1   5 -22    4.51    0.64
  -3   5  22    3.70    0.54
   3   5 -22    3.58    0.58
   3   5 -22    3.57    0.53
  -3   5  22    3.30    0.57
  -3   5  22    3.44    0.46
  -3  -5 -22    2.22    0.50
  -3  -5 -22    4.04    0.56
   3  -5  22    4.38    0.62
   3  -5  22    3.35    0.50
  -3   5  22    3.85    0.61
  -3   5  22    3.19    0.56
   3   5  22    3.80    0.60
  -3   5 -22    3.02    0.52
   3   5  22    3.41    0.57
  -3   5 -22    4.05    0.59
   3   5  22    2.69    0.51
  -3  -5  22    3.20    0.52
   3  -5 -22    2.69    0.53
   3  -5 -22    3.57    0.57
  -3   5 -22    1.84    0.41
  -3   5 -22    3.86    0.60
  -5  -5 -22    1.51    0.40
  -5   5  22    1.62    0.42
  -5  -5 -22    1.67    0.46
   5  -5  22    1.21    0.43
   5   5 -22    1.96    0.44
  -5   5  22    1.40    0.34
  -5   5  22    1.50    0.46
   5   5 -22    1.61    0.44
   5  -5  22    1.58    0.39
  -5  -5  22    2.06    0.47
   5   5  22    1.59    0.47
   5   5  22    1.95    0.51
  -5   5 -22    1.21    0.35
   5  -5 -22    1.98    0.54
  -5  -5  22    1.41    0.46
   5  -5 -22    1.87    0.48
  -5   5 -22    1.76    0.48
  -5  -5  22    2.18    0.44
  -5   5 -22    2.05    0.51
  -5  -5  22    2.76    0.57
  -7  -5 -22    0.84    0.31
  -7  -5  22    0.76    0.33
   0  -6 -22   50.44    1.76
   0   6  22   48.27    1.78
   0  -6  22   52.77    1.71
   0   6  22   48.62    1.79
   0   6  22   48.65    1.75
   0  -6 -22   50.08    1.59
   0  -6 -22   48.50    1.78
   0   6 -22   49.53    1.91
   0  -6  22   48.50    1.72
  -2  -6 -22   43.37    1.51
   2   6 -22   39.23    1.69
   2  -6  22   43.34    1.54
  -2  -6 -22   46.66    1.63
  -2  -6 -22   42.81    1.70
  -2   6  22   43.14    1.73
   2  -6  22   44.72    1.68
   2  -6 -22   40.40    1.67
  -2  -6  22   44.60    1.62
   2   6  22   47.43    1.74
  -2   6 -22   44.27    1.78
   2   6  22   43.56    1.66
   2   6  22   43.67    1.66
  -2   6 -22   42.49    1.67
  -4  -6 -22   29.25    1.40
  -4   6  22   28.09    1.14
  -4   6  22   28.61    1.26
   4  -6  22   28.54    1.38
  -4   6  22   28.71    1.41
  -4  -6 -22   30.10    1.27
   4   6 -22   27.00    1.30
   4   6 -22   32.02    1.30
  -4   6 -22   30.23    1.41
   4   6  22   29.60    1.37
   4   6  22   27.92    1.35
  -4   6 -22   27.71    1.19
  -4   6 -22   29.22    1.34
  -4  -6  22   30.93    1.32
   4  -6 -22   27.53    1.36
  -6  -6 -22   16.80    0.91
  -8  -6 -22    7.34    0.47
   1  -7  22    3.04    0.48
  -1   7  22    2.54    0.54
   1  -7  22    2.25    0.49
  -1  -7 -22    3.04    0.52
  -1  -7 -22    3.25    0.57
   1   7 -22    1.87    0.48
  -1   7 -22    3.35    0.58
  -1  -7  22    2.48    0.44
   1  -7 -22    2.72    0.53
   1   7  22    1.95    0.47
   3  -7  22    1.96    0.48
  -3   7  22    2.12    0.49
   3   7 -22    1.60    0.41
   3  -7  22    2.96    0.47
  -3   7  22    2.15    0.46
   3   7 -22    1.63    0.44
  -3  -7 -22    1.69    0.46
  -3  -7 -22    2.22    0.44
  -3   7 -22    2.52    0.52
   3  -7 -22    1.98    0.47
   3   7  22    1.68    0.46
  -3  -7  22    2.74    0.48
   3  -7 -22    1.62    0.47
  -3   7 -22    2.22    0.48
   3   7  22    2.60    0.53
  -5  -7 -22    1.06    0.35
  -7  -7 -22    0.55    0.25
   0  -8 -22   31.43    1.40
   0  -8 -22   32.73    1.38
   0  -8  22   29.28    1.36
   0   8  22   28.65    1.37
   0   8 -22   30.76    1.49
   0  -8  22   33.31    1.30
   2  -8  22   28.05    1.33
   2   8 -22   25.92    1.31
  -2   8  22   26.44    1.32
   2  -8  22   27.08    1.14
   2   8  22   29.23    1.33
  -2   8 -22   26.66    1.37
  -2  -8  22   27.26    1.21
   2  -8 -22   25.94    1.29
  -4  -8 -22   22.24    0.98
  -6  -8 -22   12.14    0.65
   1   0 -23   20.55    1.03
  -1   0 -23   18.94    0.99
  -1   0  23   19.11    1.02
  -1   0 -23   20.19    1.56
  -1   0  23   19.03    1.04
   1   0  23   17.08    0.96
   1   0  23   18.14    1.47
   1   0  23   18.18    0.96
   1   0 -23   20.44    0.98
   1   0  23   20.17    0.87
   1   0 -23   17.93    1.45
  -1   0  23   16.50    1.61
  -1   0  23   18.73    0.82
  -3   0  23   13.53    0.85
   3   0  23   13.80    0.87
  -3   0  23   14.59    0.80
  -3   0  23   14.07    0.86
  -3   0  23   13.38    0.74
  -3   0 -23   13.52    0.88
   3   0  23   13.72    0.79
  -3   0 -23   13.40    0.80
  -3   0 -23   13.86    0.80
   3   0 -23   14.35    0.93
  -3   0  23   13.04    0.93
  -3   0 -23   13.26    0.88
   3   0 -23   14.36    0.81
   3   0  23   13.03    0.87
  -3   0  23   13.41    0.94
  -5   0 -23    7.68    0.80
  -5   0  23    7.15    0.65
  -5   0  23    8.05    0.76
  -5   0 -23    8.18    0.74
  -5   0  23    6.59    0.82
  -5   0  23    8.05    0.88
   5   0  23    9.03    0.84
   5   0  23    8.80    0.76
   5   0  23    7.03    0.77
  -5   0 -23    7.62    0.81
   5   0 -23    6.64    0.78
  -5   0 -23    8.76    0.91
  -5   0  23    7.22    0.78
  -5   0 -23    7.30    0.72
  -5   0  23    8.37    0.81
  -7   0 -23    2.93    0.47
  -7   0  23    3.42    0.51
   0   1  23    6.05    0.51
   0   1  23    4.13    0.58
   0   1  23    5.98    1.00
   0   1 -23    5.13    0.58
   0   1 -23    5.67    0.62
   0  -1  23    4.22    0.84
   0  -1  23    4.16    0.47
   0  -1  23    4.58    0.57
   0   1 -23    6.15    0.96
   0  -1 -23    4.58    0.88
   0   1  23    4.93    0.62
   0  -1 -23    5.06    0.56
   0  -1 -23    4.20    0.55
   0  -1  23    5.91    0.65
   2  -1  23    3.95    0.53
  -2  -1 -23    4.80    0.57
   2  -1  23    5.92    1.00
   2  -1  23    4.77    0.59
   2   1 -23    4.03    0.56
   2  -1  23    4.46    0.52
  -2   1  23    4.75    0.95
  -2  -1 -23    3.48    0.86
   2   1 -23    4.76    0.54
  -2   1  23    4.41    0.62
   2   1 -23    3.97    0.92
  -2   1  23    4.89    0.58
  -2  -1 -23    3.87    0.55
  -2   1  23    3.36    0.56
  -2  -1 -23    4.99    0.55
   2   1  23    4.57    0.50
   2  -1 -23    4.03    0.57
   2   1  23    3.58    0.55
   2   1  23    3.31    0.51
  -2   1 -23    7.19    1.11
   2   1  23    5.23    0.97
  -2  -1  23    4.66    0.51
  -2   1 -23    4.40    0.58
   2  -1 -23    4.49    0.51
   2  -1 -23    5.10    0.91
  -2  -1  23    4.43    0.64
   2  -1 -23    5.56    0.61
  -2  -1  23    5.06    0.64
  -2   1 -23    4.58    0.51
  -2   1 -23    4.39    0.56
   4  -1  23    3.95    0.58
  -4   1  23    2.16    0.48
  -4   1  23    3.03    0.51
  -4   1  23    3.13    0.60
   4  -1  23    2.82    0.48
  -4  -1 -23    4.02    0.54
  -4  -1 -23    2.71    0.53
  -4   1  23    3.11    0.46
  -4  -1 -23    3.43    0.50
   4   1 -23    3.42    0.52
  -4  -1 -23    2.58    0.50
  -4   1  23    3.54    0.55
   4  -1  23    3.79    0.55
  -4  -1 -23    3.46    0.54
   4   1 -23    3.89    0.63
  -4   1  23    3.60    0.61
  -4   1 -23    2.69    0.52
   4   1  23    2.51    0.50
   4   1  23    3.69    0.57
  -4   1 -23    2.75    0.46
  -4   1 -23    2.83    0.46
   4  -1 -23    3.58    0.60
  -4   1 -23    2.42    0.50
  -4   1 -23    2.73    0.53
   4   1  23    3.60    0.50
  -4  -1  23    4.24    0.59
  -4  -1  23    3.48    0.53
  -4  -1  23    3.61    0.48
  -4  -1  23    3.72    0.62
  -4  -1  23    2.21    0.52
   6   1 -23    2.32    0.48
  -6   1  23    1.57    0.44
  -6   1  23    1.62    0.37
   6   1 -23    2.59    0.52
  -6  -1 -23    1.79    0.42
  -6   1  23    1.79    0.51
  -6  -1 -23    1.53    0.43
  -6  -1 -23    2.73    0.56
  -6  -1 -23    1.22    0.37
  -6   1  23    2.04    0.52
  -6   1  23    1.49    0.44
   6  -1  23    1.62    0.42
  -6   1  23    1.30    0.48
  -6   1 -23    2.06    0.51
  -6   1 -23    2.12    0.44
  -6   1 -23    1.41    0.46
  -6   1 -23    0.91    0.41
   6  -1 -23    1.34    0.46
  -6  -1  23    2.01    0.47
  -6  -1  23    1.88    0.39
  -6  -1  23    1.45    0.46
  -6  -1  23    1.51    0.49
  -6  -1  23    1.38    0.45
   6   1  23    2.93    0.54
   6   1  23    1.09    0.42
   6   1  23    1.97    0.43
  -8  -1 -23    0.95    0.30
  -8   1  23    0.93    0.34
  -8  -1  23    1.06    0.35
  -1   2  23    5.87    0.67
   1  -2  23    3.99    0.84
  -1  -2 -23    5.51    0.56
  -1  -2 -23    5.80    1.01
  -1  -2 -23    5.15    0.58
   1  -2  23    6.06    0.64
   1   2 -23    5.37    0.89
  -1   2  23    5.35    0.59
  -1  -2 -23    6.65    0.69
   1   2 -23    5.08    0.56
   1  -2  23    5.77    0.57
   1   2 -23    6.03    0.69
  -1   2  23    7.07    1.11
   1  -2  23    6.25    0.64
  -1   2  23    5.39    0.65
   1  -2 -23    5.05    0.61
  -1  -2  23    5.74    0.66
   1   2  23    6.25    1.05
  -1   2 -23    5.79    0.65
  -1  -2  23    5.43    0.63
  -1  -2  23    6.58    0.60
  -1  -2  23    7.90    1.10
   1   2  23    5.60    0.66
   1  -2 -23    5.28    0.61
  -1   2 -23    6.19    0.67
   1   2  23    5.15    0.63
  -1   2 -23    8.34    1.14
   1  -2 -23    6.11    0.59
   1  -2 -23    6.45    1.07
  -3  -2 -23    3.46    0.50
  -3   2  23    3.77    0.51
  -3  -2 -23    4.29    0.61
  -3   2  23    3.80    0.57
   3   2 -23    5.38    0.57
  -3   2  23    4.15    0.48
   3   2 -23    3.80    0.57
   3  -2  23    4.31    0.54
  -3   2  23    3.62    0.59
  -3   2  23    4.00    0.64
  -3  -2 -23    3.77    0.56
   3  -2 -23    4.21    0.52
   3  -2 -23    3.99    0.56
  -3   2 -23    3.38    0.55
  -3  -2  23    3.83    0.53
   3   2  23    4.23    0.62
   3   2  23    4.80    0.64
  -3  -2  23    4.79    0.57
  -3  -2  23    4.51    0.66
  -3  -2  23    4.03    0.60
  -3   2 -23    4.21    0.57
  -3   2 -23    4.52    0.60
   3   2  23    4.14    0.49
  -3   2 -23    4.16    0.52
   3  -2 -23    4.83    0.67
  -5   2  23    1.87    0.47
  -5  -2 -23    1.74    0.41
  -5   2  23    2.10    0.47
  -5  -2 -23    1.94    0.45
  -5  -2 -23    2.57    0.53
   5  -2  23    1.72    0.40
  -5  -2 -23    2.03    0.49
  -5   2  23    1.80    0.37
  -5   2  23    2.57    0.58
   5   2 -23    2.39    0.48
   5   2 -23    2.11    0.49
  -5   2  23    1.99    0.50
  -5   2  23    2.90    0.61
   5   2  23    2.57    0.44
   5   2  23    2.23    0.51
  -5  -2  23    1.71    0.51
  -5   2 -23    1.73    0.48
  -5  -2  23    2.81    0.54
   5  -2 -23    2.06    0.53
  -5  -2  23    2.65    0.48
  -5  -2  23    2.83    0.44
  -5   2 -23    2.69    0.52
  -5  -2  23    2.64    0.50
  -5   2 -23    1.68    0.41
   5   2  23    2.39    0.52
  -5  -2  23    1.94    0.51
  -5   2 -23    3.01    0.58
  -7  -2 -23    1.54    0.40
  -7   2  23    0.67    0.35
  -7  -2  23    0.87    0.38
   0  -3  23    0.40    0.47
   0  -3 -23    0.12    0.38
   0   3  23    0.12    0.24
   0   3 -23    0.05    0.24
   0   3  23    0.06    0.27
   0  -3  23    0.15    0.25
   0  -3  23    0.12    0.23
   0  -3 -23   -0.20    0.22
   0   3 -23   -0.09    0.18
   0   3  23    0.26    0.27
   0  -3 -23    0.64    0.28
   0   3  23   -0.34    0.35
   0  -3  23   -0.22    0.24
   2   3 -23   -0.02    0.25
   2   3 -23    0.01    0.56
  -2   3  23    0.06    0.26
  -2   3  23    0.03    0.23
  -2  -3 -23    0.34    0.28
  -2   3  23    0.26    0.29
  -2  -3 -23    0.25    0.29
   2  -3  23   -0.02    0.24
  -2  -3 -23    0.33    0.25
  -2   3  23    0.15    0.30
   2  -3  23    0.00    0.24
  -2   3 -23   -0.07    0.24
  -2  -3  23    0.02    0.28
   2  -3 -23    0.20    0.32
  -2  -3  23    0.13    0.25
   2  -3 -23   -0.12    0.22
   2   3  23    0.11    0.26
   2   3  23    0.17    0.29
  -2  -3  23    0.03    0.25
   2  -3 -23    0.31    0.30
  -2   3 -23   -0.06    0.22
  -4  -3 -23    0.40    0.34
   4   3 -23   -0.08    0.26
   4  -3  23    0.07    0.26
  -4  -3 -23    0.09    0.24
  -4  -3 -23    0.39    0.27
  -4   3  23    0.02    0.28
  -4   3  23    0.23    0.34
   4   3 -23    0.10    0.30
  -4   3  23    0.14    0.28
  -4   3  23    0.32    0.32
  -4   3  23   -0.04    0.22
   4  -3 -23    0.17    0.36
  -4   3 -23    0.38    0.27
   4   3  23    0.02    0.30
  -4  -3  23    0.20    0.31
   4  -3 -23   -0.21    0.26
  -4  -3  23    0.26    0.33
  -4   3 -23    0.03    0.30
   4   3  23    0.14    0.28
  -4   3 -23   -0.20    0.26
  -4  -3  23    0.13    0.28
   4   3  23    0.24    0.33
   4  -3 -23   -0.24    0.27
  -4   3 -23    0.09    0.30
  -4  -3  23    0.14    0.30
  -6   3  23    0.01    0.33
  -6   3  23    0.09    0.38
  -6  -3 -23    0.05    0.30
   6  -3  23    0.13    0.27
  -6  -3 -23    0.08    0.32
  -6  -3 -23    0.65    0.39
   6   3 -23   -0.05    0.32
  -6   3  23    0.57    0.35
  -6  -3 -23   -0.02    0.29
  -6   3  23    0.11    0.26
   6   3 -23   -0.37    0.26
  -6   3  23   -0.11    0.34
  -6   3 -23   -0.20    0.29
   6   3  23    0.06    0.32
  -6   3 -23   -0.41    0.33
  -6  -3  23    0.45    0.36
   6   3  23   -0.12    0.28
  -6  -3  23    0.19    0.31
   6   3  23   -0.51    0.27
  -6  -3  23    0.31    0.35
  -6   3 -23    0.11    0.28
  -6   3 -23    0.32    0.34
  -6  -3  23    1.12    0.35
   6  -3 -23   -0.04    0.35
  -6  -3  23    0.16    0.31
  -8  -3 -23    0.18    0.24
  -8  -3  23    0.49    0.29
  -1   4  23    5.12    0.65
   1   4 -23    4.88    0.65
  -1  -4 -23    4.33    0.57
   1  -4  23    5.44    0.59
  -1   4  23    5.17    0.66
  -1  -4 -23    4.64    0.60
  -1   4  23    4.05    0.58
  -1  -4 -23    3.72    0.50
   1   4  23    4.74    0.58
  -1   4 -23    5.03    0.63
  -1   4 -23    4.93    0.62
   1   4  23    4.59    0.62
   1   4  23    4.38    0.61
  -1  -4  23    4.91    0.57
   1  -4 -23    5.51    0.69
   1  -4 -23    3.56    0.47
  -3  -4 -23    4.08    0.57
  -3  -4 -23    4.20    0.57
  -3  -4 -23    3.50    0.58
  -3   4  23    3.81    0.59
  -3   4  23    2.26    0.51
  -3   4  23    5.43    0.71
   3   4 -23    3.67    0.51
  -3   4  23    3.00    0.48
  -3   4  23    3.43    0.46
   3  -4  23    3.72    0.51
   3   4 -23    3.22    0.57
   3  -4  23    2.45    0.47
  -3  -4  23    3.71    0.53
   3  -4 -23    3.76    0.57
   3   4  23    4.21    0.63
  -3   4 -23    4.28    0.55
   3  -4 -23    3.38    0.48
  -3  -4  23    3.76    0.55
  -3   4 -23    4.01    0.62
   3  -4 -23    3.68    0.61
  -3  -4  23    3.60    0.59
   3   4  23    2.85    0.54
  -3   4 -23    4.38    0.59
  -3  -4  23    3.43    0.56
  -5  -4 -23    1.99    0.45
  -5   4  23    2.20    0.53
   5   4 -23    2.69    0.51
  -5   4  23    2.66    0.49
  -5   4  23    2.01    0.38
  -5  -4 -23    1.29    0.44
   5  -4  23    1.39    0.40
   5   4 -23    2.13    0.44
  -5  -4  23    2.36    0.46
   5  -4 -23    2.35    0.42
  -5   4 -23    1.58    0.44
  -5  -4  23    1.71    0.42
  -5  -4  23    0.83    0.41
   5  -4 -23    1.32    0.49
   5   4  23    2.10    0.50
  -5  -4  23    2.84    0.59
  -5   4 -23    2.22    0.42
  -5   4 -23    1.80    0.47
   5  -4 -23    2.43    0.50
  -7  -4 -23    1.02    0.34
  -7  -4  23    1.23    0.37
   0   5  23    2.75    0.52
   0   5  23    2.56    0.49
   0  -5  23    2.49    0.45
   0  -5 -23    2.58    0.42
   0  -5 -23    2.17    0.47
   0   5  23    2.49    0.49
   0   5 -23    2.16    0.44
   0   5 -23    3.05    0.54
  -2   5  23    2.76    0.53
  -2  -5 -23    2.81    0.49
   2  -5  23    2.10    0.42
   2   5 -23    1.37    0.43
  -2  -5 -23    2.47    0.51
  -2   5  23    1.30    0.42
  -2  -5 -23    1.94    0.41
   2  -5  23    2.16    0.45
  -2   5  23    2.22    0.49
   2   5  23    2.63    0.48
  -2   5 -23    1.61    0.45
   2   5  23    2.28    0.49
  -2   5 -23    2.53    0.51
  -2  -5  23    2.80    0.48
   2   5  23    2.12    0.48
   2  -5 -23    2.30    0.39
   2  -5 -23    2.84    0.54
   2  -5 -23    2.58    0.53
  -4   5  23    2.07    0.44
   4  -5  23    1.95    0.47
  -4   5  23    1.36    0.43
  -4   5  23    2.31    0.40
   4   5 -23    1.51    0.40
   4   5 -23    1.85    0.46
  -4  -5 -23    1.52    0.40
   4  -5  23    1.49    0.40
  -4  -5 -23    2.06    0.51
  -4  -5  23    1.23    0.42
   4   5  23    1.90    0.48
  -4   5 -23    1.38    0.42
   4  -5 -23    2.47    0.56
   4  -5 -23    1.55    0.45
   4   5  23    1.61    0.47
  -4  -5  23    1.51    0.43
  -4   5 -23    0.58    0.35
  -4   5 -23    1.47    0.37
  -6  -5 -23    1.30    0.38
  -6  -5  23    1.51    0.39
  -8  -5 -23    0.37    0.23
  -8  -5  23    0.00    0.27
  -1  -6 -23   11.51    0.97
  -1  -6 -23   11.36    0.82
   1   6 -23   11.10    1.00
  -1  -6 -23   10.09    0.72
  -1   6  23   10.03    0.90
   1  -6  23    9.01    0.70
   1  -6  23   11.75    0.95
   1  -6 -23   11.57    0.98
   1   6  23   11.88    0.99
  -1  -6  23   10.26    0.76
  -1   6 -23   10.78    0.91
   1   6  23   10.59    0.92
   1   6  23   12.05    0.98
  -1   6 -23   11.87    1.05
   3  -6  23    7.52    0.69
   3   6 -23    8.27    0.85
  -3   6  23    8.83    0.89
  -3   6  23    8.53    0.75
   3   6 -23    7.60    0.72
   3  -6  23    8.17    0.83
  -3  -6 -23    9.07    0.77
  -3   6  23    7.31    0.64
  -3  -6 -23    8.49    0.87
  -3   6 -23    7.16    0.80
  -3   6 -23    8.07    0.70
   3   6  23    9.67    0.86
  -3  -6  23    9.07    0.81
  -3   6 -23    9.16    0.89
   3  -6 -23    8.31    0.84
   3   6  23    7.23    0.80
   3   6  23    7.58    0.80
   3  -6 -23    6.28    0.75
  -5  -6 -23    4.97    0.60
  -5  -6  23    3.84    0.55
  -7  -6 -23    2.10    0.36
   0   7 -23    1.75    0.46
   0  -7 -23    0.92    0.42
   0  -7  23    1.00    0.36
   0   7  23    1.44    0.45
   0  -7  23    2.03    0.47
   0  -7 -23    1.23    0.42
  -2  -7 -23    1.83    0.39
   2  -7  23    1.89    0.48
   2  -7  23    1.65    0.39
   2   7 -23    1.58    0.47
  -2  -7 -23    1.49    0.45
  -2   7  23    1.13    0.44
  -2  -7  23    1.27    0.39
   2  -7 -23    2.00    0.48
   2   7  23    0.76    0.39
   2   7  23    2.33    0.49
  -2   7 -23    0.96    0.39
   2   7  23    0.52    0.35
  -2   7 -23    1.84    0.50
  -4  -7 -23    0.75    0.32
  -4  -7 -23    1.10    0.42
   4  -7  23    0.92    0.35
  -4   7  23    0.84    0.35
  -4  -7  23    0.66    0.35
   4  -7 -23    1.01    0.41
  -6  -7 -23    0.52    0.27
   1  -8  23    3.12    0.48
  -1  -8 -23    2.10    0.52
  -1   8  23    2.30    0.51
   1   8 -23    2.26    0.51
   1  -8  23    3.41    0.57
   1  -8 -23    3.07    0.57
  -1  -8  23    3.14    0.51
   1   8  23    2.93    0.55
  -1   8 -23    2.82    0.57
  -3  -8  23    2.90    0.50
  -5  -8 -23    1.40    0.32
   0   0  24    5.25    1.00
   0   0 -24    5.64    0.55
   0   0  24    7.22    0.74
   0   0 -24    6.73    1.05
   0   0 -24    6.94    0.67
   0   0  24    7.60    0.75
   0   0 -24    6.88    0.69
   0   0  24    6.45    0.56
  -2   0  24    3.79    0.58
  -2   0  24    4.18    0.61
   2   0 -24    5.83    0.63
   2   0 -24    5.50    0.57
  -2   0  24    5.03    0.98
   2   0  24    4.83    0.62
   2   0  24    5.43    0.56
   2   0 -24    4.83    0.63
  -2   0 -24    5.36    0.56
   2   0  24    5.12    0.63
  -2   0 -24    5.74    0.64
  -2   0 -24    4.97    0.63
  -2   0 -24    3.25    0.85
  -4   0 -24    3.29    0.55
  -4   0  24    2.39    0.48
  -4   0  24    2.44    0.50
  -4   0 -24    3.48    0.51
   4   0  24    2.79    0.51
  -4   0 -24    2.54    0.52
  -4   0  24    3.45    0.46
   4   0 -24    2.33    0.50
   4   0  24    2.45    0.50
  -4   0 -24    3.68    0.58
   4   0  24    2.76    0.48
  -4   0  24    2.79    0.50
  -4   0 -24    3.03    0.48
  -4   0  24    3.53    0.63
  -4   0  24    3.10    0.60
  -6   0 -24    1.35    0.46
  -6   0 -24    1.33    0.37
   6   0 -24    1.44    0.44
   6   0  24    1.00    0.34
  -6   0  24    1.07    0.41
   6   0 -24    0.59    0.37
   6   0  24    1.33    0.42
  -6   0  24    1.49    0.37
  -6   0  24    1.29    0.46
  -6   0  24    1.00    0.40
  -6   0 -24    1.66    0.40
  -6   0 -24    1.13    0.43
  -6   0  24    1.07    0.43
  -8   0  24    0.88    0.32
   1  -1  24   84.74    2.26
   1   1 -24   84.45    2.24
  -1  -1 -24   88.16    3.52
  -1   1  24   83.09    2.52
  -1  -1 -24   87.41    2.50
  -1  -1 -24   84.13    2.27
  -1   1  24   86.02    2.57
  -1   1  24   83.39    3.37
   1   1 -24   83.67    2.47
   1   1 -24   87.66    3.37
   1  -1  24   90.88    2.49
   1  -1  24   86.89    2.49
   1   1 -24   84.50    2.38
   1  -1  24   86.63    3.46
   1  -1 -24   83.13    3.37
   1  -1 -24   82.72    2.25
  -1  -1  24   88.04    2.54
   1   1  24   85.90    3.45
  -1   1 -24   88.45    2.40
   1   1  24   85.81    2.50
   1   1  24   86.63    2.18
  -1  -1  24   85.08    3.31
  -1  -1  24   86.61    2.50
  -1   1 -24   79.39    3.29
  -1  -1  24   89.63    2.28
   1  -1 -24   86.09    2.44
   1   1  24   83.71    2.51
  -1   1 -24   83.91    2.47
   1  -1 -24   85.72    2.46
  -1   1 -24   80.27    2.21
  -3   1  24   63.60    2.21
   3  -1  24   67.59    1.98
   3  -1  24   60.72    2.02
  -3   1  24   61.03    2.02
  -3  -1 -24   66.57    2.15
  -3  -1 -24   69.28    2.15
  -3   1  24   66.77    2.27
   3  -1  24   68.26    2.07
   3   1 -24   62.48    2.17
  -3  -1 -24   65.33    1.98
  -3  -1  24   65.93    2.22
   3  -1 -24   62.98    2.15
  -3  -1  24   64.14    1.91
  -3  -1  24   66.42    2.00
  -3   1 -24   62.86    1.89
   3   1  24   66.13    2.16
  -3   1 -24   67.14    1.95
   3   1  24   65.31    1.89
  -3  -1  24   63.61    2.23
  -3   1 -24   64.16    2.07
   3   1  24   62.51    2.09
  -3   1 -24   70.28    2.21
   3  -1 -24   67.09    2.00
  -5   1  24   39.78    1.39
   5   1 -24   38.16    1.51
   5   1 -24   38.17    1.63
   5  -1  24   38.74    1.47
  -5  -1 -24   37.80    1.64
  -5   1  24   41.27    1.53
  -5  -1 -24   40.57    1.52
  -5  -1 -24   39.38    1.56
  -5   1  24   37.00    1.68
  -5  -1 -24   40.45    1.58
  -5   1  24   37.88    1.72
  -5   1  24   40.01    1.51
  -5   1  24   40.36    1.63
  -5  -1 -24   37.28    1.44
  -5  -1  24   34.89    1.37
  -5  -1  24   39.33    1.49
   5   1  24   36.71    1.56
   5   1  24   40.71    1.46
  -5   1 -24   40.32    1.67
  -5  -1  24   36.48    1.65
   5   1  24   38.35    1.60
  -5  -1  24   38.53    1.54
  -5  -1  24   37.53    1.72
  -5   1 -24   41.09    1.62
  -5   1 -24   40.25    1.47
   5  -1 -24   39.74    1.67
  -5   1 -24   39.89    1.62
  -7  -1 -24   21.37    0.97
  -7   1  24   20.29    1.00
  -7  -1  24   20.50    1.01
   0  -2  24    0.01    0.23
   0  -2 -24    0.09    0.21
   0  -2  24   -0.24    0.19
   0   2 -24    0.07    0.25
   0   2 -24    0.30    0.44
   0   2 -24    0.10    0.24
   0  -2 -24    0.65    0.49
   0   2 -24    0.19    0.24
   0  -2 -24    0.38    0.28
   0  -2  24    0.42    0.45
   0   2  24    0.10    0.26
   0  -2  24    0.06    0.22
   0   2  24   -0.23    0.37
   0   2  24    0.39    0.30
   2  -2  24    0.11    0.25
   2   2 -24    0.00    0.24
   2  -2  24    0.13    0.28
  -2   2  24    0.34    0.30
  -2   2  24    0.41    0.31
  -2   2  24    0.48    0.33
   2  -2  24    0.00    0.26
  -2  -2 -24    0.52    0.27
  -2  -2 -24    0.05    0.26
  -2  -2 -24    0.17    0.24
  -2  -2  24   -0.11    0.26
   2  -2 -24   -0.17    0.23
   2  -2 -24    0.09    0.25
  -2   2 -24    0.34    0.29
   2  -2 -24   -0.13    0.26
  -2  -2  24   -0.02    0.24
   2   2  24    0.07    0.27
  -2  -2  24    0.06    0.24
   2   2  24    0.08    0.26
   4   2 -24    0.12    0.30
  -4  -2 -24    0.16    0.27
  -4   2  24    0.07    0.30
  -4  -2 -24    0.15    0.31
   4  -2  24    0.30    0.29
  -4   2  24    0.36    0.33
   4   2 -24   -0.08    0.27
  -4  -2 -24   -0.16    0.27
  -4   2  24   -0.16    0.29
  -4   2  24    0.54    0.33
  -4   2  24    0.23    0.24
   4  -2 -24    0.17    0.36
   4   2  24    0.41    0.29
  -4   2 -24   -0.25    0.26
  -4  -2  24   -0.02    0.25
  -4  -2  24    0.07    0.31
   4   2  24   -0.15    0.26
   4  -2 -24   -0.29    0.27
  -4   2 -24    0.04    0.31
  -4  -2  24    0.29    0.32
  -4   2 -24    0.26    0.28
  -4  -2  24    0.11    0.26
  -4   2 -24    0.01    0.28
   4   2  24   -0.02    0.32
  -6  -2 -24   -0.20    0.29
  -6  -2 -24    0.61    0.39
  -6   2  24   -0.19    0.35
   6  -2  24   -0.08    0.27
   6   2 -24   -0.12    0.30
  -6   2  24   -0.53    0.28
  -6  -2 -24    0.02    0.27
  -6   2  24    0.07    0.30
  -6  -2 -24    0.22    0.30
  -6   2  24    0.33    0.39
  -6   2  24   -0.01    0.32
   6   2 -24    0.44    0.32
  -6   2 -24    0.11    0.34
   6   2  24    0.26    0.30
  -6  -2  24    0.33    0.34
  -6   2 -24    0.28    0.33
  -6   2 -24   -0.22    0.33
  -6  -2  24    0.37    0.37
   6  -2 -24   -0.30    0.30
   6   2  24    0.37    0.35
  -6  -2  24   -0.19    0.33
  -6  -2  24   -0.06    0.25
  -6   2 -24   -0.13    0.26
  -6  -2  24    0.07    0.33
   6   2  24    0.54    0.37
  -8  -2 -24   -0.04    0.20
   8  -2 -24    0.20    0.24
  -8  -2  24    0.23    0.28
   1   3 -24  111.88    2.80
   1  -3  24  118.59    2.99
  -1   3  24  119.88    3.23
  -1  -3 -24  111.60    2.91
  -1   3  24  121.87    3.26
   1   3 -24  119.81    3.24
  -1  -3 -24  123.25    3.19
   1   3 -24  122.88    3.03
  -1   3  24  118.77    3.07
  -1  -3 -24  120.20    3.05
  -1  -3  24  114.28    2.96
   1  -3 -24  116.49    2.90
  -1  -3  24  118.21    3.14
   1  -3 -24  120.45    3.06
  -1   3 -24  114.75    3.13
  -1  -3  24  119.96    3.11
   1  -3 -24  117.04    3.15
   1   3  24  120.47    3.20
  -1   3 -24  120.93    3.17
   1   3  24  117.93    3.22
  -3  -3 -24   89.53    2.53
  -3  -3 -24   89.76    2.63
   3  -3  24   93.99    2.54
  -3   3  24   89.01    2.40
  -3  -3 -24   94.03    2.75
  -3   3  24   93.85    2.79
  -3   3  24   89.98    2.80
   3   3 -24   91.51    2.78
   3   3  24   95.33    2.77
   3  -3 -24   92.58    2.45
  -3   3 -24   92.34    2.63
   3  -3 -24   93.88    2.65
  -3  -3  24   98.12    2.82
  -3  -3  24   96.86    2.77
   3  -3 -24   90.52    2.74
  -3  -3  24   90.90    2.56
  -3  -3  24   89.67    2.48
   3   3  24   90.46    2.76
  -3   3 -24   94.16    2.51
  -3   3 -24   97.12    2.81
  -5   3  24   52.72    2.00
  -5  -3 -24   54.30    1.87
   5  -3  24   52.53    1.77
   5   3 -24   52.74    1.94
  -5  -3 -24   53.10    1.98
  -5   3  24   53.58    1.69
  -5   3  24   56.72    2.08
  -5   3  24   56.32    1.86
   5   3 -24   53.76    1.83
  -5   3 -24   53.73    1.76
  -5   3 -24   51.16    1.93
   5  -3 -24   52.24    2.01
   5   3  24   52.89    1.98
  -5  -3  24   55.90    2.06
  -5  -3  24   57.07    1.84
   5   3  24   54.83    1.71
  -5  -3  24   54.85    1.79
  -5   3 -24   54.37    1.98
   5   3  24   56.44    2.00
  -5  -3  24   58.60    2.10
   5  -3 -24   54.17    1.70
  -5   3 -24   54.23    1.99
  -7  -3 -24   27.17    1.13
  -7  -3  24   28.79    1.13
   7  -3 -24   26.52    0.99
   0   4  24    0.42    0.31
   0  -4 -24    0.00    0.22
   0   4  24   -0.05    0.26
   0   4 -24   -0.05    0.24
   0   4 -24    0.01    0.26
   0  -4 -24   -0.22    0.24
   0  -4  24    0.42    0.28
   0   4  24    0.68    0.34
  -2  -4 -24    0.14    0.27
  -2   4  24    0.14    0.29
  -2  -4 -24    0.08    0.31
  -2   4  24    0.05    0.31
   2   4 -24   -0.03    0.30
   2  -4  24   -0.31    0.22
  -2   4  24   -0.20    0.28
  -2  -4 -24    0.00    0.24
   2  -4  24    0.03    0.28
  -2  -4  24    0.14    0.30
   2  -4 -24   -0.18    0.28
   2   4  24   -0.19    0.28
   2  -4 -24    0.67    0.36
   2  -4 -24   -0.01    0.23
  -2   4 -24    0.20    0.27
  -2  -4  24    0.07    0.27
  -2  -4  24   -0.01    0.26
   2   4  24   -0.05    0.31
  -2   4 -24   -0.05    0.23
  -4   4  24   -0.10    0.32
   4  -4  24    0.32    0.35
  -4  -4 -24   -0.26    0.24
  -4  -4 -24    0.12    0.34
  -4   4  24    0.24    0.31
   4   4 -24    0.02    0.28
  -4   4  24    0.21    0.35
   4   4 -24    0.19    0.28
   4  -4  24   -0.03    0.28
  -4   4  24    0.14    0.31
  -4   4  24   -0.18    0.23
  -4   4 -24    0.28    0.32
   4   4  24    0.09    0.34
  -4  -4  24    0.56    0.36
  -4   4 -24    0.38    0.32
  -4  -4  24    0.25    0.30
  -4   4 -24   -0.22    0.25
   4  -4 -24    0.15    0.32
   4  -4 -24    0.20    0.27
  -4  -4  24    0.06    0.35
   4   4  24    0.13    0.34
  -4  -4  24    0.51    0.37
   4  -4 -24   -0.10    0.35
  -6  -4 -24   -0.06    0.26
  -6  -4  24   -0.25    0.29
  -8  -4 -24   -0.20    0.19
  -8  -4  24    0.24    0.27
   1  -5  24   55.97    1.82
  -1   5  24   56.37    1.97
   1   5 -24   55.44    2.02
  -1   5  24   54.96    1.97
  -1  -5 -24   56.62    1.78
  -1  -5 -24   56.96    1.91
  -1  -5 -24   58.04    1.95
  -1   5  24   55.26    1.94
   1  -5 -24   53.93    1.94
   1   5  24   56.40    1.98
  -1   5 -24   56.46    2.03
   1   5  24   57.44    1.97
  -1  -5  24   56.76    1.86
  -1   5 -24   57.66    1.94
   1   5  24   54.15    1.86
   1  -5 -24   54.72    1.70
  -3   5  24   43.88    1.72
   3  -5  24   44.33    1.69
   3   5 -24   40.14    1.70
  -3   5  24   42.06    1.45
  -3   5  24   46.48    1.73
  -3  -5 -24   45.53    1.77
  -3   5  24   42.84    1.69
   3  -5  24   41.44    1.53
  -3  -5 -24   45.14    1.59
   3  -5 -24   43.45    1.71
  -3   5 -24   44.50    1.53
  -3  -5  24   43.18    1.62
   3   5  24   46.82    1.77
   3  -5 -24   41.95    1.42
   3   5  24   43.85    1.75
  -3   5 -24   41.97    1.67
   3  -5 -24   44.00    1.70
  -3   5 -24   43.11    1.73
  -5   5  24   26.14    1.07
  -5   5  24   26.32    1.32
  -5   5  24   27.80    1.21
   5  -5  24   27.48    1.30
   5  -5  24   27.12    1.14
  -5  -5 -24   24.70    1.27
   5   5 -24   27.52    1.20
  -5  -5 -24   28.88    1.22
   5   5  24   27.08    1.31
   5  -5 -24   26.10    1.21
   5  -5 -24   25.44    1.30
  -5  -5  24   27.20    1.12
   5   5  24   25.68    1.27
  -5  -5  24   25.64    1.19
  -5   5 -24   27.30    1.28
  -7  -5 -24   14.46    0.76
  -7  -5  24   14.56    0.74
   0   6  24    3.39    0.56
   0  -6 -24    2.15    0.50
   0   6  24    3.59    0.57
   0  -6  24    3.05    0.49
   0   6 -24    3.62    0.61
   0  -6 -24    4.07    0.51
   0   6  24    2.92    0.55
  -2  -6 -24    3.08    0.55
  -2   6  24    2.43    0.53
  -2  -6 -24    2.95    0.50
   2  -6  24    3.93    0.55
  -2  -6 -24    2.60    0.43
   2   6 -24    2.15    0.49
   2  -6  24    2.92    0.52
   2   6  24    2.64    0.52
  -2   6 -24    2.67    0.54
   2  -6 -24    2.63    0.54
  -2   6 -24    2.99    0.52
   2   6  24    2.71    0.54
   2   6  24    2.85    0.53
  -2  -6  24    2.90    0.50
   4  -6  24    1.75    0.46
  -4   6  24    1.27    0.45
  -4   6  24    2.02    0.44
   4  -6  24    1.85    0.41
   4   6 -24    2.01    0.43
  -4  -6 -24    1.68    0.41
   4   6 -24    1.25    0.41
  -4  -6 -24    1.77    0.46
  -4   6  24    2.26    0.39
  -4  -6  24    1.47    0.42
  -4   6 -24    2.37    0.42
  -4   6 -24    1.78    0.45
   4  -6 -24    1.48    0.48
  -4   6 -24    1.85    0.48
   4   6  24    1.91    0.48
   4   6  24    1.60    0.47
   4  -6 -24    1.11    0.42
  -6  -6 -24    0.48    0.30
  -1  -7 -24   37.66    1.49
  -1  -7 -24   36.83    1.53
   1  -7  24   36.39    1.41
   1   7 -24   33.69    1.57
  -1  -7 -24   37.70    1.34
  -1   7  24   39.37    1.61
   1  -7  24   36.86    1.50
  -1   7 -24   37.31    1.64
   1   7  24   37.85    1.54
   1  -7 -24   39.18    1.58
   3  -7  24   31.09    1.37
   3  -7  24   30.69    1.21
   3   7 -24   28.19    1.35
  -3  -7 -24   28.53    1.38
  -3   7  24   28.68    1.37
  -3  -7 -24   30.71    1.23
  -3   7 -24   29.15    1.34
   3   7  24   30.14    1.32
   3  -7 -24   30.21    1.37
  -3   7 -24   30.64    1.40
  -3  -7  24   32.00    1.31
   3   7  24   28.76    1.29
   3   7  24   28.39    1.30
  -5  -7 -24   18.97    0.91
   0   8 -24    0.17    0.32
   0   8  24    0.07    0.32
   0  -8  24    0.35    0.30
   0  -8 -24    0.11    0.33
  -2  -8  24    0.04    0.28
  -4  -8 -24   -0.07    0.25
   1   0 -25   11.44    0.79
   1   0  25   11.14    0.69
  -1   0 -25    9.72    0.86
  -1   0  25   12.57    0.87
  -1   0  25   10.87    0.95
  -1   0 -25   11.65    0.73
   1   0 -25   11.22    0.72
  -1   0  25   11.04    0.67
   1   0 -25   11.72    0.81
   1   0  25   11.42    0.83
   1   0  25   11.63    0.81
  -3   0 -25    8.36    0.82
  -3   0  25    9.64    0.95
   3   0  25    9.61    0.86
  -3   0 -25    8.24    0.83
  -3   0  25    8.74    0.91
   3   0  25    8.87    0.84
  -3   0 -25    7.82    0.70
   3   0 -25    8.19    0.87
   3   0  25   10.08    0.71
   5   0  25    3.49    0.58
  -5   0 -25    4.93    0.60
  -5   0 -25    5.02    0.68
  -5   0  25    6.19    0.70
  -5   0  25    5.77    0.79
   5   0  25    5.34    0.65
  -5   0 -25    4.19    0.63
  -5   0  25    3.66    0.58
  -5   0  25    5.10    0.76
   5   0 -25    4.26    0.69
   5   0  25    4.06    0.56
  -5   0  25    5.07    0.57
   5   0 -25    6.04    0.69
  -5   0 -25    5.03    0.67
  -5   0 -25    3.61    0.52
  -7   0  25    2.16    0.44
   0   1 -25    1.72    0.41
   0  -1 -25    1.77    0.37
   0  -1  25    1.75    0.36
   0  -1 -25    1.67    0.41
   0   1 -25    1.56    0.39
   0   1 -25    1.86    0.36
   0  -1 -25    1.61    0.37
   0  -1  25    2.44    0.49
   0   1  25    1.98    0.45
   0   1 -25    1.55    0.61
   0  -1  25    1.00    0.36
   0   1  25    1.68    0.42
   2   1 -25    1.57    0.43
  -2  -1 -25    0.95    0.37
  -2  -1 -25    1.84    0.38
   2  -1  25    1.38    0.40
   2  -1  25    1.67    0.42
   2  -1  25    1.81    0.38
  -2   1  25    1.91    0.46
  -2   1  25    0.86    0.39
   2   1 -25    1.32    0.38
   2   1 -25    1.61    0.37
  -2  -1 -25    1.51    0.40
  -2   1 -25    0.85    0.35
   2   1  25    1.50    0.35
   2  -1 -25    1.25    0.36
  -2  -1  25    0.56    0.33
   2   1  25    1.85    0.45
  -2  -1  25    0.93    0.32
  -2   1 -25    1.39    0.34
   2  -1 -25    1.27    0.39
   2  -1 -25    0.87    0.30
   2   1  25    1.97    0.45
  -2  -1  25    1.10    0.39
  -4   1  25    0.49    0.27
  -4  -1 -25    1.41    0.38
   4  -1  25    1.39    0.41
   4  -1  25    1.20    0.36
   4  -1  25    0.95    0.38
  -4   1  25    1.29    0.46
   4   1 -25    1.65    0.42
  -4   1  25    1.41    0.42
  -4   1  25    1.36    0.43
  -4   1  25    0.59    0.41
   4   1 -25    0.63    0.37
  -4  -1 -25    0.80    0.37
  -4  -1 -25    0.93    0.36
  -4   1 -25    1.00    0.35
   4  -1 -25    1.16    0.43
  -4  -1  25    0.76    0.40
  -4   1 -25    0.69    0.37
   4   1  25    0.89    0.38
  -4   1 -25    1.54    0.36
  -4  -1  25    1.24    0.41
  -4   1 -25    1.23    0.41
  -4   1 -25    0.68    0.36
  -4  -1  25    1.38    0.43
   4   1  25    1.28    0.42
   4   1  25    1.18    0.36
  -6   1  25    1.68    0.50
  -6   1  25    1.35    0.35
  -6   1  25    1.31    0.42
  -6  -1 -25    0.89    0.39
  -6   1  25    0.48    0.38
   6   1 -25    0.70    0.35
  -6   1  25    0.86    0.41
   6  -1  25    0.76    0.34
   6   1 -25    0.78    0.37
  -6  -1 -25    0.42    0.29
  -6  -1  25    0.39    0.38
  -6  -1  25    0.84    0.39
   6   1  25    0.42    0.36
   6  -1 -25    0.90    0.42
   6   1  25    0.82    0.35
  -6   1 -25    0.38    0.30
  -6   1 -25    0.72    0.38
   6   1  25    0.31    0.34
  -6   1 -25    0.77    0.41
  -6  -1  25    0.81    0.41
  -8  -1  25    0.38    0.28
   8  -1 -25    0.22    0.25
   1   2 -25    2.84    0.51
  -1   2  25    2.97    0.54
  -1  -2 -25    2.11    0.46
  -1  -2 -25    2.83    0.44
   1  -2  25    2.59    0.42
   1  -2  25    2.94    0.50
   1   2 -25    2.29    0.44
  -1   2  25    2.59    0.52
   1  -2  25    3.34    0.53
   1   2 -25    2.25    0.40
   1  -2 -25    3.15    0.50
  -1  -2  25    1.72    0.37
  -1  -2  25    2.16    0.46
   1   2  25    2.32    0.47
   1  -2 -25    2.80    0.50
   1  -2 -25    2.17    0.39
  -1   2 -25    2.15    0.43
   1   2  25    2.90    0.53
  -1  -2  25    2.05    0.46
  -1   2 -25    3.27    0.54
  -1   2 -25    3.33    0.45
   3  -2  25    1.68    0.39
  -3  -2 -25    1.98    0.43
  -3   2  25    1.73    0.46
  -3  -2 -25    1.63    0.41
  -3   2  25    1.38    0.38
  -3  -2 -25    1.65    0.43
  -3   2  25    1.92    0.39
  -3   2  25    1.92    0.50
   3   2 -25    2.12    0.48
  -3  -2  25    1.60    0.45
  -3   2 -25    1.60    0.42
   3   2  25    1.95    0.48
   3  -2 -25    1.26    0.45
   3  -2 -25    2.05    0.41
   3   2  25    1.49    0.37
  -3  -2  25    1.13    0.41
  -3   2 -25    2.23    0.48
  -3  -2  25    1.59    0.39
  -3  -2  25    2.02    0.45
   3   2  25    1.07    0.39
   3  -2 -25    1.18    0.38
  -3   2 -25    2.24    0.43
   5   2 -25    0.59    0.36
  -5   2  25    1.11    0.43
  -5   2  25    1.04    0.35
  -5   2  25    0.76    0.36
   5  -2  25    1.20    0.37
  -5  -2 -25    0.73    0.39
  -5  -2 -25    1.45    0.39
  -5   2  25    1.27    0.47
   5   2 -25    0.81    0.37
  -5   2  25    1.23    0.46
   5   2  25    0.94    0.41
   5  -2 -25    0.82    0.43
   5   2  25    1.07    0.37
   5   2  25    1.45    0.42
  -5  -2  25    0.71    0.39
  -5   2 -25    0.65    0.38
  -5   2 -25    1.01    0.38
  -5  -2  25    0.20    0.37
  -5   2 -25    0.69    0.38
  -5   2 -25    1.21    0.36
  -5  -2  25    0.78    0.40
  -7  -2 -25    0.46    0.28
   7  -2 -25    0.67    0.31
  -7  -2  25    0.69    0.35
   0   3 -25    0.54    0.31
   0   3  25   -0.23    0.26
   0   3  25    0.14    0.32
   0  -3  25    0.07    0.28
   0  -3 -25    0.53    0.29
   0  -3  25    0.30    0.27
   0  -3  25    0.10    0.27
   0   3 -25    0.58    0.29
   0   3  25    0.14    0.27
   0  -3 -25    0.31    0.30
  -2   3  25    0.45    0.33
  -2  -3 -25    0.01    0.25
  -2  -3 -25    0.61    0.34
   2   3 -25    0.45    0.29
  -2   3  25    0.68    0.37
  -2   3  25    0.25    0.31
  -2  -3 -25    0.21    0.26
   2   3 -25    0.05    0.30
   2  -3  25    0.76    0.32
  -2   3 -25    0.45    0.32
   2  -3 -25    0.24    0.29
   2   3  25    0.18    0.29
   2   3  25    0.09    0.29
   2  -3 -25    0.43    0.34
  -2  -3  25   -0.03    0.26
  -2  -3  25    0.41    0.32
   2  -3 -25    0.57    0.29
  -2   3 -25    0.37    0.31
  -2  -3  25   -0.04    0.27
  -4   3  25    0.31    0.34
  -4  -3 -25    0.07    0.26
  -4  -3 -25   -0.08    0.27
   4   3 -25    0.20    0.31
   4  -3  25    0.07    0.28
  -4   3  25   -0.15    0.33
  -4  -3 -25    0.15    0.31
  -4   3  25    0.03    0.35
   4   3 -25    0.05    0.28
  -4   3  25    0.01    0.26
  -4   3  25   -0.04    0.28
  -4   3 -25   -0.17    0.29
   4  -3 -25   -0.19    0.30
  -4   3 -25    0.14    0.29
  -4  -3  25   -0.12    0.32
   4   3  25    0.32    0.34
   4   3  25   -0.07    0.30
  -4   3 -25   -0.30    0.25
  -4  -3  25   -0.12    0.31
  -4  -3  25    0.17    0.29
   4  -3 -25    0.52    0.38
   4  -3 -25    0.40    0.30
  -4  -3  25   -0.22    0.32
  -6  -3 -25    0.10    0.26
   6  -3 -25    0.07    0.27
  -6  -3  25    0.02    0.33
  -8  -3 -25   -0.14    0.18
  -8  -3  25   -0.18    0.24
  -1  -4 -25    1.95    0.46
  -1   4  25    2.03    0.48
  -1  -4 -25    2.15    0.47
  -1   4  25    3.00    0.56
   1  -4  25    2.61    0.46
  -1   4  25    2.26    0.51
   1   4 -25    1.60    0.44
  -1  -4 -25    2.81    0.48
   1   4  25    1.68    0.44
  -1   4 -25    2.48    0.49
   1  -4 -25    2.65    0.53
  -1   4 -25    1.61    0.42
  -1  -4  25    2.42    0.46
   1  -4 -25    2.49    0.43
   1   4  25    2.31    0.47
   1   4  25    1.83    0.46
  -3   4  25    2.35    0.51
  -3  -4 -25    1.62    0.41
   3  -4  25    1.74    0.42
   3   4 -25    1.73    0.47
  -3  -4 -25    1.22    0.42
  -3  -4 -25    2.28    0.47
  -3   4  25    2.37    0.53
  -3   4  25    1.71    0.47
   3  -4  25    1.20    0.40
  -3   4 -25    1.36    0.42
   3  -4 -25    1.79    0.38
   3  -4 -25    1.54    0.45
   3   4  25    1.75    0.48
  -3  -4  25    3.34    0.58
   3   4  25    1.98    0.49
  -3  -4  25    2.03    0.48
  -3  -4  25    1.39    0.41
   3  -4 -25    2.65    0.56
   5  -4  25    1.01    0.35
   5   4 -25    0.89    0.37
  -5   4  25    1.30    0.46
   5  -4  25    1.35    0.44
  -5   4  25    1.57    0.37
  -5  -4 -25    1.10    0.40
  -5  -4 -25    1.10    0.38
   5   4 -25    0.66    0.36
  -5   4  25    1.42    0.39
   5   4  25    0.86    0.41
  -5   4 -25    1.11    0.42
   5   4  25    0.84    0.39
  -5   4 -25    1.38    0.43
   5  -4 -25    1.89    0.51
  -5  -4  25    0.66    0.34
  -5  -4  25    0.93    0.44
  -5  -4  25    0.76    0.38
  -5   4 -25    0.68    0.33
   5  -4 -25    1.10    0.33
  -5  -4  25    1.07    0.44
  -7  -4 -25   -0.08    0.22
  -7  -4  25    0.11    0.31
   0   5  25    1.03    0.39
   0   5  25    1.19    0.40
   0   5  25    1.65    0.42
   0  -5  25    1.60    0.39
   0  -5 -25    0.84    0.31
   0   5 -25    1.23    0.41
   0  -5 -25    1.18    0.41
  -2  -5 -25    0.91    0.40
  -2   5  25    0.56    0.37
  -2   5  25    1.32    0.44
  -2  -5 -25    0.37    0.33
   2  -5  25    1.00    0.36
   2  -5  25    0.90    0.37
  -2   5  25    1.13    0.41
   2   5 -25    0.77    0.39
  -2  -5 -25    0.64    0.29
  -2   5 -25    0.20    0.30
   2   5  25    0.62    0.36
  -2   5 -25    0.32    0.35
   2  -5 -25    0.71    0.30
   2   5  25    1.05    0.41
  -2  -5  25    0.77    0.37
   2  -5 -25    0.81    0.38
   4  -5  25    0.74    0.38
  -4   5  25    0.41    0.33
  -4   5  25    0.28    0.34
  -4   5  25    0.40    0.29
   4  -5  25    0.94    0.36
  -4  -5 -25    0.26    0.35
   4   5 -25    0.47    0.32
   4   5 -25    0.28    0.34
  -4  -5 -25    0.50    0.31
   4  -5 -25    0.80    0.41
   4   5  25    0.50    0.37
  -4   5 -25    0.24    0.32
  -4   5 -25    0.85    0.38
  -4  -5  25    1.26    0.40
   4   5  25    0.51    0.36
   4  -5 -25    0.33    0.33
  -4   5 -25    0.81    0.34
  -6  -5 -25    0.47    0.31
  -6  -5  25    0.27    0.33
   1   6 -25    6.65    0.81
  -1  -6 -25    7.14    0.66
  -1  -6 -25    5.74    0.68
  -1  -6 -25    4.84    0.65
   1  -6  25    5.57    0.63
  -1   6  25    5.74    0.71
   1   6  25    7.37    0.82
  -1   6 -25    7.86    0.78
   1  -6 -25    7.28    0.80
   1   6  25    7.46    0.81
  -1   6 -25    6.83    0.80
   1  -6 -25    7.19    0.64
  -1  -6  25    6.11    0.67
   1   6  25    6.69    0.75
  -3  -6 -25    5.81    0.73
   3  -6  25    4.85    0.60
   3   6 -25    5.72    0.69
  -3   6  25    6.08    0.75
   3  -6  25    4.64    0.64
  -3  -6 -25    6.33    0.67
   3  -6 -25    5.82    0.71
   3   6  25    7.19    0.79
  -3   6 -25    5.82    0.73
  -3  -6  25    5.39    0.63
   3  -6 -25    5.36    0.69
   3   6  25    4.63    0.66
  -3   6 -25    5.04    0.69
  -5  -6 -25    4.19    0.55
  -7  -6 -25    1.55    0.30
   0   7 -25    0.30    0.33
   0  -7 -25    1.25    0.42
   0   7  25    0.40    0.38
   0  -7  25    0.15    0.29
   2   7 -25    0.40    0.35
   2  -7  25    0.04    0.33
  -2   7  25   -0.01    0.32
  -2  -7 -25   -0.01    0.32
  -2  -7 -25    0.59    0.30
   2  -7  25    0.72    0.33
   2   7  25    0.10    0.34
   2   7  25    0.21    0.35
   2   7  25    0.46    0.36
  -2   7 -25    0.22    0.34
  -2   7 -25    0.62    0.35
   2  -7 -25    0.39    0.34
  -2  -7  25    0.27    0.29
  -4  -7 -25    0.17    0.26
  -6  -7 -25   -0.16    0.19
  -1  -8  25    2.20    0.45
  -5  -8 -25    0.74    0.26
   0   0  26   72.23    2.26
   0   0 -26   69.48    2.13
   0   0 -26   67.61    2.18
   0   0  26   68.81    2.24
   0   0 -26   69.36    1.99
   0   0  26   69.75    1.95
  -2   0 -26   57.75    2.03
  -2   0  26   55.68    2.08
  -2   0 -26   59.86    1.85
   2   0 -26   59.60    1.84
   2   0 -26   59.57    1.93
   2   0  26   59.94    2.04
   2   0  26   66.73    2.09
  -2   0  26   62.86    2.12
   2   0 -26   58.97    2.03
   2   0  26   60.75    1.81
  -4   0 -26   42.39    1.67
  -4   0  26   38.95    1.54
   4   0 -26   38.29    1.66
   4   0  26   40.91    1.47
  -4   0 -26   39.04    1.45
   4   0  26   40.25    1.58
  -4   0  26   40.32    1.75
  -4   0 -26   39.41    1.62
   4   0  26   40.50    1.60
  -6   0  26   22.43    1.10
   6   0  26   22.55    1.02
  -6   0 -26   22.72    1.02
   8   0 -26    9.44    0.54
   1  -1  26    2.56    0.48
  -1   1  26    2.66    0.52
   1  -1  26    2.35    0.43
  -1  -1 -26    2.43    0.41
   1   1 -26    2.98    0.46
  -1  -1 -26    3.13    0.53
   1  -1  26    1.96    0.45
   1   1 -26    3.27    0.54
  -1   1  26    1.99    0.47
   1   1 -26    2.51    0.48
   1   1  26    2.20    0.40
   1   1  26    2.60    0.50
   1  -1 -26    1.94    0.42
  -1   1 -26    2.39    0.41
  -1  -1  26    2.74    0.53
   1  -1 -26    2.39    0.42
   1   1  26    2.65    0.55
  -1   1 -26    2.85    0.52
   1  -1 -26    2.80    0.48
  -1  -1  26    2.09    0.47
  -1  -1  26    2.97    0.44
  -3   1  26    1.10    0.42
  -3  -1 -26    2.70    0.51
  -3  -1 -26    2.09    0.44
   3  -1  26    1.62    0.42
   3  -1  26    1.77    0.41
   3  -1  26    2.03    0.45
  -3   1  26    2.47    0.49
   3   1 -26    1.43    0.43
  -3  -1 -26    2.03    0.47
  -3   1  26    1.97    0.50
   3   1  26    1.66    0.44
  -3   1 -26    2.53    0.43
   3  -1 -26    1.11    0.36
  -3  -1  26    1.64    0.46
   3   1  26    1.79    0.38
   3  -1 -26    1.55    0.45
  -3   1 -26    1.06    0.39
  -3  -1  26    2.83    0.57
   3  -1 -26    1.39    0.38
   3   1  26    1.79    0.44
  -3   1 -26    1.51    0.42
  -5   1  26    1.35    0.46
  -5  -1 -26    1.11    0.40
  -5  -1 -26    0.97    0.36
   5   1 -26    1.08    0.41
   5  -1  26    1.54    0.40
  -5   1  26    0.87    0.33
   5   1 -26    1.63    0.42
  -5   1  26    1.17    0.44
  -5   1  26    0.39    0.36
  -5  -1 -26    1.42    0.44
   5   1  26    1.20    0.37
   5   1  26    0.82    0.40
  -5  -1  26    1.14    0.43
  -5   1 -26    1.20    0.42
   5   1  26    1.27    0.41
  -5   1 -26    0.92    0.41
  -5  -1  26    1.33    0.45
  -5   1 -26    1.15    0.35
  -5   1 -26    1.11    0.41
  -5  -1  26    0.69    0.42
   5  -1 -26    1.23    0.44
  -7  -1 -26    0.09    0.25
  -7  -1  26    0.71    0.35
   0   2 -26   59.10    1.77
   0   2 -26   58.98    1.97
   0  -2  26   64.01    1.90
   0   2  26   61.25    2.10
   0  -2  26   61.81    2.00
   0   2  26   64.83    2.16
   0  -2 -26   61.13    1.87
   0  -2 -26   61.88    2.07
   0   2 -26   61.78    2.06
  -2   2  26   53.25    1.81
  -2  -2 -26   56.08    1.85
  -2  -2 -26   55.38    1.93
   2  -2  26   56.80    1.85
  -2   2  26   58.12    2.04
  -2   2  26   56.96    2.04
   2  -2  26   57.33    1.79
  -2  -2 -26   54.32    1.79
   2   2 -26   53.96    1.69
   2   2 -26   54.04    1.98
   2  -2  26   54.54    1.84
  -2   2 -26   53.14    1.94
   2  -2 -26   54.39    1.73
   2   2  26   53.38    1.95
   2   2  26   52.43    1.91
  -2  -2  26   55.15    1.98
  -2  -2  26   54.68    1.95
   2  -2 -26   51.96    1.84
  -2  -2  26   54.09    1.73
   2  -2 -26   53.57    1.89
   4  -2  26   34.35    1.38
  -4   2  26   36.68    1.64
  -4  -2 -26   39.20    1.47
  -4  -2 -26   38.35    1.59
  -4   2  26   35.73    1.64
  -4  -2 -26   37.71    1.52
   4   2 -26   40.11    1.65
  -4   2  26   33.99    1.31
  -4  -2  26   36.69    1.61
   4  -2 -26   38.53    1.40
  -4   2 -26   33.85    1.55
   4   2  26   36.85    1.58
   4  -2 -26   36.41    1.58
  -4  -2  26   36.77    1.65
   4   2  26   39.61    1.36
   4   2  26   35.30    1.53
  -4   2 -26   36.51    1.53
  -4  -2  26   36.48    1.38
  -4   2 -26   33.92    1.36
  -4   2 -26   39.78    1.54
  -4  -2  26   37.45    1.46
  -6  -2 -26   20.69    1.03
   6  -2 -26   22.27    0.98
  -6  -2  26   21.47    1.07
  -8  -2 -26   10.02    0.53
  -1   3  26    1.93    0.48
  -1  -3 -26    2.71    0.52
   1   3 -26    2.53    0.40
  -1   3  26    3.62    0.59
  -1  -3 -26    2.03    0.40
   1   3 -26    2.60    0.46
   1   3 -26    1.59    0.43
  -1   3  26    2.42    0.48
   1  -3  26    2.84    0.48
   1   3  26    2.11    0.48
   1  -3 -26    2.37    0.43
   1  -3 -26    1.45    0.42
  -1   3 -26    2.65    0.47
  -1  -3  26    1.34    0.39
   1   3  26    2.62    0.51
  -1   3 -26    2.57    0.49
  -1  -3  26    2.60    0.50
  -1  -3  26    2.27    0.43
  -3  -3 -26    2.01    0.48
   3   3 -26    1.84    0.50
  -3  -3 -26    1.70    0.41
  -3   3  26    2.18    0.53
  -3   3  26    2.17    0.51
  -3   3  26    1.00    0.38
   3  -3  26    2.02    0.43
  -3  -3 -26    1.29    0.39
  -3  -3  26    1.63    0.45
   3   3  26    1.44    0.45
   3   3  26    1.35    0.45
  -3  -3  26    1.37    0.44
   3  -3 -26    1.45    0.38
  -3  -3  26    2.09    0.43
   3  -3 -26    2.63    0.54
   3  -3 -26    2.64    0.49
  -3   3 -26    1.73    0.47
  -5   3  26    0.55    0.40
   5   3 -26    1.15    0.37
  -5  -3 -26    0.78    0.34
  -5   3  26    0.54    0.40
  -5   3  26    0.42    0.34
  -5   3  26    0.94    0.34
   5  -3  26    1.02    0.35
   5   3 -26    0.87    0.41
  -5   3  26    0.55    0.38
  -5  -3 -26    0.94    0.42
   5   3  26    1.57    0.45
  -5  -3  26    1.83    0.50
  -5  -3  26    1.16    0.38
  -5   3 -26    0.83    0.38
   5  -3 -26    0.44    0.29
  -5  -3  26    1.55    0.47
  -5   3 -26    1.10    0.40
  -5   3 -26    0.86    0.35
   5   3  26    1.11    0.43
  -5  -3  26    0.98    0.41
   5  -3 -26    1.01    0.44
  -7  -3 -26    0.40    0.26
  -7  -3  26    0.51    0.33
   7  -3 -26    0.29    0.24
   0  -4 -26   50.74    1.85
   0  -4 -26   53.49    1.70
   0   4 -26   54.99    1.96
   0   4 -26   51.24    1.78
   0  -4  26   54.28    1.76
   0   4  26   51.49    1.78
   0   4  26   48.38    1.87
   0   4  26   49.58    1.89
   2  -4  26   43.15    1.57
  -2   4  26   43.70    1.69
   2   4 -26   46.70    1.82
  -2  -4 -26   45.33    1.61
  -2  -4 -26   46.68    1.72
  -2   4  26   46.47    1.81
  -2  -4 -26   45.22    1.70
  -2   4  26   46.60    1.78
  -2  -4  26   45.17    1.61
  -2   4 -26   44.07    1.69
   2  -4 -26   45.17    1.51
   2  -4 -26   44.10    1.72
   2   4  26   42.79    1.74
   2   4  26   44.30    1.75
   2  -4 -26   45.55    1.68
  -2   4 -26   45.11    1.76
  -4   4  26   32.43    1.47
   4  -4  26   28.71    1.32
  -4  -4 -26   33.57    1.35
   4   4 -26   30.30    1.41
  -4   4  26   29.32    1.38
  -4   4  26   28.48    1.39
  -4   4  26   30.01    1.18
  -4   4 -26   30.33    1.24
   4  -4 -26   31.22    1.19
  -4  -4  26   32.25    1.43
  -4   4 -26   31.21    1.35
   4  -4 -26   30.21    1.42
  -4  -4  26   29.93    1.28
  -4  -4  26   31.96    1.44
   4  -4 -26   29.13    1.30
  -6  -4 -26   17.71    0.92
  -6  -4  26   17.92    0.91
  -1  -5 -26    1.29    0.41
  -1   5  26    1.41    0.43
  -1  -5 -26    1.83    0.41
  -1   5  26    1.98    0.49
  -1   5  26    1.86    0.48
   1   5 -26    2.10    0.49
   1  -5  26    1.41    0.38
   1   5  26    1.75    0.47
   1   5  26    0.56    0.36
  -1  -5  26    1.84    0.44
  -1   5 -26    1.53    0.46
   1   5  26    1.63    0.44
  -1   5 -26    1.69    0.44
   1  -5 -26    1.70    0.44
   1  -5 -26    1.87    0.39
  -3  -5 -26    0.85    0.33
   3   5 -26    0.97    0.40
  -3   5  26    1.15    0.44
   3  -5  26    1.09    0.36
  -3  -5 -26    1.05    0.39
  -3   5  26    1.33    0.46
  -3   5  26    1.39    0.44
   3  -5  26    1.74    0.46
   3   5  26    1.47    0.43
   3  -5 -26    0.88    0.40
  -3   5 -26    0.54    0.34
   3  -5 -26    1.24    0.44
  -3  -5  26    1.66    0.41
   3   5  26    1.67    0.44
   3  -5 -26    1.29    0.34
  -5  -5 -26    0.50    0.31
  -7  -5 -26    0.23    0.22
   0  -6 -26   38.21    1.36
   0   6  26   36.56    1.52
   0   6  26   36.16    1.51
   0   6  26   38.52    1.55
   0  -6 -26   38.72    1.55
   0   6 -26   33.25    1.56
   0  -6  26   35.81    1.42
  -2  -6 -26   30.90    1.33
   2   6 -26   29.71    1.44
  -2  -6 -26   36.32    1.34
  -2  -6 -26   33.09    1.44
  -2   6  26   33.32    1.46
   2   6  26   29.41    1.37
  -2  -6  26   33.24    1.36
  -2   6 -26   32.94    1.42
   2   6  26   33.24    1.36
  -2   6 -26   32.24    1.45
   2   6  26   32.02    1.42
   2  -6 -26   30.27    1.39
  -4  -6 -26   26.28    1.16
  -6  -6 -26   13.58    0.72
   1   7 -26    2.14    0.50
   1  -7  26    1.58    0.40
  -1  -7 -26    1.44    0.45
  -1  -7 -26    1.08    0.33
  -1  -7 -26    1.76    0.45
  -1   7  26    1.23    0.43
   1   7  26    0.51    0.37
   1  -7 -26    1.68    0.44
  -1  -7  26    1.40    0.40
  -1   7 -26    1.05    0.41
  -3  -7 -26    0.87    0.32
  -5  -7 -26    0.19    0.25
  -4  -8 -26   16.71    0.78
  -1   0 -27   13.90    0.92
   1   0  27   13.06    0.91
  -1   0 -27   13.03    0.80
  -1   0  27   13.85    0.96
   1   0  27   14.27    0.79
   1   0 -27   13.16    0.80
   1   0  27   13.12    0.91
   1   0 -27   15.14    0.93
   1   0 -27   11.67    0.83
  -1   0  27   15.14    0.96
   3   0  27   10.53    0.73
  -3   0  27    9.37    0.91
  -3   0 -27   11.90    0.86
  -3   0 -27   12.46    0.78
  -3   0 -27   11.01    0.97
   3   0 -27   11.09    0.96
  -3   0  27   11.48    1.03
   3   0 -27   11.33    0.80
   3   0  27    9.81    0.91
   3   0  27   11.17    0.94
   5   0 -27    8.06    0.74
  -5   0 -27    6.59    0.65
   5   0  27    7.25    0.75
  -5   0  27    6.79    0.80
   5   0  27    6.02    0.64
   5   0 -27    6.43    0.75
  -5   0  27    6.76    0.83
  -5   0 -27    7.06    0.75
   5   0  27    7.95    0.78
  -5   0 -27    5.87    0.73
   0   1 -27   24.20    1.17
   0  -1 -27   24.93    1.10
   0  -1 -27   22.40    1.17
   0  -1  27   24.77    1.23
   0   1  27   24.86    1.24
   0   1 -27   22.68    1.02
   0  -1  27   23.50    1.04
   0  -1  27   25.44    1.22
   0   1  27   24.45    1.26
   0   1 -27   24.82    1.19
  -2   1  27   19.25    1.17
   2  -1  27   20.55    0.98
   2   1 -27   20.23    1.03
  -2  -1 -27   22.45    1.07
   2  -1  27   20.06    1.08
   2  -1  27   20.54    1.11
   2   1 -27   20.53    1.01
  -2   1  27   19.94    1.16
   2   1 -27   18.67    1.12
  -2  -1 -27   22.53    1.17
  -2   1 -27   18.35    1.09
   2   1  27   23.17    1.18
   2  -1 -27   21.74    1.04
   2  -1 -27   18.49    1.03
   2  -1 -27   20.76    1.13
  -2  -1  27   21.29    1.18
   2   1  27   21.74    0.97
  -2  -1  27   21.21    0.98
  -2   1 -27   19.38    0.97
  -2  -1  27   20.12    1.17
   2   1  27   22.17    1.18
  -4  -1 -27   13.28    0.95
  -4   1  27   13.45    0.92
  -4  -1 -27   16.00    0.91
  -4  -1 -27   14.71    0.96
   4   1 -27   12.97    0.94
   4  -1  27   13.80    0.84
  -4   1  27   14.57    1.04
  -4   1  27   13.16    1.12
  -4   1 -27   14.70    0.99
   4   1  27   14.73    0.84
   4  -1 -27   13.11    0.96
  -4   1 -27   12.37    0.91
  -4   1 -27   14.33    0.81
  -4  -1  27   13.06    1.12
   4   1  27   12.79    0.89
   4  -1 -27   15.08    0.89
  -4  -1  27   15.03    1.06
   4   1  27   14.34    0.95
  -6  -1 -27    7.68    0.67
   6  -1 -27    8.30    0.69
   8   1 -27    2.89    0.34
   1   2 -27    4.53    0.55
   1   2 -27    4.73    0.67
   1  -2  27    3.77    0.60
   1  -2  27    5.09    0.59
  -1   2  27    5.09    0.70
   1  -2  27    5.87    0.68
  -1  -2 -27    4.42    0.63
   1   2 -27    5.63    0.64
  -1   2  27    5.55    0.71
  -1  -2 -27    5.11    0.57
  -1   2 -27    5.37    0.63
   1  -2 -27    4.33    0.54
  -1  -2  27    5.97    0.64
   1  -2 -27    4.80    0.62
   1   2  27    5.59    0.72
  -1  -2  27    3.82    0.59
  -1   2 -27    5.15    0.56
   1  -2 -27    5.63    0.69
   1   2  27    4.49    0.66
  -1  -2  27    4.61    0.66
  -1   2 -27    5.21    0.67
   3   2 -27    4.16    0.64
   3   2 -27    3.90    0.52
  -3   2  27    4.20    0.66
  -3   2  27    4.14    0.66
  -3  -2 -27    4.12    0.61
  -3   2  27    4.33    0.61
  -3  -2 -27    3.91    0.59
   3  -2  27    3.93    0.54
  -3  -2 -27    3.99    0.56
   3  -2 -27    4.08    0.63
   3   2  27    4.22    0.66
  -3  -2  27    4.23    0.55
  -3  -2  27    4.25    0.66
  -3   2 -27    4.43    0.64
   3  -2 -27    4.42    0.56
   3  -2 -27    3.99    0.56
   3   2  27    2.98    0.54
  -3  -2  27    5.04    0.73
  -5   2  27    2.32    0.42
   5   2 -27    3.31    0.57
  -5  -2 -27    3.10    0.57
  -5   2  27    1.55    0.45
  -5  -2 -27    2.81    0.49
   5   2 -27    2.01    0.45
  -5   2  27    2.53    0.56
   5  -2  27    2.69    0.47
  -5   2  27    2.94    0.56
   5   2  27    2.77    0.47
  -5  -2  27    3.46    0.55
   5  -2 -27    2.17    0.49
  -5  -2  27    2.86    0.56
  -5   2 -27    2.87    0.54
  -5   2 -27    2.47    0.49
  -5   2 -27    2.76    0.52
   5   2  27    1.86    0.45
  -5   2 -27    2.99    0.48
  -5  -2  27    3.26    0.61
   5   2  27    3.42    0.56
   5  -2 -27    2.33    0.43
  -7  -2 -27    1.21    0.29
   7  -2 -27    1.92    0.33
   0   3  27    8.60    0.89
   0   3 -27   11.30    0.97
   0  -3 -27   10.02    0.73
   0   3 -27   10.35    0.88
   0  -3  27    8.99    0.69
   0   3  27   10.60    0.94
   0  -3 -27    9.53    0.89
  -2  -3 -27    9.05    0.84
  -2   3  27   10.42    0.98
  -2  -3 -27    8.12    0.78
  -2  -3 -27    8.96    0.85
  -2   3  27    7.85    0.79
  -2   3  27    9.57    0.94
   2   3 -27    9.22    0.91
   2   3 -27    9.77    0.70
   2  -3  27    9.19    0.70
   2  -3 -27   10.67    0.90
  -2  -3  27    9.76    0.89
   2   3  27    9.10    0.88
  -2   3 -27    9.25    0.89
  -2  -3  27    9.58    0.91
   2  -3 -27    9.35    0.70
  -2  -3  27    9.20    0.79
   2   3  27    7.82    0.84
   2  -3 -27    6.91    0.74
  -4  -3 -27    5.98    0.75
  -4   3  27    6.08    0.78
   4  -3  27    5.51    0.61
  -4  -3 -27    6.42    0.71
  -4   3  27    6.43    0.79
  -4  -3 -27    5.30    0.63
  -4   3  27    6.96    0.79
   4   3 -27    6.06    0.76
  -4  -3  27    6.83    0.68
   4  -3 -27    5.94    0.65
   4  -3 -27    6.59    0.63
  -4  -3  27    5.84    0.74
  -4   3 -27    5.45    0.70
   4  -3 -27    7.08    0.81
  -4  -3  27    7.83    0.86
   4   3  27    4.94    0.65
   4   3  27    6.00    0.72
  -4   3 -27    6.06    0.71
  -6  -3 -27    3.26    0.49
   6  -3 -27    3.56    0.44
   1  -4  27    3.49    0.52
  -1   4  27    3.43    0.60
  -1  -4 -27    3.51    0.59
  -1   4  27    4.39    0.62
  -1   4  27    4.10    0.65
   1   4 -27    3.19    0.55
  -1  -4 -27    3.30    0.52
  -1  -4  27    3.67    0.54
   1   4  27    4.63    0.67
  -1   4 -27    3.37    0.57
   1  -4 -27    4.69    0.55
   1   4  27    3.76    0.62
   1  -4 -27    2.92    0.54
  -1   4 -27    3.63    0.56
   3  -4  27    2.84    0.48
  -3  -4 -27    2.79    0.51
  -3  -4 -27    1.63    0.46
  -3   4  27    2.65    0.52
  -3   4  27    2.93    0.56
  -3   4  27    2.78    0.54
   3   4 -27    2.45    0.53
  -3  -4 -27    3.80    0.56
   3   4 -27    2.92    0.43
   3  -4 -27    2.64    0.44
  -3   4 -27    1.82    0.45
   3   4  27    2.74    0.53
   3  -4 -27    3.19    0.54
   3  -4 -27    2.79    0.54
   3   4  27    2.65    0.53
  -3  -4  27    4.14    0.57
  -5  -4 -27    1.55    0.40
   5  -4 -27    2.28    0.36
  -7  -4 -27    1.30    0.29
   0  -5 -27   17.02    1.01
   0  -5 -27   15.34    0.88
   0   5  27   14.94    0.95
   0   5  27   15.54    1.01
   0   5  27   16.77    1.04
   0   5 -27   15.26    1.03
   0  -5  27   15.90    0.92
  -2  -5 -27   13.86    0.85
  -2   5  27   13.29    0.92
  -2  -5 -27   13.55    0.92
   2   5 -27   13.86    0.96
  -2   5  27   13.85    0.94
  -2  -5 -27   13.32    0.88
   2  -5  27   16.21    0.89
  -2   5  27   13.99    0.97
   2   5  27   13.23    0.96
   2   5  27   13.00    1.06
  -2   5 -27   14.42    0.95
  -2   5 -27   13.85    0.92
   2  -5 -27   12.96    0.77
  -2  -5  27   13.69    0.87
   2  -5 -27   12.57    0.89
  -4  -5 -27   10.38    0.77
   4  -5  27   10.43    0.72
   4  -5 -27   10.34    0.65
  -4  -5  27    9.76    0.75
  -6  -5 -27    5.71    0.56
   6   5 -27    6.29    0.50
   1  -6  27    5.72    0.63
  -1  -6 -27    7.30    0.67
   1   6 -27    5.96    0.75
  -1  -6 -27    5.79    0.67
  -1   6  27    7.80    0.81
  -1   6 -27    5.56    0.72
   1   6  27    5.46    0.68
  -1  -6  27    6.66    0.69
   1  -6 -27    4.98    0.55
   1  -6 -27    7.49    0.78
   1   6  27    6.25    0.72
   1   6  27    7.70    0.80
   3  -6  27    5.75    0.60
  -3  -6 -27    4.94    0.59
  -3  -6  27    5.07    0.60
  -5  -6 -27    3.18    0.45
   0  -7  27   12.64    0.79
   0   7 -27   12.20    0.91
  -2  -7 -27   11.09    0.70
  -4  -7 -27    7.06    0.61
   0   0 -28    8.38    0.78
   0   0  28    7.62    0.81
   0   0  28    8.30    0.87
   0   0 -28    7.40    0.77
   0   0 -28    7.39    0.67
   0   0  28    8.33    0.69
   2   0 -28    7.56    0.76
   2   0 -28    5.62    0.69
  -2   0  28    6.72    0.82
  -2   0 -28    7.98    0.84
   2   0  28    6.75    0.64
   2   0  28    6.32    0.74
   2   0  28    6.84    0.77
   2   0 -28    6.74    0.65
  -2   0 -28    7.06    0.69
  -2   0  28    5.98    0.77
  -4   0 -28    5.45    0.70
   4   0 -28    4.75    0.60
  -4   0  28    4.90    0.71
  -4   0 -28    5.78    0.72
  -4   0  28    5.27    0.74
   4   0  28    5.01    0.59
  -4   0 -28    5.37    0.61
   4   0 -28    5.11    0.69
   4   0  28    5.95    0.70
   4   0  28    5.07    0.68
  -6   0 -28    3.13    0.43
   6   0 -28    3.43    0.47
   1   1 -28   29.04    1.17
  -1  -1 -28   29.52    1.21
   1  -1  28   28.01    1.16
   1  -1  28   28.34    1.33
   1   1 -28   27.54    1.24
  -1   1  28   25.75    1.31
  -1  -1 -28   27.14    1.32
   1  -1  28   26.28    1.28
  -1   1  28   26.41    1.35
   1   1 -28   25.00    1.26
   1  -1 -28   28.39    1.19
   1   1  28   28.70    1.37
  -1  -1  28   27.68    1.35
   1   1  28   26.08    1.30
  -1   1 -28   28.13    1.14
   1  -1 -28   27.79    1.29
  -1  -1  28   28.55    1.34
  -1   1 -28   27.67    1.31
   1  -1 -28   27.10    1.26
  -1  -1  28   29.09    1.16
  -3  -1 -28   22.47    1.06
  -3  -1 -28   21.57    1.13
  -3   1  28   19.48    1.20
  -3  -1 -28   20.34    1.14
   3  -1  28   22.63    1.05
   3  -1  28   21.52    1.11
   3   1 -28   18.37    1.12
   3   1 -28   22.11    1.05
   3  -1  28   21.35    1.14
  -3   1  28   22.02    1.24
  -3   1 -28   21.32    1.16
   3   1  28   21.26    0.98
  -3   1 -28   21.00    0.98
   3  -1 -28   22.34    1.06
   3   1  28   19.92    1.13
   3  -1 -28   18.50    1.12
   3   1  28   22.44    1.16
  -3  -1  28   20.20    1.21
  -3  -1  28   21.88    1.20
   5  -1  28   13.10    0.80
  -5  -1 -28   15.06    0.85
   5   1  28   13.59    0.79
   5  -1 -28   13.31    0.83
  -5  -1  28   13.60    0.95
  -5  -1  28   12.95    0.96
  -7  -1 -28    6.83    0.54
   7   1 -28    6.14    0.53
   7  -1 -28    6.04    0.50
   0   2  28   22.20    1.20
   0   2 -28   20.20    0.95
   0   2 -28   21.12    1.11
   0  -2 -28   22.19    1.05
   0  -2 -28   19.27    1.10
   0  -2  28   19.61    1.10
   0   2 -28   19.26    1.09
   0   2  28   20.66    1.18
   0  -2  28   22.50    1.17
   0  -2  28   22.09    1.03
  -2   2  28   18.84    1.13
  -2  -2 -28   17.30    0.98
   2   2 -28   19.14    1.12
   2   2 -28   18.57    0.93
  -2   2  28   18.19    1.14
  -2  -2 -28   18.58    1.08
   2  -2  28   19.33    0.97
   2   2  28   19.04    1.11
   2  -2 -28   17.20    1.05
   2  -2 -28   17.62    0.94
  -2   2 -28   18.76    1.09
  -2  -2  28   18.64    0.94
  -2  -2  28   15.78    1.02
   2  -2 -28   18.06    1.04
  -2  -2  28   16.93    1.09
   2   2  28   17.64    1.07
   4   2 -28   12.81    0.81
  -4  -2 -28   12.14    0.86
  -4   2  28   11.49    1.05
  -4  -2 -28   11.67    0.98
   4  -2  28   11.56    0.78
   4   2 -28   11.21    1.00
  -4  -2 -28   13.08    0.83
  -4   2  28   11.40    1.04
  -4   2  28   10.63    0.91
  -4   2 -28   11.35    0.93
  -4  -2  28   13.21    0.95
   4   2  28   12.32    0.88
  -4   2 -28   12.27    0.90
  -4  -2  28   10.47    0.98
   4  -2 -28   10.58    0.95
   4   2  28   12.68    0.91
   4  -2 -28   12.92    0.81
  -6  -2 -28    7.05    0.64
   6  -2 -28    6.81    0.59
  -1   3  28    9.91    0.94
   1   3 -28   10.55    0.96
  -1  -3 -28   11.59    0.98
  -1  -3 -28   10.73    0.78
   1  -3  28    8.88    0.78
  -1   3  28    8.93    0.90
   1   3 -28   10.03    0.67
   1   3  28    9.81    0.96
  -1   3 -28   10.67    0.94
   1   3  28   10.95    0.99
  -1  -3  28   10.28    0.93
  -1  -3  28   10.19    0.75
  -1   3 -28   10.03    0.91
  -1  -3  28   11.92    0.99
   1  -3 -28   10.14    0.75
   1  -3 -28   10.47    0.93
  -3   3  28    7.71    0.78
   3   3 -28    7.27    0.81
   3   3 -28    8.41    0.70
  -3   3  28    9.39    0.92
  -3  -3 -28    7.53    0.74
   3  -3  28    7.06    0.70
  -3   3  28    8.58    0.90
  -3  -3 -28    8.30    0.81
  -3  -3 -28    8.22    0.82
   3   3  28    8.15    0.84
   3  -3 -28    7.87    0.80
  -3   3 -28    6.64    0.78
  -3  -3  28    7.11    0.71
  -3  -3  28    8.12    0.83
   3  -3 -28    6.74    0.64
   3   3  28    8.11    0.83
  -3  -3  28    7.39    0.80
   3  -3 -28    7.62    0.76
  -5  -3 -28    4.89    0.58
   5  -3 -28    4.53    0.52
   7   3 -28    2.25    0.32
  -7  -3 -28    2.58    0.35
   7  -3 -28    2.92    0.33
   0   4 -28   17.64    1.07
   0  -4 -28   16.88    1.03
   0   4  28   18.05    1.08
   0  -4  28   16.06    0.91
   0   4 -28   17.51    0.98
   0   4  28   15.91    1.03
   0  -4 -28   16.72    0.91
  -2  -4 -28   13.96    0.86
  -2   4  28   13.57    0.95
   2  -4  28   14.17    0.85
  -2   4  28   16.26    1.05
   2   4 -28   13.90    0.98
  -2   4  28   12.42    0.90
  -2  -4 -28   16.08    0.96
   2   4  28   13.15    0.97
   2  -4 -28   15.63    0.97
   2   4  28   14.94    0.99
  -2  -4  28   15.37    0.91
   2  -4 -28   14.65    0.84
  -2   4 -28   16.16    1.01
   4  -4  28   10.31    0.72
   4   4 -28   10.29    0.67
  -4  -4 -28   10.56    0.77
  -4   4 -28    9.90    0.89
  -4  -4  28   10.03    0.73
   4  -4 -28   10.73    0.69
  -6  -4 -28    6.10    0.56
   6   4 -28    5.56    0.49
  -1  -5 -28   18.37    1.06
  -1   5  28   18.31    1.04
  -1   5  28   17.17    1.05
  -1   5  28   17.79    1.06
   1  -5  28   17.97    0.96
  -1  -5 -28   17.99    0.96
   1   5  28   18.56    1.10
  -1  -5  28   19.15    1.00
   1  -5 -28   19.59    0.93
  -1   5 -28   17.08    1.06
   1  -5 -28   18.37    1.06
  -1   5 -28   19.62    1.06
   1   5  28   17.54    1.08
  -3   5  28   13.51    0.92
  -3  -5 -28   15.72    0.88
   3   5 -28   13.95    0.94
  -3  -5 -28   14.79    0.93
   3  -5  28   15.25    0.86
   3   5  28   14.27    0.96
  -3   5 -28   12.89    0.89
   3  -5 -28   13.35    0.88
   3  -5 -28   15.04    0.79
  -5  -5 -28    9.63    0.67
   0   6 -28    3.74    0.60
   0   6  28    3.98    0.59
   0  -6 -28    5.19    0.57
   0  -6 -28    4.56    0.64
   0  -6  28    3.94    0.56
   0   6  28    5.53    0.69
   0   6  28    5.38    0.67
   2  -6  28    4.38    0.55
  -2  -6 -28    3.51    0.50
  -2  -6  28    4.24    0.57
  -4  -6 -28    3.26    0.46
  -6  -6 -28    2.01    0.33
  -1  -7 -28   12.49    0.72
  -3  -7 -28   11.81    0.71
  -5  -7 -28    6.99    0.50
   1   0  29   10.84    0.71
   1   0 -29   12.06    0.78
  -1   0 -29    9.28    0.89
  -1   0  29   12.29    1.06
   1   0 -29   10.91    0.83
  -1   0  29   11.75    1.03
   1   0 -29   11.48    0.83
   1   0  29   10.52    0.96
  -1   0 -29   10.13    0.73
   1   0  29   10.62    0.94
  -3   0 -29    8.45    0.74
   3   0  29    8.68    0.67
   3   0  29    6.94    0.78
   3   0 -29    8.06    0.72
   3   0 -29    9.21    0.89
   3   0  29    7.49    0.78
  -3   0 -29    8.46    0.85
  -3   0  29    8.72    0.90
  -3   0  29    7.32    0.85
   5   0 -29    6.86    0.67
  -5   0 -29    5.08    0.55
   7   0 -29    2.18    0.34
   0   1 -29    4.00    0.61
   0   1  29    5.15    0.72
   0  -1  29    4.63    0.67
   0  -1 -29    5.05    0.60
   0  -1  29    4.17    0.62
   0   1 -29    5.17    0.58
   0   1 -29    4.68    0.63
   0  -1 -29    6.77    0.76
   0   1  29    4.69    0.67
   0  -1  29    4.30    0.54
   2  -1  29    3.94    0.59
  -2  -1 -29    3.77    0.55
  -2  -1 -29    4.34    0.63
  -2   1  29    3.64    0.63
  -2   1  29    5.16    0.71
   2   1 -29    4.37    0.63
   2  -1  29    4.34    0.56
   2  -1  29    3.78    0.60
   2   1 -29    3.84    0.54
  -2  -1  29    3.24    0.60
   2   1  29    3.05    0.57
   2  -1 -29    4.03    0.60
   2  -1 -29    4.27    0.60
  -2   1 -29    3.97    0.63
  -2   1 -29    4.90    0.57
   2  -1 -29    4.62    0.56
  -2  -1  29    3.82    0.63
   2   1  29    3.91    0.62
  -4   1  29    3.30    0.59
   4   1 -29    2.60    0.53
  -4  -1 -29    2.48    0.43
  -4  -1 -29    3.92    0.58
  -4  -1 -29    2.90    0.52
   4   1 -29    3.41    0.50
   4  -1  29    3.10    0.49
   4  -1 -29    3.55    0.60
   4   1  29    3.17    0.55
  -4   1 -29    3.40    0.57
   4   1  29    2.13    0.46
  -4  -1  29    4.30    0.65
  -4   1 -29    2.61    0.42
   4   1  29    2.42    0.44
   4  -1 -29    4.04    0.56
  -4  -1  29    3.26    0.62
   6   1 -29    2.05    0.37
  -6  -1 -29    1.93    0.35
   6  -1 -29    2.80    0.42
   1  -2  29   18.30    1.03
  -1   2  29   17.28    1.11
   1  -2  29   19.57    1.00
   1   2 -29   21.35    0.96
   1   2 -29   19.06    1.11
  -1  -2 -29   19.02    1.08
  -1   2  29   20.49    1.16
  -1  -2 -29   20.10    1.01
   1   2 -29   18.60    1.01
   1  -2  29   17.52    1.04
   1  -2 -29   20.41    1.01
  -1  -2  29   20.48    1.14
  -1   2 -29   19.92    1.11
  -1   2 -29   19.73    0.91
   1   2  29   16.27    1.04
  -1  -2  29   19.22    0.98
  -1  -2  29   17.18    1.04
   1  -2 -29   18.01    1.06
   1   2  29   18.91    1.11
   3   2 -29   16.27    1.04
  -3  -2 -29   16.03    0.93
  -3  -2 -29   15.06    0.95
   3  -2  29   14.18    0.87
  -3  -2 -29   15.21    0.97
   3   2 -29   14.61    0.86
  -3   2  29   16.39    1.06
  -3   2  29   16.33    1.08
   3  -2 -29   15.34    0.99
   3  -2 -29   13.28    0.88
  -3  -2  29   14.14    0.98
   3   2  29   14.55    0.98
   3  -2 -29   15.81    0.89
  -3  -2  29   14.77    1.02
   3   2  29   14.65    0.99
  -3   2 -29   14.46    0.97
  -5  -2 -29    8.54    0.73
   5   2 -29   10.72    0.70
   5  -2 -29    9.63    0.67
  -7  -2 -29    3.99    0.39
   7   2 -29    4.26    0.40
   7  -2 -29    5.24    0.42
   0   3  29    8.31    0.89
   0   3 -29   12.22    0.97
   0   3 -29    8.36    0.83
   0   3  29   10.22    0.97
   0  -3 -29   11.21    0.76
   0  -3 -29    8.57    0.83
   0  -3  29   10.41    0.72
  -2  -3 -29    9.41    0.89
   2   3 -29    9.50    0.67
  -2   3  29    9.09    0.92
  -2  -3 -29   10.16    0.85
   2  -3  29    8.49    0.75
  -2   3  29    8.81    0.88
   2   3 -29    8.06    0.86
  -2  -3  29    9.75    0.89
   2  -3 -29    9.19    0.78
   2   3  29   10.37    0.97
   2  -3 -29    9.34    0.84
  -2   3 -29    7.30    0.79
   2  -3 -29    7.93    0.78
  -2  -3  29    8.58    0.87
  -2  -3  29    9.26    0.78
   2   3  29   10.54    0.96
  -4  -3 -29    7.27    0.70
   4   3 -29    6.81    0.63
   4  -3  29    5.11    0.59
   4  -3 -29    7.12    0.65
   6   3 -29    3.78    0.44
  -6  -3 -29    3.14    0.44
   6  -3 -29    3.89    0.42
  -1  -4 -29   17.03    0.94
  -1   4  29   15.41    1.02
  -1   4  29   15.92    1.01
   1   4 -29   16.25    1.02
  -1  -4 -29   15.23    0.98
   1  -4  29   14.42    0.88
  -1  -4  29   15.78    0.90
  -1   4 -29   17.39    1.02
   1  -4 -29   15.54    0.86
  -1   4 -29   13.89    0.95
   1  -4 -29   15.05    0.98
   1   4  29   15.43    1.03
   1   4  29   15.56    1.02
   3  -4  29   12.82    0.80
  -3   4  29   12.80    0.89
   3   4 -29   14.02    0.96
  -3   4  29   13.67    0.97
   3   4 -29   12.54    0.71
  -3  -4 -29   14.07    0.85
  -3  -4 -29   11.19    0.82
  -3   4  29   11.85    1.01
   3  -4 -29   11.59    0.72
   3   4  29   12.45    0.92
   3  -4 -29   12.28    0.87
  -3  -4  29   12.32    0.80
   3  -4 -29   11.81    0.84
   3   4  29   12.81    0.91
  -3   4 -29   11.82    0.99
   5   4 -29    7.40    0.55
  -5  -4 -29    8.12    0.69
   5  -4 -29    7.66    0.55
   0  -5 -29    2.60    0.52
   0  -5 -29    2.47    0.45
   0   5  29    3.49    0.58
   0   5 -29    4.05    0.63
   0   5  29    2.43    0.53
   0  -5  29    2.57    0.46
  -2   5  29    2.99    0.56
  -2  -5 -29    2.54    0.45
   2   5 -29    1.96    0.50
  -2  -5 -29    2.37    0.49
   2  -5  29    2.55    0.44
  -2   5 -29    2.68    0.50
   2  -5 -29    2.01    0.38
   2  -5 -29    1.44    0.43
   2   5  29    2.41    0.51
  -2  -5  29    2.10    0.44
   2   5  29    2.88    0.56
  -4  -5 -29    2.29    0.44
   4  -5 -29    1.85    0.35
  -6  -5 -29    1.07    0.28
   1  -6  29    6.76    0.67
  -1  -6 -29    6.63    0.62
  -1  -6  29    7.38    0.71
   1  -6 -29    6.62    0.60
  -3  -6 -29    5.59    0.58
  -5  -6 -29    3.60    0.44
  -2  -7 -29    1.58    0.35
  -4  -7 -29    1.48    0.32
   0   0 -30    2.51    0.49
   0   0 -30    3.01    0.48
   0   0  30    3.35    0.57
   0   0  30    2.82    0.53
  -2   0  30    2.51    0.54
   2   0 -30    3.07    0.53
   2   0  30    2.12    0.49
   2   0  30    3.25    0.49
  -2   0  30    2.71    0.55
  -2   0 -30    3.35    0.50
  -2   0 -30    3.25    0.59
   2   0  30    3.38    0.58
   2   0 -30    2.06    0.48
   2   0 -30    2.87    0.46
  -4   0 -30    1.45    0.37
  -4   0  30    1.94    0.47
   4   0 -30    0.94    0.37
  -4   0  30    1.62    0.47
   4   0  30    2.25    0.41
   4   0 -30    0.63    0.37
   6   0 -30    1.43    0.34
   1   1 -30   35.23    1.31
  -1   1  30   32.14    1.50
  -1  -1 -30   32.90    1.31
   1  -1  30   35.62    1.51
  -1  -1 -30   32.82    1.47
   1  -1  30   33.70    1.30
   1   1 -30   34.38    1.42
  -1   1  30   32.62    1.53
   1  -1  30   31.51    1.41
   1   1 -30   32.49    1.43
  -1  -1  30   29.92    1.47
  -1   1 -30   33.42    1.48
   1  -1 -30   34.01    1.32
  -1   1 -30   35.27    1.28
   1  -1 -30   32.60    1.41
   1  -1 -30   32.23    1.39
   1   1  30   33.63    1.50
   1   1  30   31.96    1.46
  -1  -1  30   33.68    1.49
  -3  -1 -30   23.56    1.24
   3   1 -30   26.62    1.33
  -3  -1 -30   27.41    1.18
  -3   1  30   27.07    1.39
   3   1 -30   26.97    1.15
  -3   1  30   29.82    1.41
   3  -1  30   28.03    1.18
   3   1  30   25.40    1.29
   3  -1 -30   27.45    1.17
   3  -1 -30   24.00    1.24
   3   1  30   27.69    1.30
  -3  -1  30   26.74    1.32
  -3   1 -30   28.40    1.13
  -3   1 -30   26.65    1.31
  -3  -1  30   26.67    1.36
   5   1 -30   17.62    0.89
  -5  -1 -30   16.74    0.85
   5  -1 -30   17.48    0.87
   7   1 -30    8.57    0.49
   7  -1 -30    8.06    0.47
   0  -2 -30    3.92    0.60
   0   2  30    2.99    0.58
   0  -2  30    2.92    0.48
   0   2 -30    2.07    0.46
   0   2 -30    3.87    0.58
   0  -2 -30    3.65    0.52
   0  -2  30    2.44    0.50
   0   2  30    2.61    0.54
   0   2 -30    3.14    0.47
   0  -2  30    2.94    0.54
   2   2 -30    1.82    0.45
   2  -2  30    2.82    0.47
  -2  -2 -30    2.53    0.49
  -2   2  30    3.03    0.58
  -2  -2 -30    2.60    0.47
  -2   2  30    2.66    0.56
   2   2 -30    2.70    0.45
  -2  -2  30    2.68    0.54
   2   2  30    2.89    0.56
   2  -2 -30    2.72    0.48
   2  -2 -30    2.01    0.46
  -2  -2  30    2.32    0.54
   2   2  30    2.36    0.53
  -2  -2  30    2.54    0.46
  -2   2 -30    3.49    0.58
   2  -2 -30    2.73    0.52
   4   2 -30    1.83    0.40
  -4  -2 -30    2.64    0.45
   4  -2 -30    2.41    0.45
  -6  -2 -30    0.89    0.29
   6   2 -30    1.17    0.31
   6  -2 -30    1.37    0.29
  -1   3  30   25.57    1.33
   1   3 -30   28.87    1.37
  -1  -3 -30   30.80    1.28
   1  -3  30   30.36    1.24
  -1   3  30   28.44    1.40
   1   3 -30   30.78    1.13
  -1  -3 -30   28.72    1.35
   1  -3 -30   28.73    1.21
   1  -3 -30   27.61    1.31
   1   3  30   28.33    1.39
  -1  -3  30   28.93    1.21
   1   3  30   29.38    1.39
  -1   3 -30   27.08    1.31
   3  -3  30   24.15    1.08
   3   3 -30   22.35    0.98
  -3   3  30   22.61    1.22
  -3  -3 -30   22.61    1.13
  -3  -3 -30   23.82    1.12
  -3   3  30   22.64    1.25
   3   3 -30   23.26    1.21
   3  -3 -30   20.98    1.13
  -3   3 -30   22.11    1.18
   3  -3 -30   24.96    1.06
   3   3  30   23.99    1.24
   3   3  30   20.77    1.15
   5   3 -30   15.23    0.76
  -5  -3 -30   14.76    0.80
   5  -3 -30   14.99    0.74
   0   4  30    2.70    0.55
   0  -4  30    2.97    0.49
   0   4  30    1.34    0.44
   0   4 -30    1.74    0.48
   0  -4 -30    2.79    0.48
   0  -4 -30    3.01    0.54
   2  -4  30    1.93    0.41
  -2   4  30    1.57    0.47
  -2  -4 -30    2.44    0.47
   2   4 -30    2.87    0.57
  -2   4  30    2.64    0.53
  -2  -4 -30    2.42    0.44
   2   4  30    2.63    0.53
   2  -4 -30    2.30    0.41
  -2  -4  30    2.31    0.45
   2   4  30    3.06    0.58
   2  -4 -30    2.75    0.51
  -2   4 -30    1.44    0.43
  -4  -4 -30    1.39    0.38
   4   4 -30    2.23    0.36
   4  -4 -30    1.68    0.34
  -6  -4 -30    0.71    0.26
   6   4 -30    1.45    0.27
   1   5 -30   21.95    1.19
   1  -5  30   22.25    1.06
  -1  -5 -30   24.03    1.06
   1  -5 -30   22.88    1.17
   1  -5 -30   23.61    1.03
  -1  -5  30   25.66    1.12
  -3  -5 -30   20.41    0.97
   3  -5 -30   18.35    0.85
  -5  -5 -30   12.86    0.71
   0  -6 -30    1.98    0.37
  -2  -6 -30    1.66    0.36
   2  -6 -30    2.63    0.40
  -4  -6 -30    1.01    0.28
  -1  -7 -30   17.52    0.79
  -3  -7 -30   13.56    0.68
   1   0 -31   -0.13    0.26
  -1   0 -31    0.05    0.26
   1   0  31   -0.09    0.31
  -1   0  31    0.45    0.35
   1   0 -31   -0.23    0.27
   1   0 -31   -0.07    0.30
  -1   0  31    0.07    0.33
  -1   0 -31   -0.23    0.26
   1   0  31   -0.17    0.33
  -3   0 -31   -0.03    0.25
  -3   0  31   -0.29    0.30
   3   0  31    0.13    0.31
   3   0  31   -0.21    0.29
  -3   0  31    0.34    0.35
  -3   0 -31   -0.04    0.29
   3   0 -31   -0.03    0.27
   3   0  31   -0.15    0.29
   3   0 -31   -0.15    0.30
   5   0 -31   -0.02    0.24
  -5   0 -31    0.35    0.24
   0  -1 -31    3.41    0.55
   0  -1 -31    3.58    0.52
   0  -1  31    3.40    0.48
   0  -1  31    2.92    0.55
   0   1  31    3.88    0.64
   0   1  31    4.63    0.68
   0   1 -31    2.90    0.52
   0   1 -31    3.54    0.48
   0  -1  31    2.96    0.55
   2   1 -31    2.99    0.46
  -2   1  31    3.20    0.59
  -2  -1 -31    3.23    0.51
   2  -1  31    2.13    0.51
   2  -1  31    3.15    0.48
   2  -1  31    2.57    0.51
  -2   1  31    4.36    0.67
  -2  -1 -31    2.72    0.52
   2   1 -31    3.79    0.59
   2   1  31    3.08    0.57
   2  -1 -31    2.99    0.53
  -2  -1  31    3.38    0.61
  -2   1 -31    3.02    0.56
  -2  -1  31    3.03    0.58
   2   1  31    2.86    0.56
   2  -1 -31    2.60    0.45
   2  -1 -31    2.48    0.48
  -2   1 -31    3.66    0.48
  -4  -1 -31    1.56    0.36
   4   1 -31    2.30    0.43
   4  -1 -31    2.94    0.46
  -6  -1 -31    1.27    0.29
   6   1 -31    1.30    0.29
   6  -1 -31    0.72    0.26
  -1   2  31    1.07    0.43
   1  -2  31    1.34    0.37
   1   2 -31    1.80    0.45
  -1  -2 -31    0.85    0.37
  -1   2  31    1.11    0.41
  -1  -2 -31    0.91    0.37
   1   2 -31    1.03    0.33
   1   2  31    0.54    0.39
  -1  -2  31    0.47    0.37
  -1  -2  31    0.67    0.38
  -1  -2  31    1.22    0.36
   1   2  31    1.11    0.41
  -1   2 -31    0.66    0.34
   1  -2 -31    1.01    0.36
  -1   2 -31    1.30    0.34
   1  -2 -31    1.22    0.40
   3   2 -31    1.21    0.35
  -3  -2 -31    0.84    0.32
   3  -2  31    0.49    0.33
   3  -2 -31    0.83    0.32
   5   2 -31    0.48    0.26
  -5  -2 -31    0.91    0.29
   5  -2 -31    0.22    0.24
   0   3  31    6.94    0.81
   0   3 -31    7.07    0.75
   0   3  31    7.80    0.83
   0   3 -31    6.94    0.76
   0  -3 -31    7.98    0.79
   0  -3  31    6.86    0.68
   0  -3 -31    7.34    0.69
   2   3 -31    6.27    0.75
   2  -3  31    6.53    0.65
  -2   3  31    8.04    0.84
   2   3 -31    6.80    0.60
  -2  -3 -31    5.96    0.69
  -2   3  31    5.79    0.75
  -2  -3 -31    7.03    0.68
   2   3  31    6.77    0.75
  -2  -3  31    6.07    0.64
   2  -3 -31    5.66    0.67
   2  -3 -31    6.08    0.64
   2   3  31    7.08    0.77
  -2   3 -31    7.02    0.75
   4   3 -31    4.94    0.52
  -4  -3 -31    3.82    0.51
   4  -3 -31    4.15    0.49
   6   3 -31    2.49    0.32
  -6  -3 -31    2.52    0.34
   6  -3 -31    2.78    0.33
  -1  -4 -31    0.42    0.32
   1  -4  31    0.37    0.31
  -1  -4 -31    0.81    0.33
   1   4  31    1.02    0.44
   1  -4 -31    0.70    0.32
   1   4  31    0.75    0.39
   1  -4 -31    0.73    0.36
  -1  -4  31    0.70    0.35
  -3  -4 -31    0.72    0.32
   3  -4 -31    0.79    0.30
  -5  -4 -31    0.46    0.25
   5   4 -31    0.51    0.23
   5  -4 -31    0.34    0.25
   0  -5 -31    2.34    0.42
  -2  -5 -31    2.18    0.40
   2  -5 -31    2.59    0.39
  -4  -5 -31    1.61    0.36
  -1  -6 -31    0.09    0.25
   1  -6 -31   -0.03    0.24
  -3  -6 -31    0.23    0.25
  -5  -6 -31   -0.05    0.20
  -2  -7 -31    1.62    0.32
   0   0  32   51.95    1.94
   0   0 -32   52.80    1.88
   0   0 -32   52.93    1.69
   0   0  32   52.78    1.93
  -2   0  32   48.32    1.84
   2   0 -32   48.90    1.58
   2   0 -32   45.35    1.70
  -2   0  32   45.58    1.77
  -2   0 -32   49.42    1.59
   2   0  32   41.31    1.67
   2   0  32   44.31    1.71
  -2   0 -32   44.54    1.72
   4   0 -32   33.93    1.25
  -4   0 -32   35.62    1.24
   1  -1  32    0.01    0.31
   1  -1  32   -0.07    0.33
   1   1 -32   -0.16    0.23
  -1  -1 -32    0.10    0.30
  -1   1  32   -0.24    0.31
  -1  -1 -32    0.13    0.27
   1  -1  32   -0.18    0.26
   1   1 -32   -0.20    0.29
   1   1 -32   -0.08    0.28
  -1   1  32   -0.35    0.28
  -1   1 -32    0.07    0.29
   1  -1 -32   -0.11    0.26
   1  -1 -32    0.21    0.30
  -1   1 -32   -0.23    0.23
  -1  -1  32    0.05    0.30
   1   1  32   -0.03    0.33
  -1  -1  32    0.10    0.33
   1   1  32   -0.36    0.27
   3   1 -32    0.12    0.26
  -3  -1 -32   -0.22    0.23
  -3   1 -32   -0.01    0.24
   3  -1 -32   -0.07    0.25
  -5  -1 -32   -0.04    0.21
   5   1 -32    0.12    0.23
   5  -1 -32    0.08    0.23
   0   2  32   32.16    1.46
   0  -2  32   29.05    1.33
   0  -2  32   29.70    1.32
   0  -2  32   30.74    1.22
   0   2  32   30.42    1.40
   0  -2 -32   29.64    1.22
   0   2 -32   31.06    1.15
  -2  -2 -32   29.25    1.21
   2   2 -32   26.57    1.09
   2  -2  32   29.16    1.18
   2  -2 -32   31.74    1.23
  -4  -2 -32   20.63    0.95
   4   2 -32   20.49    0.90
   4  -2 -32   20.82    0.93
   6   2 -32   12.11    0.57
  -6  -2 -32   12.82    0.59
   6  -2 -32   11.73    0.56
   1   3 -32    2.53    0.39
  -1  -3 -32    1.98    0.41
   1  -3  32    1.59    0.38
   1  -3 -32    1.68    0.40
  -1  -3  32    1.83    0.42
   3   3 -32    1.44    0.33
  -3  -3 -32    0.87    0.32
   3  -3 -32    1.72    0.37
  -5  -3 -32    0.64    0.26
   5   3 -32    0.88    0.26
   5  -3 -32    0.94    0.26
   0  -4 -32   27.49    1.16
  -2  -4 -32   23.26    1.06
   2  -4 -32   25.94    1.04
  -4  -4 -32   17.48    0.84
   4  -4 -32   17.61    0.77
  -1  -5 -32    0.25    0.26
   1  -5 -32   -0.16    0.24
  -3  -5 -32    0.00    0.23
   3  -5 -32    0.40    0.24
  -5  -5 -32    0.03    0.19
   0  -6 -32   29.60    1.07
  -2  -6 -32   24.65    0.97
  -4  -6 -32   19.39    0.78
  -1  -7 -32    0.21    0.23
  -3  -7 -32    0.09    0.22
   1   0 -33    0.34    0.28
  -1   0 -33    0.48    0.29
  -3   0 -33    0.05    0.22
   3   0 -33    0.16    0.27
   5   0 -33    0.16    0.21
   0   1  33    1.39    0.42
   0  -1 -33    1.41    0.36
   0  -1 -33    1.38    0.42
   0   1 -33    1.50    0.36
   0   1  33    1.04    0.40
  -2  -1 -33    1.47    0.37
   2   1 -33    1.60    0.34
   2  -1 -33    1.35    0.36
  -2   1 -33    1.21    0.32
  -4  -1 -33    0.83    0.29
   4   1 -33    0.36    0.25
   4  -1 -33    0.97    0.31
   6   1 -33    0.35    0.20
   6  -1 -33    0.36    0.20
  -1  -2 -33    0.25    0.28
   1   2 -33    0.17    0.24
   1  -2 -33    0.27    0.27
  -1   2 -33    0.22    0.26
   3   2 -33    0.59    0.27
  -3  -2 -33    0.11    0.24
   3  -2 -33    0.36    0.27
  -5  -2 -33    0.05    0.21
   5   2 -33   -0.07    0.19
   5  -2 -33    0.07    0.20
   0  -3 -33    4.12    0.53
   2   3 -33    3.71    0.43
  -2  -3 -33    3.44    0.48
   2  -3 -33    4.36    0.52
  -4  -3 -33    2.26    0.38
   4   3 -33    2.28    0.33
   4  -3 -33    2.43    0.37
  -1  -4 -33    0.12    0.27
   1  -4 -33    0.03    0.25
  -3  -4 -33    0.07    0.22
   3  -4 -33   -0.17    0.22
  -5  -4 -33   -0.19    0.17
   0  -5 -33    1.32    0.33
  -2  -5 -33    0.91    0.29
   2  -5 -33    1.08    0.30
  -4  -5 -33    0.59    0.24
  -1  -6 -33    0.60    0.25
   1  -6 -33    0.38    0.25
  -3  -6 -33    0.18    0.22
   0   0 -34    1.51    0.34
   2   0 -34    1.51    0.37
  -2   0 -34    1.06    0.30
   4   0 -34    1.17    0.30
  -4   0 -34    0.49    0.26
   1   1 -34   23.61    0.99
  -1  -1 -34   23.73    1.05
   1  -1 -34   22.96    1.01
  -1   1 -34   24.59    1.01
   3   1 -34   18.53    0.85
  -3  -1 -34   18.74    0.85
   3  -1 -34   18.77    0.88
   5   1 -34   11.53    0.58
  -5  -1 -34   11.67    0.57
   5  -1 -34   11.78    0.59
   0   2 -34    0.87    0.30
   0  -2 -34    1.30    0.36
  -2  -2 -34    0.87    0.31
   2   2 -34    0.59    0.27
   2  -2 -34    0.93    0.31
   4   2 -34    1.38    0.29
  -4  -2 -34    0.74    0.27
   4  -2 -34    1.03    0.29
  -1  -3 -34   21.85    0.99
   1  -3 -34   22.76    0.99
   3   3 -34   16.50    0.73
  -3  -3 -34   17.35    0.82
   3  -3 -34   17.23    0.79
  -5  -3 -34   10.83    0.54
   0  -4 -34    1.09    0.32
  -2  -4 -34    1.00    0.30
   2  -4 -34    0.68    0.27
  -4  -4 -34    0.70    0.23
   4  -4 -34    0.81    0.24
  -1  -5 -34   16.38    0.78
   1  -5 -34   16.97    0.77
  -3  -5 -34   13.48    0.66
   3  -5 -34   11.67    0.58
   0  -6 -34    0.66    0.26
  -2  -6 -34    0.72    0.25
  -1   0 -35    5.07    0.52
   1   0 -35    4.81    0.51
   3   0 -35    3.43    0.43
  -3   0 -35    3.52    0.41
   5   0 -35    2.93    0.33
   0  -1 -35    1.26    0.36
   0   1 -35    0.92    0.31
   2   1 -35    0.79    0.28
  -2  -1 -35    0.81    0.29
   2  -1 -35    0.96    0.30
  -2   1 -35    1.12    0.30
  -4  -1 -35    0.95    0.27
   4   1 -35    0.69    0.25
   4  -1 -35    0.61    0.25
   1   2 -35    8.50    0.55
  -1  -2 -35    8.62    0.63
   1  -2 -35    8.85    0.62
   3   2 -35    6.31    0.53
  -3  -2 -35    6.06    0.53
   3  -2 -35    7.20    0.53
   0  -3 -35    3.02    0.43
  -2  -3 -35    2.85    0.41
   2  -3 -35    2.67    0.38
   4   3 -35    2.03    0.29
  -4  -3 -35    2.23    0.33
   4  -3 -35    1.78    0.30
  -1  -4 -35    7.08    0.60
   1  -4 -35    7.90    0.55
  -3  -4 -35    6.17    0.52
   3  -4 -35    4.97    0.43
   0  -5 -35    0.59    0.25
  -2  -5 -35    0.42    0.23
   2  -5 -35    0.63    0.24
  -1  -6 -35    3.30    0.37
   0   0 -36    5.02    0.49
   2   0 -36    5.15    0.50
  -2   0 -36    4.90    0.47
   4   0 -36    3.75    0.38
  -1  -1 -36    6.79    0.59
   1   1 -36    7.85    0.53
   1  -1 -36    6.08    0.54
  -1   1 -36    6.91    0.51
   3   1 -36    6.21    0.50
  -3  -1 -36    5.24    0.46
   3  -1 -36    4.98    0.46
   0  -2 -36   12.03    0.69
  -2  -2 -36    8.88    0.58
   2   2 -36    8.39    0.51
   2  -2 -36    8.58    0.56
  -4  -2 -36    5.80    0.41
   4   2 -36    5.34    0.39
   4  -2 -36    6.38    0.42
  -1  -3 -36    2.77    0.38
   1  -3 -36    3.15    0.42
  -3  -3 -36    1.93    0.31
   3  -3 -36    2.38    0.32
   0  -4 -36    9.26    0.57
  -2  -4 -36    7.19    0.49
   2  -4 -36    7.23    0.48
  -1  -5 -36    4.43    0.41
   1  -5 -36    5.90    0.46
  -1   0 -37    2.92    0.37
   1   0 -37    3.13    0.40
   3   0 -37    2.07    0.30
  -3   0 -37    1.89    0.29
   0   1 -37    7.86    0.51
   0  -1 -37    7.65    0.54
  -2  -1 -37    6.63    0.47
   2   1 -37    6.55    0.45
   2  -1 -37    6.82    0.47
   1   2 -37    0.66    0.25
  -1  -2 -37    0.82    0.26
   1  -2 -37    0.73    0.26
  -3  -2 -37    0.76    0.25
   3  -2 -37    0.79    0.23
   0  -3 -37    3.24    0.38
  -2  -3 -37    3.08    0.36
   2  -3 -37    4.11    0.41
  -1  -4 -37    0.52    0.22
   1  -4 -37    0.76    0.24
   0   0 -38   12.23    0.61
   2   0 -38   10.34    0.55
  -2   0 -38   10.33    0.51
  -1  -1 -38    1.40    0.27
   1   1 -38    1.63    0.28
   1  -1 -38    1.39    0.28
   3  -1 -38    1.45    0.26
   0  -2 -38   11.82    0.59
  -2  -2 -38   11.27    0.55
   2  -2 -38   11.15    0.56
  -1  -3 -38    1.05    0.25
   1  -3 -38    1.29    0.26
   1   0 -39    4.12    0.38
   0  -1 -39    0.13    0.18
   1  -2 -39    1.55    0.27
   0   0   0    0.00    0.00
;
_shelx_hkl_checksum              3546
#END Tags that were not found in dictionaries
loop_
_space_group_symop_operation_xyz
'x, y, z'
'-x, -y, z'
'x, -y, -z'
'-x, y, -z'
'x+1/2, y+1/2, z+1/2'
'-x+1/2, -y+1/2, z+1/2'
'x+1/2, -y+1/2, -z+1/2'
'-x+1/2, y+1/2, -z+1/2'
'-x, -y, -z'
'x, y, -z'
'-x, y, z'
'x, -y, z'
'-x+1/2, -y+1/2, -z+1/2'
'x+1/2, y+1/2, -z+1/2'
'-x+1/2, y+1/2, z+1/2'
'x+1/2, -y+1/2, z+1/2'
loop_
_atom_site_label
_atom_site_type_symbol
_atom_site_fract_x
_atom_site_fract_y
_atom_site_fract_z
_atom_site_U_iso_or_equiv
_atom_site_adp_type
_atom_site_occupancy
_atom_site_site_symmetry_order
_atom_site_calc_flag
_atom_site_refinement_flags_posn
_atom_site_refinement_flags_adp
_atom_site_refinement_flags_occupancy
Co Co 0.5000 0.0000 0.0000 0.00452(1) Uani 1 8 d S T P
Sc1 Sc 0.0000 0.5000 0.0000 0.00408(1) Uani 1 8 d S T P
Sc2 Sc 0.5000 0.5000 0.31199(2) 0.00376(1) Uani 1 4 d S T P
C C 0.5000 0.33380(7) 0.12484(2) 0.00485(3) Uani 1 2 d S T P
loop_
_atom_site_aniso_label
_atom_site_aniso_U_11
_atom_site_aniso_U_22
_atom_site_aniso_U_33
_atom_site_aniso_U_23
_atom_site_aniso_U_13
_atom_site_aniso_U_12
Co 0.00678(2) 0.00344(2) 0.00332(2) 0.000 0.000 0.000
Sc1 0.00390(2) 0.00428(3) 0.00408(2) 0.000 0.000 0.000
Sc2 0.00400(2) 0.00364(2) 0.00366(2) 0.000 0.000 0.000
C 0.00560(6) 0.00438(7) 0.00456(6) 0.00033(5) 0.000 0.000
loop_
_atom_type_symbol
_atom_type_description
_atom_type_scat_dispersion_real
_atom_type_scat_dispersion_imag
_atom_type_scat_source
C C 0.0015 0.0009 'International Tables Vol C Tables 4.2.6.8 and 6.1.1.4'
Co Co 0.3050 0.6296 'International Tables Vol C Tables 4.2.6.8 and 6.1.1.4'
Sc Sc 0.1829 0.2348 'International Tables Vol C Tables 4.2.6.8 and 6.1.1.4'
loop_
_geom_angle_atom_site_label_1
_geom_angle_atom_site_label_2
_geom_angle_atom_site_label_3
_geom_angle
_geom_angle_site_symmetry_1
_geom_angle_site_symmetry_3
C Co C 180.0 . 9_655
C Co C 91.45(3) . 10
C Co C 88.55(3) 9_655 10
C Co C 88.55(3) . 2_655
C Co C 91.45(3) 9_655 2_655
C Co C 180.000(16) 10 2_655
C Co Sc1 123.473(19) . 1_545
C Co Sc1 56.528(19) 9_655 1_545
C Co Sc1 123.472(19) 10 1_545
C Co Sc1 56.528(19) 2_655 1_545
C Co Sc1 56.527(19) . 1_655
C Co Sc1 123.472(19) 9_655 1_655
C Co Sc1 56.528(19) 10 1_655
C Co Sc1 123.472(19) 2_655 1_655
Sc1 Co Sc1 180.0 1_545 1_655
C Co Sc1 123.473(19) . 1_645
C Co Sc1 56.528(19) 9_655 1_645
C Co Sc1 123.472(19) 10 1_645
C Co Sc1 56.528(19) 2_655 1_645
Sc1 Co Sc1 75.62(4) 1_545 1_645
Sc1 Co Sc1 104.38(4) 1_655 1_645
C Co Sc1 56.527(19) . .
C Co Sc1 123.472(19) 9_655 .
C Co Sc1 56.528(19) 10 .
C Co Sc1 123.472(19) 2_655 .
Sc1 Co Sc1 104.38(4) 1_545 .
Sc1 Co Sc1 75.62(4) 1_655 .
Sc1 Co Sc1 180.0 1_645 .
C Co Sc2 124.898(16) . 5_444
C Co Sc2 55.102(16) 9_655 5_444
C Co Sc2 55.102(16) 10 5_444
C Co Sc2 124.898(16) 2_655 5_444
Sc1 Co Sc2 68.371(19) 1_545 5_444
Sc1 Co Sc2 111.629(19) 1_655 5_444
Sc1 Co Sc2 111.629(18) 1_645 5_444
Sc1 Co Sc2 68.371(18) . 5_444
C Co Sc2 55.102(16) . 13_655
C Co Sc2 124.898(16) 9_655 13_655
C Co Sc2 124.898(16) 10 13_655
C Co Sc2 55.102(16) 2_655 13_655
Sc1 Co Sc2 111.629(19) 1_545 13_655
Sc1 Co Sc2 68.371(19) 1_655 13_655
Sc1 Co Sc2 68.371(18) 1_645 13_655
Sc1 Co Sc2 111.629(18) . 13_655
Sc2 Co Sc2 180.0 5_444 13_655
C Co Sc2 55.102(16) . 13
C Co Sc2 124.898(16) 9_655 13
C Co Sc2 124.898(16) 10 13
C Co Sc2 55.102(16) 2_655 13
Sc1 Co Sc2 68.371(18) 1_545 13
Sc1 Co Sc2 111.629(18) 1_655 13
Sc1 Co Sc2 111.629(18) 1_645 13
Sc1 Co Sc2 68.371(18) . 13
Sc2 Co Sc2 106.08(4) 5_444 13
Sc2 Co Sc2 73.92(4) 13_655 13
C Co Sc2 124.898(16) . 5_544
C Co Sc2 55.102(16) 9_655 5_544
C Co Sc2 55.102(16) 10 5_544
C Co Sc2 124.898(16) 2_655 5_544
Sc1 Co Sc2 111.629(18) 1_545 5_544
Sc1 Co Sc2 68.371(18) 1_655 5_544
Sc1 Co Sc2 68.371(18) 1_645 5_544
Sc1 Co Sc2 111.629(18) . 5_544
Sc2 Co Sc2 73.92(4) 5_444 5_544
Sc2 Co Sc2 106.08(4) 13_655 5_544
Sc2 Co Sc2 180.0 13 5_544
C Sc1 C 144.38(2) . 10_455
C Sc1 C 35.62(2) . 2_665
C Sc1 C 180.000(10) 10_455 2_665
C Sc1 C 180.0 . 9_565
C Sc1 C 35.62(2) 10_455 9_565
C Sc1 C 144.38(2) 2_665 9_565
C Sc1 C 88.90(4) . 9_665
C Sc1 C 101.91(3) 10_455 9_665
C Sc1 C 78.09(3) 2_665 9_665
C Sc1 C 91.10(4) 9_565 9_665
C Sc1 C 91.10(4) . 1_455
C Sc1 C 78.09(3) 10_455 1_455
C Sc1 C 101.91(3) 2_665 1_455
C Sc1 C 88.90(4) 9_565 1_455
C Sc1 C 180.0 9_665 1_455
C Sc1 C 78.09(3) . 10
C Sc1 C 91.10(4) 10_455 10
C Sc1 C 88.90(4) 2_665 10
C Sc1 C 101.91(3) 9_565 10
C Sc1 C 35.62(2) 9_665 10
C Sc1 C 144.38(2) 1_455 10
C Sc1 C 101.91(3) . 2_565
C Sc1 C 88.90(4) 10_455 2_565
C Sc1 C 91.10(4) 2_665 2_565
C Sc1 C 78.09(3) 9_565 2_565
C Sc1 C 144.38(2) 9_665 2_565
C Sc1 C 35.62(2) 1_455 2_565
C Sc1 C 180.000(14) 10 2_565
C Sc1 Co 101.30(3) . 1_455
C Sc1 Co 47.214(15) 10_455 1_455
C Sc1 Co 132.786(15) 2_665 1_455
C Sc1 Co 78.70(3) 9_565 1_455
C Sc1 Co 132.786(15) 9_665 1_455
C Sc1 Co 47.214(15) 1_455 1_455
C Sc1 Co 101.30(3) 10 1_455
C Sc1 Co 78.70(3) 2_565 1_455
C Sc1 Co 78.70(3) . 1_565
C Sc1 Co 132.786(15) 10_455 1_565
C Sc1 Co 47.214(15) 2_665 1_565
C Sc1 Co 101.30(3) 9_565 1_565
C Sc1 Co 47.214(15) 9_665 1_565
C Sc1 Co 132.786(15) 1_455 1_565
C Sc1 Co 78.70(3) 10 1_565
C Sc1 Co 101.30(3) 2_565 1_565
Co Sc1 Co 180.0 1_455 1_565
C Sc1 Co 47.214(15) . .
C Sc1 Co 101.30(3) 10_455 .
C Sc1 Co 78.70(3) 2_665 .
C Sc1 Co 132.786(15) 9_565 .
C Sc1 Co 78.70(3) 9_665 .
C Sc1 Co 101.30(3) 1_455 .
C Sc1 Co 47.214(15) 10 .
C Sc1 Co 132.786(15) 2_565 .
Co Sc1 Co 75.62(4) 1_455 .
Co Sc1 Co 104.38(4) 1_565 .
C Sc1 Co 132.786(16) . 1_465
C Sc1 Co 78.70(3) 10_455 1_465
C Sc1 Co 101.30(3) 2_665 1_465
C Sc1 Co 47.214(15) 9_565 1_465
C Sc1 Co 101.30(3) 9_665 1_465
C Sc1 Co 78.70(3) 1_455 1_465
C Sc1 Co 132.786(15) 10 1_465
C Sc1 Co 47.214(15) 2_565 1_465
Co Sc1 Co 104.38(4) 1_455 1_465
Co Sc1 Co 75.62(4) 1_565 1_465
Co Sc1 Co 180.0 . 1_465
C Sc2 C 35.89(2) 2_665 .
C Sc2 C 96.586(16) 2_665 14
C Sc2 C 119.693(13) . 14
C Sc2 C 119.694(13) 2_665 13
C Sc2 C 96.587(16) . 13
C Sc2 C 142.60(2) 14 13
C Sc2 C 119.694(13) 2_665 13_655
C Sc2 C 96.587(16) . 13_655
C Sc2 C 76.31(4) 14 13_655
C Sc2 C 91.78(4) 13 13_655
C Sc2 C 96.586(16) 2_665 14_455
C Sc2 C 119.693(13) . 14_455
C Sc2 C 91.78(4) 14 14_455
C Sc2 C 76.31(4) 13 14_455
C Sc2 C 142.60(2) 13_655 14_455
C Sc2 Co 139.480(16) 2_665 5
C Sc2 Co 139.480(16) . 5
C Sc2 Co 46.534(17) 14 5
C Sc2 Co 100.11(3) 13 5
C Sc2 Co 46.534(17) 13_655 5
C Sc2 Co 100.11(3) 14_455 5
C Sc2 Co 139.480(16) 2_665 5_455
C Sc2 Co 139.480(17) . 5_455
C Sc2 Co 100.11(3) 14 5_455
C Sc2 Co 46.534(17) 13 5_455
C Sc2 Co 100.11(3) 13_655 5_455
C Sc2 Co 46.534(17) 14_455 5_455
Co Sc2 Co 73.92(4) 5 5_455
C Sc2 Sc1 117.94(2) 2_665 5
C Sc2 Sc1 153.824(10) . 5
C Sc2 Sc1 48.682(19) 14 5
C Sc2 Sc1 101.53(2) 13 5
C Sc2 Sc1 101.53(2) 13_655 5
C Sc2 Sc1 48.682(19) 14_455 5
Co Sc2 Sc1 54.997(15) 5 5
Co Sc2 Sc1 54.997(15) 5_455 5
C Sc2 Sc1 153.825(10) 2_665 5_545
C Sc2 Sc1 117.94(2) . 5_545
C Sc2 Sc1 101.53(2) 14 5_545
C Sc2 Sc1 48.682(18) 13 5_545
C Sc2 Sc1 48.682(19) 13_655 5_545
C Sc2 Sc1 101.53(2) 14_455 5_545
Co Sc2 Sc1 54.997(15) 5 5_545
Co Sc2 Sc1 54.997(15) 5_455 5_545
Sc1 Sc2 Sc1 88.24(3) 5 5_545
C Sc2 Sc2 76.362(19) 2_665 13
C Sc2 Sc2 48.345(11) . 13
C Sc2 Sc2 165.802(7) 14 13
C Sc2 Sc2 48.242(19) 13 13
C Sc2 Sc2 96.29(4) 13_655 13
C Sc2 Sc2 101.18(4) 14_455 13
Co Sc2 Sc2 134.656(16) 5 13
Co Sc2 Sc2 93.06(3) 5_455 13
Sc1 Sc2 Sc2 145.513(17) 5 13
Sc1 Sc2 Sc2 81.68(2) 5_545 13
C Sc2 Sc2 48.344(11) 2_665 13_665
C Sc2 Sc2 76.362(19) . 13_665
C Sc2 Sc2 48.242(19) 14 13_665
C Sc2 Sc2 165.802(6) 13 13_665
C Sc2 Sc2 101.18(4) 13_655 13_665
C Sc2 Sc2 96.29(3) 14_455 13_665
Co Sc2 Sc2 93.06(3) 5 13_665
Co Sc2 Sc2 134.656(16) 5_455 13_665
Sc1 Sc2 Sc2 81.68(3) 5 13_665
Sc1 Sc2 Sc2 145.513(17) 5_545 13_665
Sc2 Sc2 Sc2 123.51(2) 13 13_665
C C Co 134.276(17) 2_665 .
C C Sc2 72.055(11) 2_665 .
Co C Sc2 153.669(16) . .
C C Sc2 128.15(2) 2_665 13
Co C Sc2 78.36(2) . 13
Sc2 C Sc2 83.414(16) . 13
C C Sc2 128.15(2) 2_665 13_655
Co C Sc2 78.36(2) . 13_655
Sc2 C Sc2 83.414(16) . 13_655
Sc2 C Sc2 91.78(4) 13 13_655
C C Sc1 72.193(12) 2_665 .
Co C Sc1 76.26(2) . .
Sc2 C Sc1 120.336(18) . .
Sc2 C Sc1 83.01(3) 13 .
Sc2 C Sc1 154.622(16) 13_655 .
C C Sc1 72.193(12) 2_665 1_655
Co C Sc1 76.26(2) . 1_655
Sc2 C Sc1 120.336(18) . 1_655
Sc2 C Sc1 154.622(16) 13 1_655
Sc2 C Sc1 83.01(3) 13_655 1_655
Sc1 C Sc1 91.11(4) . 1_655
loop_
_geom_bond_atom_site_label_1
_geom_bond_atom_site_label_2
_geom_bond_distance
_geom_bond_site_symmetry_2
Co C 2.0914(6) .
Co C 2.0914(6) 9_655
Co C 2.0914(6) 10
Co C 2.0914(6) 2_655
Co Sc1 2.7682(10) 1_545
Co Sc1 2.7682(10) 1_655
Co Sc1 2.7682(10) 1_645
Co Sc1 2.7682(10) .
Co Sc2 2.8224(8) 5_444
Co Sc2 2.8224(8) 13_655
Co Sc2 2.8224(8) 13
Co Sc2 2.8224(8) 5_544
Sc1 C 2.3771(8) .
Sc1 C 2.3771(8) 10_455
Sc1 C 2.3771(8) 2_665
Sc1 C 2.3771(8) 9_565
Sc1 C 2.3771(8) 9_665
Sc1 C 2.3771(8) 1_455
Sc1 C 2.3771(8) 10
Sc1 C 2.3771(8) 2_565
Sc1 Co 2.7682(10) 1_455
Sc1 Co 2.7682(10) 1_565
Sc1 Co 2.7682(10) 1_465
Sc2 C 2.3596(6) 2_665
Sc2 C 2.3596(6) .
Sc2 C 2.3634(9) 14
Sc2 C 2.3634(9) 13
Sc2 C 2.3634(9) 13_655
Sc2 C 2.3634(9) 14_455
Sc2 Co 2.8224(8) 5
Sc2 Co 2.8224(8) 5_455
Sc2 Sc1 3.1415(8) 5
Sc2 Sc1 3.1415(8) 5_545
Sc2 Sc2 3.1423(9) 13
Sc2 Sc2 3.1423(9) 13_665
C C 1.4540(9) 2_665
C Sc2 2.3634(9) 13
C Sc2 2.3634(9) 13_655
C Sc1 2.3771(8) 1_655
