#------------------------------------------------------------------------------
#$Date: 2017-10-13 13:16:50 +0300 (Fri, 13 Oct 2017) $
#$Revision: 201980 $
#$URL: file:///home/coder/svn-repositories/cod/cif/2/30/02/2300265.cif $
#------------------------------------------------------------------------------
#
# This file is available in the Crystallography Open Database (COD),
# http://www.crystallography.net/. The original data for this entry
# were provided by IUCr Journals, http://journals.iucr.org/.
#
# The file may be used within the scientific community so long as
# proper attribution is given to the journal article from which the
# data were obtained.
#
data_2300265
loop_
_publ_author_name
'Lasocha, W.'
'Gawe\/l, B.'
'Rafalska-Lasocha, A.'
'Paw\/lowski, M.'
'Talik, P.'
'Paszkowicz, W.'
_publ_section_title
;
 Crystal structure study of selected xanthine derivatives
;
_journal_coeditor_code           HX5087
_journal_issue                   1
_journal_name_full               'Journal of Applied Crystallography'
_journal_page_first              163
_journal_page_last               167
_journal_paper_doi               10.1107/S0021889809047499
_journal_volume                  43
_journal_year                    2010
_chemical_formula_moiety         'C15 H14 Br1 N5 O2'
_chemical_formula_sum            'C15 H14 Br N5 O2'
_chemical_formula_weight         376.208
_chemical_name_common            8-(3-chloroiminephenyl)xantine
_chemical_name_systematic
; 
8-{[(1E)-(3-bromophenyl)methylene]amino}-1,3,7-trimethyl-3,7-dihydro-
-1H-purine-2,6-dione
;
_space_group_IT_number           2
_symmetry_cell_setting           triclinic
_symmetry_space_group_name_Hall  '-P 1'
_symmetry_space_group_name_H-M   'P -1'
_cell_angle_alpha                93.65(2)
_cell_angle_beta                 94.16(1)
_cell_angle_gamma                93.71(2)
_cell_formula_units_Z            2
_cell_length_a                   11.479(2)
_cell_length_b                   14.738(3)
_cell_length_c                   4.4760(8)
_cell_volume                     751.9(2)
_computing_publication_material  '(Jana2000; Petricek and Dusek, 2000)'
_computing_structure_refinement  '(Jana2000; Petricek and Dusek, 2000)'
_diffrn_radiation_type           synchrotron
_diffrn_radiation_wavelength     0.79989
_exptl_absorpt_coefficient_mu    1381.7
_exptl_absorpt_process_details   '(Jana2000; Petricek and Dusek, 2000)'
_exptl_crystal_density_diffrn    1.662
_exptl_crystal_F_000             380
_pd_char_colour                  yellow
_pd_instr_location
; 
ESRF - Grenoble
;
_pd_meas_2theta_range_inc        0.003
_pd_meas_2theta_range_max        47.976
_pd_meas_2theta_range_min        1.005
_pd_meas_number_of_points        15658
_pd_proc_2theta_range_inc        0.003
_pd_proc_2theta_range_max        47.976
_pd_proc_2theta_range_min        1.005
_pd_proc_ls_pref_orient_corr     'March & Dollase'
_pd_proc_ls_profile_function     Lorentzian
_pd_proc_ls_prof_R_factor        0.0603
_pd_proc_ls_prof_wR_expected     0.0223
_pd_proc_ls_prof_wR_factor       0.0897
_refine_ls_extinction_method     none
_refine_ls_number_parameters     81
_refine_ls_R_factor_all          0.1139
_refine_ls_R_factor_gt           0.1136
_refine_ls_shift/su_max          0.16746
_refine_ls_shift/su_mean         0.15419
_refine_ls_weighting_scheme      sigma
_refine_ls_wR_factor_gt          0.0990
_refine_ls_wR_factor_ref         0.0991
_cod_data_source_file            hx5087.cif
_cod_data_source_block           TP15ARLW
_cod_original_formula_sum        'C15 H14 Br1 N5 O2'
_cod_database_code               2300265
loop_
_symmetry_equiv_pos_site_id
_symmetry_equiv_pos_as_xyz
1 x,y,z
2 -x,-y,-z
loop_
_atom_site_label
_atom_site_type_symbol
_atom_site_fract_x
_atom_site_fract_y
_atom_site_fract_z
_atom_site_adp_type
_atom_site_U_iso_or_equiv
_atom_site_symmetry_multiplicity
_atom_site_occupancy
_atom_site_calc_flag
_atom_site_refinement_flags
_atom_site_disorder_assembly
_atom_site_disorder_group
C1 C 0.825(2) 0.813(2) 0.056(5) Uiso 0.013(11) 2 1 d . . .
N2 N 0.794(2) 0.8879(19) 0.211(6) Uiso 0.013(11) 2 1 d . . .
C3 C 0.703(2) 0.8545(16) 0.357(5) Uiso 0.013(11) 2 1 d . . .
C4 C 0.680(2) 0.7625(16) 0.293(5) Uiso 0.013(11) 2 1 d . . .
N5 N 0.759(3) 0.7372(19) 0.100(6) Uiso 0.013(11) 2 1 d . . .
N6 N 0.591(2) 0.7146(16) 0.418(6) Uiso 0.013(11) 2 1 d . . .
C7 C 0.520(2) 0.7564(15) 0.614(6) Uiso 0.013(11) 2 1 d . . .
N8 N 0.5413(19) 0.8502(15) 0.684(6) Uiso 0.013(11) 2 1 d . . .
C9 C 0.632(2) 0.8979(14) 0.556(5) Uiso 0.013(11) 2 1 d . . .
O10 O 0.648(3) 0.9796(14) 0.622(7) Uiso -0.003(18) 2 1 d . . .
C11 C 0.463(4) 0.889(5) 0.893(8) Uiso 0.07(3) 2 1 d . . .
O12 O 0.442(2) 0.711(2) 0.720(7) Uiso -0.003(18) 2 1 d . . .
C13 C 0.569(3) 0.620(2) 0.347(9) Uiso 0.07(3) 2 1 d . . .
N14 N 0.916(3) 0.806(3) -0.140(7) Uiso 0.03(2) 2 1 d . . .
C15 C 0.930(4) 0.733(3) -0.310(10) Uiso 0.03(2) 2 1 d . . .
C16 C 1.035(3) 0.741(3) -0.469(7) Uiso 0.022(18) 2 1 d . . .
C17 C 1.108(4) 0.819(2) -0.485(9) Uiso 0.022(18) 2 1 d . . .
C18 C 1.206(4) 0.809(2) -0.674(11) Uiso 0.022(18) 2 1 d . . .
C19 C 1.230(3) 0.724(2) -0.793(9) Uiso 0.022(18) 2 1 d . . .
C20 C 1.159(3) 0.6462(15) -0.756(5) Uiso 0.022(18) 2 1 d . . .
C21 C 1.062(3) 0.656(2) -0.593(7) Uiso 0.022(18) 2 1 d . . .
C23 C 0.851(4) 0.979(3) 0.203(10) Uiso 0.07(3) 2 1 d . . .
Br22 Br 1.1919(13) 0.5231(10) -0.925(3) Uani 0.071(8) 2 1 d . . .
H18 H 1.259(4) 0.862(2) -0.723(11) Uiso 0.0268 2 1 d . . .
H17 H 1.090(4) 0.876(2) 0.630(9) Uiso 0.0268 2 1 d . . .
H21 H 1.010(3) 0.601(2) -0.564(7) Uiso 0.0268 2 1 d . . .
H19 H 1.300(3) 0.717(2) -0.910(9) Uiso 0.0268 2 1 d . . .
H15 H 0.870(4) 0.680(3) -0.317(10) Uiso 0.0312 2 1 d . . .
H18a H 0.406(4) 0.840(5) 0.949(8) Uiso 0.0825 2 1 d . . .
H18b H 0.510(4) 0.917(5) 1.077(8) Uiso 0.0825 2 1 d . . .
H18c H 0.419(4) 0.937(5) 0.794(8) Uiso 0.0825 2 1 d . . .
H19a H 0.502(3) 0.596(2) 0.456(9) Uiso 0.0825 2 1 d . . .
H19b H 0.550(3) 0.608(2) 0.126(9) Uiso 0.0825 2 1 d . . .
H19c H 0.641(3) 0.588(2) 0.408(9) Uiso 0.0825 2 1 d . . .
H23a H 0.813(4) 1.023(3) 0.336(10) Uiso 0.0825 2 1 d . . .
H23b H 0.936(4) 0.978(3) 0.275(10) Uiso 0.0825 2 1 d . . .
H23c H 0.845(4) 0.998(3) -0.008(10) Uiso 0.0825 2 1 d . . .
loop_
_atom_site_aniso_label
_atom_site_aniso_type_symbol
_atom_site_aniso_U_11
_atom_site_aniso_U_22
_atom_site_aniso_U_33
_atom_site_aniso_U_12
_atom_site_aniso_U_13
_atom_site_aniso_U_23
Br22 Br 0.097(15) 0.095(13) 0.042(10) 0.031(12) 0.064(10) 0.030(10)
loop_
_atom_type_symbol
_atom_type_scat_dispersion_real
_atom_type_scat_dispersion_imag
_atom_type_scat_source
_atom_type_scat_Cromer_Mann_a1
_atom_type_scat_Cromer_Mann_b1
_atom_type_scat_Cromer_Mann_a2
_atom_type_scat_Cromer_Mann_b2
_atom_type_scat_Cromer_Mann_a3
_atom_type_scat_Cromer_Mann_b3
_atom_type_scat_Cromer_Mann_a4
_atom_type_scat_Cromer_Mann_b4
_atom_type_scat_Cromer_Mann_c
C 0.003 0.002 'International Tables Vol C Tables  4.2.6.8 and 6.1.1.4' 2.31
20.843901 1.02 10.2075 1.5886 0.5687 0.865 51.651199 0.2156
H 0.000 0.000 'International Tables Vol C Tables  4.2.6.8 and 6.1.1.4' 0.493002
10.5109 0.322912 26.1257 0.140191 3.14236 0.04081 57.799702 0.003038
Br 0.006 0.003 'International Tables Vol C Tables  4.2.6.8 and 6.1.1.4' 17.1789
2.1723 5.2358 16.579599 5.6377 0.2609 3.9851 41.4328 2.9557
N 0.011 0.006 'International Tables Vol C Tables  4.2.6.8 and 6.1.1.4' 12.2126
0.0057 3.1322 9.8933 2.0125 28.997499 1.1663 0.5826 -11.529
O -0.290 2.460 'International Tables Vol C Tables  4.2.6.8 and 6.1.1.4' 3.0485
13.2771 2.2868 5.7011 1.5463 0.3239 0.867 32.908901 0.2508
loop_
_geom_angle_atom_site_label_1
_geom_angle_atom_site_label_2
_geom_angle_atom_site_label_3
_geom_angle_site_symmetry_1
_geom_angle_site_symmetry_2
_geom_angle_site_symmetry_3
_geom_angle
_geom_angle_publ_flag
C17 C18 C19 . . . 120(3) yes
C18 C17 C16 . . . 116(3) yes
C17 C16 C21 . . . 122(3) yes
C17 C16 C15 . . . 127(4) yes
C21 C16 C15 . . . 111(4) yes
C21 C20 C19 . . . 118(3) yes
C21 C20 Br22 . . . 119(2) yes
C19 C20 Br22 . . . 123(3) yes
C18 C19 C20 . . . 122(4) yes
C16 C15 N14 . . . 112(4) yes
C15 N14 C1 . . . 123(4) yes
N14 C1 N2 . . . 128(3) yes
N14 C1 N5 . . . 118(3) yes
N2 C1 N5 . . . 113(3) yes
C1 N2 C23 . . . 124(3) yes
C1 N2 C3 . . . 103(2) yes
C3 N2 C23 . . . 133(3) yes
N2 C3 C4 . . . 112(2) yes
N2 C3 C9 . . . 131(2) yes
C4 C3 C9 . . . 117(2) yes
C3 C4 N5 . . . 106(2) yes
C3 C4 N6 . . . 122(2) yes
N5 C4 N6 . . . 133(2) yes
C1 N5 C4 . . . 106(2) yes
C3 C9 N8 . . . 121.9(19) yes
C3 C9 O10 . . . 120(3) yes
N8 C9 O10 . . . 118(3) yes
C9 N8 C7 . . . 119(2) yes
C9 N8 C11 . . . 126(3) yes
C7 N8 C11 . . . 115(3) yes
N8 C7 N6 . . . 118(2) yes
N8 C7 O12 . . . 122(3) yes
N6 C7 O12 . . . 120(2) yes
C4 N6 C7 . . . 122(2) yes
C4 N6 C13 . . . 120(3) yes
C7 N6 C13 . . . 118(3) yes
loop_
_geom_bond_atom_site_label_1
_geom_bond_atom_site_label_2
_geom_bond_site_symmetry_1
_geom_bond_site_symmetry_2
_geom_bond_distance
_geom_bond_publ_flag
C18 C17 . . 1.47(7) yes
C18 C19 . . 1.39(5) yes
C17 C16 . . 1.38(5) yes
C16 C21 . . 1.40(5) yes
C16 C15 . . 1.45(6) yes
C21 C20 . . 1.39(5) yes
C20 C19 . . 1.38(5) yes
C20 Br22 . . 1.99(3) yes
C15 N14 . . 1.30(6) yes
N14 C1 . . 1.42(4) yes
C1 N2 . . 1.35(4) yes
C1 N5 . . 1.35(4) yes
N2 C3 . . 1.35(4) yes
N2 C23 . . 1.46(5) yes
C3 C4 . . 1.37(3) yes
C3 C9 . . 1.40(3) yes
C4 N5 . . 1.35(4) yes
C4 N6 . . 1.38(4) yes
C9 N8 . . 1.40(3) yes
C9 O10 . . 1.22(3) yes
N8 C7 . . 1.40(3) yes
N8 C11 . . 1.46(5) yes
C7 N6 . . 1.38(4) yes
C7 O12 . . 1.22(4) yes
N6 C13 . . 1.42(4) yes
loop_
_pd_proc_point_id
_pd_proc_2theta_corrected
_pd_proc_intensity_net
_pd_calc_intensity_net
_pd_proc_ls_weight
1 0.0124 973.00 1102.63 31.19
2 0.0125 1036.00 1102.04 32.19
3 0.0125 1045.00 1101.46 32.33
4 0.0126 1021.00 1100.87 31.95
5 0.0127 1059.00 1100.29 32.54
6 0.0127 1044.00 1099.72 32.31
7 0.0128 1090.00 1099.14 33.02
8 0.0128 1040.00 1098.57 32.25
9 0.0129 1068.00 1098.00 32.68
10 0.0129 1004.00 1097.43 31.69
11 0.0130 994.00 1096.87 31.53
12 0.0130 1013.00 1096.31 31.83
13 0.0131 1000.00 1095.75 31.62
14 0.0131 982.00 1095.19 31.34
15 0.0132 986.00 1094.64 31.40
16 0.0132 1021.00 1094.09 31.95
17 0.0133 1037.00 1093.54 32.20
18 0.0133 995.00 1092.99 31.54
19 0.0134 1028.00 1092.45 32.06
20 0.0134 1047.00 1091.91 32.36
21 0.0135 916.00 1091.37 30.27
22 0.0135 1056.00 1090.84 32.50
23 0.0136 997.00 1090.30 31.58
24 0.0136 1040.00 1089.77 32.25
25 0.0137 1071.00 1089.25 32.73
26 0.0138 936.00 1088.72 30.59
27 0.0138 945.00 1088.20 30.74
28 0.0139 1018.00 1087.68 31.91
29 0.0139 992.00 1087.16 31.50
30 0.0140 1017.00 1086.65 31.89
31 0.0140 924.00 1086.13 30.40
32 0.0141 1096.00 1085.62 33.11
33 0.0141 1000.00 1085.12 31.62
34 0.0142 972.00 1084.61 31.18
35 0.0142 994.00 1084.11 31.53
36 0.0143 1116.00 1083.61 33.41
37 0.0143 1035.00 1083.11 32.17
38 0.0144 934.00 1082.62 30.56
39 0.0144 1017.00 1082.13 31.89
40 0.0145 1111.00 1081.64 33.33
41 0.0145 993.00 1081.15 31.51
42 0.0146 1098.00 1080.67 33.14
43 0.0146 942.00 1080.19 30.69
44 0.0147 963.00 1079.71 31.03
45 0.0147 1092.00 1079.23 33.05
46 0.0148 992.00 1078.76 31.50
47 0.0149 1008.00 1078.28 31.75
48 0.0149 972.00 1077.81 31.18
49 0.0150 1028.00 1077.35 32.06
50 0.0150 987.00 1076.88 31.42
51 0.0151 1074.00 1076.42 32.77
52 0.0151 976.00 1075.96 31.24
53 0.0152 1112.00 1075.51 33.35
54 0.0152 1035.00 1075.05 32.17
55 0.0153 984.00 1074.60 31.37
56 0.0153 967.00 1074.15 31.10
57 0.0154 1006.00 1073.71 31.72
58 0.0154 1091.00 1073.26 33.03
59 0.0155 1016.00 1072.82 31.87
60 0.0155 983.00 1072.39 31.35
61 0.0156 984.00 1071.95 31.37
62 0.0156 1005.00 1071.52 31.70
63 0.0157 1082.00 1071.08 32.89
64 0.0157 1134.00 1070.66 33.67
65 0.0158 1133.00 1070.23 33.66
66 0.0158 1050.00 1069.81 32.40
67 0.0159 1049.00 1069.38 32.39
68 0.0160 1076.00 1068.97 32.80
69 0.0160 1055.00 1068.55 32.48
70 0.0161 1013.00 1068.14 31.83
71 0.0161 1104.00 1067.72 33.23
72 0.0162 1007.00 1067.32 31.73
73 0.0162 1036.00 1066.91 32.19
74 0.0163 1140.00 1066.51 33.76
75 0.0163 1058.00 1066.10 32.53
76 0.0164 1116.00 1065.71 33.41
77 0.0164 1027.00 1065.31 32.05
78 0.0165 1000.00 1064.92 31.62
79 0.0165 1068.00 1064.52 32.68
80 0.0166 1045.00 1064.13 32.33
81 0.0166 1101.00 1063.75 33.18
82 0.0167 1066.00 1063.36 32.65
83 0.0167 1063.00 1062.98 32.60
84 0.0168 1011.00 1062.60 31.80
85 0.0168 1078.00 1062.23 32.83
86 0.0169 1049.00 1061.85 32.39
87 0.0169 1062.00 1061.48 32.59
88 0.0170 1060.00 1061.11 32.56
89 0.0171 1107.00 1060.74 33.27
90 0.0171 1048.00 1060.38 32.37
91 0.0172 1078.00 1060.02 32.83
92 0.0172 1082.00 1059.66 32.89
93 0.0173 1041.00 1059.30 32.26
94 0.0173 1112.00 1058.94 33.35
95 0.0174 1026.00 1058.59 32.03
96 0.0174 1094.00 1058.24 33.08
97 0.0175 1026.00 1057.89 32.03
98 0.0175 968.00 1057.55 31.11
99 0.0176 1085.00 1057.21 32.94
100 0.0176 1030.00 1056.86 32.09
101 0.0177 1037.00 1056.53 32.20
102 0.0177 1011.00 1056.19 31.80
103 0.0178 1115.00 1055.86 33.39
104 0.0178 1059.00 1055.53 32.54
105 0.0179 1062.00 1055.20 32.59
106 0.0179 1032.00 1054.87 32.12
107 0.0180 1029.00 1054.55 32.08
108 0.0180 1020.00 1054.22 31.94
109 0.0181 983.00 1053.91 31.35
110 0.0182 1073.00 1053.59 32.76
111 0.0182 1050.00 1053.27 32.40
112 0.0183 1099.00 1052.96 33.15
113 0.0183 1021.00 1052.65 31.95
114 0.0184 1044.00 1052.34 32.31
115 0.0184 1089.00 1052.04 33.00
116 0.0185 1000.00 1051.74 31.62
117 0.0185 1137.00 1051.44 33.72
118 0.0186 1066.00 1051.14 32.65
119 0.0186 1076.00 1050.84 32.80
120 0.0187 1069.00 1050.55 32.70
121 0.0187 1060.00 1050.26 32.56
122 0.0188 1001.00 1049.97 31.64
123 0.0188 1058.00 1049.68 32.53
124 0.0189 1016.00 1049.40 31.87
125 0.0189 1025.00 1049.11 32.02
126 0.0190 985.00 1048.83 31.38
127 0.0190 1053.00 1048.56 32.45
128 0.0191 1103.00 1048.28 33.21
129 0.0191 1069.00 1048.01 32.70
130 0.0192 1060.00 1047.74 32.56
131 0.0193 1079.00 1047.47 32.85
132 0.0193 1119.00 1047.20 33.45
133 0.0194 1047.00 1046.94 32.36
134 0.0194 963.00 1046.68 31.03
135 0.0195 1122.00 1046.42 33.50
136 0.0195 1040.00 1046.16 32.25
137 0.0196 1037.00 1045.91 32.20
138 0.0196 1064.00 1045.66 32.62
139 0.0197 941.00 1045.41 30.68
140 0.0197 954.00 1045.16 30.89
141 0.0198 1072.00 1044.91 32.74
142 0.0198 1074.00 1044.67 32.77
143 0.0199 1085.00 1044.43 32.94
144 0.0199 1085.00 1044.19 32.94
145 0.0200 1039.00 1043.95 32.23
146 0.0200 1034.00 1043.72 32.16
147 0.0201 1211.00 1043.48 34.80
148 0.0201 1070.00 1043.25 32.71
149 0.0202 1000.00 1043.02 31.62
150 0.0202 963.00 1042.80 31.03
151 0.0203 1013.00 1042.58 31.83
152 0.0204 1111.00 1042.35 33.33
153 0.0204 1096.00 1042.13 33.11
154 0.0205 1012.00 1041.92 31.81
155 0.0205 1087.00 1041.70 32.97
156 0.0206 1133.00 1041.49 33.66
157 0.0206 1064.00 1041.28 32.62
158 0.0207 1060.00 1041.07 32.56
159 0.0207 1110.00 1040.86 33.32
160 0.0208 982.00 1040.66 31.34
161 0.0208 1158.00 1040.46 34.03
162 0.0209 1103.00 1040.26 33.21
163 0.0209 1123.00 1040.06 33.51
164 0.0210 997.00 1039.87 31.58
165 0.0210 1095.00 1039.67 33.09
166 0.0211 1172.00 1039.48 34.23
167 0.0211 1036.00 1039.29 32.19
168 0.0212 1061.00 1039.10 32.57
169 0.0212 1031.00 1038.92 32.11
170 0.0213 1107.00 1038.74 33.27
171 0.0213 1073.00 1038.56 32.76
172 0.0214 1053.00 1038.38 32.45
173 0.0214 1094.00 1038.20 33.08
174 0.0215 1060.00 1038.03 32.56
175 0.0216 1146.00 1037.86 33.85
176 0.0216 993.00 1037.68 31.51
177 0.0217 1041.00 1037.52 32.26
178 0.0217 1085.00 1037.35 32.94
179 0.0218 1093.00 1037.19 33.06
180 0.0218 1022.00 1037.03 31.97
181 0.0219 1131.00 1036.87 33.63
182 0.0219 1018.00 1036.71 31.91
183 0.0220 1132.00 1036.55 33.65
184 0.0220 963.00 1036.40 31.03
185 0.0221 1027.00 1036.25 32.05
186 0.0221 993.00 1036.10 31.51
187 0.0222 1126.00 1035.95 33.56
188 0.0222 1034.00 1035.80 32.16
189 0.0223 1061.00 1035.66 32.57
190 0.0223 1065.00 1035.52 32.63
191 0.0224 1108.00 1035.38 33.29
192 0.0224 1045.00 1035.24 32.33
193 0.0225 1096.00 1035.11 33.11
194 0.0225 1203.00 1034.97 34.68
195 0.0226 1072.00 1034.84 32.74
196 0.0227 984.00 1034.71 31.37
197 0.0227 1041.00 1034.59 32.26
198 0.0228 1015.00 1034.46 31.86
199 0.0228 1093.00 1034.34 33.06
200 0.0229 1156.00 1034.22 34.00
201 0.0229 1114.00 1034.10 33.38
202 0.0230 1153.00 1033.98 33.96
203 0.0230 1092.00 1033.86 33.05
204 0.0231 1042.00 1033.75 32.28
205 0.0231 1157.00 1033.64 34.01
206 0.0232 1026.00 1033.53 32.03
207 0.0232 1040.00 1033.42 32.25
208 0.0233 1031.00 1033.32 32.11
209 0.0233 1054.00 1033.21 32.47
210 0.0234 1050.00 1033.11 32.40
211 0.0234 1049.00 1033.01 32.39
212 0.0235 958.00 1032.91 30.95
213 0.0235 1111.00 1032.82 33.33
214 0.0236 1058.00 1032.72 32.53
215 0.0236 1077.00 1032.63 32.82
216 0.0237 1077.00 1032.54 32.82
217 0.0238 1015.00 1032.45 31.86
218 0.0238 1080.00 1032.36 32.86
219 0.0239 1101.00 1032.28 33.18
220 0.0239 1149.00 1032.20 33.90
221 0.0240 1090.00 1032.12 33.02
222 0.0240 1089.00 1032.04 33.00
223 0.0241 1038.00 1031.96 32.22
224 0.0241 1071.00 1031.88 32.73
225 0.0242 1171.00 1031.81 34.22
226 0.0242 1092.00 1031.74 33.05
227 0.0243 1096.00 1031.67 33.11
228 0.0243 1005.00 1031.60 31.70
229 0.0244 1052.00 1031.53 32.43
230 0.0244 1048.00 1031.47 32.37
231 0.0245 1056.00 1031.41 32.50
232 0.0245 1153.00 1031.35 33.96
233 0.0246 1092.00 1031.29 33.05
234 0.0246 979.00 1031.23 31.29
235 0.0247 999.00 1031.18 31.61
236 0.0247 1067.00 1031.12 32.67
237 0.0248 1152.00 1031.07 33.94
238 0.0249 1054.00 1031.02 32.47
239 0.0249 1013.00 1030.97 31.83
240 0.0250 1105.00 1030.93 33.24
241 0.0250 1117.00 1030.88 33.42
242 0.0251 1076.00 1030.84 32.80
243 0.0251 1118.00 1030.80 33.44
244 0.0252 1167.00 1030.76 34.16
245 0.0252 1110.00 1030.72 33.32
246 0.0253 1054.00 1030.69 32.47
247 0.0253 1177.00 1030.65 34.31
248 0.0254 1101.00 1030.62 33.18
249 0.0254 1038.00 1030.59 32.22
250 0.0255 1155.00 1030.56 33.99
251 0.0255 1077.00 1030.54 32.82
252 0.0256 1108.00 1030.51 33.29
253 0.0256 1057.00 1030.49 32.51
254 0.0257 1040.00 1030.47 32.25
255 0.0257 1053.00 1030.45 32.45
256 0.0258 1040.00 1030.43 32.25
257 0.0258 1175.00 1030.41 34.28
258 0.0259 1030.00 1030.40 32.09
259 0.0260 985.00 1030.38 31.38
260 0.0260 1007.00 1030.37 31.73
261 0.0261 1170.00 1030.36 34.21
262 0.0261 1039.00 1030.35 32.23
263 0.0262 1020.00 1030.35 31.94
264 0.0262 1057.00 1030.34 32.51
265 0.0263 1114.00 1030.34 33.38
266 0.0263 1235.00 1030.34 35.14
267 0.0264 1100.00 1030.34 33.17
268 0.0264 1091.00 1030.34 33.03
269 0.0265 1078.00 1030.34 32.83
270 0.0265 1003.00 1030.35 31.67
271 0.0266 1141.00 1030.36 33.78
272 0.0266 1022.00 1030.36 31.97
273 0.0267 1138.00 1030.37 33.73
274 0.0267 1040.00 1030.39 32.25
275 0.0268 1089.00 1030.40 33.00
276 0.0268 1020.00 1030.41 31.94
277 0.0269 1075.00 1030.43 32.79
278 0.0269 1121.00 1030.45 33.48
279 0.0270 1080.00 1030.47 32.86
280 0.0271 1059.00 1030.49 32.54
281 0.0271 1176.00 1030.51 34.29
282 0.0272 1099.00 1030.54 33.15
283 0.0272 1154.00 1030.56 33.97
284 0.0273 1086.00 1030.59 32.95
285 0.0273 1105.00 1030.62 33.24
286 0.0274 1146.00 1030.65 33.85
287 0.0274 1185.00 1030.68 34.42
288 0.0275 1183.00 1030.72 34.39
289 0.0275 1175.00 1030.75 34.28
290 0.0276 1121.00 1030.79 33.48
291 0.0276 1181.00 1030.83 34.37
292 0.0277 1015.00 1030.87 31.86
293 0.0277 1059.00 1030.91 32.54
294 0.0278 1090.00 1030.95 33.02
295 0.0278 1061.00 1031.00 32.57
296 0.0279 1029.00 1031.04 32.08
297 0.0279 1077.00 1031.09 32.82
298 0.0280 1064.00 1031.14 32.62
299 0.0280 1054.00 1031.19 32.47
300 0.0281 1016.00 1031.24 31.87
301 0.0282 1042.00 1031.29 32.28
302 0.0282 1104.00 1031.35 33.23
303 0.0283 1071.00 1031.40 32.73
304 0.0283 1017.00 1031.46 31.89
305 0.0284 1091.00 1031.52 33.03
306 0.0284 1109.00 1031.58 33.30
307 0.0285 1095.00 1031.65 33.09
308 0.0285 1065.00 1031.71 32.63
309 0.0286 1038.00 1031.77 32.22
310 0.0286 1014.00 1031.84 31.84
311 0.0287 1055.00 1031.91 32.48
312 0.0287 1081.00 1031.98 32.88
313 0.0288 1060.00 1032.05 32.56
314 0.0288 1101.00 1032.12 33.18
315 0.0289 1014.00 1032.19 31.84
316 0.0289 1084.00 1032.27 32.92
317 0.0290 1047.00 1032.35 32.36
318 0.0290 1051.00 1032.42 32.42
319 0.0291 1017.00 1032.50 31.89
320 0.0291 1111.00 1032.58 33.33
321 0.0292 1064.00 1032.67 32.62
322 0.0293 1090.00 1032.75 33.02
323 0.0293 1056.00 1032.83 32.50
324 0.0294 1121.00 1032.92 33.48
325 0.0294 1093.00 1033.01 33.06
326 0.0295 1058.00 1033.10 32.53
327 0.0295 1070.00 1033.19 32.71
328 0.0296 1020.00 1033.28 31.94
329 0.0296 1021.00 1033.37 31.95
330 0.0297 1034.00 1033.46 32.16
331 0.0297 1131.00 1033.56 33.63
332 0.0298 1111.00 1033.66 33.33
333 0.0298 1071.00 1033.76 32.73
334 0.0299 1103.00 1033.85 33.21
335 0.0299 1143.00 1033.96 33.81
336 0.0300 1037.00 1034.06 32.20
337 0.0300 1111.00 1034.16 33.33
338 0.0301 1086.00 1034.27 32.95
339 0.0301 1100.00 1034.37 33.17
340 0.0302 1104.00 1034.48 33.23
341 0.0302 1191.00 1034.59 34.51
342 0.0303 1105.00 1034.70 33.24
343 0.0304 1075.00 1034.81 32.79
344 0.0304 1017.00 1034.92 31.89
345 0.0305 1078.00 1035.03 32.83
346 0.0305 1087.00 1035.15 32.97
347 0.0306 1121.00 1035.27 33.48
348 0.0306 1080.00 1035.38 32.86
349 0.0307 1084.00 1035.50 32.92
350 0.0307 1121.00 1035.62 33.48
351 0.0308 1130.00 1035.74 33.62
352 0.0308 1038.00 1035.86 32.22
353 0.0309 1092.00 1035.99 33.05
354 0.0309 1084.00 1036.11 32.92
355 0.0310 1109.00 1036.24 33.30
356 0.0310 1089.00 1036.37 33.00
357 0.0311 1084.00 1036.49 32.92
358 0.0311 1067.00 1036.62 32.67
359 0.0312 1018.00 1036.75 31.91
360 0.0312 1087.00 1036.89 32.97
361 0.0313 1101.00 1037.02 33.18
362 0.0313 1173.00 1037.15 34.25
363 0.0314 1153.00 1037.29 33.96
364 0.0315 1103.00 1037.43 33.21
365 0.0315 1011.00 1037.56 31.80
366 0.0316 1052.00 1037.70 32.43
367 0.0316 998.00 1037.84 31.59
368 0.0317 1118.00 1037.98 33.44
369 0.0317 1042.00 1038.13 32.28
370 0.0318 1044.00 1038.27 32.31
371 0.0318 1034.00 1038.41 32.16
372 0.0319 1079.00 1038.56 32.85
373 0.0319 1103.00 1038.71 33.21
374 0.0320 1069.00 1038.85 32.70
375 0.0320 1024.00 1039.00 32.00
376 0.0321 1126.00 1039.15 33.56
377 0.0321 988.00 1039.31 31.43
378 0.0322 1053.00 1039.46 32.45
379 0.0322 1122.00 1039.61 33.50
380 0.0323 1070.00 1039.77 32.71
381 0.0323 1087.00 1039.92 32.97
382 0.0324 1111.00 1040.08 33.33
383 0.0324 1058.00 1040.24 32.53
384 0.0325 1084.00 1040.39 32.92
385 0.0325 1109.00 1040.55 33.30
386 0.0326 1116.00 1040.72 33.41
387 0.0327 1074.00 1040.88 32.77
388 0.0327 1030.00 1041.04 32.09
389 0.0328 1114.00 1041.20 33.38
390 0.0328 1207.00 1041.37 34.74
391 0.0329 1064.00 1041.54 32.62
392 0.0329 1109.00 1041.70 33.30
393 0.0330 1146.00 1041.87 33.85
394 0.0330 1109.00 1042.04 33.30
395 0.0331 1027.00 1042.21 32.05
396 0.0331 1086.00 1042.38 32.95
397 0.0332 1132.00 1042.55 33.65
398 0.0332 1068.00 1042.73 32.68
399 0.0333 991.00 1042.90 31.48
400 0.0333 1024.00 1043.08 32.00
401 0.0334 1102.00 1043.25 33.20
402 0.0334 1121.00 1043.43 33.48
403 0.0335 1035.00 1043.61 32.17
404 0.0335 1153.00 1043.79 33.96
405 0.0336 1123.00 1043.97 33.51
406 0.0336 1130.00 1044.15 33.62
407 0.0337 1093.00 1044.33 33.06
408 0.0338 1035.00 1044.51 32.17
409 0.0338 1147.00 1044.70 33.87
410 0.0339 1091.00 1044.88 33.03
411 0.0339 1074.00 1045.07 32.77
412 0.0340 1086.00 1045.26 32.95
413 0.0340 1047.00 1045.44 32.36
414 0.0341 1070.00 1045.63 32.71
415 0.0341 1082.00 1045.82 32.89
416 0.0342 1075.00 1046.01 32.79
417 0.0342 1242.00 1046.20 35.24
418 0.0343 1174.00 1046.40 34.26
419 0.0343 1022.00 1046.59 31.97
420 0.0344 1091.00 1046.78 33.03
421 0.0344 1077.00 1046.98 32.82
422 0.0345 1062.00 1047.17 32.59
423 0.0345 1100.00 1047.37 33.17
424 0.0346 1078.00 1047.57 32.83
425 0.0346 1118.00 1047.77 33.44
426 0.0347 1098.00 1047.96 33.14
427 0.0347 1106.00 1048.17 33.26
428 0.0348 1144.00 1048.37 33.82
429 0.0349 1118.00 1048.57 33.44
430 0.0349 1180.00 1048.77 34.35
431 0.0350 1084.00 1048.97 32.92
432 0.0350 1190.00 1049.18 34.50
433 0.0351 1099.00 1049.38 33.15
434 0.0351 1129.00 1049.59 33.60
435 0.0352 1108.00 1049.80 33.29
436 0.0352 1025.00 1050.00 32.02
437 0.0353 985.00 1050.21 31.38
438 0.0353 1142.00 1050.42 33.79
439 0.0354 1136.00 1050.63 33.70
440 0.0354 1110.00 1050.84 33.32
441 0.0355 997.00 1051.05 31.58
442 0.0355 1098.00 1051.27 33.14
443 0.0356 1109.00 1051.48 33.30
444 0.0356 1110.00 1051.69 33.32
445 0.0357 1100.00 1051.91 33.17
446 0.0357 1108.00 1052.12 33.29
447 0.0358 1141.00 1052.34 33.78
448 0.0358 1060.00 1052.56 32.56
449 0.0359 1126.00 1052.78 33.56
450 0.0360 981.00 1052.99 31.32
451 0.0360 1092.00 1053.21 33.05
452 0.0361 1120.00 1053.43 33.47
453 0.0361 1120.00 1053.65 33.47
454 0.0362 1124.00 1053.88 33.53
455 0.0362 1020.00 1054.10 31.94
456 0.0363 1064.00 1054.32 32.62
457 0.0363 1121.00 1054.55 33.48
458 0.0364 1133.00 1054.77 33.66
459 0.0364 1083.00 1054.99 32.91
460 0.0365 1123.00 1055.22 33.51
461 0.0365 1062.00 1055.45 32.59
462 0.0366 1148.00 1055.67 33.88
463 0.0366 1122.00 1055.90 33.50
464 0.0367 1070.00 1056.13 32.71
465 0.0367 1120.00 1056.36 33.47
466 0.0368 1073.00 1056.59 32.76
467 0.0368 1040.00 1056.82 32.25
468 0.0369 1094.00 1057.05 33.08
469 0.0369 1149.00 1057.28 33.90
470 0.0370 1026.00 1057.52 32.03
471 0.0371 1068.00 1057.75 32.68
472 0.0371 1060.00 1057.98 32.56
473 0.0372 960.00 1058.22 30.98
474 0.0372 1075.00 1058.45 32.79
475 0.0373 1107.00 1058.69 33.27
476 0.0373 1042.00 1058.93 32.28
477 0.0374 1045.00 1059.16 32.33
478 0.0374 1048.00 1059.40 32.37
479 0.0375 1080.00 1059.64 32.86
480 0.0375 1042.00 1059.88 32.28
481 0.0376 1101.00 1060.12 33.18
482 0.0376 1093.00 1060.36 33.06
483 0.0377 1165.00 1060.60 34.13
484 0.0377 1053.00 1060.84 32.45
485 0.0378 974.00 1061.08 31.21
486 0.0378 1187.00 1061.33 34.45
487 0.0379 1004.00 1061.57 31.69
488 0.0379 1102.00 1061.81 33.20
489 0.0380 1117.00 1062.06 33.42
490 0.0380 1100.00 1062.30 33.17
491 0.0381 1148.00 1062.55 33.88
492 0.0382 1070.00 1062.80 32.71
493 0.0382 1101.00 1063.04 33.18
494 0.0383 1026.00 1063.29 32.03
495 0.0383 1088.00 1063.54 32.98
496 0.0384 1119.00 1063.79 33.45
497 0.0384 1020.00 1064.03 31.94
498 0.0385 1041.00 1064.28 32.26
499 0.0385 1122.00 1064.53 33.50
500 0.0386 1135.00 1064.78 33.69
501 0.0386 1096.00 1065.04 33.11
502 0.0387 1056.00 1065.29 32.50
503 0.0387 1187.00 1065.54 34.45
504 0.0388 1120.00 1065.79 33.47
505 0.0388 1079.00 1066.04 32.85
506 0.0389 1193.00 1066.30 34.54
507 0.0389 1162.00 1066.55 34.09
508 0.0390 1091.00 1066.81 33.03
509 0.0390 1082.00 1067.06 32.89
510 0.0391 1175.00 1067.32 34.28
511 0.0391 1092.00 1067.57 33.05
512 0.0392 1077.00 1067.83 32.82
513 0.0393 1074.00 1068.09 32.77
514 0.0393 1045.00 1068.35 32.33
515 0.0394 1134.00 1068.60 33.67
516 0.0394 1150.00 1068.86 33.91
517 0.0395 1114.00 1069.12 33.38
518 0.0395 1099.00 1069.38 33.15
519 0.0396 1107.00 1069.64 33.27
520 0.0396 1116.00 1069.90 33.41
521 0.0397 1112.00 1070.16 33.35
522 0.0397 1064.00 1070.42 32.62
523 0.0398 1134.00 1070.68 33.67
524 0.0398 1044.00 1070.95 32.31
525 0.0399 1098.00 1071.21 33.14
526 0.0399 1141.00 1071.47 33.78
527 0.0400 1129.00 1071.73 33.60
528 0.0400 1140.00 1072.00 33.76
529 0.0401 1116.00 1072.26 33.41
530 0.0401 1049.00 1072.53 32.39
531 0.0402 1081.00 1072.79 32.88
532 0.0402 1100.00 1073.06 33.17
533 0.0403 1159.00 1073.32 34.04
534 0.0404 1027.00 1073.59 32.05
535 0.0404 1150.00 1073.86 33.91
536 0.0405 1049.00 1074.12 32.39
537 0.0405 1025.00 1074.39 32.02
538 0.0406 1095.00 1074.66 33.09
539 0.0406 1133.00 1074.93 33.66
540 0.0407 1047.00 1075.19 32.36
541 0.0407 1074.00 1075.46 32.77
542 0.0408 1117.00 1075.73 33.42
543 0.0408 1033.00 1076.00 32.14
544 0.0409 1127.00 1076.27 33.57
545 0.0409 1126.00 1076.54 33.56
546 0.0410 1068.00 1076.81 32.68
547 0.0410 1018.00 1077.08 31.91
548 0.0411 1111.00 1077.35 33.33
549 0.0411 1050.00 1077.63 32.40
550 0.0412 1114.00 1077.90 33.38
551 0.0412 1067.00 1078.17 32.67
552 0.0413 1121.00 1078.44 33.48
553 0.0413 1119.00 1078.72 33.45
554 0.0414 1092.00 1078.99 33.05
555 0.0415 1114.00 1079.26 33.38
556 0.0415 1105.00 1079.54 33.24
557 0.0416 1076.00 1079.81 32.80
558 0.0416 1130.00 1080.09 33.62
559 0.0417 1055.00 1080.36 32.48
560 0.0417 1054.00 1080.63 32.47
561 0.0418 1054.00 1080.91 32.47
562 0.0418 1125.00 1081.19 33.54
563 0.0419 1169.00 1081.46 34.19
564 0.0419 1108.00 1081.74 33.29
565 0.0420 1100.00 1082.01 33.17
566 0.0420 1099.00 1082.29 33.15
567 0.0421 1110.00 1082.57 33.32
568 0.0421 1007.00 1082.85 31.73
569 0.0422 1110.00 1083.12 33.32
570 0.0422 1051.00 1083.40 32.42
571 0.0423 1135.00 1083.68 33.69
572 0.0423 1120.00 1083.96 33.47
573 0.0424 1120.00 1084.23 33.47
574 0.0424 1094.00 1084.51 33.08
575 0.0425 1091.00 1084.79 33.03
576 0.0426 1166.00 1085.07 34.15
577 0.0426 1053.00 1085.35 32.45
578 0.0427 1063.00 1085.63 32.60
579 0.0427 1100.00 1085.91 33.17
580 0.0428 1078.00 1086.19 32.83
581 0.0428 1179.00 1086.47 34.34
582 0.0429 1129.00 1086.75 33.60
583 0.0429 1103.00 1087.03 33.21
584 0.0430 1088.00 1087.31 32.98
585 0.0430 1118.00 1087.59 33.44
586 0.0431 1114.00 1087.88 33.38
587 0.0431 1025.00 1088.16 32.02
588 0.0432 1088.00 1088.44 32.98
589 0.0432 1083.00 1088.72 32.91
590 0.0433 1079.00 1089.00 32.85
591 0.0433 1005.00 1089.29 31.70
592 0.0434 1085.00 1089.57 32.94
593 0.0434 1079.00 1089.85 32.85
594 0.0435 1071.00 1090.13 32.73
595 0.0435 1117.00 1090.42 33.42
596 0.0436 1108.00 1090.70 33.29
597 0.0437 1098.00 1090.98 33.14
598 0.0437 1114.00 1091.27 33.38
599 0.0438 1067.00 1091.55 32.67
600 0.0438 1024.00 1091.83 32.00
601 0.0439 1115.00 1092.12 33.39
602 0.0439 1079.00 1092.40 32.85
603 0.0440 1138.00 1092.69 33.73
604 0.0440 1071.00 1092.97 32.73
605 0.0441 1221.00 1093.25 34.94
606 0.0441 1196.00 1093.54 34.58
607 0.0442 1092.00 1093.82 33.05
608 0.0442 1045.00 1094.11 32.33
609 0.0443 1134.00 1094.39 33.67
610 0.0443 1155.00 1094.68 33.99
611 0.0444 1174.00 1094.96 34.26
612 0.0444 1109.00 1095.25 33.30
613 0.0445 1078.00 1095.53 32.83
614 0.0445 1056.00 1095.82 32.50
615 0.0446 1064.00 1096.11 32.62
616 0.0446 1121.00 1096.39 33.48
617 0.0447 1065.00 1096.68 32.63
618 0.0447 1140.00 1096.96 33.76
619 0.0448 1015.00 1097.25 31.86
620 0.0449 1106.00 1097.54 33.26
621 0.0449 1070.00 1097.82 32.71
622 0.0450 1087.00 1098.11 32.97
623 0.0450 1167.00 1098.39 34.16
624 0.0451 1082.00 1098.68 32.89
625 0.0451 1188.00 1098.97 34.47
626 0.0452 1018.00 1099.25 31.91
627 0.0452 1058.00 1099.54 32.53
628 0.0453 1120.00 1099.83 33.47
629 0.0453 1111.00 1100.11 33.33
630 0.0454 1076.00 1100.40 32.80
631 0.0454 1079.00 1100.69 32.85
632 0.0455 1128.00 1100.97 33.59
633 0.0455 1041.00 1101.26 32.26
634 0.0456 1111.00 1101.55 33.33
635 0.0456 1055.00 1101.83 32.48
636 0.0457 1169.00 1102.12 34.19
637 0.0457 1067.00 1102.41 32.67
638 0.0458 1103.00 1102.69 33.21
639 0.0458 1120.00 1102.98 33.47
640 0.0459 1137.00 1103.27 33.72
641 0.0460 1151.00 1103.56 33.93
642 0.0460 1217.00 1103.84 34.89
643 0.0461 1109.00 1104.13 33.30
644 0.0461 1100.00 1104.42 33.17
645 0.0462 1119.00 1104.70 33.45
646 0.0462 1137.00 1104.99 33.72
647 0.0463 1121.00 1105.28 33.48
648 0.0463 1139.00 1105.57 33.75
649 0.0464 1050.00 1105.85 32.40
650 0.0464 1020.00 1106.14 31.94
651 0.0465 1112.00 1106.43 33.35
652 0.0465 1139.00 1106.71 33.75
653 0.0466 1158.00 1107.00 34.03
654 0.0466 1148.00 1107.29 33.88
655 0.0467 1111.00 1107.57 33.33
656 0.0467 1126.00 1107.86 33.56
657 0.0468 1219.00 1108.15 34.91
658 0.0468 1140.00 1108.44 33.76
659 0.0469 1048.00 1108.72 32.37
660 0.0469 1128.00 1109.01 33.59
661 0.0470 1106.00 1109.30 33.26
662 0.0471 1162.00 1109.58 34.09
663 0.0471 1066.00 1109.87 32.65
664 0.0472 1152.00 1110.16 33.94
665 0.0472 1039.00 1110.44 32.23
666 0.0473 1206.00 1110.73 34.73
667 0.0473 1134.00 1111.02 33.67
668 0.0474 1103.00 1111.30 33.21
669 0.0474 1042.00 1111.59 32.28
670 0.0475 1106.00 1111.88 33.26
671 0.0475 1140.00 1112.16 33.76
672 0.0476 1111.00 1112.45 33.33
673 0.0476 1176.00 1112.73 34.29
674 0.0477 1099.00 1113.02 33.15
675 0.0477 1154.00 1113.31 33.97
676 0.0478 1075.00 1113.59 32.79
677 0.0478 1133.00 1113.88 33.66
678 0.0479 1080.00 1114.16 32.86
679 0.0479 1167.00 1114.45 34.16
680 0.0480 1145.00 1114.73 33.84
681 0.0480 1073.00 1115.02 32.76
682 0.0481 1162.00 1115.31 34.09
683 0.0482 1187.00 1115.59 34.45
684 0.0482 1128.00 1115.88 33.59
685 0.0483 1106.00 1116.16 33.26
686 0.0483 1167.00 1116.45 34.16
687 0.0484 1182.00 1116.73 34.38
688 0.0484 1117.00 1117.02 33.42
689 0.0485 1096.00 1117.30 33.11
690 0.0485 1103.00 1117.58 33.21
691 0.0486 1134.00 1148.01 33.67
692 0.0486 1111.00 1152.72 33.33
693 0.0487 1190.00 1158.48 34.50
694 0.0487 1073.00 1165.65 32.76
695 0.0488 1112.00 1174.75 33.35
696 0.0488 1136.00 1186.57 33.70
697 0.0489 1147.00 1202.36 33.87
698 0.0489 1118.00 1224.20 33.44
699 0.0490 1085.00 1256.06 32.94
700 0.0490 1192.00 1307.18 34.53
701 0.0491 1225.00 1401.41 35.00
702 0.0491 1213.00 1592.86 34.83
703 0.0492 1332.00 1978.01 36.50
704 0.0493 1318.00 2730.29 36.30
705 0.0493 1926.00 4237.97 43.89
706 0.0494 1908.00 5477.61 43.68
707 0.0494 2333.00 3325.90 48.30
708 0.0495 1536.00 1968.97 39.19
709 0.0495 1370.00 1560.78 37.01
710 0.0496 1163.00 1429.84 34.10
711 0.0496 1140.00 1356.95 33.76
712 0.0497 1260.00 1300.29 35.50
713 0.0497 1241.00 1257.92 35.23
714 0.0498 1231.00 1228.04 35.09
715 0.0498 1144.00 1207.04 33.82
716 0.0499 1185.00 1191.93 34.42
717 0.0499 1176.00 1180.74 34.29
718 0.0500 1219.00 1172.25 34.91
719 0.0500 1146.00 1165.68 33.85
720 0.0501 1140.00 1160.51 33.76
721 0.0501 1197.00 1126.33 34.60
722 0.0502 1108.00 1126.61 33.29
723 0.0502 1107.00 1126.89 33.27
724 0.0503 1133.00 1127.17 33.66
725 0.0504 1140.00 1127.45 33.76
726 0.0504 1129.00 1127.72 33.60
727 0.0505 1095.00 1128.00 33.09
728 0.0505 1112.00 1128.28 33.35
729 0.0506 1186.00 1128.56 34.44
730 0.0506 1138.00 1128.84 33.73
731 0.0507 1181.00 1129.11 34.37
732 0.0507 1083.00 1129.39 32.91
733 0.0508 1240.00 1129.67 35.21
734 0.0508 1112.00 1129.95 33.35
735 0.0509 1083.00 1130.22 32.91
736 0.0509 1145.00 1130.50 33.84
737 0.0510 1211.00 1130.77 34.80
738 0.0510 1233.00 1131.05 35.11
739 0.0511 1131.00 1131.33 33.63
740 0.0511 1212.00 1131.60 34.81
741 0.0512 1137.00 1131.88 33.72
742 0.0512 1156.00 1132.15 34.00
743 0.0513 1139.00 1132.43 33.75
744 0.0513 1166.00 1132.70 34.15
745 0.0514 987.00 1132.98 31.42
746 0.0515 1151.00 1133.25 33.93
747 0.0515 1094.00 1133.52 33.08
748 0.0516 1162.00 1133.80 34.09
749 0.0516 1099.00 1134.07 33.15
750 0.0517 1098.00 1134.34 33.14
751 0.0517 1184.00 1134.62 34.41
752 0.0518 1110.00 1134.89 33.32
753 0.0518 1135.00 1135.16 33.69
754 0.0519 1145.00 1135.43 33.84
755 0.0519 1226.00 1135.70 35.01
756 0.0520 1151.00 1135.98 33.93
757 0.0520 1204.00 1136.25 34.70
758 0.0521 1184.00 1136.52 34.41
759 0.0521 1060.00 1136.79 32.56
760 0.0522 1107.00 1137.06 33.27
761 0.0522 1178.00 1137.33 34.32
762 0.0523 1138.00 1137.60 33.73
763 0.0523 1171.00 1137.87 34.22
764 0.0524 1192.00 1138.14 34.53
765 0.0524 1207.00 1138.41 34.74
766 0.0525 1239.00 1138.67 35.20
767 0.0526 1160.00 1138.94 34.06
768 0.0526 1194.00 1139.21 34.55
769 0.0527 1185.00 1139.48 34.42
770 0.0527 1121.00 1139.75 33.48
771 0.0528 1171.00 1140.01 34.22
772 0.0528 1149.00 1140.28 33.90
773 0.0529 1190.00 1140.55 34.50
774 0.0529 1214.00 1140.81 34.84
775 0.0530 1124.00 1141.08 33.53
776 0.0530 1110.00 1141.34 33.32
777 0.0531 1116.00 1141.61 33.41
778 0.0531 1108.00 1141.88 33.29
779 0.0532 1107.00 1142.14 33.27
780 0.0532 1169.00 1142.40 34.19
781 0.0533 1166.00 1142.67 34.15
782 0.0533 1189.00 1142.93 34.48
783 0.0534 1105.00 1143.20 33.24
784 0.0534 1088.00 1143.46 32.98
785 0.0535 1178.00 1143.72 34.32
786 0.0535 1231.00 1143.98 35.09
787 0.0536 1086.00 1144.25 32.95
788 0.0537 1113.00 1144.51 33.36
789 0.0537 1108.00 1144.77 33.29
790 0.0538 1175.00 1145.03 34.28
791 0.0538 1104.00 1145.29 33.23
792 0.0539 1123.00 1145.55 33.51
793 0.0539 1173.00 1145.81 34.25
794 0.0540 1120.00 1146.07 33.47
795 0.0540 1192.00 1146.33 34.53
796 0.0541 1206.00 1146.59 34.73
797 0.0541 1190.00 1146.85 34.50
798 0.0542 1135.00 1147.11 33.69
799 0.0542 1166.00 1147.37 34.15
800 0.0543 1120.00 1147.63 33.47
801 0.0543 1234.00 1147.88 35.13
802 0.0544 1121.00 1148.14 33.48
803 0.0544 1184.00 1148.40 34.41
804 0.0545 1062.00 1148.65 32.59
805 0.0545 1134.00 1148.91 33.67
806 0.0546 1142.00 1149.17 33.79
807 0.0546 1104.00 1149.42 33.23
808 0.0547 1179.00 1149.68 34.34
809 0.0548 1167.00 1149.93 34.16
810 0.0548 1176.00 1150.19 34.29
811 0.0549 1184.00 1150.44 34.41
812 0.0549 1245.00 1150.69 35.28
813 0.0550 1128.00 1150.95 33.59
814 0.0550 1182.00 1151.20 34.38
815 0.0551 1129.00 1151.45 33.60
816 0.0551 1180.00 1151.70 34.35
817 0.0552 1136.00 1151.96 33.70
818 0.0552 1117.00 1152.21 33.42
819 0.0553 1144.00 1152.46 33.82
820 0.0553 1187.00 1152.71 34.45
821 0.0554 1178.00 1152.96 34.32
822 0.0554 1122.00 1153.21 33.50
823 0.0555 1181.00 1153.46 34.37
824 0.0555 1177.00 1153.71 34.31
825 0.0556 1175.00 1153.96 34.28
826 0.0556 1056.00 1154.20 32.50
827 0.0557 1199.00 1154.45 34.63
828 0.0557 1155.00 1154.70 33.99
829 0.0558 1153.00 1154.95 33.96
830 0.0559 1159.00 1155.19 34.04
831 0.0559 1122.00 1155.44 33.50
832 0.0560 1092.00 1155.69 33.05
833 0.0560 1178.00 1155.93 34.32
834 0.0561 1189.00 1156.18 34.48
835 0.0561 1108.00 1156.42 33.29
836 0.0562 1207.00 1156.67 34.74
837 0.0562 1131.00 1156.91 33.63
838 0.0563 1193.00 1157.16 34.54
839 0.0563 1112.00 1157.40 33.35
840 0.0564 1183.00 1157.64 34.39
841 0.0564 1142.00 1157.88 33.79
842 0.0565 1083.00 1158.13 32.91
843 0.0565 1157.00 1158.37 34.01
844 0.0566 1180.00 1158.61 34.35
845 0.0566 1217.00 1158.85 34.89
846 0.0567 1187.00 1159.09 34.45
847 0.0567 1159.00 1159.33 34.04
848 0.0568 1110.00 1159.57 33.32
849 0.0568 1211.00 1159.81 34.80
850 0.0569 1173.00 1160.05 34.25
851 0.0569 1172.00 1160.29 34.23
852 0.0570 1151.00 1160.53 33.93
853 0.0571 1118.00 1160.76 33.44
854 0.0571 1106.00 1161.00 33.26
855 0.0572 1098.00 1161.24 33.14
856 0.0572 1144.00 1161.47 33.82
857 0.0573 1171.00 1161.71 34.22
858 0.0573 1116.00 1161.95 33.41
859 0.0574 1164.00 1162.18 34.12
860 0.0574 1185.00 1162.42 34.42
861 0.0575 1161.00 1162.65 34.07
862 0.0575 1239.00 1162.88 35.20
863 0.0576 1115.00 1163.12 33.39
864 0.0576 1263.00 1163.35 35.54
865 0.0577 1132.00 1163.58 33.65
866 0.0577 1145.00 1163.82 33.84
867 0.0578 1228.00 1164.05 35.04
868 0.0578 1118.00 1164.28 33.44
869 0.0579 1152.00 1164.51 33.94
870 0.0579 1243.00 1164.74 35.26
871 0.0580 1088.00 1164.97 32.98
872 0.0580 1084.00 1165.20 32.92
873 0.0581 1120.00 1165.43 33.47
874 0.0582 1163.00 1165.66 34.10
875 0.0582 1145.00 1165.89 33.84
876 0.0583 1256.00 1166.11 35.44
877 0.0583 1180.00 1166.34 34.35
878 0.0584 1139.00 1166.57 33.75
879 0.0584 1133.00 1166.80 33.66
880 0.0585 1100.00 1167.02 33.17
881 0.0585 1173.00 1167.25 34.25
882 0.0586 1164.00 1167.47 34.12
883 0.0586 1072.00 1167.70 32.74
884 0.0587 1125.00 1167.92 33.54
885 0.0587 1189.00 1168.15 34.48
886 0.0588 1172.00 1168.37 34.23
887 0.0588 1090.00 1168.59 33.02
888 0.0589 1140.00 1168.81 33.76
889 0.0589 1208.00 1169.04 34.76
890 0.0590 1117.00 1169.26 33.42
891 0.0590 1165.00 1169.48 34.13
892 0.0591 1139.00 1169.70 33.75
893 0.0591 1123.00 1169.92 33.51
894 0.0592 1108.00 1170.14 33.29
895 0.0593 1225.00 1170.36 35.00
896 0.0593 1148.00 1170.58 33.88
897 0.0594 1121.00 1170.80 33.48
898 0.0594 1064.00 1171.02 32.62
899 0.0595 1152.00 1171.23 33.94
900 0.0595 1229.00 1171.45 35.06
901 0.0596 1203.00 1171.67 34.68
902 0.0596 1168.00 1171.88 34.18
903 0.0597 1130.00 1172.10 33.62
904 0.0597 1150.00 1172.32 33.91
905 0.0598 1090.00 1172.53 33.02
906 0.0598 1132.00 1172.74 33.65
907 0.0599 1162.00 1172.96 34.09
908 0.0599 1152.00 1173.17 33.94
909 0.0600 1183.00 1173.39 34.39
910 0.0600 1167.00 1173.60 34.16
911 0.0601 1136.00 1173.81 33.70
912 0.0601 1196.00 1174.02 34.58
913 0.0602 1159.00 1174.23 34.04
914 0.0602 1129.00 1174.44 33.60
915 0.0603 1148.00 1174.65 33.88
916 0.0604 1109.00 1174.86 33.30
917 0.0604 1160.00 1175.07 34.06
918 0.0605 1149.00 1175.28 33.90
919 0.0605 1166.00 1175.49 34.15
920 0.0606 1187.00 1175.70 34.45
921 0.0606 1132.00 1175.91 33.65
922 0.0607 1252.00 1176.11 35.38
923 0.0607 1239.00 1176.32 35.20
924 0.0608 1153.00 1176.53 33.96
925 0.0608 1126.00 1176.73 33.56
926 0.0609 1147.00 1176.94 33.87
927 0.0609 1137.00 1177.14 33.72
928 0.0610 1253.00 1177.35 35.40
929 0.0610 1159.00 1177.55 34.04
930 0.0611 1197.00 1177.75 34.60
931 0.0611 1162.00 1177.96 34.09
932 0.0612 1205.00 1178.16 34.71
933 0.0612 1226.00 1178.36 35.01
934 0.0613 1139.00 1178.56 33.75
935 0.0613 1173.00 1178.76 34.25
936 0.0614 1196.00 1178.96 34.58
937 0.0615 1116.00 1179.16 33.41
938 0.0615 1126.00 1179.36 33.56
939 0.0616 1184.00 1179.56 34.41
940 0.0616 1186.00 1179.76 34.44
941 0.0617 1191.00 1179.96 34.51
942 0.0617 1216.00 1180.16 34.87
943 0.0618 1205.00 1180.35 34.71
944 0.0618 1094.00 1180.55 33.08
945 0.0619 1150.00 1180.75 33.91
946 0.0619 1227.00 1180.94 35.03
947 0.0620 1168.00 1181.14 34.18
948 0.0620 1175.00 1181.33 34.28
949 0.0621 1169.00 1181.53 34.19
950 0.0621 1172.00 1181.72 34.23
951 0.0622 1168.00 1181.91 34.18
952 0.0622 1125.00 1182.11 33.54
953 0.0623 1197.00 1182.30 34.60
954 0.0623 1175.00 1182.49 34.28
955 0.0624 1216.00 1182.68 34.87
956 0.0624 1187.00 1182.87 34.45
957 0.0625 1151.00 1183.06 33.93
958 0.0626 1147.00 1183.25 33.87
959 0.0626 1119.00 1183.44 33.45
960 0.0627 1159.00 1183.63 34.04
961 0.0627 1150.00 1183.82 33.91
962 0.0628 1062.00 1184.01 32.59
963 0.0628 1079.00 1184.20 32.85
964 0.0629 1151.00 1184.38 33.93
965 0.0629 1239.00 1184.57 35.20
966 0.0630 1140.00 1184.76 33.76
967 0.0630 1162.00 1199.46 34.09
968 0.0631 1096.00 1200.50 33.11
969 0.0631 1135.00 1201.61 33.69
970 0.0632 1208.00 1202.80 34.76
971 0.0632 1114.00 1204.09 33.38
972 0.0633 1232.00 1205.50 35.10
973 0.0633 1146.00 1207.02 33.85
974 0.0634 1235.00 1208.69 35.14
975 0.0634 1213.00 1210.52 34.83
976 0.0635 1198.00 1212.53 34.61
977 0.0635 1200.00 1214.77 34.64
978 0.0636 1157.00 1217.25 34.01
979 0.0637 1176.00 1220.03 34.29
980 0.0637 1198.00 1223.15 34.61
981 0.0638 1212.00 1226.69 34.81
982 0.0638 1158.00 1230.72 34.03
983 0.0639 1107.00 1235.35 33.27
984 0.0639 1177.00 1240.72 34.31
985 0.0640 1137.00 1247.01 33.72
986 0.0640 1170.00 1254.51 34.21
987 0.0641 1226.00 1263.60 35.01
988 0.0641 1153.00 1274.88 33.96
989 0.0642 1222.00 1289.20 34.96
990 0.0642 1098.00 1307.80 33.14
991 0.0643 1185.00 1332.40 34.42
992 0.0643 1154.00 1365.27 33.97
993 0.0644 1133.00 1409.28 33.66
994 0.0644 1259.00 1468.03 35.48
995 0.0645 1172.00 1546.11 34.23
996 0.0645 1206.00 1649.80 34.73
997 0.0646 1173.00 1788.46 34.25
998 0.0646 1175.00 1976.74 34.28
999 0.0647 1231.00 2235.15 35.09
1000 0.0648 1156.00 2579.49 34.00
1001 0.0648 1220.00 2970.73 34.93
1002 0.0649 1177.00 3220.41 34.31
1003 0.0649 1192.00 3085.03 34.53
1004 0.0650 1155.00 2646.94 33.99
1005 0.0650 1129.00 2198.07 33.60
1006 0.0651 1125.00 1871.41 33.54
1007 0.0651 1129.00 1661.36 33.60
1008 0.0652 1150.00 1531.60 33.91
1009 0.0652 1178.00 1451.83 34.32
1010 0.0653 1129.00 1401.71 33.60
1011 0.0653 1117.00 1368.56 33.42
1012 0.0654 1126.00 1344.80 33.56
1013 0.0654 1055.00 1326.23 32.48
1014 0.0655 1122.00 1310.69 33.50
1015 0.0655 1134.00 1297.21 33.67
1016 0.0656 1040.00 1285.38 32.25
1017 0.0656 1206.00 1275.04 34.73
1018 0.0657 1139.00 1266.07 33.75
1019 0.0657 1219.00 1258.35 34.91
1020 0.0658 1146.00 1251.74 33.85
1021 0.0659 1153.00 1246.07 33.96
1022 0.0659 1151.00 1241.22 33.93
1023 0.0660 1161.00 1237.04 34.07
1024 0.0660 1077.00 1233.43 32.82
1025 0.0661 1170.00 1230.29 34.21
1026 0.0661 1163.00 1227.55 34.10
1027 0.0662 1191.00 1225.16 34.51
1028 0.0662 1135.00 1223.05 33.69
1029 0.0663 1152.00 1221.18 33.94
1030 0.0663 1155.00 1219.53 33.99
1031 0.0664 1147.00 1218.06 33.87
1032 0.0664 1076.00 1216.75 32.80
1033 0.0665 1156.00 1215.58 34.00
1034 0.0665 1169.00 1214.54 34.19
1035 0.0666 1164.00 1213.59 34.12
1036 0.0666 1157.00 1212.75 34.01
1037 0.0667 1117.00 1211.98 33.42
1038 0.0667 1163.00 1211.30 34.10
1039 0.0668 1121.00 1197.04 33.48
1040 0.0668 1178.00 1197.19 34.32
1041 0.0669 1188.00 1197.34 34.47
1042 0.0670 1104.00 1197.49 33.23
1043 0.0670 1144.00 1197.64 33.82
1044 0.0671 1156.00 1197.79 34.00
1045 0.0671 1160.00 1197.94 34.06
1046 0.0672 1184.00 1198.09 34.41
1047 0.0672 1148.00 1198.23 33.88
1048 0.0673 1156.00 1198.38 34.00
1049 0.0673 1238.00 1198.53 35.19
1050 0.0674 1138.00 1198.67 33.73
1051 0.0674 1165.00 1198.82 34.13
1052 0.0675 1191.00 1198.96 34.51
1053 0.0675 1228.00 1199.11 35.04
1054 0.0676 1168.00 1199.25 34.18
1055 0.0676 1206.00 1199.39 34.73
1056 0.0677 1161.00 1199.54 34.07
1057 0.0677 1075.00 1199.68 32.79
1058 0.0678 1177.00 1199.82 34.31
1059 0.0678 1226.00 1199.96 35.01
1060 0.0679 1124.00 1200.10 33.53
1061 0.0679 1132.00 1200.25 33.65
1062 0.0680 1182.00 1200.39 34.38
1063 0.0680 1120.00 1200.53 33.47
1064 0.0681 1260.00 1200.66 35.50
1065 0.0682 1138.00 1200.80 33.73
1066 0.0682 1196.00 1200.94 34.58
1067 0.0683 1141.00 1201.08 33.78
1068 0.0683 1161.00 1201.22 34.07
1069 0.0684 1157.00 1201.35 34.01
1070 0.0684 1265.00 1201.49 35.57
1071 0.0685 1187.00 1201.63 34.45
1072 0.0685 1137.00 1201.76 33.72
1073 0.0686 1171.00 1201.90 34.22
1074 0.0686 1172.00 1202.03 34.23
1075 0.0687 1140.00 1202.17 33.76
1076 0.0687 1159.00 1202.30 34.04
1077 0.0688 1205.00 1202.43 34.71
1078 0.0688 1099.00 1202.57 33.15
1079 0.0689 1181.00 1202.70 34.37
1080 0.0689 1254.00 1202.83 35.41
1081 0.0690 1135.00 1202.96 33.69
1082 0.0690 1187.00 1203.09 34.45
1083 0.0691 1133.00 1203.22 33.66
1084 0.0691 1154.00 1203.35 33.97
1085 0.0692 1172.00 1203.48 34.23
1086 0.0693 1134.00 1203.61 33.67
1087 0.0693 1158.00 1203.74 34.03
1088 0.0694 1142.00 1203.87 33.79
1089 0.0694 1232.00 1204.00 35.10
1090 0.0695 1210.00 1204.12 34.79
1091 0.0695 1122.00 1204.25 33.50
1092 0.0696 1161.00 1204.38 34.07
1093 0.0696 1204.00 1204.50 34.70
1094 0.0697 1179.00 1204.63 34.34
1095 0.0697 1210.00 1204.75 34.79
1096 0.0698 1230.00 1204.88 35.07
1097 0.0698 1148.00 1205.00 33.88
1098 0.0699 1212.00 1205.13 34.81
1099 0.0699 1174.00 1205.25 34.26
1100 0.0700 1260.00 1205.37 35.50
1101 0.0700 1181.00 1205.49 34.37
1102 0.0701 1173.00 1205.62 34.25
1103 0.0701 1140.00 1205.74 33.76
1104 0.0702 1145.00 1205.86 33.84
1105 0.0702 1213.00 1205.98 34.83
1106 0.0703 1204.00 1206.10 34.70
1107 0.0704 1110.00 1206.22 33.32
1108 0.0704 1117.00 1206.34 33.42
1109 0.0705 1069.00 1206.46 32.70
1110 0.0705 1151.00 1206.58 33.93
1111 0.0706 1162.00 1206.69 34.09
1112 0.0706 1204.00 1206.81 34.70
1113 0.0707 1221.00 1206.93 34.94
1114 0.0707 1157.00 1207.05 34.01
1115 0.0708 1220.00 1207.16 34.93
1116 0.0708 1184.00 1207.28 34.41
1117 0.0709 1201.00 1207.39 34.66
1118 0.0709 1134.00 1207.51 33.67
1119 0.0710 1207.00 1207.62 34.74
1120 0.0710 1157.00 1207.74 34.01
1121 0.0711 1245.00 1207.85 35.28
1122 0.0711 1163.00 1207.96 34.10
1123 0.0712 1213.00 1208.08 34.83
1124 0.0712 1134.00 1208.19 33.67
1125 0.0713 1212.00 1208.30 34.81
1126 0.0713 1147.00 1208.41 33.87
1127 0.0714 1185.00 1208.52 34.42
1128 0.0715 1146.00 1208.64 33.85
1129 0.0715 1139.00 1208.75 33.75
1130 0.0716 1172.00 1208.86 34.23
1131 0.0716 1186.00 1208.97 34.44
1132 0.0717 1172.00 1209.07 34.23
1133 0.0717 1199.00 1209.18 34.63
1134 0.0718 1162.00 1209.29 34.09
1135 0.0718 1198.00 1209.40 34.61
1136 0.0719 1184.00 1209.51 34.41
1137 0.0719 1198.00 1209.61 34.61
1138 0.0720 1304.00 1209.72 36.11
1139 0.0720 1243.00 1209.83 35.26
1140 0.0721 1197.00 1209.93 34.60
1141 0.0721 1221.00 1210.04 34.94
1142 0.0722 1253.00 1210.14 35.40
1143 0.0722 1176.00 1210.25 34.29
1144 0.0723 1123.00 1210.35 33.51
1145 0.0723 1175.00 1210.45 34.28
1146 0.0724 1167.00 1210.56 34.16
1147 0.0724 1194.00 1210.66 34.55
1148 0.0725 1157.00 1210.76 34.01
1149 0.0726 1227.00 1210.86 35.03
1150 0.0726 1256.00 1210.97 35.44
1151 0.0727 1180.00 1211.07 34.35
1152 0.0727 1164.00 1211.17 34.12
1153 0.0728 1284.00 1211.27 35.83
1154 0.0728 1129.00 1211.37 33.60
1155 0.0729 1231.00 1211.47 35.09
1156 0.0729 1103.00 1211.57 33.21
1157 0.0730 1212.00 1211.67 34.81
1158 0.0730 1154.00 1211.77 33.97
1159 0.0731 1172.00 1211.86 34.23
1160 0.0731 1179.00 1211.96 34.34
1161 0.0732 1215.00 1212.06 34.86
1162 0.0732 1173.00 1212.16 34.25
1163 0.0733 1127.00 1212.25 33.57
1164 0.0733 1243.00 1212.35 35.26
1165 0.0734 1276.00 1212.44 35.72
1166 0.0734 1219.00 1212.54 34.91
1167 0.0735 1173.00 1212.63 34.25
1168 0.0735 1254.00 1212.73 35.41
1169 0.0736 1159.00 1212.82 34.04
1170 0.0737 1238.00 1212.92 35.19
1171 0.0737 1192.00 1213.01 34.53
1172 0.0738 1223.00 1213.10 34.97
1173 0.0738 1158.00 1213.20 34.03
1174 0.0739 1174.00 1213.29 34.26
1175 0.0739 1202.00 1213.38 34.67
1176 0.0740 1205.00 1213.47 34.71
1177 0.0740 1167.00 1213.56 34.16
1178 0.0741 1223.00 1213.65 34.97
1179 0.0741 1192.00 1213.74 34.53
1180 0.0742 1258.00 1213.83 35.47
1181 0.0742 1215.00 1213.92 34.86
1182 0.0743 1230.00 1214.01 35.07
1183 0.0743 1215.00 1214.10 34.86
1184 0.0744 1209.00 1214.19 34.77
1185 0.0744 1213.00 1214.28 34.83
1186 0.0745 1151.00 1214.37 33.93
1187 0.0745 1208.00 1214.45 34.76
1188 0.0746 1208.00 1214.54 34.76
1189 0.0746 1197.00 1214.63 34.60
1190 0.0747 1195.00 1214.71 34.57
1191 0.0748 1208.00 1214.80 34.76
1192 0.0748 1182.00 1214.89 34.38
1193 0.0749 1196.00 1214.97 34.58
1194 0.0749 1145.00 1215.06 33.84
1195 0.0750 1127.00 1215.14 33.57
1196 0.0750 1172.00 1215.22 34.23
1197 0.0751 1192.00 1215.31 34.53
1198 0.0751 1185.00 1215.39 34.42
1199 0.0752 1211.00 1215.47 34.80
1200 0.0752 1159.00 1215.56 34.04
1201 0.0753 1130.00 1215.64 33.62
1202 0.0753 1176.00 1215.72 34.29
1203 0.0754 1173.00 1215.80 34.25
1204 0.0754 1123.00 1215.88 33.51
1205 0.0755 1138.00 1215.97 33.73
1206 0.0755 1252.00 1216.05 35.38
1207 0.0756 1261.00 1216.13 35.51
1208 0.0756 1265.00 1216.21 35.57
1209 0.0757 1173.00 1216.29 34.25
1210 0.0757 1161.00 1216.37 34.07
1211 0.0758 1211.00 1216.45 34.80
1212 0.0759 1213.00 1216.52 34.83
1213 0.0759 1246.00 1216.60 35.30
1214 0.0760 1206.00 1216.68 34.73
1215 0.0760 1237.00 1216.76 35.17
1216 0.0761 1202.00 1216.83 34.67
1217 0.0761 1195.00 1216.91 34.57
1218 0.0762 1159.00 1216.99 34.04
1219 0.0762 1253.00 1217.06 35.40
1220 0.0763 1225.00 1217.14 35.00
1221 0.0763 1294.00 1217.22 35.97
1222 0.0764 1249.00 1217.29 35.34
1223 0.0764 1249.00 1217.37 35.34
1224 0.0765 1188.00 1217.44 34.47
1225 0.0765 1218.00 1217.52 34.90
1226 0.0766 1177.00 1217.59 34.31
1227 0.0766 1182.00 1217.66 34.38
1228 0.0767 1245.00 1217.74 35.28
1229 0.0767 1219.00 1217.81 34.91
1230 0.0768 1211.00 1217.88 34.80
1231 0.0768 1165.00 1217.96 34.13
1232 0.0769 1197.00 1218.03 34.60
1233 0.0770 1153.00 1218.10 33.96
1234 0.0770 1242.00 1218.17 35.24
1235 0.0771 1272.00 1218.24 35.67
1236 0.0771 1154.00 1218.31 33.97
1237 0.0772 1207.00 1218.38 34.74
1238 0.0772 1167.00 1218.45 34.16
1239 0.0773 1175.00 1218.52 34.28
1240 0.0773 1267.00 1218.59 35.59
1241 0.0774 1233.00 1218.66 35.11
1242 0.0774 1242.00 1218.73 35.24
1243 0.0775 1236.00 1218.80 35.16
1244 0.0775 1253.00 1218.87 35.40
1245 0.0776 1263.00 1218.94 35.54
1246 0.0776 1305.00 1219.01 36.12
1247 0.0777 1160.00 1219.07 34.06
1248 0.0777 1242.00 1219.14 35.24
1249 0.0778 1072.00 1219.21 32.74
1250 0.0778 1201.00 1219.28 34.66
1251 0.0779 1289.00 1219.34 35.90
1252 0.0779 1262.00 1219.41 35.52
1253 0.0780 1221.00 1219.47 34.94
1254 0.0781 1210.00 1219.54 34.79
1255 0.0781 1266.00 1219.60 35.58
1256 0.0782 1211.00 1219.67 34.80
1257 0.0782 1172.00 1219.73 34.23
1258 0.0783 1228.00 1219.80 35.04
1259 0.0783 1210.00 1219.86 34.79
1260 0.0784 1235.00 1219.93 35.14
1261 0.0784 1240.00 1219.99 35.21
1262 0.0785 1222.00 1220.05 34.96
1263 0.0785 1260.00 1220.12 35.50
1264 0.0786 1217.00 1220.18 34.89
1265 0.0786 1297.00 1220.24 36.01
1266 0.0787 1232.00 1230.52 35.10
1267 0.0787 1263.00 1231.17 35.54
1268 0.0788 1285.00 1231.86 35.85
1269 0.0788 1237.00 1232.62 35.17
1270 0.0789 1284.00 1233.44 35.83
1271 0.0789 1218.00 1234.33 34.90
1272 0.0790 1214.00 1235.30 34.84
1273 0.0790 1267.00 1236.37 35.59
1274 0.0791 1265.00 1237.54 35.57
1275 0.0792 1285.00 1238.84 35.85
1276 0.0792 1246.00 1240.28 35.30
1277 0.0793 1307.00 1241.88 36.15
1278 0.0793 1276.00 1243.67 35.72
1279 0.0794 1251.00 1245.69 35.37
1280 0.0794 1304.00 1247.96 36.11
1281 0.0795 1273.00 1250.56 35.68
1282 0.0795 1294.00 1253.52 35.97
1283 0.0796 1237.00 1256.95 35.17
1284 0.0796 1240.00 1260.93 35.21
1285 0.0797 1253.00 1265.63 35.40
1286 0.0797 1331.00 1271.24 36.48
1287 0.0798 1269.00 1278.05 35.62
1288 0.0798 1230.00 1286.52 35.07
1289 0.0799 1335.00 1297.26 36.54
1290 0.0799 1240.00 1311.16 35.21
1291 0.0800 1276.00 1329.47 35.72
1292 0.0800 1273.00 1353.79 35.68
1293 0.0801 1263.00 1386.23 35.54
1294 0.0801 1373.00 1429.48 37.05
1295 0.0802 1293.00 1487.11 35.96
1296 0.0802 1255.00 1564.22 35.43
1297 0.0803 1291.00 1668.59 35.93
1298 0.0804 1396.00 1812.10 37.36
1299 0.0804 1449.00 2010.73 38.07
1300 0.0805 1460.00 2273.32 38.21
1301 0.0805 1469.00 2557.63 38.33
1302 0.0806 1582.00 2706.57 39.77
1303 0.0806 1500.00 2565.52 38.73
1304 0.0807 1446.00 2238.78 38.03
1305 0.0807 1473.00 1927.84 38.38
1306 0.0808 1323.00 1705.98 36.37
1307 0.0808 1368.00 1562.85 36.99
1308 0.0809 1321.00 1472.93 36.35
1309 0.0809 1362.00 1416.13 36.91
1310 0.0810 1325.00 1379.20 36.40
1311 0.0810 1281.00 1353.92 35.79
1312 0.0811 1417.00 1335.38 37.64
1313 0.0811 1266.00 1320.81 35.58
1314 0.0812 1300.00 1308.75 36.06
1315 0.0812 1258.00 1298.47 35.47
1316 0.0813 1269.00 1289.60 35.62
1317 0.0813 1290.00 1281.95 35.92
1318 0.0814 1244.00 1275.38 35.27
1319 0.0815 1231.00 1269.75 35.09
1320 0.0815 1295.00 1264.94 35.99
1321 0.0816 1307.00 1260.81 36.15
1322 0.0816 1259.00 1257.26 35.48
1323 0.0817 1236.00 1254.20 35.16
1324 0.0817 1303.00 1251.54 36.10
1325 0.0818 1271.00 1249.22 35.65
1326 0.0818 1251.00 1247.19 35.37
1327 0.0819 1302.00 1245.40 36.08
1328 0.0819 1274.00 1243.81 35.69
1329 0.0820 1330.00 1242.41 36.47
1330 0.0820 1342.00 1241.15 36.63
1331 0.0821 1247.00 1240.02 35.31
1332 0.0821 1285.00 1239.01 35.85
1333 0.0822 1270.00 1238.10 35.64
1334 0.0822 1367.00 1237.28 36.97
1335 0.0823 1229.00 1236.54 35.06
1336 0.0823 1387.00 1235.86 37.24
1337 0.0824 1277.00 1235.24 35.74
1338 0.0824 1342.00 1234.68 36.63
1339 0.0825 1333.00 1224.23 36.51
1340 0.0826 1305.00 1224.27 36.12
1341 0.0826 1308.00 1224.32 36.17
1342 0.0827 1323.00 1224.37 36.37
1343 0.0827 1251.00 1224.41 35.37
1344 0.0828 1317.00 1224.46 36.29
1345 0.0828 1344.00 1224.50 36.66
1346 0.0829 1239.00 1224.55 35.20
1347 0.0829 1258.00 1224.60 35.47
1348 0.0830 1280.00 1224.64 35.78
1349 0.0830 1357.00 1224.69 36.84
1350 0.0831 1286.00 1224.73 35.86
1351 0.0831 1255.00 1224.78 35.43
1352 0.0832 1255.00 1224.82 35.43
1353 0.0832 1347.00 1224.87 36.70
1354 0.0833 1286.00 1224.91 35.86
1355 0.0833 1377.00 1224.95 37.11
1356 0.0834 1399.00 1225.00 37.40
1357 0.0834 1307.00 1225.04 36.15
1358 0.0835 1355.00 1225.09 36.81
1359 0.0835 1283.00 1225.13 35.82
1360 0.0836 1304.00 1225.17 36.11
1361 0.0837 1385.00 1225.22 37.22
1362 0.0837 1342.00 1225.26 36.63
1363 0.0838 1292.00 1225.30 35.94
1364 0.0838 1334.00 1225.35 36.52
1365 0.0839 1383.00 1225.39 37.19
1366 0.0839 1317.00 1225.43 36.29
1367 0.0840 1308.00 1225.48 36.17
1368 0.0840 1320.00 1225.52 36.33
1369 0.0841 1412.00 1225.56 37.58
1370 0.0841 1337.00 1225.60 36.56
1371 0.0842 1397.00 1225.65 37.38
1372 0.0842 1392.00 1225.69 37.31
1373 0.0843 1424.00 1225.73 37.74
1374 0.0843 1416.00 1225.77 37.63
1375 0.0844 1427.00 1225.81 37.78
1376 0.0844 1448.00 1225.86 38.05
1377 0.0845 1396.00 1225.90 37.36
1378 0.0845 1407.00 1225.94 37.51
1379 0.0846 1478.00 1225.98 38.44
1380 0.0846 1480.00 1511.02 38.47
1381 0.0847 1519.00 1527.20 38.97
1382 0.0848 1467.00 1544.80 38.30
1383 0.0848 1557.00 1563.97 39.46
1384 0.0849 1592.00 1584.90 39.90
1385 0.0849 1589.00 1607.84 39.86
1386 0.0850 1564.00 1633.02 39.55
1387 0.0850 1607.00 1660.78 40.09
1388 0.0851 1674.00 1691.44 40.91
1389 0.0851 1744.00 1725.45 41.76
1390 0.0852 1731.00 1763.30 41.61
1391 0.0852 1806.00 1805.60 42.50
1392 0.0853 1746.00 1853.06 41.79
1393 0.0853 1830.00 1906.57 42.78
1394 0.0854 1966.00 1967.17 44.34
1395 0.0854 2062.00 2036.20 45.41
1396 0.0855 2074.00 2115.33 45.54
1397 0.0855 2180.00 2206.66 46.69
1398 0.0856 2378.00 2313.04 48.76
1399 0.0856 2378.00 2438.20 48.76
1400 0.0857 2669.00 2587.52 51.66
1401 0.0857 2721.00 2768.54 52.16
1402 0.0858 3037.00 2992.31 55.11
1403 0.0859 3427.00 3274.57 58.54
1404 0.0859 3668.00 3637.74 60.56
1405 0.0860 4208.00 4112.16 64.87
1406 0.0860 4488.00 4738.47 66.99
1407 0.0861 5560.00 5569.20 74.57
1408 0.0861 6397.00 6671.61 79.98
1409 0.0862 8241.00 8135.44 90.78
1410 0.0862 10221.00 10086.50 101.10
1411 0.0863 13014.00 12714.30 114.08
1412 0.0863 16983.00 16309.00 130.32
1413 0.0864 22436.00 21276.10 149.79
1414 0.0864 28481.00 27950.20 168.76
1415 0.0865 36212.00 35732.40 190.29
1416 0.0865 44068.00 41336.90 209.92
1417 0.0866 42090.00 39923.00 205.16
1418 0.0866 34415.00 32071.70 185.51
1419 0.0867 23167.00 23214.30 152.21
1420 0.0867 17185.00 16420.80 131.09
1421 0.0868 12202.00 11890.90 110.46
1422 0.0868 9772.00 8995.48 98.85
1423 0.0869 7837.00 7150.45 88.53
1424 0.0870 6432.00 5949.98 80.20
1425 0.0870 5431.00 5136.61 73.70
1426 0.0871 4679.00 4552.27 68.40
1427 0.0871 4125.00 4104.46 64.23
1428 0.0872 3641.00 3741.41 60.34
1429 0.0872 3374.00 3435.93 58.09
1430 0.0873 2901.00 3174.13 53.86
1431 0.0873 2814.00 2948.42 53.05
1432 0.0874 2565.00 2754.03 50.65
1433 0.0874 2544.00 2586.96 50.44
1434 0.0875 2297.00 2443.58 47.93
1435 0.0875 2236.00 2320.44 47.29
1436 0.0876 2052.00 2214.44 45.30
1437 0.0876 2105.00 2122.78 45.88
1438 0.0877 1878.00 2043.15 43.34
1439 0.0877 2004.00 1973.61 44.77
1440 0.0878 1897.00 1912.53 43.55
1441 0.0878 1809.00 1858.64 42.53
1442 0.0879 1764.00 1810.85 42.00
1443 0.0879 1811.00 1768.29 42.56
1444 0.0880 1743.00 1730.22 41.75
1445 0.0881 1715.00 1696.03 41.41
1446 0.0881 1726.00 1665.21 41.55
1447 0.0882 1643.00 1637.34 40.53
1448 0.0882 1616.00 1612.06 40.20
1449 0.0883 1583.00 1589.05 39.79
1450 0.0883 1556.00 1568.05 39.45
1451 0.0884 1585.00 1548.84 39.81
1452 0.0884 1529.00 1531.22 39.10
1453 0.0885 1413.00 1515.02 37.59
1454 0.0885 1501.00 1228.94 38.74
1455 0.0886 1477.00 1228.97 38.43
1456 0.0886 1514.00 1229.01 38.91
1457 0.0887 1488.00 1229.05 38.57
1458 0.0887 1445.00 1229.09 38.01
1459 0.0888 1457.00 1229.13 38.17
1460 0.0888 1426.00 1229.17 37.76
1461 0.0889 1463.00 1229.21 38.25
1462 0.0889 1403.00 1229.25 37.46
1463 0.0890 1422.00 1229.29 37.71
1464 0.0890 1359.00 1229.33 36.86
1465 0.0891 1394.00 1229.36 37.34
1466 0.0892 1424.00 1229.40 37.74
1467 0.0892 1429.00 1229.44 37.80
1468 0.0893 1429.00 1229.48 37.80
1469 0.0893 1423.00 1229.52 37.72
1470 0.0894 1358.00 1229.56 36.85
1471 0.0894 1295.00 1229.60 35.99
1472 0.0895 1357.00 1229.64 36.84
1473 0.0895 1380.00 1229.68 37.15
1474 0.0896 1336.00 1229.72 36.55
1475 0.0896 1419.00 1229.76 37.67
1476 0.0897 1313.00 1229.80 36.24
1477 0.0897 1398.00 1229.84 37.39
1478 0.0898 1398.00 1229.88 37.39
1479 0.0898 1349.00 1229.92 36.73
1480 0.0899 1304.00 1229.96 36.11
1481 0.0899 1370.00 1230.00 37.01
1482 0.0900 1380.00 1230.04 37.15
1483 0.0900 1325.00 1230.08 36.40
1484 0.0901 1329.00 1230.12 36.46
1485 0.0901 1303.00 1230.16 36.10
1486 0.0902 1310.00 1230.20 36.19
1487 0.0903 1304.00 1230.24 36.11
1488 0.0903 1303.00 1230.28 36.10
1489 0.0904 1363.00 1230.32 36.92
1490 0.0904 1290.00 1230.36 35.92
1491 0.0905 1382.00 1230.40 37.18
1492 0.0905 1364.00 1230.45 36.93
1493 0.0906 1269.00 1230.49 35.62
1494 0.0906 1299.00 1230.53 36.04
1495 0.0907 1347.00 1230.57 36.70
1496 0.0907 1395.00 1230.61 37.35
1497 0.0908 1247.00 1230.65 35.31
1498 0.0908 1374.00 1230.69 37.07
1499 0.0909 1282.00 1230.74 35.81
1500 0.0909 1384.00 1230.78 37.20
1501 0.0910 1300.00 1230.82 36.06
1502 0.0910 1396.00 1230.86 37.36
1503 0.0911 1286.00 1230.90 35.86
1504 0.0911 1249.00 1230.95 35.34
1505 0.0912 1278.00 1230.99 35.75
1506 0.0912 1357.00 1231.03 36.84
1507 0.0913 1252.00 1231.07 35.38
1508 0.0914 1297.00 1231.12 36.01
1509 0.0914 1369.00 1231.16 37.00
1510 0.0915 1301.00 1231.20 36.07
1511 0.0915 1310.00 1231.24 36.19
1512 0.0916 1288.00 1231.29 35.89
1513 0.0916 1327.00 1231.33 36.43
1514 0.0917 1223.00 1231.37 34.97
1515 0.0917 1273.00 1231.42 35.68
1516 0.0918 1312.00 1231.46 36.22
1517 0.0918 1288.00 1231.51 35.89
1518 0.0919 1369.00 1231.55 37.00
1519 0.0919 1338.00 1231.59 36.58
1520 0.0920 1253.00 1231.64 35.40
1521 0.0920 1293.00 1231.68 35.96
1522 0.0921 1360.00 1231.73 36.88
1523 0.0921 1317.00 1231.77 36.29
1524 0.0922 1253.00 1231.82 35.40
1525 0.0922 1225.00 1231.86 35.00
1526 0.0923 1349.00 1231.91 36.73
1527 0.0923 1343.00 1231.95 36.65
1528 0.0924 1302.00 1232.00 36.08
1529 0.0924 1255.00 1232.04 35.43
1530 0.0925 1290.00 1232.09 35.92
1531 0.0926 1319.00 1232.13 36.32
1532 0.0926 1234.00 1232.18 35.13
1533 0.0927 1306.00 1232.23 36.14
1534 0.0927 1333.00 1232.27 36.51
1535 0.0928 1338.00 1232.32 36.58
1536 0.0928 1301.00 1232.36 36.07
1537 0.0929 1319.00 1232.41 36.32
1538 0.0929 1285.00 1232.46 35.85
1539 0.0930 1280.00 1232.51 35.78
1540 0.0930 1350.00 1232.55 36.74
1541 0.0931 1333.00 1232.60 36.51
1542 0.0931 1303.00 1232.65 36.10
1543 0.0932 1339.00 1232.70 36.59
1544 0.0932 1286.00 1232.74 35.86
1545 0.0933 1261.00 1232.79 35.51
1546 0.0933 1287.00 1232.84 35.87
1547 0.0934 1330.00 1232.89 36.47
1548 0.0934 1340.00 1232.94 36.61
1549 0.0935 1311.00 1232.99 36.21
1550 0.0935 1275.00 1233.03 35.71
1551 0.0936 1255.00 1233.08 35.43
1552 0.0937 1277.00 1233.13 35.74
1553 0.0937 1332.00 1233.18 36.50
1554 0.0938 1336.00 1233.23 36.55
1555 0.0938 1383.00 1233.28 37.19
1556 0.0939 1329.00 1233.33 36.46
1557 0.0939 1355.00 1233.38 36.81
1558 0.0940 1293.00 1233.43 35.96
1559 0.0940 1305.00 1233.48 36.12
1560 0.0941 1223.00 1233.54 34.97
1561 0.0941 1323.00 1233.59 36.37
1562 0.0942 1218.00 1233.64 34.90
1563 0.0942 1331.00 1233.69 36.48
1564 0.0943 1271.00 1233.74 35.65
1565 0.0943 1228.00 1233.79 35.04
1566 0.0944 1284.00 1233.85 35.83
1567 0.0944 1305.00 1233.90 36.12
1568 0.0945 1320.00 1233.95 36.33
1569 0.0945 1313.00 1234.00 36.24
1570 0.0946 1289.00 1234.06 35.90
1571 0.0946 1308.00 1234.11 36.17
1572 0.0947 1278.00 1234.16 35.75
1573 0.0948 1336.00 1234.22 36.55
1574 0.0948 1298.00 1234.27 36.03
1575 0.0949 1268.00 1234.32 35.61
1576 0.0949 1221.00 1234.38 34.94
1577 0.0950 1255.00 1234.43 35.43
1578 0.0950 1223.00 1234.49 34.97
1579 0.0951 1213.00 1234.54 34.83
1580 0.0951 1316.00 1234.60 36.28
1581 0.0952 1293.00 1234.65 35.96
1582 0.0952 1331.00 1234.71 36.48
1583 0.0953 1309.00 1234.77 36.18
1584 0.0953 1312.00 1234.82 36.22
1585 0.0954 1233.00 1234.88 35.11
1586 0.0954 1335.00 1234.94 36.54
1587 0.0955 1277.00 1234.99 35.74
1588 0.0955 1264.00 1235.05 35.55
1589 0.0956 1262.00 1235.11 35.52
1590 0.0956 1311.00 1235.17 36.21
1591 0.0957 1251.00 1235.22 35.37
1592 0.0957 1288.00 1235.28 35.89
1593 0.0958 1272.00 1235.34 35.67
1594 0.0959 1272.00 1235.40 35.67
1595 0.0959 1223.00 1235.46 34.97
1596 0.0960 1319.00 1235.52 36.32
1597 0.0960 1245.00 1235.58 35.28
1598 0.0961 1307.00 1235.64 36.15
1599 0.0961 1264.00 1235.70 35.55
1600 0.0962 1314.00 1235.76 36.25
1601 0.0962 1301.00 1235.82 36.07
1602 0.0963 1263.00 1235.88 35.54
1603 0.0963 1301.00 1235.94 36.07
1604 0.0964 1232.00 1236.00 35.10
1605 0.0964 1345.00 1236.06 36.67
1606 0.0965 1276.00 1236.13 35.72
1607 0.0965 1250.00 1236.19 35.36
1608 0.0966 1202.00 1236.25 34.67
1609 0.0966 1345.00 1236.31 36.67
1610 0.0967 1335.00 1236.38 36.54
1611 0.0967 1274.00 1236.44 35.69
1612 0.0968 1296.00 1236.50 36.00
1613 0.0968 1214.00 1236.57 34.84
1614 0.0969 1298.00 1236.63 36.03
1615 0.0970 1224.00 1236.70 34.99
1616 0.0970 1265.00 1236.76 35.57
1617 0.0971 1326.00 1236.83 36.41
1618 0.0971 1279.00 1236.89 35.76
1619 0.0972 1321.00 1236.96 36.35
1620 0.0972 1253.00 1237.02 35.40
1621 0.0973 1280.00 1237.09 35.78
1622 0.0973 1264.00 1237.16 35.55
1623 0.0974 1216.00 1237.22 34.87
1624 0.0974 1285.00 1237.29 35.85
1625 0.0975 1300.00 1237.36 36.06
1626 0.0975 1315.00 1237.43 36.26
1627 0.0976 1260.00 1237.49 35.50
1628 0.0976 1313.00 1237.56 36.24
1629 0.0977 1251.00 1237.63 35.37
1630 0.0977 1181.00 1237.70 34.37
1631 0.0978 1351.00 1237.77 36.76
1632 0.0978 1273.00 1237.84 35.68
1633 0.0979 1237.00 1237.91 35.17
1634 0.0979 1331.00 1237.98 36.48
1635 0.0980 1343.00 1238.05 36.65
1636 0.0981 1338.00 1238.12 36.58
1637 0.0981 1248.00 1238.19 35.33
1638 0.0982 1307.00 1238.26 36.15
1639 0.0982 1277.00 1238.34 35.74
1640 0.0983 1352.00 1238.41 36.77
1641 0.0983 1270.00 1238.48 35.64
1642 0.0984 1231.00 1238.55 35.09
1643 0.0984 1252.00 1238.63 35.38
1644 0.0985 1232.00 1238.70 35.10
1645 0.0985 1315.00 1238.77 36.26
1646 0.0986 1358.00 1238.85 36.85
1647 0.0986 1280.00 1238.92 35.78
1648 0.0987 1326.00 1239.00 36.41
1649 0.0987 1302.00 1239.07 36.08
1650 0.0988 1288.00 1239.15 35.89
1651 0.0988 1279.00 1239.22 35.76
1652 0.0989 1295.00 1239.30 35.99
1653 0.0989 1261.00 1239.38 35.51
1654 0.0990 1224.00 1239.45 34.99
1655 0.0990 1302.00 1239.53 36.08
1656 0.0991 1283.00 1239.61 35.82
1657 0.0992 1316.00 1239.69 36.28
1658 0.0992 1321.00 1239.77 36.35
1659 0.0993 1294.00 1239.85 35.97
1660 0.0993 1274.00 1239.92 35.69
1661 0.0994 1264.00 1240.00 35.55
1662 0.0994 1312.00 1240.08 36.22
1663 0.0995 1238.00 1240.16 35.19
1664 0.0995 1311.00 1240.24 36.21
1665 0.0996 1338.00 1240.33 36.58
1666 0.0996 1297.00 1240.41 36.01
1667 0.0997 1242.00 1240.49 35.24
1668 0.0997 1398.00 1240.57 37.39
1669 0.0998 1297.00 1240.65 36.01
1670 0.0998 1329.00 1240.74 36.46
1671 0.0999 1286.00 1240.82 35.86
1672 0.0999 1323.00 1240.90 36.37
1673 0.1000 1303.00 1240.99 36.10
1674 0.1000 1303.00 1241.07 36.10
1675 0.1001 1323.00 1241.16 36.37
1676 0.1001 1236.00 1241.24 35.16
1677 0.1002 1230.00 1241.33 35.07
1678 0.1003 1239.00 1241.41 35.20
1679 0.1003 1342.00 1241.50 36.63
1680 0.1004 1314.00 1241.59 36.25
1681 0.1004 1385.00 1241.67 37.22
1682 0.1005 1301.00 1241.76 36.07
1683 0.1005 1286.00 1241.85 35.86
1684 0.1006 1246.00 1241.94 35.30
1685 0.1006 1226.00 1242.03 35.01
1686 0.1007 1302.00 1242.11 36.08
1687 0.1007 1238.00 1242.20 35.19
1688 0.1008 1301.00 1242.29 36.07
1689 0.1008 1316.00 1242.38 36.28
1690 0.1009 1367.00 1242.47 36.97
1691 0.1009 1308.00 1242.57 36.17
1692 0.1010 1280.00 1242.66 35.78
1693 0.1010 1343.00 1242.75 36.65
1694 0.1011 1256.00 1242.84 35.44
1695 0.1011 1303.00 1242.93 36.10
1696 0.1012 1241.00 1243.03 35.23
1697 0.1012 1265.00 1243.12 35.57
1698 0.1013 1287.00 1243.21 35.87
1699 0.1014 1271.00 1243.31 35.65
1700 0.1014 1303.00 1243.40 36.10
1701 0.1015 1328.00 1243.50 36.44
1702 0.1015 1322.00 1243.59 36.36
1703 0.1016 1210.00 1243.69 34.79
1704 0.1016 1295.00 1243.79 35.99
1705 0.1017 1301.00 1243.88 36.07
1706 0.1017 1303.00 1243.98 36.10
1707 0.1018 1260.00 1244.08 35.50
1708 0.1018 1314.00 1244.18 36.25
1709 0.1019 1304.00 1244.27 36.11
1710 0.1019 1339.00 1244.37 36.59
1711 0.1020 1368.00 1244.47 36.99
1712 0.1020 1328.00 1244.57 36.44
1713 0.1021 1323.00 1244.67 36.37
1714 0.1021 1302.00 1244.77 36.08
1715 0.1022 1358.00 1244.88 36.85
1716 0.1022 1382.00 1244.98 37.18
1717 0.1023 1410.00 1245.08 37.55
1718 0.1023 1297.00 1245.18 36.01
1719 0.1024 1256.00 1245.28 35.44
1720 0.1025 1332.00 1245.39 36.50
1721 0.1025 1451.00 1245.49 38.09
1722 0.1026 1349.00 1386.27 36.73
1723 0.1026 1361.00 1397.55 36.89
1724 0.1027 1411.00 1410.22 37.56
1725 0.1027 1462.00 1424.51 38.24
1726 0.1028 1443.00 1440.72 37.99
1727 0.1028 1491.00 1459.19 38.61
1728 0.1029 1420.00 1480.38 37.68
1729 0.1029 1502.00 1504.85 38.76
1730 0.1030 1509.00 1533.30 38.85
1731 0.1030 1566.00 1566.66 39.57
1732 0.1031 1607.00 1606.11 40.09
1733 0.1031 1552.00 1653.26 39.40
1734 0.1032 1673.00 1710.27 40.90
1735 0.1032 1778.00 1780.26 42.17
1736 0.1033 1870.00 1867.89 43.24
1737 0.1033 2063.00 1980.44 45.42
1738 0.1034 2180.00 2129.81 46.69
1739 0.1034 2422.00 2335.04 49.21
1740 0.1035 2886.00 2626.13 53.72
1741 0.1035 3202.00 3047.75 56.59
1742 0.1036 4007.00 3664.85 63.30
1743 0.1037 5170.00 4572.91 71.90
1744 0.1037 7162.00 5925.95 84.63
1745 0.1038 10075.00 7991.79 100.37
1746 0.1038 15234.00 11209.40 123.43
1747 0.1039 21753.00 15863.20 147.49
1748 0.1039 27232.00 20053.20 165.02
1749 0.1040 24716.00 18777.50 157.21
1750 0.1040 16526.00 13251.70 128.55
1751 0.1041 10276.00 8630.29 101.37
1752 0.1041 6929.00 5898.23 83.24
1753 0.1042 4963.00 4390.08 70.45
1754 0.1042 3889.00 3540.23 62.36
1755 0.1043 3110.00 3027.83 55.77
1756 0.1043 2648.00 2687.19 51.46
1757 0.1044 2352.00 2437.84 48.50
1758 0.1044 2158.00 2243.14 46.45
1759 0.1045 2014.00 2086.78 44.88
1760 0.1045 1868.00 1960.31 43.22
1761 0.1046 1785.00 1858.01 42.25
1762 0.1046 1693.00 1775.08 41.15
1763 0.1047 1668.00 1707.52 40.84
1764 0.1048 1592.00 1652.01 39.90
1765 0.1048 1577.00 1605.96 39.71
1766 0.1049 1525.00 1567.39 39.05
1767 0.1049 1447.00 1534.78 38.04
1768 0.1050 1477.00 1506.96 38.43
1769 0.1050 1369.00 1483.07 37.00
1770 0.1051 1398.00 1462.39 37.39
1771 0.1051 1338.00 1444.38 36.58
1772 0.1052 1429.00 1428.61 37.80
1773 0.1052 1377.00 1414.71 37.11
1774 0.1053 1369.00 1402.42 37.00
1775 0.1053 1478.00 1391.49 38.44
1776 0.1054 1344.00 1251.93 36.66
1777 0.1054 1389.00 1252.06 37.27
1778 0.1055 1377.00 1252.19 37.11
1779 0.1055 1333.00 1252.33 36.51
1780 0.1056 1326.00 1252.46 36.41
1781 0.1056 1361.00 1252.59 36.89
1782 0.1057 1251.00 1252.73 35.37
1783 0.1057 1322.00 1252.86 36.36
1784 0.1058 1343.00 1252.99 36.65
1785 0.1059 1340.00 1253.13 36.61
1786 0.1059 1413.00 1253.27 37.59
1787 0.1060 1284.00 1253.40 35.83
1788 0.1060 1315.00 1253.54 36.26
1789 0.1061 1316.00 1253.68 36.28
1790 0.1061 1270.00 1253.81 35.64
1791 0.1062 1279.00 1253.95 35.76
1792 0.1062 1284.00 1254.09 35.83
1793 0.1063 1279.00 1254.23 35.76
1794 0.1063 1285.00 1254.37 35.85
1795 0.1064 1298.00 1254.51 36.03
1796 0.1064 1314.00 1254.65 36.25
1797 0.1065 1307.00 1254.79 36.15
1798 0.1065 1270.00 1254.94 35.64
1799 0.1066 1377.00 1255.08 37.11
1800 0.1066 1259.00 1255.22 35.48
1801 0.1067 1271.00 1255.37 35.65
1802 0.1067 1332.00 1255.51 36.50
1803 0.1068 1277.00 1255.66 35.74
1804 0.1068 1305.00 1255.80 36.12
1805 0.1069 1295.00 1255.95 35.99
1806 0.1070 1340.00 1256.09 36.61
1807 0.1070 1369.00 1256.24 37.00
1808 0.1071 1282.00 1256.39 35.81
1809 0.1071 1249.00 1256.54 35.34
1810 0.1072 1273.00 1256.69 35.68
1811 0.1072 1284.00 1256.84 35.83
1812 0.1073 1206.00 1256.99 34.73
1813 0.1073 1354.00 1257.14 36.80
1814 0.1074 1343.00 1257.29 36.65
1815 0.1074 1381.00 1257.44 37.16
1816 0.1075 1262.00 1257.59 35.52
1817 0.1075 1307.00 1257.74 36.15
1818 0.1076 1273.00 1257.90 35.68
1819 0.1076 1275.00 1258.05 35.71
1820 0.1077 1263.00 1258.21 35.54
1821 0.1077 1281.00 1258.36 35.79
1822 0.1078 1269.00 1258.52 35.62
1823 0.1078 1344.00 1258.67 36.66
1824 0.1079 1324.00 1258.83 36.39
1825 0.1079 1282.00 1258.99 35.81
1826 0.1080 1307.00 1259.15 36.15
1827 0.1081 1362.00 1259.30 36.91
1828 0.1081 1430.00 1259.46 37.82
1829 0.1082 1403.00 1259.62 37.46
1830 0.1082 1386.00 1259.78 37.23
1831 0.1083 1331.00 1259.94 36.48
1832 0.1083 1328.00 1260.11 36.44
1833 0.1084 1345.00 1260.27 36.67
1834 0.1084 1289.00 1260.43 35.90
1835 0.1085 1374.00 1260.59 37.07
1836 0.1085 1302.00 1260.76 36.08
1837 0.1086 1325.00 1260.92 36.40
1838 0.1086 1296.00 1261.09 36.00
1839 0.1087 1306.00 1261.25 36.14
1840 0.1087 1365.00 1261.42 36.95
1841 0.1088 1264.00 1261.59 35.55
1842 0.1088 1283.00 1261.75 35.82
1843 0.1089 1317.00 1261.92 36.29
1844 0.1089 1299.00 1262.09 36.04
1845 0.1090 1318.00 1262.26 36.30
1846 0.1090 1296.00 1262.43 36.00
1847 0.1091 1283.00 1262.60 35.82
1848 0.1092 1287.00 1262.77 35.87
1849 0.1092 1278.00 1262.94 35.75
1850 0.1093 1346.00 1263.11 36.69
1851 0.1093 1307.00 1263.29 36.15
1852 0.1094 1236.00 1263.46 35.16
1853 0.1094 1344.00 1263.64 36.66
1854 0.1095 1261.00 1263.81 35.51
1855 0.1095 1284.00 1263.99 35.83
1856 0.1096 1341.00 1264.16 36.62
1857 0.1096 1286.00 1264.34 35.86
1858 0.1097 1318.00 1264.51 36.30
1859 0.1097 1274.00 1264.69 35.69
1860 0.1098 1289.00 1264.87 35.90
1861 0.1098 1376.00 1265.05 37.09
1862 0.1099 1302.00 1265.23 36.08
1863 0.1099 1231.00 1265.41 35.09
1864 0.1100 1286.00 1265.59 35.86
1865 0.1100 1307.00 1265.77 36.15
1866 0.1101 1330.00 1265.95 36.47
1867 0.1101 1325.00 1266.14 36.40
1868 0.1102 1288.00 1266.32 35.89
1869 0.1103 1341.00 1266.50 36.62
1870 0.1103 1282.00 1266.69 35.81
1871 0.1104 1384.00 1266.87 37.20
1872 0.1104 1273.00 1267.06 35.68
1873 0.1105 1225.00 1267.25 35.00
1874 0.1105 1368.00 1267.43 36.99
1875 0.1106 1359.00 1267.62 36.86
1876 0.1106 1243.00 1267.81 35.26
1877 0.1107 1308.00 1268.00 36.17
1878 0.1107 1331.00 1268.19 36.48
1879 0.1108 1285.00 1268.38 35.85
1880 0.1108 1288.00 1268.57 35.89
1881 0.1109 1291.00 1268.76 35.93
1882 0.1109 1326.00 1268.95 36.41
1883 0.1110 1276.00 1269.14 35.72
1884 0.1110 1241.00 1269.34 35.23
1885 0.1111 1282.00 1269.53 35.81
1886 0.1111 1217.00 1269.73 34.89
1887 0.1112 1251.00 1269.92 35.37
1888 0.1112 1280.00 1270.12 35.78
1889 0.1113 1346.00 1270.31 36.69
1890 0.1114 1346.00 1270.51 36.69
1891 0.1114 1274.00 1270.71 35.69
1892 0.1115 1312.00 1270.91 36.22
1893 0.1115 1319.00 1271.11 36.32
1894 0.1116 1270.00 1271.31 35.64
1895 0.1116 1281.00 1271.51 35.79
1896 0.1117 1261.00 1271.71 35.51
1897 0.1117 1289.00 1271.91 35.90
1898 0.1118 1307.00 1272.11 36.15
1899 0.1118 1249.00 1272.32 35.34
1900 0.1119 1288.00 1272.52 35.89
1901 0.1119 1283.00 1272.72 35.82
1902 0.1120 1284.00 1272.93 35.83
1903 0.1120 1317.00 1273.14 36.29
1904 0.1121 1293.00 1273.34 35.96
1905 0.1121 1325.00 1273.55 36.40
1906 0.1122 1326.00 1273.76 36.41
1907 0.1122 1337.00 1273.96 36.56
1908 0.1123 1337.00 1274.17 36.56
1909 0.1123 1303.00 1274.38 36.10
1910 0.1124 1318.00 1274.59 36.30
1911 0.1125 1324.00 1274.80 36.39
1912 0.1125 1204.00 1275.02 34.70
1913 0.1126 1314.00 1275.23 36.25
1914 0.1126 1264.00 1275.44 35.55
1915 0.1127 1372.00 1275.65 37.04
1916 0.1127 1268.00 1275.87 35.61
1917 0.1128 1334.00 1276.08 36.52
1918 0.1128 1291.00 1276.30 35.93
1919 0.1129 1324.00 1276.52 36.39
1920 0.1129 1309.00 1276.73 36.18
1921 0.1130 1313.00 1276.95 36.24
1922 0.1130 1334.00 1277.17 36.52
1923 0.1131 1262.00 1277.39 35.52
1924 0.1131 1298.00 1277.61 36.03
1925 0.1132 1298.00 1277.83 36.03
1926 0.1132 1310.00 1278.05 36.19
1927 0.1133 1252.00 1278.27 35.38
1928 0.1133 1251.00 1278.49 35.37
1929 0.1134 1335.00 1278.72 36.54
1930 0.1134 1349.00 1278.94 36.73
1931 0.1135 1306.00 1279.16 36.14
1932 0.1136 1379.00 1279.39 37.13
1933 0.1136 1401.00 1279.62 37.43
1934 0.1137 1303.00 1279.84 36.10
1935 0.1137 1313.00 1280.07 36.24
1936 0.1138 1298.00 1280.30 36.03
1937 0.1138 1296.00 1280.53 36.00
1938 0.1139 1345.00 1280.75 36.67
1939 0.1139 1399.00 1280.98 37.40
1940 0.1140 1350.00 1281.21 36.74
1941 0.1140 1337.00 1281.45 36.56
1942 0.1141 1287.00 1281.68 35.87
1943 0.1141 1342.00 1281.91 36.63
1944 0.1142 1313.00 1282.14 36.24
1945 0.1142 1262.00 1282.38 35.52
1946 0.1143 1341.00 1282.61 36.62
1947 0.1143 1269.00 1282.85 35.62
1948 0.1144 1359.00 1283.08 36.86
1949 0.1144 1296.00 1283.32 36.00
1950 0.1145 1360.00 1283.56 36.88
1951 0.1145 1313.00 1283.80 36.24
1952 0.1146 1369.00 1284.04 37.00
1953 0.1147 1331.00 1284.27 36.48
1954 0.1147 1317.00 1284.52 36.29
1955 0.1148 1319.00 1284.76 36.32
1956 0.1148 1370.00 1285.00 37.01
1957 0.1149 1331.00 1285.24 36.48
1958 0.1149 1332.00 1285.48 36.50
1959 0.1150 1307.00 1285.73 36.15
1960 0.1150 1357.00 1285.97 36.84
1961 0.1151 1384.00 1286.22 37.20
1962 0.1151 1378.00 1286.46 37.12
1963 0.1152 1338.00 1286.71 36.58
1964 0.1152 1364.00 1286.96 36.93
1965 0.1153 1372.00 1287.20 37.04
1966 0.1153 1336.00 1287.45 36.55
1967 0.1154 1342.00 1287.70 36.63
1968 0.1154 1332.00 1287.95 36.50
1969 0.1155 1365.00 1288.20 36.95
1970 0.1155 1376.00 1288.45 37.09
1971 0.1156 1345.00 1288.71 36.67
1972 0.1156 1332.00 1288.96 36.50
1973 0.1157 1410.00 1289.21 37.55
1974 0.1157 1356.00 1289.47 36.82
1975 0.1158 1263.00 1289.72 35.54
1976 0.1159 1350.00 1289.98 36.74
1977 0.1159 1378.00 1290.23 37.12
1978 0.1160 1417.00 1290.49 37.64
1979 0.1160 1389.00 1290.75 37.27
1980 0.1161 1399.00 1291.01 37.40
1981 0.1161 1413.00 1291.27 37.59
1982 0.1162 1427.00 1291.53 37.78
1983 0.1162 1264.00 1291.79 35.55
1984 0.1163 1260.00 1292.05 35.50
1985 0.1163 1368.00 1292.31 36.99
1986 0.1164 1323.00 1292.57 36.37
1987 0.1164 1296.00 1292.84 36.00
1988 0.1165 1340.00 1293.10 36.61
1989 0.1165 1321.00 1293.37 36.35
1990 0.1166 1358.00 1293.63 36.85
1991 0.1166 1317.00 1293.90 36.29
1992 0.1167 1371.00 1294.17 37.03
1993 0.1167 1388.00 1294.44 37.26
1994 0.1168 1274.00 1294.70 35.69
1995 0.1168 1412.00 1294.97 37.58
1996 0.1169 1336.00 1295.24 36.55
1997 0.1170 1297.00 1295.51 36.01
1998 0.1170 1342.00 1295.79 36.63
1999 0.1171 1395.00 1296.06 37.35
2000 0.1171 1401.00 1296.33 37.43
2001 0.1172 1395.00 1296.60 37.35
2002 0.1172 1353.00 1296.88 36.78
2003 0.1173 1447.00 1297.15 38.04
2004 0.1173 1376.00 1297.43 37.09
2005 0.1174 1353.00 1297.71 36.78
2006 0.1174 1402.00 1297.98 37.44
2007 0.1175 1403.00 1298.26 37.46
2008 0.1175 1365.00 1298.54 36.95
2009 0.1176 1472.00 1298.82 38.37
2010 0.1176 1489.00 1299.10 38.59
2011 0.1177 1464.00 1299.38 38.26
2012 0.1177 1414.00 1299.66 37.60
2013 0.1178 1354.00 1299.95 36.80
2014 0.1178 1451.00 1300.23 38.09
2015 0.1179 1422.00 1300.51 37.71
2016 0.1179 1437.00 1300.80 37.91
2017 0.1180 1538.00 1301.08 39.22
2018 0.1181 1435.00 1301.37 37.88
2019 0.1181 1394.00 1301.66 37.34
2020 0.1182 1414.00 1301.94 37.60
2021 0.1182 1368.00 1302.23 36.99
2022 0.1183 1502.00 1505.38 38.76
2023 0.1183 1449.00 1516.08 38.07
2024 0.1184 1455.00 1527.60 38.14
2025 0.1184 1607.00 1540.03 40.09
2026 0.1185 1516.00 1553.47 38.94
2027 0.1185 1606.00 1568.03 40.07
2028 0.1186 1639.00 1583.84 40.48
2029 0.1186 1539.00 1601.07 39.23
2030 0.1187 1529.00 1619.87 39.10
2031 0.1187 1553.00 1640.45 39.41
2032 0.1188 1590.00 1663.05 39.87
2033 0.1188 1650.00 1687.94 40.62
2034 0.1189 1705.00 1715.45 41.29
2035 0.1189 1803.00 1745.96 42.46
2036 0.1190 1774.00 1779.92 42.12
2037 0.1190 1819.00 1817.87 42.65
2038 0.1191 1927.00 1860.48 43.90
2039 0.1192 1883.00 1908.54 43.39
2040 0.1192 1989.00 1963.06 44.60
2041 0.1193 2050.00 2025.27 45.28
2042 0.1193 2172.00 2096.78 46.60
2043 0.1194 2254.00 2179.68 47.48
2044 0.1194 2411.00 2276.78 49.10
2045 0.1195 2458.00 2391.94 49.58
2046 0.1195 2732.00 2530.43 52.27
2047 0.1196 2900.00 2699.59 53.85
2048 0.1196 3096.00 2909.43 55.64
2049 0.1197 3469.00 3173.45 58.90
2050 0.1197 3697.00 3509.46 60.80
2051 0.1198 4289.00 3940.82 65.49
2052 0.1198 4761.00 4497.45 69.00
2053 0.1199 5570.00 5218.64 74.63
2054 0.1199 6406.00 6157.44 80.04
2055 0.1200 7928.00 7387.27 89.04
2056 0.1200 9277.00 9017.28 96.32
2057 0.1201 11825.00 11206.60 108.74
2058 0.1201 14301.00 14174.60 119.59
2059 0.1202 18415.00 18147.20 135.70
2060 0.1203 22001.00 23080.20 148.33
2061 0.1203 25971.00 27932.30 161.15
2062 0.1204 27324.00 30143.30 165.30
2063 0.1204 25769.00 27739.40 160.53
2064 0.1205 21114.00 22296.20 145.31
2065 0.1205 16011.00 16748.60 126.54
2066 0.1206 12757.00 12455.40 112.95
2067 0.1206 10161.00 9463.40 100.80
2068 0.1207 8238.00 7445.28 90.76
2069 0.1207 6963.00 6084.05 83.44
2070 0.1208 5917.00 5150.22 76.92
2071 0.1208 4987.00 4490.76 70.62
2072 0.1209 4581.00 4007.03 67.68
2073 0.1209 4061.00 3636.41 63.73
2074 0.1210 3707.00 3340.65 60.89
2075 0.1210 3192.00 3096.64 56.50
2076 0.1211 3042.00 2890.68 55.15
2077 0.1211 2801.00 2714.58 52.92
2078 0.1212 2657.00 2562.95 51.55
2079 0.1212 2484.00 2432.10 49.84
2080 0.1213 2414.00 2319.04 49.13
2081 0.1214 2238.00 2221.25 47.31
2082 0.1214 2164.00 2136.49 46.52
2083 0.1215 2107.00 2062.83 45.90
2084 0.1215 1964.00 1998.53 44.32
2085 0.1216 1889.00 1942.20 43.46
2086 0.1216 1816.00 1892.61 42.61
2087 0.1217 1771.00 1848.77 42.08
2088 0.1217 1826.00 1809.85 42.73
2089 0.1218 1816.00 1775.14 42.61
2090 0.1218 1684.00 1744.06 41.04
2091 0.1219 1733.00 1716.14 41.63
2092 0.1219 1703.00 1690.97 41.27
2093 0.1220 1650.00 1668.19 40.62
2094 0.1220 1622.00 1647.54 40.27
2095 0.1221 1571.00 1628.75 39.64
2096 0.1221 1609.00 1611.61 40.11
2097 0.1222 1537.00 1595.93 39.20
2098 0.1222 1560.00 1581.57 39.50
2099 0.1223 1530.00 1568.38 39.12
2100 0.1223 1592.00 1556.23 39.90
2101 0.1224 1528.00 1545.02 39.09
2102 0.1225 1492.00 1534.67 38.63
2103 0.1225 1520.00 1328.43 38.99
2104 0.1226 1525.00 1328.78 39.05
2105 0.1226 1520.00 1329.13 38.99
2106 0.1227 1505.00 1329.49 38.79
2107 0.1227 1485.00 1329.84 38.54
2108 0.1228 1457.00 1330.19 38.17
2109 0.1228 1462.00 1330.55 38.24
2110 0.1229 1434.00 1330.90 37.87
2111 0.1229 1502.00 1331.26 38.76
2112 0.1230 1446.00 1331.62 38.03
2113 0.1230 1409.00 1331.98 37.54
2114 0.1231 1493.00 1332.33 38.64
2115 0.1231 1471.00 1332.69 38.35
2116 0.1232 1422.00 1333.05 37.71
2117 0.1232 1408.00 1333.41 37.52
2118 0.1233 1350.00 1333.78 36.74
2119 0.1233 1389.00 1334.14 37.27
2120 0.1234 1406.00 1334.50 37.50
2121 0.1234 1401.00 1334.87 37.43
2122 0.1235 1351.00 1335.23 36.76
2123 0.1236 1427.00 1335.60 37.78
2124 0.1236 1409.00 1335.96 37.54
2125 0.1237 1435.00 1336.33 37.88
2126 0.1237 1381.00 1336.70 37.16
2127 0.1238 1461.00 1337.07 38.22
2128 0.1238 1418.00 1337.44 37.66
2129 0.1239 1421.00 1337.81 37.70
2130 0.1239 1550.00 1338.18 39.37
2131 0.1240 1371.00 1338.55 37.03
2132 0.1240 1411.00 1338.92 37.56
2133 0.1241 1420.00 1339.30 37.68
2134 0.1241 1441.00 1339.67 37.96
2135 0.1242 1414.00 1340.04 37.60
2136 0.1242 1415.00 1340.42 37.62
2137 0.1243 1408.00 1340.80 37.52
2138 0.1243 1430.00 1341.17 37.82
2139 0.1244 1469.00 1341.55 38.33
2140 0.1244 1387.00 1341.93 37.24
2141 0.1245 1392.00 1342.31 37.31
2142 0.1245 1356.00 1342.69 36.82
2143 0.1246 1384.00 1343.07 37.20
2144 0.1247 1422.00 1343.45 37.71
2145 0.1247 1432.00 1343.83 37.84
2146 0.1248 1307.00 1344.22 36.15
2147 0.1248 1413.00 1344.60 37.59
2148 0.1249 1371.00 1344.99 37.03
2149 0.1249 1411.00 1345.37 37.56
2150 0.1250 1335.00 1345.76 36.54
2151 0.1250 1400.00 1346.15 37.42
2152 0.1251 1400.00 1346.53 37.42
2153 0.1251 1354.00 1346.92 36.80
2154 0.1252 1382.00 1347.31 37.18
2155 0.1252 1364.00 1347.70 36.93
2156 0.1253 1394.00 1348.09 37.34
2157 0.1253 1407.00 1348.49 37.51
2158 0.1254 1352.00 1348.88 36.77
2159 0.1254 1380.00 1349.27 37.15
2160 0.1255 1374.00 1349.67 37.07
2161 0.1255 1372.00 1350.06 37.04
2162 0.1256 1365.00 1350.46 36.95
2163 0.1256 1381.00 1350.85 37.16
2164 0.1257 1454.00 1351.25 38.13
2165 0.1258 1450.00 1351.65 38.08
2166 0.1258 1483.00 1352.05 38.51
2167 0.1259 1481.00 1352.45 38.48
2168 0.1259 1358.00 1352.85 36.85
2169 0.1260 1425.00 1353.25 37.75
2170 0.1260 1363.00 1353.65 36.92
2171 0.1261 1369.00 1354.05 37.00
2172 0.1261 1377.00 1354.46 37.11
2173 0.1262 1477.00 1354.86 38.43
2174 0.1262 1446.00 1355.27 38.03
2175 0.1263 1470.00 1355.67 38.34
2176 0.1263 1411.00 1356.08 37.56
2177 0.1264 1413.00 1433.58 37.59
2178 0.1264 1440.00 1437.78 37.95
2179 0.1265 1428.00 1442.26 37.79
2180 0.1265 1381.00 1447.06 37.16
2181 0.1266 1442.00 1452.21 37.97
2182 0.1266 1369.00 1457.74 37.00
2183 0.1267 1432.00 1463.71 37.84
2184 0.1267 1455.00 1470.15 38.14
2185 0.1268 1501.00 1477.13 38.74
2186 0.1269 1433.00 1484.71 37.85
2187 0.1269 1434.00 1492.96 37.87
2188 0.1270 1414.00 1501.97 37.60
2189 0.1270 1413.00 1511.85 37.59
2190 0.1271 1451.00 1522.70 38.09
2191 0.1271 1443.00 1534.68 37.99
2192 0.1272 1464.00 1547.94 38.26
2193 0.1272 1395.00 1562.69 37.35
2194 0.1273 1547.00 1579.16 39.33
2195 0.1273 1479.00 1597.63 38.46
2196 0.1274 1614.00 1618.46 40.17
2197 0.1274 1587.00 1642.10 39.84
2198 0.1275 1532.00 1669.11 39.14
2199 0.1275 1559.00 1700.20 39.48
2200 0.1276 1634.00 1736.37 40.42
2201 0.1276 1642.00 1778.89 40.52
2202 0.1277 1693.00 1829.56 41.15
2203 0.1277 1694.00 1890.78 41.16
2204 0.1278 1831.00 1965.79 42.79
2205 0.1278 1786.00 2059.01 42.26
2206 0.1279 1844.00 2176.15 42.94
2207 0.1279 2047.00 2324.65 45.24
2208 0.1280 2177.00 2514.10 46.66
2209 0.1281 2473.00 2756.86 49.73
2210 0.1281 2533.00 3069.22 50.33
2211 0.1282 2966.00 3473.79 54.46
2212 0.1282 3377.00 4002.47 58.11
2213 0.1283 4078.00 4701.79 63.86
2214 0.1283 4636.00 5637.65 68.09
2215 0.1284 5910.00 6891.33 76.88
2216 0.1284 7359.00 8519.45 85.78
2217 0.1285 9146.00 10405.20 95.63
2218 0.1285 11719.00 11987.30 108.25
2219 0.1286 12093.00 12307.50 109.97
2220 0.1286 10958.00 11014.40 104.68
2221 0.1287 7895.00 8924.41 88.85
2222 0.1287 5962.00 6959.85 77.21
2223 0.1288 4322.00 5464.43 65.74
2224 0.1288 3722.00 4415.23 61.01
2225 0.1289 3111.00 3696.55 55.78
2226 0.1289 2684.00 3203.16 51.81
2227 0.1290 2418.00 2858.53 49.17
2228 0.1290 2255.00 2611.32 47.49
2229 0.1291 2116.00 2427.76 46.00
2230 0.1292 2019.00 2286.15 44.93
2231 0.1292 1920.00 2172.77 43.82
2232 0.1293 1813.00 2079.19 42.58
2233 0.1293 1742.00 2000.19 41.74
2234 0.1294 1651.00 1932.58 40.63
2235 0.1294 1693.00 1874.32 41.15
2236 0.1295 1715.00 1823.90 41.41
2237 0.1295 1639.00 1780.25 40.48
2238 0.1296 1650.00 1742.37 40.62
2239 0.1296 1547.00 1709.45 39.33
2240 0.1297 1511.00 1680.78 38.87
2241 0.1297 1625.00 1655.74 40.31
2242 0.1298 1543.00 1633.77 39.28
2243 0.1298 1513.00 1614.44 38.90
2244 0.1299 1481.00 1597.35 38.48
2245 0.1299 1507.00 1582.19 38.82
2246 0.1300 1457.00 1568.68 38.17
2247 0.1300 1411.00 1556.61 37.56
2248 0.1301 1487.00 1545.78 38.56
2249 0.1301 1474.00 1536.03 38.39
2250 0.1302 1442.00 1527.24 37.97
2251 0.1303 1434.00 1519.29 37.87
2252 0.1303 1463.00 1512.08 38.25
2253 0.1304 1475.00 1505.52 38.41
2254 0.1304 1445.00 1499.55 38.01
2255 0.1305 1422.00 1494.10 37.71
2256 0.1305 1498.00 1489.11 38.70
2257 0.1306 1527.00 1484.55 39.08
2258 0.1306 1369.00 1480.36 37.00
2259 0.1307 1421.00 1476.52 37.70
2260 0.1307 1429.00 1472.98 37.80
2261 0.1308 1468.00 1469.72 38.31
2262 0.1308 1436.00 1393.92 37.89
2263 0.1309 1387.00 1394.40 37.24
2264 0.1309 1404.00 1394.87 37.47
2265 0.1310 1468.00 1395.35 38.31
2266 0.1310 1431.00 1395.82 37.83
2267 0.1311 1348.00 1396.30 36.72
2268 0.1311 1376.00 1396.77 37.09
2269 0.1312 1467.00 1397.25 38.30
2270 0.1312 1387.00 1397.73 37.24
2271 0.1313 1424.00 1398.21 37.74
2272 0.1314 1438.00 1398.69 37.92
2273 0.1314 1283.00 1399.17 35.82
2274 0.1315 1410.00 1399.65 37.55
2275 0.1315 1382.00 1400.14 37.18
2276 0.1316 1437.00 1400.62 37.91
2277 0.1316 1396.00 1401.10 37.36
2278 0.1317 1430.00 1401.59 37.82
2279 0.1317 1432.00 1402.07 37.84
2280 0.1318 1475.00 1402.56 38.41
2281 0.1318 1452.00 1403.05 38.11
2282 0.1319 1409.00 1403.53 37.54
2283 0.1319 1393.00 1404.02 37.32
2284 0.1320 1474.00 1404.51 38.39
2285 0.1320 1432.00 1405.00 37.84
2286 0.1321 1469.00 1405.49 38.33
2287 0.1321 1380.00 1405.98 37.15
2288 0.1322 1436.00 1406.48 37.89
2289 0.1322 1481.00 1406.97 38.48
2290 0.1323 1488.00 1407.46 38.57
2291 0.1323 1494.00 1436.90 38.65
2292 0.1324 1480.00 1438.55 38.47
2293 0.1325 1439.00 1440.27 37.93
2294 0.1325 1438.00 1442.07 37.92
2295 0.1326 1440.00 1443.95 37.95
2296 0.1326 1470.00 1445.92 38.34
2297 0.1327 1508.00 1448.00 38.83
2298 0.1327 1412.00 1450.17 37.58
2299 0.1328 1485.00 1452.47 38.54
2300 0.1328 1430.00 1454.89 37.82
2301 0.1329 1514.00 1457.46 38.91
2302 0.1329 1517.00 1460.18 38.95
2303 0.1330 1484.00 1463.07 38.52
2304 0.1330 1427.00 1466.14 37.78
2305 0.1331 1469.00 1469.43 38.33
2306 0.1331 1412.00 1472.94 37.58
2307 0.1332 1491.00 1476.71 38.61
2308 0.1332 1542.00 1480.76 39.27
2309 0.1333 1561.00 1485.13 39.51
2310 0.1333 1553.00 1489.86 39.41
2311 0.1334 1495.00 1495.00 38.67
2312 0.1334 1566.00 1500.59 39.57
2313 0.1335 1591.00 1506.70 39.89
2314 0.1336 1493.00 1513.40 38.64
2315 0.1336 1503.00 1520.78 38.77
2316 0.1337 1494.00 1528.95 38.65
2317 0.1337 1516.00 1538.04 38.94
2318 0.1338 1546.00 1548.22 39.32
2319 0.1338 1579.00 1559.70 39.74
2320 0.1339 1603.00 1572.73 40.04
2321 0.1339 1637.00 1587.67 40.46
2322 0.1340 1653.00 1604.94 40.66
2323 0.1340 1671.00 1625.11 40.88
2324 0.1341 1749.00 1648.90 41.82
2325 0.1341 1797.00 1677.20 42.39
2326 0.1342 1789.00 1711.15 42.30
2327 0.1342 1806.00 1752.12 42.50
2328 0.1343 1807.00 1801.84 42.51
2329 0.1343 1904.00 1862.43 43.63
2330 0.1344 1957.00 1936.50 44.24
2331 0.1344 2040.00 2027.34 45.17
2332 0.1345 2147.00 2139.24 46.34
2333 0.1345 2226.00 2277.84 47.18
2334 0.1346 2451.00 2450.74 49.51
2335 0.1347 2574.00 2668.40 50.73
2336 0.1347 2718.00 2944.41 52.13
2337 0.1348 2929.00 3295.04 54.12
2338 0.1348 3218.00 3735.30 56.73
2339 0.1349 3358.00 4264.42 57.95
2340 0.1349 3642.00 4835.32 60.35
2341 0.1350 3858.00 5315.56 62.11
2342 0.1350 4085.00 5505.70 63.91
2343 0.1351 4006.00 5284.95 63.29
2344 0.1351 3828.00 4747.48 61.87
2345 0.1352 3315.00 4108.17 57.58
2346 0.1352 2981.00 3526.03 54.60
2347 0.1353 2632.00 3059.50 51.30
2348 0.1353 2425.00 2707.00 49.24
2349 0.1354 2261.00 2446.60 47.55
2350 0.1354 2159.00 2255.21 46.47
2351 0.1355 2014.00 2113.77 44.88
2352 0.1355 1957.00 2007.99 44.24
2353 0.1356 1964.00 1927.46 44.32
2354 0.1356 1808.00 1864.85 42.52
2355 0.1357 1830.00 1814.98 42.78
2356 0.1358 1677.00 1774.30 40.95
2357 0.1358 1724.00 1740.32 41.52
2358 0.1359 1706.00 1711.37 41.30
2359 0.1359 1603.00 1686.33 40.04
2360 0.1360 1603.00 1664.45 40.04
2361 0.1360 1596.00 1645.19 39.95
2362 0.1361 1572.00 1628.17 39.65
2363 0.1361 1515.00 1613.11 38.92
2364 0.1362 1586.00 1599.77 39.82
2365 0.1362 1537.00 1587.93 39.20
2366 0.1363 1613.00 1577.43 40.16
2367 0.1363 1520.00 1568.12 38.99
2368 0.1364 1579.00 1559.83 39.74
2369 0.1364 1553.00 1552.46 39.41
2370 0.1365 1516.00 1545.88 38.94
2371 0.1365 1427.00 1540.00 37.78
2372 0.1366 1453.00 1534.74 38.12
2373 0.1366 1497.00 1530.01 38.69
2374 0.1367 1464.00 1525.77 38.26
2375 0.1367 1488.00 1521.94 38.57
2376 0.1368 1422.00 1518.49 37.71
2377 0.1369 1443.00 1515.38 37.99
2378 0.1369 1433.00 1512.56 37.85
2379 0.1370 1469.00 1510.01 38.33
2380 0.1370 1523.00 1507.70 39.03
2381 0.1371 1405.00 1505.60 37.48
2382 0.1371 1450.00 1503.71 38.08
2383 0.1372 1485.00 1501.98 38.54
2384 0.1372 1420.00 1500.42 37.68
2385 0.1373 1351.00 1499.01 36.76
2386 0.1373 1528.00 1497.72 39.09
2387 0.1374 1459.00 1496.56 38.20
2388 0.1374 1507.00 1495.51 38.82
2389 0.1375 1406.00 1494.56 37.50
2390 0.1375 1504.00 1493.70 38.78
2391 0.1376 1464.00 1492.94 38.26
2392 0.1376 1422.00 1492.25 37.71
2393 0.1377 1522.00 1491.63 39.01
2394 0.1377 1520.00 1491.08 38.99
2395 0.1378 1481.00 1463.36 38.48
2396 0.1378 1445.00 1463.93 38.01
2397 0.1379 1428.00 1464.50 37.79
2398 0.1380 1452.00 1465.08 38.11
2399 0.1380 1499.00 1465.65 38.72
2400 0.1381 1473.00 1466.22 38.38
2401 0.1381 1468.00 1466.79 38.31
2402 0.1382 1470.00 1467.37 38.34
2403 0.1382 1516.00 1467.94 38.94
2404 0.1383 1406.00 1468.52 37.50
2405 0.1383 1495.00 1469.09 38.67
2406 0.1384 1518.00 1469.67 38.96
2407 0.1384 1431.00 1470.25 37.83
2408 0.1385 1496.00 1470.83 38.68
2409 0.1385 1474.00 1471.41 38.39
2410 0.1386 1475.00 1471.99 38.41
2411 0.1386 1432.00 1472.57 37.84
2412 0.1387 1424.00 1473.15 37.74
2413 0.1387 1516.00 1473.73 38.94
2414 0.1388 1489.00 1474.31 38.59
2415 0.1388 1498.00 1474.89 38.70
2416 0.1389 1468.00 1475.48 38.31
2417 0.1389 1437.00 1476.06 37.91
2418 0.1390 1500.00 1480.87 38.73
2419 0.1390 1455.00 1481.62 38.14
2420 0.1391 1550.00 1482.38 39.37
2421 0.1392 1490.00 1483.15 38.60
2422 0.1392 1453.00 1483.94 38.12
2423 0.1393 1479.00 1484.74 38.46
2424 0.1393 1450.00 1485.55 38.08
2425 0.1394 1508.00 1486.38 38.83
2426 0.1394 1434.00 1487.23 37.87
2427 0.1395 1477.00 1488.10 38.43
2428 0.1395 1501.00 1488.98 38.74
2429 0.1396 1560.00 1489.89 39.50
2430 0.1396 1513.00 1490.82 38.90
2431 0.1397 1415.00 1491.78 37.62
2432 0.1397 1487.00 1492.77 38.56
2433 0.1398 1481.00 1493.79 38.48
2434 0.1398 1564.00 1494.84 39.55
2435 0.1399 1539.00 1495.94 39.23
2436 0.1399 1606.00 1497.08 40.07
2437 0.1400 1425.00 1498.27 37.75
2438 0.1400 1543.00 1499.52 39.28
2439 0.1401 1516.00 1500.83 38.94
2440 0.1401 1439.00 1502.21 37.93
2441 0.1402 1519.00 1503.67 38.97
2442 0.1403 1469.00 1505.23 38.33
2443 0.1403 1579.00 1506.89 39.74
2444 0.1404 1469.00 1508.68 38.33
2445 0.1404 1488.00 1510.61 38.57
2446 0.1405 1506.00 1512.72 38.81
2447 0.1405 1506.00 1515.02 38.81
2448 0.1406 1540.00 1517.58 39.24
2449 0.1406 1632.00 1520.44 40.40
2450 0.1407 1561.00 1523.68 39.51
2451 0.1407 1500.00 1527.37 38.73
2452 0.1408 1528.00 1531.64 39.09
2453 0.1408 1620.00 1536.62 40.25
2454 0.1409 1643.00 1542.50 40.53
2455 0.1409 1547.00 1549.48 39.33
2456 0.1410 1646.00 1557.84 40.57
2457 0.1410 1716.00 1567.90 41.42
2458 0.1411 1667.00 1580.07 40.83
2459 0.1411 1594.00 1594.86 39.92
2460 0.1412 1650.00 1612.98 40.62
2461 0.1412 1766.00 1635.32 42.02
2462 0.1413 1719.00 1663.09 41.46
2463 0.1414 1880.00 1697.97 43.36
2464 0.1414 1857.00 1742.04 43.09
2465 0.1415 1907.00 1797.66 43.67
2466 0.1415 2006.00 1866.47 44.79
2467 0.1416 2084.00 1946.82 45.65
2468 0.1416 2106.00 2028.60 45.89
2469 0.1417 2291.00 2089.03 47.86
2470 0.1417 2290.00 2100.35 47.85
2471 0.1418 2169.00 2053.61 46.57
2472 0.1418 2136.00 1969.58 46.22
2473 0.1419 1887.00 1878.41 43.44
2474 0.1419 1837.00 1798.70 42.86
2475 0.1420 1853.00 1735.90 43.05
2476 0.1420 1711.00 1688.76 41.36
2477 0.1421 1717.00 1654.03 41.44
2478 0.1421 1767.00 1628.50 42.04
2479 0.1422 1643.00 1609.64 40.53
2480 0.1422 1616.00 1595.55 40.20
2481 0.1423 1549.00 1584.88 39.36
2482 0.1423 1585.00 1576.62 39.81
2483 0.1424 1601.00 1570.11 40.01
2484 0.1425 1624.00 1564.87 40.30
2485 0.1425 1508.00 1560.56 38.83
2486 0.1426 1605.00 1556.95 40.06
2487 0.1426 1481.00 1553.90 38.48
2488 0.1427 1581.00 1551.30 39.76
2489 0.1427 1587.00 1549.08 39.84
2490 0.1428 1600.00 1547.18 40.00
2491 0.1428 1474.00 1545.56 38.39
2492 0.1429 1580.00 1544.19 39.75
2493 0.1429 1591.00 1543.03 39.89
2494 0.1430 1536.00 1542.07 39.19
2495 0.1430 1494.00 1541.28 38.65
2496 0.1431 1501.00 1540.63 38.74
2497 0.1431 1457.00 1540.12 38.17
2498 0.1432 1566.00 1539.72 39.57
2499 0.1432 1518.00 1539.42 38.96
2500 0.1433 1507.00 1539.21 38.82
2501 0.1433 1526.00 1539.08 39.06
2502 0.1434 1534.00 1539.02 39.17
2503 0.1434 1503.00 1539.02 38.77
2504 0.1435 1504.00 1539.07 38.78
2505 0.1436 1503.00 1539.18 38.77
2506 0.1436 1518.00 1539.33 38.96
2507 0.1437 1488.00 1539.51 38.57
2508 0.1437 1449.00 1539.73 38.07
2509 0.1438 1523.00 1539.99 39.03
2510 0.1438 1540.00 1540.27 39.24
2511 0.1439 1524.00 1540.58 39.04
2512 0.1439 1570.00 1540.91 39.62
2513 0.1440 1492.00 1541.27 38.63
2514 0.1440 1567.00 1541.64 39.59
2515 0.1441 1552.00 1542.03 39.40
2516 0.1441 1502.00 1542.44 38.76
2517 0.1442 1489.00 1542.87 38.59
2518 0.1442 1517.00 1543.31 38.95
2519 0.1443 1559.00 1543.76 39.48
2520 0.1443 1528.00 1544.22 39.09
2521 0.1444 1467.00 1544.70 38.30
2522 0.1444 1538.00 1545.18 39.22
2523 0.1445 1615.00 1541.64 40.19
2524 0.1445 1460.00 1542.29 38.21
2525 0.1446 1518.00 1542.95 38.96
2526 0.1447 1509.00 1543.60 38.85
2527 0.1447 1626.00 1544.25 40.32
2528 0.1448 1513.00 1544.90 38.90
2529 0.1448 1539.00 1545.56 39.23
2530 0.1449 1498.00 1546.21 38.70
2531 0.1449 1530.00 1546.87 39.12
2532 0.1450 1538.00 1547.52 39.22
2533 0.1450 1610.00 1548.18 40.12
2534 0.1451 1558.00 1548.84 39.47
2535 0.1451 1555.00 1549.49 39.43
2536 0.1452 1584.00 1550.15 39.80
2537 0.1452 1535.00 1550.81 39.18
2538 0.1453 1572.00 1551.47 39.65
2539 0.1453 1483.00 1552.13 38.51
2540 0.1454 1564.00 1552.79 39.55
2541 0.1454 1528.00 1553.45 39.09
2542 0.1455 1662.00 1554.11 40.77
2543 0.1455 1559.00 1554.77 39.48
2544 0.1456 1623.00 1555.44 40.29
2545 0.1456 1627.00 1556.10 40.34
2546 0.1457 1546.00 1556.76 39.32
2547 0.1458 1561.00 1557.43 39.51
2548 0.1458 1583.00 1558.09 39.79
2549 0.1459 1613.00 1558.76 40.16
2550 0.1459 1556.00 1559.42 39.45
2551 0.1460 1547.00 1560.09 39.33
2552 0.1460 1576.00 1645.00 39.70
2553 0.1461 1561.00 1648.91 39.51
2554 0.1461 1649.00 1653.01 40.61
2555 0.1462 1566.00 1657.31 39.57
2556 0.1462 1624.00 1661.84 40.30
2557 0.1463 1645.00 1666.61 40.56
2558 0.1463 1598.00 1671.64 39.97
2559 0.1464 1618.00 1676.95 40.22
2560 0.1464 1628.00 1682.58 40.35
2561 0.1465 1671.00 1688.54 40.88
2562 0.1465 1593.00 1694.86 39.91
2563 0.1466 1690.00 1701.59 41.11
2564 0.1466 1658.00 1708.76 40.72
2565 0.1467 1696.00 1716.41 41.18
2566 0.1467 1677.00 1724.60 40.95
2567 0.1468 1626.00 1733.38 40.32
2568 0.1469 1738.00 1742.81 41.69
2569 0.1469 1680.00 1752.96 40.99
2570 0.1470 1747.00 1763.92 41.80
2571 0.1470 1705.00 1775.78 41.29
2572 0.1471 1742.00 1788.64 41.74
2573 0.1471 1804.00 1802.63 42.47
2574 0.1472 1862.00 1817.90 43.15
2575 0.1472 1815.00 1834.60 42.60
2576 0.1473 1834.00 1852.95 42.83
2577 0.1473 1907.00 1873.17 43.67
2578 0.1474 1863.00 1895.56 43.16
2579 0.1474 1917.00 1920.47 43.78
2580 0.1475 1930.00 1948.30 43.93
2581 0.1475 2028.00 1979.62 45.03
2582 0.1476 2079.00 2015.10 45.60
2583 0.1476 2071.00 2055.59 45.51
2584 0.1477 2156.00 2102.16 46.43
2585 0.1477 2312.00 2156.24 48.08
2586 0.1478 2423.00 2219.56 49.22
2587 0.1478 2432.00 2294.31 49.32
2588 0.1479 2557.00 2383.30 50.57
2589 0.1480 2642.00 2489.92 51.40
2590 0.1480 2762.00 2618.37 52.55
2591 0.1481 2847.00 2773.76 53.36
2592 0.1481 3196.00 2962.54 56.53
2593 0.1482 3418.00 3192.69 58.46
2594 0.1482 3767.00 3474.17 61.38
2595 0.1483 4071.00 3820.08 63.80
2596 0.1483 4585.00 4248.03 67.71
2597 0.1484 4929.00 4781.36 70.21
2598 0.1484 5386.00 5451.06 73.39
2599 0.1485 6085.00 6297.37 78.01
2600 0.1485 6911.00 7365.23 83.13
2601 0.1486 7703.00 8688.89 87.77
2602 0.1486 8693.00 10246.20 93.24
2603 0.1487 9754.00 11871.20 98.76
2604 0.1487 10518.00 13161.20 102.56
2605 0.1488 11484.00 13574.60 107.16
2606 0.1488 10800.00 12844.90 103.92
2607 0.1489 9705.00 11277.00 98.51
2608 0.1489 7907.00 9453.50 88.92
2609 0.1490 6931.00 7794.06 83.25
2610 0.1491 5819.00 6453.86 76.28
2611 0.1491 5077.00 5429.61 71.25
2612 0.1492 4474.00 4664.46 66.89
2613 0.1492 3839.00 4095.73 61.96
2614 0.1493 3469.00 3670.62 58.90
2615 0.1493 3276.00 3349.38 57.24
2616 0.1494 3069.00 3102.76 55.40
2617 0.1494 2743.00 2909.79 52.37
2618 0.1495 2670.00 2755.38 51.67
2619 0.1495 2476.00 2629.14 49.76
2620 0.1496 2531.00 2523.67 50.31
2621 0.1496 2312.00 2433.92 48.08
2622 0.1497 2239.00 2356.33 47.32
2623 0.1497 2132.00 2288.53 46.17
2624 0.1498 2141.00 2228.83 46.27
2625 0.1498 2012.00 2175.96 44.86
2626 0.1499 2002.00 2129.03 44.74
2627 0.1499 1962.00 2087.29 44.29
2628 0.1500 1920.00 2050.13 43.82
2629 0.1500 1846.00 2016.97 42.97
2630 0.1501 1840.00 1987.38 42.90
2631 0.1502 1841.00 1960.93 42.91
2632 0.1502 1786.00 1937.24 42.26
2633 0.1503 1792.00 1915.96 42.33
2634 0.1503 1730.00 1896.83 41.59
2635 0.1504 1768.00 1879.57 42.05
2636 0.1504 1714.00 1863.97 41.40
2637 0.1505 1727.00 1849.84 41.56
2638 0.1505 1680.00 1837.00 40.99
2639 0.1506 1675.00 1825.32 40.93
2640 0.1506 1778.00 1814.66 42.17
2641 0.1507 1751.00 1804.91 41.85
2642 0.1507 1652.00 1795.99 40.64
2643 0.1508 1770.00 1787.81 42.07
2644 0.1508 1680.00 1780.30 40.99
2645 0.1509 1717.00 1773.38 41.44
2646 0.1509 1722.00 1767.02 41.50
2647 0.1510 1646.00 1761.14 40.57
2648 0.1510 1743.00 1755.71 41.75
2649 0.1511 1621.00 1750.70 40.26
2650 0.1511 1742.00 1746.05 41.74
2651 0.1512 1687.00 1741.75 41.07
2652 0.1512 1609.00 1737.77 40.11
2653 0.1513 1638.00 1734.07 40.47
2654 0.1514 1576.00 1730.63 39.70
2655 0.1514 1645.00 1727.44 40.56
2656 0.1515 1654.00 1724.48 40.67
2657 0.1515 1716.00 1721.73 41.42
2658 0.1516 1697.00 1719.17 41.19
2659 0.1516 1574.00 1635.01 39.67
2660 0.1517 1682.00 1635.73 41.01
2661 0.1517 1604.00 1636.45 40.05
2662 0.1518 1570.00 1637.17 39.62
2663 0.1518 1593.00 1637.89 39.91
2664 0.1519 1652.00 1638.61 40.64
2665 0.1519 1553.00 1639.33 39.41
2666 0.1520 1628.00 1640.05 40.35
2667 0.1520 1635.00 1640.78 40.44
2668 0.1521 1563.00 1641.50 39.53
2669 0.1521 1613.00 1642.22 40.16
2670 0.1522 1588.00 1642.94 39.85
2671 0.1522 1605.00 1643.67 40.06
2672 0.1523 1634.00 1644.39 40.42
2673 0.1523 1653.00 1645.11 40.66
2674 0.1524 1650.00 1645.84 40.62
2675 0.1525 1620.00 1646.56 40.25
2676 0.1525 1617.00 1647.29 40.21
2677 0.1526 1637.00 1648.01 40.46
2678 0.1526 1628.00 1648.74 40.35
2679 0.1527 1580.00 1649.46 39.75
2680 0.1527 1559.00 1650.19 39.48
2681 0.1528 1639.00 1650.92 40.48
2682 0.1528 1688.00 1651.65 41.09
2683 0.1529 1615.00 1652.37 40.19
2684 0.1529 1675.00 1653.10 40.93
2685 0.1530 1606.00 1653.83 40.07
2686 0.1530 1579.00 1654.56 39.74
2687 0.1531 1638.00 1655.29 40.47
2688 0.1531 1602.00 1656.02 40.03
2689 0.1532 1659.00 1656.75 40.73
2690 0.1532 1595.00 1657.48 39.94
2691 0.1533 1628.00 1658.21 40.35
2692 0.1533 1618.00 1658.94 40.22
2693 0.1534 1592.00 1659.67 39.90
2694 0.1534 1633.00 1660.40 40.41
2695 0.1535 1599.00 1661.14 39.99
2696 0.1536 1573.00 1661.87 39.66
2697 0.1536 1625.00 1662.60 40.31
2698 0.1537 1549.00 1663.34 39.36
2699 0.1537 1600.00 1664.07 40.00
2700 0.1538 1583.00 1664.80 39.79
2701 0.1538 1680.00 1665.54 40.99
2702 0.1539 1526.00 1666.27 39.06
2703 0.1539 1593.00 1667.01 39.91
2704 0.1540 1622.00 1667.74 40.27
2705 0.1540 1584.00 1668.48 39.80
2706 0.1541 1623.00 1669.22 40.29
2707 0.1541 1616.00 1669.95 40.20
2708 0.1542 1641.00 1670.69 40.51
2709 0.1542 1650.00 1671.43 40.62
2710 0.1543 1584.00 1672.16 39.80
2711 0.1543 1622.00 1672.90 40.27
2712 0.1544 1632.00 1673.64 40.40
2713 0.1544 1532.00 1674.38 39.14
2714 0.1545 1633.00 1675.12 40.41
2715 0.1545 1681.00 1675.86 41.00
2716 0.1546 1618.00 1676.60 40.22
2717 0.1547 1567.00 1677.34 39.59
2718 0.1547 1672.00 1678.08 40.89
2719 0.1548 1643.00 1678.82 40.53
2720 0.1548 1578.00 1679.56 39.72
2721 0.1549 1554.00 1680.30 39.42
2722 0.1549 1624.00 1681.04 40.30
2723 0.1550 1623.00 1681.78 40.29
2724 0.1550 1562.00 1682.53 39.52
2725 0.1551 1648.00 1683.27 40.60
2726 0.1551 1528.00 1684.01 39.09
2727 0.1552 1606.00 1684.76 40.07
2728 0.1552 1628.00 1685.50 40.35
2729 0.1553 1639.00 1686.24 40.48
2730 0.1553 1583.00 1686.99 39.79
2731 0.1554 1637.00 1687.73 40.46
2732 0.1554 1658.00 1688.48 40.72
2733 0.1555 1623.00 1689.22 40.29
2734 0.1555 1582.00 1689.97 39.77
2735 0.1556 1611.00 1690.71 40.14
2736 0.1556 1640.00 1691.46 40.50
2737 0.1557 1647.00 1692.21 40.58
2738 0.1558 1649.00 1692.95 40.61
2739 0.1558 1608.00 1693.70 40.10
2740 0.1559 1606.00 1694.45 40.07
2741 0.1559 1603.00 1695.19 40.04
2742 0.1560 1616.00 1695.94 40.20
2743 0.1560 1659.00 1696.69 40.73
2744 0.1561 1681.00 1697.44 41.00
2745 0.1561 1666.00 1698.19 40.82
2746 0.1562 1667.00 1698.94 40.83
2747 0.1562 1637.00 1699.69 40.46
2748 0.1563 1676.00 1700.44 40.94
2749 0.1563 1665.00 1701.19 40.80
2750 0.1564 1611.00 1701.94 40.14
2751 0.1564 1629.00 1702.69 40.36
2752 0.1565 1635.00 1703.44 40.44
2753 0.1565 1612.00 1779.75 40.15
2754 0.1566 1724.00 1784.46 41.52
2755 0.1566 1654.00 1789.47 40.67
2756 0.1567 1656.00 1794.85 40.69
2757 0.1567 1712.00 1800.61 41.38
2758 0.1568 1638.00 1806.81 40.47
2759 0.1569 1667.00 1813.50 40.83
2760 0.1569 1669.00 1820.74 40.85
2761 0.1570 1736.00 1828.60 41.67
2762 0.1570 1664.00 1837.16 40.79
2763 0.1571 1620.00 1846.51 40.25
2764 0.1571 1691.00 1856.77 41.12
2765 0.1572 1674.00 1868.06 40.91
2766 0.1572 1722.00 1880.55 41.50
2767 0.1573 1769.00 1894.42 42.06
2768 0.1573 1702.00 1909.89 41.26
2769 0.1574 1714.00 1927.24 41.40
2770 0.1574 1795.00 1946.79 42.37
2771 0.1575 1664.00 1968.96 40.79
2772 0.1575 1713.00 1994.27 41.39
2773 0.1576 1758.00 2023.41 41.93
2774 0.1576 1804.00 2057.23 42.47
2775 0.1577 1836.00 2096.93 42.85
2776 0.1577 1867.00 2144.14 43.21
2777 0.1578 1953.00 2201.08 44.19
2778 0.1578 1957.00 2270.84 44.24
2779 0.1579 1989.00 2357.62 44.60
2780 0.1580 2048.00 2467.23 45.25
2781 0.1580 2157.00 2607.32 46.44
2782 0.1581 2139.00 2788.06 46.25
2783 0.1581 2428.00 3023.11 49.27
2784 0.1582 2584.00 3330.97 50.83
2785 0.1582 2881.00 3737.32 53.67
2786 0.1583 3208.00 4279.64 56.64
2787 0.1583 3882.00 5013.95 62.31
2788 0.1584 4785.00 6020.14 69.17
2789 0.1584 5955.00 7395.52 77.17
2790 0.1585 7520.00 9186.73 86.72
2791 0.1585 9619.00 11162.40 98.08
2792 0.1586 11098.00 12477.00 105.35
2793 0.1586 10444.00 12099.00 102.20
2794 0.1587 8403.00 10227.10 91.67
2795 0.1587 5924.00 8046.57 76.97
2796 0.1588 4721.00 6285.27 68.71
2797 0.1588 3647.00 5046.63 60.39
2798 0.1589 3353.00 4210.95 57.91
2799 0.1589 2691.00 3648.13 51.87
2800 0.1590 2521.00 3262.21 50.21
2801 0.1591 2343.00 2989.78 48.40
2802 0.1591 2217.00 2790.18 47.08
2803 0.1592 2103.00 2638.10 45.86
2804 0.1592 2006.00 2517.90 44.79
2805 0.1593 1979.00 2419.93 44.49
2806 0.1593 1917.00 2338.40 43.78
2807 0.1594 1969.00 2269.66 44.37
2808 0.1594 1844.00 2211.29 42.94
2809 0.1595 1839.00 2161.48 42.88
2810 0.1595 1798.00 2118.90 42.40
2811 0.1596 1785.00 2082.39 42.25
2812 0.1596 1771.00 2051.01 42.08
2813 0.1597 1749.00 2023.91 41.82
2814 0.1597 1766.00 2000.42 42.02
2815 0.1598 1814.00 1979.97 42.59
2816 0.1598 1733.00 1962.09 41.63
2817 0.1599 1804.00 1946.38 42.47
2818 0.1599 1756.00 1932.52 41.90
2819 0.1600 1728.00 1920.25 41.57
2820 0.1600 1716.00 1909.35 41.42
2821 0.1601 1657.00 1899.63 40.71
2822 0.1602 1722.00 1890.94 41.50
2823 0.1602 1638.00 1883.16 40.47
2824 0.1603 1791.00 1876.16 42.32
2825 0.1603 1708.00 1869.85 41.33
2826 0.1604 1667.00 1864.17 40.83
2827 0.1604 1724.00 1859.02 41.52
2828 0.1605 1764.00 1854.37 42.00
2829 0.1605 1796.00 1850.15 42.38
2830 0.1606 1707.00 1846.32 41.32
2831 0.1606 1725.00 1842.84 41.53
2832 0.1607 1662.00 1839.67 40.77
2833 0.1607 1634.00 1765.07 40.42
2834 0.1608 1687.00 1765.84 41.07
2835 0.1608 1642.00 1766.61 40.52
2836 0.1609 1679.00 1767.38 40.98
2837 0.1609 1690.00 1768.15 41.11
2838 0.1610 1720.00 1768.92 41.47
2839 0.1610 1673.00 1769.69 40.90
2840 0.1611 1715.00 1770.46 41.41
2841 0.1611 1739.00 1771.23 41.70
2842 0.1612 1609.00 1772.00 40.11
2843 0.1613 1728.00 1772.77 41.57
2844 0.1613 1662.00 1773.54 40.77
2845 0.1614 1684.00 1774.31 41.04
2846 0.1614 1767.00 1775.09 42.04
2847 0.1615 1610.00 1775.86 40.12
2848 0.1615 1662.00 1776.63 40.77
2849 0.1616 1729.00 1777.40 41.58
2850 0.1616 1659.00 1778.17 40.73
2851 0.1617 1762.00 1778.94 41.98
2852 0.1617 1687.00 1779.72 41.07
2853 0.1618 1724.00 1780.49 41.52
2854 0.1618 1712.00 1781.26 41.38
2855 0.1619 1670.00 1782.03 40.87
2856 0.1619 1676.00 1782.80 40.94
2857 0.1620 1779.00 1783.58 42.18
2858 0.1620 1729.00 1784.35 41.58
2859 0.1621 1734.00 1785.12 41.64
2860 0.1621 1742.00 1785.90 41.74
2861 0.1622 1777.00 1786.67 42.15
2862 0.1622 1737.00 1787.44 41.68
2863 0.1623 1666.00 1788.22 40.82
2864 0.1624 1690.00 1788.99 41.11
2865 0.1624 1704.00 1789.76 41.28
2866 0.1625 1695.00 1790.54 41.17
2867 0.1625 1641.00 1791.31 40.51
2868 0.1626 1753.00 1792.08 41.87
2869 0.1626 1767.00 1792.86 42.04
2870 0.1627 1716.00 1793.63 41.42
2871 0.1627 1720.00 1794.41 41.47
2872 0.1628 1689.00 1795.18 41.10
2873 0.1628 1733.00 1795.96 41.63
2874 0.1629 1644.00 1796.73 40.55
2875 0.1629 1713.00 1797.51 41.39
2876 0.1630 1706.00 1798.28 41.30
2877 0.1630 1684.00 1799.06 41.04
2878 0.1631 1709.00 1799.83 41.34
2879 0.1631 1696.00 1800.61 41.18
2880 0.1632 1763.00 1801.38 41.99
2881 0.1632 1798.00 1802.16 42.40
2882 0.1633 1681.00 1802.93 41.00
2883 0.1633 1711.00 1803.71 41.36
2884 0.1634 1664.00 1804.48 40.79
2885 0.1634 1703.00 1805.26 41.27
2886 0.1635 1733.00 1806.03 41.63
2887 0.1636 1703.00 1806.81 41.27
2888 0.1636 1799.00 1823.42 42.41
2889 0.1637 1726.00 1824.78 41.55
2890 0.1637 1790.00 1826.18 42.31
2891 0.1638 1723.00 1827.61 41.51
2892 0.1638 1756.00 1829.07 41.90
2893 0.1639 1701.00 1830.58 41.24
2894 0.1639 1668.00 1832.14 40.84
2895 0.1640 1716.00 1833.74 41.42
2896 0.1640 1775.00 1835.39 42.13
2897 0.1641 1769.00 1837.11 42.06
2898 0.1641 1713.00 1838.88 41.39
2899 0.1642 1799.00 1840.72 42.41
2900 0.1642 1733.00 1842.64 41.63
2901 0.1643 1777.00 1844.63 42.15
2902 0.1643 1825.00 1846.71 42.72
2903 0.1644 1768.00 1848.90 42.05
2904 0.1644 1711.00 1851.18 41.36
2905 0.1645 1750.00 1853.59 41.83
2906 0.1645 1800.00 1856.13 42.43
2907 0.1646 1783.00 1858.81 42.23
2908 0.1647 1762.00 1861.65 41.98
2909 0.1647 1815.00 1864.67 42.60
2910 0.1648 1820.00 1867.89 42.66
2911 0.1648 1782.00 1871.34 42.21
2912 0.1649 1801.00 1875.04 42.44
2913 0.1649 1830.00 1879.03 42.78
2914 0.1650 1820.00 1883.35 42.66
2915 0.1650 1829.00 1888.04 42.77
2916 0.1651 1800.00 1893.16 42.43
2917 0.1651 1795.00 1898.79 42.37
2918 0.1652 1784.00 1905.01 42.24
2919 0.1652 1815.00 1911.92 42.60
2920 0.1653 1858.00 1919.67 43.10
2921 0.1653 1865.00 1928.42 43.19
2922 0.1654 1852.00 1938.38 43.03
2923 0.1654 1830.00 1949.83 42.78
2924 0.1655 1845.00 1963.10 42.95
2925 0.1655 1970.00 1978.60 44.38
2926 0.1656 1896.00 1996.85 43.54
2927 0.1656 1939.00 2018.50 44.03
2928 0.1657 1958.00 2044.30 44.25
2929 0.1658 2035.00 2075.20 45.11
2930 0.1658 2098.00 2112.40 45.80
2931 0.1659 2064.00 2157.35 45.43
2932 0.1659 2090.00 2211.94 45.72
2933 0.1660 2191.00 2304.88 46.81
2934 0.1660 2244.00 2387.93 47.37
2935 0.1661 2389.00 2490.58 48.88
2936 0.1661 2422.00 2618.42 49.21
2937 0.1662 2525.00 2778.33 50.25
2938 0.1662 2582.00 2977.99 50.81
2939 0.1663 2648.00 3222.76 51.46
2940 0.1663 2844.00 3507.94 53.33
2941 0.1664 2940.00 3805.20 54.22
2942 0.1664 3099.00 4047.76 55.67
2943 0.1665 3135.00 4144.29 55.99
2944 0.1665 3060.00 4042.16 55.32
2945 0.1666 2927.00 3781.00 54.10
2946 0.1666 2789.00 3457.21 52.81
2947 0.1667 2594.00 3150.13 50.93
2948 0.1667 2553.00 2895.22 50.53
2949 0.1668 2418.00 2697.09 49.17
2950 0.1669 2307.00 2547.85 48.03
2951 0.1669 2255.00 2436.91 47.49
2952 0.1670 2226.00 2354.69 47.18
2953 0.1670 2188.00 2293.82 46.78
2954 0.1671 2095.00 2248.70 45.77
2955 0.1671 2127.00 2215.31 46.12
2956 0.1672 1997.00 2190.76 44.69
2957 0.1672 2068.00 2173.04 45.48
2958 0.1673 2016.00 2160.80 44.90
2959 0.1673 2056.00 2153.16 45.34
2960 0.1674 2015.00 2149.62 44.89
2961 0.1674 1987.00 2149.99 44.58
2962 0.1675 1965.00 2154.33 44.33
2963 0.1675 2142.00 2162.94 46.28
2964 0.1676 2102.00 2176.35 45.85
2965 0.1676 1974.00 2195.37 44.43
2966 0.1677 2257.00 2221.08 47.51
2967 0.1677 2152.00 2254.93 46.39
2968 0.1678 2200.00 2298.76 46.90
2969 0.1678 2143.00 2354.96 46.29
2970 0.1679 2245.00 2426.59 47.38
2971 0.1680 2358.00 2517.77 48.56
2972 0.1680 2495.00 2633.92 49.95
2973 0.1681 2588.00 2782.49 50.87
2974 0.1681 2741.00 2973.94 52.35
2975 0.1682 3018.00 3222.35 54.94
2976 0.1682 3221.00 3545.22 56.75
2977 0.1683 3700.00 3959.79 60.83
2978 0.1683 3956.00 4468.52 62.90
2979 0.1684 4475.00 5022.55 66.90
2980 0.1684 4911.00 5474.79 70.08
2981 0.1685 4899.00 5607.24 69.99
2982 0.1685 4671.00 5318.55 68.34
2983 0.1686 4187.00 4753.36 64.71
2984 0.1686 3661.00 4143.09 60.51
2985 0.1687 3205.00 3623.50 56.61
2986 0.1687 3048.00 3225.73 55.21
2987 0.1688 2721.00 2934.22 52.16
2988 0.1688 2625.00 2723.28 51.23
2989 0.1689 2431.00 2569.89 49.31
2990 0.1689 2403.00 2456.90 49.02
2991 0.1690 2341.00 2372.09 48.38
2992 0.1691 2281.00 2306.96 47.76
2993 0.1691 2146.00 2255.65 46.32
2994 0.1692 2079.00 2214.19 45.60
2995 0.1692 2014.00 2179.92 44.88
2996 0.1693 2069.00 2151.04 45.49
2997 0.1693 1991.00 2126.32 44.62
2998 0.1694 2078.00 2104.96 45.59
2999 0.1694 1945.00 2086.38 44.10
3000 0.1695 1980.00 2055.17 44.50
3001 0.1695 1973.00 2041.47 44.42
3002 0.1696 1935.00 2029.50 43.99
3003 0.1696 1949.00 2019.02 44.15
3004 0.1697 1921.00 2009.83 43.83
3005 0.1697 1893.00 2001.77 43.51
3006 0.1698 1850.00 1994.68 43.01
3007 0.1698 1936.00 1988.44 44.00
3008 0.1699 1856.00 1982.94 43.08
3009 0.1699 1839.00 1978.07 42.88
3010 0.1700 1894.00 1973.76 43.52
3011 0.1700 1887.00 1969.93 43.44
3012 0.1701 1841.00 1966.54 42.91
3013 0.1702 1853.00 1963.52 43.05
3014 0.1702 1861.00 1960.83 43.14
3015 0.1703 1811.00 1958.44 42.56
3016 0.1703 1900.00 1956.31 43.59
3017 0.1704 1877.00 1954.41 43.32
3018 0.1704 1825.00 1952.73 42.72
3019 0.1705 1812.00 1951.23 42.57
3020 0.1705 1847.00 1949.90 42.98
3021 0.1706 1880.00 1948.73 43.36
3022 0.1706 1824.00 1947.70 42.71
3023 0.1707 1898.00 1946.79 43.57
3024 0.1707 1826.00 1945.99 42.73
3025 0.1708 1851.00 1945.30 43.02
3026 0.1708 1859.00 1944.71 43.12
3027 0.1709 1887.00 1944.20 43.44
3028 0.1709 1825.00 1943.77 42.72
3029 0.1710 1889.00 1943.42 43.46
3030 0.1710 1857.00 1917.83 43.09
3031 0.1711 1853.00 1918.60 43.05
3032 0.1711 1848.00 1919.37 42.99
3033 0.1712 1792.00 1920.14 42.33
3034 0.1713 1824.00 1920.91 42.71
3035 0.1713 1906.00 1921.68 43.66
3036 0.1714 1814.00 1922.45 42.59
3037 0.1714 1845.00 1923.22 42.95
3038 0.1715 1902.00 1923.99 43.61
3039 0.1715 1876.00 1924.76 43.31
3040 0.1716 1932.00 1926.05 43.95
3041 0.1716 1903.00 1926.84 43.62
3042 0.1717 1859.00 1927.63 43.12
3043 0.1717 1827.00 1928.42 42.74
3044 0.1718 1743.00 1929.21 41.75
3045 0.1718 1790.00 1930.00 42.31
3046 0.1719 1855.00 1930.79 43.07
3047 0.1719 1885.00 1931.59 43.42
3048 0.1720 1786.00 1932.38 42.26
3049 0.1720 1795.00 1933.18 42.37
3050 0.1721 1789.00 1933.98 42.30
3051 0.1721 1969.00 1934.78 44.37
3052 0.1722 1834.00 1935.58 42.83
3053 0.1722 1906.00 1936.39 43.66
3054 0.1723 1898.00 1937.19 43.57
3055 0.1724 1824.00 1938.00 42.71
3056 0.1724 1796.00 1938.82 42.38
3057 0.1725 1862.00 1939.63 43.15
3058 0.1725 1891.00 1940.45 43.49
3059 0.1726 1801.00 1941.27 42.44
3060 0.1726 1941.00 1942.10 44.06
3061 0.1727 1812.00 1942.93 42.57
3062 0.1727 1824.00 1943.77 42.71
3063 0.1728 1914.00 1944.61 43.75
3064 0.1728 1838.00 1945.46 42.87
3065 0.1729 1762.00 1946.31 41.98
3066 0.1729 1922.00 1947.18 43.84
3067 0.1730 1928.00 1948.05 43.91
3068 0.1730 1896.00 1948.94 43.54
3069 0.1731 1891.00 1949.83 43.49
3070 0.1731 1867.00 1950.74 43.21
3071 0.1732 1865.00 1951.67 43.19
3072 0.1732 1914.00 1952.62 43.75
3073 0.1733 1907.00 1953.59 43.67
3074 0.1733 1919.00 1954.58 43.81
3075 0.1734 1933.00 1955.61 43.97
3076 0.1735 1949.00 1956.68 44.15
3077 0.1735 1946.00 1957.79 44.11
3078 0.1736 1893.00 1958.96 43.51
3079 0.1736 1988.00 1960.20 44.59
3080 0.1737 1936.00 1961.53 44.00
3081 0.1737 1986.00 1962.96 44.56
3082 0.1738 1913.00 1964.52 43.74
3083 0.1738 1936.00 1966.24 44.00
3084 0.1739 1982.00 1968.14 44.52
3085 0.1739 2005.00 1970.28 44.78
3086 0.1740 1993.00 1972.71 44.64
3087 0.1740 1965.00 1975.49 44.33
3088 0.1741 2019.00 1978.72 44.93
3089 0.1741 1993.00 1982.52 44.64
3090 0.1742 2058.00 1987.04 45.37
3091 0.1742 1999.00 1992.47 44.71
3092 0.1743 2117.00 1999.04 46.01
3093 0.1743 2148.00 2006.95 46.35
3094 0.1744 2116.00 2016.22 46.00
3095 0.1744 2226.00 2026.38 47.18
3096 0.1745 2213.00 2036.03 47.04
3097 0.1745 2237.00 2042.69 47.30
3098 0.1746 2227.00 2043.88 47.19
3099 0.1747 2264.00 2039.10 47.58
3100 0.1747 2120.00 2030.42 46.04
3101 0.1748 2122.00 2020.72 46.07
3102 0.1748 2075.00 2014.15 45.55
3103 0.1749 2102.00 2007.16 45.85
3104 0.1749 2187.00 2001.88 46.77
3105 0.1750 2127.00 1998.03 46.12
3106 0.1750 2048.00 1995.31 45.25
3107 0.1751 2003.00 1993.44 44.75
3108 0.1751 2042.00 1992.20 45.19
3109 0.1752 2111.00 1991.44 45.95
3110 0.1752 2069.00 1991.03 45.49
3111 0.1753 2079.00 1990.87 45.60
3112 0.1753 2006.00 1990.92 44.79
3113 0.1754 2129.00 1991.12 46.14
3114 0.1754 2075.00 1991.45 45.55
3115 0.1755 2043.00 2075.32 45.20
3116 0.1755 2093.00 2078.78 45.75
3117 0.1756 2077.00 2082.48 45.57
3118 0.1756 2102.00 2086.42 45.85
3119 0.1757 2031.00 2090.60 45.07
3120 0.1758 2041.00 2095.04 45.18
3121 0.1758 2094.00 2099.76 45.76
3122 0.1759 2122.00 2104.76 46.07
3123 0.1759 2180.00 2110.07 46.69
3124 0.1760 2103.00 2115.71 45.86
3125 0.1760 2173.00 2121.71 46.62
3126 0.1761 2073.00 2213.91 45.53
3127 0.1761 2156.00 2223.74 46.43
3128 0.1762 2176.00 2234.20 46.65
3129 0.1762 2234.00 2245.34 47.27
3130 0.1763 2120.00 2257.24 46.04
3131 0.1763 2140.00 2269.95 46.26
3132 0.1764 2203.00 2283.59 46.94
3133 0.1764 2229.00 2298.25 47.21
3134 0.1765 2257.00 2314.06 47.51
3135 0.1765 2176.00 2331.16 46.65
3136 0.1766 2366.00 2349.74 48.64
3137 0.1766 2266.00 2370.00 47.60
3138 0.1767 2336.00 2392.19 48.33
3139 0.1767 2339.00 2416.60 48.36
3140 0.1768 2391.00 2443.60 48.90
3141 0.1769 2354.00 2473.62 48.52
3142 0.1769 2409.00 2507.21 49.08
3143 0.1770 2479.00 2545.01 49.79
3144 0.1770 2488.00 2587.93 49.88
3145 0.1771 2651.00 2637.08 51.49
3146 0.1771 2735.00 2693.91 52.30
3147 0.1772 2762.00 2760.28 52.55
3148 0.1772 2835.00 2838.23 53.24
3149 0.1773 2860.00 2929.30 53.48
3150 0.1773 3008.00 3032.55 54.85
3151 0.1774 3060.00 3141.34 55.32
3152 0.1774 3160.00 3241.91 56.21
3153 0.1775 3307.00 3322.34 57.51
3154 0.1775 3441.00 3386.90 58.66
3155 0.1776 3595.00 3454.96 59.96
3156 0.1776 3661.00 3544.75 60.51
3157 0.1777 3951.00 3668.29 62.86
3158 0.1777 4156.00 3831.06 64.47
3159 0.1778 4326.00 4037.94 65.77
3160 0.1778 4819.00 4295.17 69.42
3161 0.1779 5066.00 4611.38 71.18
3162 0.1780 5652.00 4998.88 75.18
3163 0.1780 6156.00 5474.05 78.46
3164 0.1781 6543.00 6058.93 80.89
3165 0.1781 7325.00 6782.00 85.59
3166 0.1782 8136.00 7679.54 90.20
3167 0.1782 9099.00 8789.98 95.39
3168 0.1783 10150.00 10143.30 100.75
3169 0.1783 11287.00 11729.50 106.24
3170 0.1784 12666.00 13435.20 112.54
3171 0.1784 14627.00 14977.00 120.94
3172 0.1785 15688.00 15930.40 125.25
3173 0.1785 16175.00 15980.00 127.18
3174 0.1786 15123.00 15215.30 122.98
3175 0.1786 13940.00 14078.50 118.07
3176 0.1787 12820.00 13029.20 113.22
3177 0.1787 12128.00 12339.30 110.13
3178 0.1788 11600.00 12111.70 107.70
3179 0.1788 11954.00 12356.60 109.33
3180 0.1789 12772.00 13029.90 113.01
3181 0.1789 13717.00 14012.80 117.12
3182 0.1790 14824.00 15052.00 121.75
3183 0.1791 15452.00 15736.10 124.31
3184 0.1791 15815.00 15642.80 125.76
3185 0.1792 14304.00 14641.90 119.60
3186 0.1792 12673.00 13015.70 112.57
3187 0.1793 11040.00 11243.20 105.07
3188 0.1793 9922.00 9581.17 99.61
3189 0.1794 8735.00 8194.33 93.46
3190 0.1794 7908.00 7093.33 88.93
3191 0.1795 7103.00 6236.42 84.28
3192 0.1795 6541.00 5572.96 80.88
3193 0.1796 6031.00 5057.24 77.66
3194 0.1796 5360.00 4652.79 73.21
3195 0.1797 5325.00 4331.49 72.97
3196 0.1797 4640.00 4072.67 68.12
3197 0.1798 4495.00 3860.94 67.04
3198 0.1798 4264.00 3685.03 65.30
3199 0.1799 4039.00 3536.56 63.55
3200 0.1799 3773.00 3409.54 61.42
3201 0.1800 3791.00 3299.56 61.57
3202 0.1800 3516.00 3203.31 59.30
3203 0.1801 3519.00 3118.52 59.32
3204 0.1802 3334.00 3041.25 57.74
3205 0.1802 3250.00 2974.50 57.01
3206 0.1803 3209.00 2914.97 56.65
3207 0.1803 2996.00 2861.82 54.74
3208 0.1804 2958.00 2814.36 54.39
3209 0.1804 2818.00 2772.00 53.08
3210 0.1805 2746.00 2734.18 52.40
3211 0.1805 2799.00 2700.48 52.91
3212 0.1806 2815.00 2670.49 53.06
3213 0.1806 2659.00 2643.86 51.57
3214 0.1807 2741.00 2620.28 52.35
3215 0.1807 2617.00 2599.52 51.16
3216 0.1808 2601.00 2581.35 51.00
3217 0.1808 2510.00 2565.57 50.10
3218 0.1809 2520.00 2552.05 50.20
3219 0.1809 2703.00 2540.67 51.99
3220 0.1810 2527.00 2531.35 50.27
3221 0.1810 2669.00 2524.03 51.66
3222 0.1811 2525.00 2518.69 50.25
3223 0.1811 2566.00 2515.35 50.66
3224 0.1812 2455.00 2514.05 49.55
3225 0.1813 2598.00 2514.90 50.97
3226 0.1813 2572.00 2518.03 50.71
3227 0.1814 2604.00 2523.63 51.03
3228 0.1814 2568.00 2531.97 50.68
3229 0.1815 2702.00 2543.36 51.98
3230 0.1815 2657.00 2558.23 51.55
3231 0.1816 2554.00 2496.59 50.54
3232 0.1816 2635.00 2522.72 51.33
3233 0.1817 2726.00 2554.10 52.21
3234 0.1817 2883.00 2591.63 53.69
3235 0.1818 2819.00 2636.42 53.09
3236 0.1818 2879.00 2689.81 53.66
3237 0.1819 2870.00 2753.44 53.57
3238 0.1819 3116.00 2829.19 55.82
3239 0.1820 3299.00 2919.55 57.44
3240 0.1820 3367.00 3027.54 58.03
3241 0.1821 3604.00 3156.98 60.03
3242 0.1821 3543.00 3312.69 59.52
3243 0.1822 3906.00 3418.49 62.50
3244 0.1822 4049.00 3649.51 63.63
3245 0.1823 4349.00 3929.58 65.95
3246 0.1824 4825.00 4268.34 69.46
3247 0.1824 5350.00 4673.85 73.14
3248 0.1825 5779.00 5146.19 76.02
3249 0.1825 6310.00 5666.49 79.44
3250 0.1826 7194.00 6182.08 84.82
3251 0.1826 7990.00 6595.77 89.39
3252 0.1827 7981.00 6788.87 89.34
3253 0.1827 7478.00 6684.32 86.48
3254 0.1828 6934.00 6305.98 83.27
3255 0.1828 6448.00 5764.18 80.30
3256 0.1829 5776.00 5183.00 76.00
3257 0.1829 5425.00 4646.23 73.65
3258 0.1830 4749.00 4189.67 68.91
3259 0.1830 4599.00 3818.46 67.82
3260 0.1831 4167.00 3523.40 64.55
3261 0.1831 3911.00 3290.77 62.54
3262 0.1832 3603.00 3117.48 60.03
3263 0.1832 3471.00 2973.12 58.92
3264 0.1833 3343.00 2858.30 57.82
3265 0.1833 3060.00 2766.06 55.32
3266 0.1834 3004.00 2691.15 54.81
3267 0.1835 3001.00 2629.53 54.78
3268 0.1835 2784.00 2578.21 52.76
3269 0.1836 2849.00 2534.86 53.38
3270 0.1836 2722.00 2497.78 52.17
3271 0.1837 2632.00 2465.71 51.30
3272 0.1837 2595.00 2437.68 50.94
3273 0.1838 2609.00 2412.98 51.08
3274 0.1838 2595.00 2391.09 50.94
3275 0.1839 2487.00 2371.61 49.87
3276 0.1839 2396.00 2354.20 48.95
3277 0.1840 2387.00 2338.64 48.86
3278 0.1840 2491.00 2324.72 49.91
3279 0.1841 2385.00 2312.27 48.84
3280 0.1841 2495.00 2301.16 49.95
3281 0.1842 2345.00 2291.25 48.43
3282 0.1842 2359.00 2282.44 48.57
3283 0.1843 2349.00 2274.64 48.47
3284 0.1843 2231.00 2267.75 47.23
3285 0.1844 2318.00 2261.71 48.15
3286 0.1844 2181.00 2256.45 46.70
3287 0.1845 2276.00 2251.92 47.71
3288 0.1846 2188.00 2248.07 46.78
3289 0.1846 2300.00 2244.88 47.96
3290 0.1847 2241.00 2242.30 47.34
3291 0.1847 2236.00 2240.32 47.29
3292 0.1848 2182.00 2238.94 46.71
3293 0.1848 2245.00 2238.15 47.38
3294 0.1849 2270.00 2237.97 47.64
3295 0.1849 2238.00 2283.51 47.31
3296 0.1850 2282.00 2286.02 47.77
3297 0.1850 2307.00 2289.33 48.03
3298 0.1851 2259.00 2293.51 47.53
3299 0.1851 2247.00 2298.69 47.40
3300 0.1852 2361.00 2304.99 48.59
3301 0.1852 2294.00 2312.60 47.90
3302 0.1853 2235.00 2321.73 47.28
3303 0.1853 2328.00 2332.66 48.25
3304 0.1854 2358.00 2345.71 48.56
3305 0.1854 2386.00 2361.30 48.85
3306 0.1855 2396.00 2379.91 48.95
3307 0.1855 2349.00 2402.17 48.47
3308 0.1856 2427.00 2428.80 49.26
3309 0.1857 2463.00 2460.80 49.63
3310 0.1857 2457.00 2499.34 49.57
3311 0.1858 2656.00 2546.01 51.54
3312 0.1858 2525.00 2602.81 50.25
3313 0.1859 2768.00 2672.42 52.61
3314 0.1859 2716.00 2758.10 52.12
3315 0.1860 2868.00 2863.63 53.55
3316 0.1860 2991.00 2992.67 54.69
3317 0.1861 3183.00 3146.42 56.42
3318 0.1861 3320.00 3319.25 57.62
3319 0.1862 3449.00 3459.55 58.73
3320 0.1862 3471.00 3593.66 58.92
3321 0.1863 3580.00 3642.68 59.83
3322 0.1863 3611.00 3584.00 60.09
3323 0.1864 3420.00 3440.09 58.48
3324 0.1864 3481.00 3259.96 59.00
3325 0.1865 3121.00 3085.61 55.87
3326 0.1865 3191.00 2938.07 56.49
3327 0.1866 2999.00 2822.04 54.76
3328 0.1866 2899.00 2734.65 53.84
3329 0.1867 2869.00 2670.72 53.56
3330 0.1867 2786.00 2625.22 52.78
3331 0.1868 2760.00 2594.00 52.54
3332 0.1869 2690.00 2573.92 51.87
3333 0.1869 2790.00 2562.71 52.82
3334 0.1870 2759.00 2558.76 52.53
3335 0.1870 2706.00 2561.01 52.02
3336 0.1871 2622.00 2568.83 51.21
3337 0.1871 2810.00 2581.94 53.01
3338 0.1872 2768.00 2600.37 52.61
3339 0.1872 2860.00 2624.38 53.48
3340 0.1873 2798.00 2654.47 52.90
3341 0.1873 2988.00 2691.38 54.66
3342 0.1874 2834.00 2736.08 53.24
3343 0.1874 3016.00 2789.77 54.92
3344 0.1875 3013.00 2853.97 54.89
3345 0.1875 3160.00 2930.42 56.21
3346 0.1876 3301.00 3021.42 57.45
3347 0.1876 3329.00 3129.67 57.70
3348 0.1877 3674.00 3258.51 60.61
3349 0.1877 3599.00 3412.27 59.99
3350 0.1878 3900.00 3596.28 62.45
3351 0.1878 3860.00 3817.33 62.13
3352 0.1879 4478.00 4083.90 66.92
3353 0.1880 4707.00 4406.71 68.61
3354 0.1880 5268.00 4798.04 72.58
3355 0.1881 5475.00 5270.75 73.99
3356 0.1881 6180.00 5834.22 78.61
3357 0.1882 6639.00 6486.71 81.48
3358 0.1882 7785.00 7198.04 88.23
3359 0.1883 8492.00 7890.93 92.15
3360 0.1883 9188.00 8430.75 95.85
3361 0.1884 9462.00 8660.37 97.27
3362 0.1884 8666.00 8486.09 93.09
3363 0.1885 8365.00 7950.79 91.46
3364 0.1885 6978.00 7205.57 83.53
3365 0.1886 6773.00 6414.29 82.30
3366 0.1886 5897.00 5685.47 76.79
3367 0.1887 5588.00 5065.61 74.75
3368 0.1887 4921.00 4560.39 70.15
3369 0.1888 4654.00 4157.40 68.22
3370 0.1888 4153.00 3838.88 64.44
3371 0.1889 3979.00 3587.30 63.08
3372 0.1889 3702.00 3387.69 60.84
3373 0.1890 3715.00 3228.19 60.95
3374 0.1891 3298.00 3110.36 57.43
3375 0.1891 3110.00 3005.71 55.77
3376 0.1892 3206.00 2919.34 56.62
3377 0.1892 3039.00 2847.11 55.13
3378 0.1893 2991.00 2785.94 54.69
3379 0.1893 2704.00 2733.43 52.00
3380 0.1894 2771.00 2687.85 52.64
3381 0.1894 2663.00 2638.34 51.60
3382 0.1895 2621.00 2603.34 51.20
3383 0.1895 2596.00 2572.19 50.95
3384 0.1896 2592.00 2544.35 50.91
3385 0.1896 2545.00 2519.37 50.45
3386 0.1897 2566.00 2496.91 50.66
3387 0.1897 2393.00 2476.68 48.92
3388 0.1898 2524.00 2458.44 50.24
3389 0.1898 2440.00 2442.00 49.40
3390 0.1899 2435.00 2427.16 49.35
3391 0.1899 2354.00 2413.79 48.52
3392 0.1900 2325.00 2405.49 48.22
3393 0.1900 2373.00 2394.78 48.71
3394 0.1901 2260.00 2385.16 47.54
3395 0.1902 2364.00 2376.53 48.62
3396 0.1902 2225.00 2368.81 47.17
3397 0.1903 2413.00 2361.92 49.12
3398 0.1903 2230.00 2355.80 47.22
3399 0.1904 2263.00 2350.37 47.57
3400 0.1904 2275.00 2345.61 47.70
3401 0.1905 2332.00 2341.45 48.29
3402 0.1905 2254.00 2337.87 47.48
3403 0.1906 2311.00 2334.84 48.07
3404 0.1906 2284.00 2332.33 47.79
3405 0.1907 2206.00 2330.33 46.97
3406 0.1907 2317.00 2328.83 48.14
3407 0.1908 2306.00 2327.82 48.02
3408 0.1908 2335.00 2327.30 48.32
3409 0.1909 2302.00 2327.28 47.98
3410 0.1909 2207.00 2327.78 46.98
3411 0.1910 2125.00 2328.81 46.10
3412 0.1910 2261.00 2330.42 47.55
3413 0.1911 2184.00 2332.65 46.73
3414 0.1911 2247.00 2335.55 47.40
3415 0.1912 2208.00 2339.20 46.99
3416 0.1913 2299.00 2343.69 47.95
3417 0.1913 2254.00 2349.14 47.48
3418 0.1914 2328.00 2355.68 48.25
3419 0.1914 2199.00 2363.48 46.89
3420 0.1915 2301.00 2372.76 47.97
3421 0.1915 2262.00 2383.76 47.56
3422 0.1916 2251.00 2396.78 47.44
3423 0.1916 2348.00 2412.18 48.46
3424 0.1917 2285.00 2430.39 47.80
3425 0.1917 2352.00 2451.93 48.50
3426 0.1918 2326.00 2477.43 48.23
3427 0.1918 2340.00 2507.68 48.37
3428 0.1919 2347.00 2543.67 48.45
3429 0.1919 2514.00 2543.14 50.14
3430 0.1920 2417.00 2595.75 49.16
3431 0.1920 2447.00 2658.69 49.47
3432 0.1921 2509.00 2734.37 50.09
3433 0.1921 2501.00 2825.70 50.01
3434 0.1922 2611.00 2936.10 51.10
3435 0.1922 2593.00 3068.95 50.92
3436 0.1923 2796.00 3226.54 52.88
3437 0.1924 2931.00 3407.62 54.14
3438 0.1924 2993.00 3603.55 54.71
3439 0.1925 3142.00 3793.40 56.05
3440 0.1925 3348.00 3943.99 57.86
3441 0.1926 3234.00 4021.61 56.87
3442 0.1926 3281.00 4012.99 57.28
3443 0.1927 3355.00 3936.27 57.92
3444 0.1927 3300.00 3825.01 57.45
3445 0.1928 3584.00 3702.70 59.87
3446 0.1928 3477.00 3564.95 58.97
3447 0.1929 3467.00 3404.88 58.88
3448 0.1929 3190.00 3228.95 56.48
3449 0.1930 3107.00 3057.54 55.74
3450 0.1930 2924.00 2907.96 54.07
3451 0.1931 2920.00 2786.27 54.04
3452 0.1931 2741.00 2690.60 52.35
3453 0.1932 2669.00 2616.34 51.66
3454 0.1932 2532.00 2558.63 50.32
3455 0.1933 2546.00 2513.39 50.46
3456 0.1933 2375.00 2477.47 48.73
3457 0.1934 2424.00 2448.53 49.23
3458 0.1935 2338.00 2424.84 48.35
3459 0.1935 2392.00 2405.13 48.91
3460 0.1936 2299.00 2388.48 47.95
3461 0.1936 2309.00 2374.22 48.05
3462 0.1937 2358.00 2361.88 48.56
3463 0.1937 2274.00 2351.09 47.69
3464 0.1938 2237.00 2341.59 47.30
3465 0.1938 2179.00 2333.21 46.68
3466 0.1939 2246.00 2325.79 47.39
3467 0.1939 2269.00 2319.20 47.63
3468 0.1940 2292.00 2313.37 47.87
3469 0.1940 2267.00 2308.21 47.61
3470 0.1941 2278.00 2303.66 47.73
3471 0.1941 2175.00 2299.65 46.64
3472 0.1942 2301.00 2296.13 47.97
3473 0.1942 2218.00 2293.08 47.10
3474 0.1943 2189.00 2290.45 46.79
3475 0.1943 2170.00 2288.21 46.58
3476 0.1944 2315.00 2286.33 48.11
3477 0.1944 2190.00 2284.82 46.80
3478 0.1945 2180.00 2283.66 46.69
3479 0.1946 2228.00 2282.85 47.20
3480 0.1946 2285.00 2282.41 47.80
3481 0.1947 2248.00 2282.35 47.41
3482 0.1947 2154.00 2282.71 46.41
3483 0.1948 2385.00 2283.55 48.84
3484 0.1948 2130.00 2284.92 46.15
3485 0.1949 2305.00 2286.91 48.01
3486 0.1949 2198.00 2289.63 46.88
3487 0.1950 2280.00 2293.22 47.75
3488 0.1950 2123.00 2297.87 46.08
3489 0.1951 2248.00 2303.82 47.41
3490 0.1951 2275.00 2311.39 47.70
3491 0.1952 2241.00 2321.00 47.34
3492 0.1952 2326.00 2333.23 48.23
3493 0.1953 2215.00 2348.80 47.06
3494 0.1953 2264.00 2368.56 47.58
3495 0.1954 2188.00 2393.23 46.78
3496 0.1954 2307.00 2422.81 48.03
3497 0.1955 2194.00 2455.12 46.84
3498 0.1955 2355.00 2572.42 48.53
3499 0.1956 2245.00 2590.89 47.38
3500 0.1957 2329.00 2588.19 48.26
3501 0.1957 2334.00 2562.28 48.31
3502 0.1958 2353.00 2530.78 48.51
3503 0.1958 2324.00 2499.71 48.21
3504 0.1959 2307.00 2474.09 48.03
3505 0.1959 2334.00 2455.00 48.31
3506 0.1960 2272.00 2441.72 47.67
3507 0.1960 2326.00 2433.08 48.23
3508 0.1961 2370.00 2427.99 48.68
3509 0.1961 2299.00 2415.04 47.95
3510 0.1962 2287.00 2415.02 47.82
3511 0.1962 2380.00 2416.60 48.79
3512 0.1963 2323.00 2419.47 48.20
3513 0.1963 2459.00 2423.40 49.59
3514 0.1964 2311.00 2428.27 48.07
3515 0.1964 2335.00 2433.98 48.32
3516 0.1965 2415.00 2440.50 49.14
3517 0.1965 2223.00 2447.80 47.15
3518 0.1966 2440.00 2455.90 49.40
3519 0.1966 2403.00 2464.82 49.02
3520 0.1967 2475.00 2474.61 49.75
3521 0.1968 2301.00 2485.31 47.97
3522 0.1968 2485.00 2497.01 49.85
3523 0.1969 2486.00 2509.79 49.86
3524 0.1969 2548.00 2523.73 50.48
3525 0.1970 2412.00 2538.97 49.11
3526 0.1970 2502.00 2555.65 50.02
3527 0.1971 2588.00 2573.92 50.87
3528 0.1971 2616.00 2593.98 51.15
3529 0.1972 2705.00 2616.06 52.01
3530 0.1972 2569.00 2640.45 50.69
3531 0.1973 2720.00 2667.49 52.15
3532 0.1973 2722.00 2697.58 52.17
3533 0.1974 2829.00 2731.24 53.19
3534 0.1974 2838.00 2769.08 53.27
3535 0.1975 2885.00 2811.89 53.71
3536 0.1975 2889.00 2860.55 53.75
3537 0.1976 3006.00 2916.28 54.83
3538 0.1976 3147.00 2980.45 56.10
3539 0.1977 3205.00 3054.80 56.61
3540 0.1977 3322.00 3141.40 57.64
3541 0.1978 3419.00 3242.81 58.47
3542 0.1979 3772.00 3362.08 61.42
3543 0.1979 3667.00 3502.88 60.56
3544 0.1980 3816.00 3669.77 61.77
3545 0.1980 3936.00 3868.24 62.74
3546 0.1981 4205.00 4105.14 64.85
3547 0.1981 4560.00 4388.97 67.53
3548 0.1982 4907.00 4730.92 70.05
3549 0.1982 5124.00 5144.79 71.58
3550 0.1983 5723.00 5648.72 75.65
3551 0.1983 6287.00 6265.43 79.29
3552 0.1984 6917.00 7023.29 83.17
3553 0.1984 7838.00 7953.29 88.53
3554 0.1985 8464.00 9082.03 92.00
3555 0.1985 9985.00 10412.20 99.93
3556 0.1986 11030.00 11888.90 105.02
3557 0.1986 12490.00 13335.20 111.76
3558 0.1987 13796.00 14429.70 117.46
3559 0.1987 14161.00 14800.00 119.00
3560 0.1988 13307.00 14261.80 115.36
3561 0.1988 11839.00 12986.80 108.81
3562 0.1989 10835.00 11369.40 104.09
3563 0.1989 9139.00 9763.51 95.60
3564 0.1990 8633.00 8361.08 92.91
3565 0.1991 7395.00 7217.02 85.99
3566 0.1991 6899.00 6314.13 83.06
3567 0.1992 6243.00 5611.71 79.01
3568 0.1992 5705.00 5066.68 75.53
3569 0.1993 5313.00 4642.17 72.89
3570 0.1993 5001.00 4308.55 70.72
3571 0.1994 4759.00 4043.42 68.99
3572 0.1994 4360.00 3830.02 66.03
3573 0.1995 4300.00 3655.72 65.57
3574 0.1995 3834.00 3511.09 61.92
3575 0.1996 4021.00 3389.27 63.41
3576 0.1996 3673.00 3285.24 60.61
3577 0.1997 3677.00 3195.20 60.64
3578 0.1997 3273.00 3116.44 57.21
3579 0.1998 3354.00 3046.96 57.91
3580 0.1998 3294.00 2985.25 57.39
3581 0.1999 3195.00 2934.91 56.52
3582 0.1999 3041.00 2885.69 55.15
3583 0.2000 3072.00 2841.48 55.43
3584 0.2000 3115.00 2801.72 55.81
3585 0.2001 2956.00 2765.89 54.37
3586 0.2002 2999.00 2733.56 54.76
3587 0.2002 2747.00 2704.36 52.41
3588 0.2003 2812.00 2677.93 53.03
3589 0.2003 2648.00 2653.98 51.46
3590 0.2004 2795.00 2632.25 52.87
3591 0.2004 2692.00 2612.51 51.88
3592 0.2005 2710.00 2594.53 52.06
3593 0.2005 2549.00 2578.14 50.49
3594 0.2006 2580.00 2563.16 50.79
3595 0.2006 2600.00 2549.47 50.99
3596 0.2007 2525.00 2536.93 50.25
3597 0.2007 2561.00 2525.43 50.61
3598 0.2008 2537.00 2514.87 50.37
3599 0.2008 2536.00 2505.17 50.36
3600 0.2009 2515.00 2496.25 50.15
3601 0.2009 2529.00 2488.04 50.29
3602 0.2010 2495.00 2480.50 49.95
3603 0.2010 2522.00 2473.56 50.22
3604 0.2011 2442.00 2467.18 49.42
3605 0.2011 2455.00 2461.33 49.55
3606 0.2012 2480.00 2455.96 49.80
3607 0.2013 2407.00 2451.05 49.06
3608 0.2013 2537.00 2446.58 50.37
3609 0.2014 2379.00 2442.53 48.78
3610 0.2014 2581.00 2438.87 50.80
3611 0.2015 2467.00 2435.61 49.67
3612 0.2015 2460.00 2432.72 49.60
3613 0.2016 2366.00 2430.21 48.64
3614 0.2016 2541.00 2428.08 50.41
3615 0.2017 2422.00 2426.33 49.21
3616 0.2017 2489.00 2424.99 49.89
3617 0.2018 2497.00 2424.08 49.97
3618 0.2018 2460.00 2423.62 49.60
3619 0.2019 2600.00 2504.08 50.99
3620 0.2019 2483.00 2507.25 49.83
3621 0.2020 2581.00 2511.17 50.80
3622 0.2020 2460.00 2432.10 49.60
3623 0.2021 2581.00 2440.46 50.80
3624 0.2021 2512.00 2449.83 50.12
3625 0.2022 2654.00 2460.41 51.52
3626 0.2022 2619.00 2472.43 51.18
3627 0.2023 2597.00 2486.16 50.96
3628 0.2024 2689.00 2501.96 51.86
3629 0.2024 2645.00 2520.25 51.43
3630 0.2025 2846.00 2541.57 53.35
3631 0.2025 2726.00 2566.61 52.21
3632 0.2026 2811.00 2596.24 53.02
3633 0.2026 2837.00 2631.59 53.26
3634 0.2027 2938.00 2674.08 54.20
3635 0.2027 3008.00 2725.35 54.85
3636 0.2028 3126.00 2787.12 55.91
3637 0.2028 3137.00 2860.43 56.01
3638 0.2029 3286.00 2944.19 57.32
3639 0.2029 3355.00 3032.42 57.92
3640 0.2030 3570.00 3111.53 59.75
3641 0.2030 3518.00 3161.37 59.31
3642 0.2031 3474.00 3165.26 58.94
3643 0.2031 3506.00 3123.31 59.21
3644 0.2032 3367.00 3053.13 58.03
3645 0.2032 3364.00 2976.59 58.00
3646 0.2033 3186.00 2908.49 56.44
3647 0.2033 3342.00 2854.78 57.81
3648 0.2034 3082.00 2816.06 55.52
3649 0.2035 3172.00 2790.61 56.32
3650 0.2035 3047.00 2776.25 55.20
3651 0.2036 3058.00 2771.04 55.30
3652 0.2036 2992.00 2773.47 54.70
3653 0.2037 2984.00 2782.53 54.63
3654 0.2037 2995.00 2797.61 54.73
3655 0.2038 3032.00 2818.46 55.06
3656 0.2038 3153.00 2845.13 56.15
3657 0.2039 3090.00 2877.97 55.59
3658 0.2039 3140.00 2917.65 56.04
3659 0.2040 3170.00 2965.07 56.30
3660 0.2040 3398.00 3021.50 58.29
3661 0.2041 3370.00 3088.53 58.05
3662 0.2041 3383.00 3168.26 58.16
3663 0.2042 3571.00 3263.25 59.76
3664 0.2042 3648.00 3376.79 60.40
3665 0.2043 3906.00 3513.04 62.50
3666 0.2043 3851.00 3677.50 62.06
3667 0.2044 4025.00 3876.91 63.44
3668 0.2044 4273.00 4119.83 65.37
3669 0.2045 4396.00 4416.56 66.30
3670 0.2046 4764.00 4777.30 69.02
3671 0.2046 5066.00 5207.87 71.18
3672 0.2047 5260.00 5699.27 72.53
3673 0.2047 5637.00 6212.62 75.08
3674 0.2048 6007.00 6672.21 77.50
3675 0.2048 6278.00 7001.76 79.23
3676 0.2049 6599.00 7191.94 81.23
3677 0.2049 6604.00 7328.62 81.26
3678 0.2050 6986.00 7526.58 83.58
3679 0.2050 7240.00 7866.78 85.09
3680 0.2051 7420.00 8405.45 86.14
3681 0.2051 7863.00 9089.41 88.67
3682 0.2052 8239.00 9884.92 90.77
3683 0.2052 8720.00 10672.10 93.38
3684 0.2053 9006.00 11264.20 94.90
3685 0.2053 9157.00 11457.10 95.69
3686 0.2054 9127.00 11140.20 95.54
3687 0.2054 9045.00 10376.70 95.11
3688 0.2055 8256.00 9359.19 90.86
3689 0.2055 7606.00 8291.94 87.21
3690 0.2056 6916.00 7310.17 83.16
3691 0.2057 6229.00 6471.13 78.92
3692 0.2057 5594.00 5783.41 74.79
3693 0.2058 5254.00 5231.01 72.48
3694 0.2058 4954.00 4791.03 70.38
3695 0.2059 4780.00 4440.64 69.14
3696 0.2059 4416.00 4160.61 66.45
3697 0.2060 4133.00 3935.29 64.29
3698 0.2060 3995.00 3752.42 63.21
3699 0.2061 3839.00 3602.42 61.96
3700 0.2061 3657.00 3478.04 60.47
3701 0.2062 3534.00 3373.74 59.45
3702 0.2062 3424.00 3285.24 58.51
3703 0.2063 3322.00 3209.33 57.64
3704 0.2063 3304.00 3139.11 57.48
3705 0.2064 3202.00 3081.88 56.59
3706 0.2064 3222.00 3031.55 56.76
3707 0.2065 3053.00 2987.09 55.25
3708 0.2065 3140.00 2947.68 56.04
3709 0.2066 2972.00 2912.70 54.52
3710 0.2066 3028.00 2881.64 55.03
3711 0.2067 2917.00 2854.11 54.01
3712 0.2068 2954.00 2829.80 54.35
3713 0.2068 2841.00 2808.43 53.30
3714 0.2069 2875.00 2789.79 53.62
3715 0.2069 2760.00 2773.70 52.54
3716 0.2070 2875.00 2760.03 53.62
3717 0.2070 2777.00 2748.64 52.70
3718 0.2071 2851.00 2739.47 53.39
3719 0.2071 2775.00 2732.48 52.68
3720 0.2072 2883.00 2727.65 53.69
3721 0.2072 2771.00 2725.02 52.64
3722 0.2073 2784.00 2724.67 52.76
3723 0.2073 2846.00 2726.72 53.35
3724 0.2074 2765.00 2731.36 52.58
3725 0.2074 2789.00 2738.82 52.81
3726 0.2075 2739.00 2749.43 52.34
3727 0.2075 2812.00 2763.57 53.03
3728 0.2076 2842.00 2781.73 53.31
3729 0.2076 2871.00 2804.52 53.58
3730 0.2077 2957.00 2832.65 54.38
3731 0.2077 2916.00 2866.99 54.00
3732 0.2078 2968.00 2892.33 54.48
3733 0.2079 2995.00 2943.15 54.73
3734 0.2079 3163.00 3004.18 56.24
3735 0.2080 3169.00 3077.44 56.29
3736 0.2080 3343.00 3165.48 57.82
3737 0.2081 3313.00 3271.45 57.56
3738 0.2081 3568.00 3399.21 59.73
3739 0.2082 3422.00 3553.55 58.50
3740 0.2082 3645.00 3739.66 60.37
3741 0.2083 3857.00 3976.98 62.10
3742 0.2083 3831.00 4241.54 61.90
3743 0.2084 4148.00 4546.81 64.40
3744 0.2084 4138.00 4883.52 64.33
3745 0.2085 4462.00 5226.78 66.80
3746 0.2085 4415.00 5529.20 66.45
3747 0.2086 4714.00 5723.50 68.66
3748 0.2086 4678.00 5746.39 68.40
3749 0.2087 4680.00 5578.85 68.41
3750 0.2087 4371.00 5263.23 66.11
3751 0.2088 4275.00 4876.76 65.38
3752 0.2088 4067.00 4488.79 63.77
3753 0.2089 3747.00 4140.52 61.21
3754 0.2090 3543.00 3787.96 59.52
3755 0.2090 3353.00 3550.58 57.91
3756 0.2091 3550.00 3360.80 59.58
3757 0.2091 3179.00 3210.10 56.38
3758 0.2092 3305.00 3090.38 57.49
3759 0.2092 3132.00 2994.91 55.96
3760 0.2093 3124.00 2918.31 55.89
3761 0.2093 2961.00 2856.29 54.42
3762 0.2094 2993.00 2805.61 54.71
3763 0.2094 2848.00 2763.78 53.37
3764 0.2095 2845.00 2728.91 53.34
3765 0.2095 2820.00 2699.52 53.10
3766 0.2096 2867.00 2674.68 53.54
3767 0.2096 2746.00 2653.28 52.40
3768 0.2097 2769.00 2634.86 52.62
3769 0.2097 2766.00 2618.93 52.59
3770 0.2098 2690.00 2605.16 51.87
3771 0.2098 2745.00 2593.28 52.39
3772 0.2099 2632.00 2583.10 51.30
3773 0.2099 2772.00 2574.47 52.65
3774 0.2100 2553.00 2567.29 50.53
3775 0.2100 2628.00 2561.47 51.26
3776 0.2101 2635.00 2556.98 51.33
3777 0.2102 2597.00 2553.78 50.96
3778 0.2102 2626.00 2551.87 51.24
3779 0.2103 2563.00 2551.28 50.63
3780 0.2103 2523.00 2552.06 50.23
3781 0.2104 2528.00 2554.29 50.28
3782 0.2104 2541.00 2558.11 50.41
3783 0.2105 2539.00 2563.68 50.39
3784 0.2105 2585.00 2571.23 50.84
3785 0.2106 2571.00 2581.02 50.71
3786 0.2106 2586.00 2593.40 50.85
3787 0.2107 2595.00 2661.39 50.94
3788 0.2107 2629.00 2682.35 51.27
3789 0.2108 2614.00 2707.63 51.13
3790 0.2108 2668.00 2738.01 51.65
3791 0.2109 2764.00 2774.52 52.57
3792 0.2109 2740.00 2818.38 52.35
3793 0.2110 2873.00 2871.17 53.60
3794 0.2110 2739.00 2934.92 52.34
3795 0.2111 2847.00 3012.20 53.36
3796 0.2111 2865.00 3106.24 53.53
3797 0.2112 2977.00 3221.02 54.56
3798 0.2113 2992.00 3361.19 54.70
3799 0.2113 3083.00 3531.07 55.52
3800 0.2114 3248.00 3732.90 56.99
3801 0.2114 3327.00 3962.30 57.68
3802 0.2115 3387.00 4201.41 58.20
3803 0.2115 3497.00 4411.57 59.14
3804 0.2116 3793.00 4537.39 61.59
3805 0.2116 3700.00 4532.88 60.83
3806 0.2117 3698.00 4395.54 60.81
3807 0.2117 3448.00 4170.76 58.72
3808 0.2118 3473.00 3919.01 58.93
3809 0.2118 3267.00 3684.03 57.16
3810 0.2119 3193.00 3485.91 56.51
3811 0.2119 3049.00 3328.42 55.22
3812 0.2120 3128.00 3207.56 55.93
3813 0.2120 3083.00 3117.07 55.52
3814 0.2121 3096.00 3050.12 55.64
3815 0.2121 2993.00 3003.60 54.71
3816 0.2122 3027.00 2972.82 55.02
3817 0.2122 3032.00 2933.17 55.06
3818 0.2123 2997.00 2964.28 54.74
3819 0.2124 3083.00 2969.75 55.52
3820 0.2124 3028.00 2993.24 55.03
3821 0.2125 3138.00 3018.54 56.02
3822 0.2125 3132.00 3053.90 55.96
3823 0.2126 3344.00 3099.91 57.83
3824 0.2126 3213.00 3158.00 56.68
3825 0.2127 3206.00 3230.91 56.62
3826 0.2127 3377.00 3322.80 58.11
3827 0.2128 3290.00 3439.01 57.36
3828 0.2128 3582.00 3585.96 59.85
3829 0.2129 3627.00 3771.69 60.22
3830 0.2129 3769.00 4006.77 61.39
3831 0.2130 4121.00 4305.61 64.19
3832 0.2130 4554.00 4687.24 67.48
3833 0.2131 5114.00 5176.07 71.51
3834 0.2131 5738.00 5798.49 75.75
3835 0.2132 6562.00 6573.04 81.01
3836 0.2132 7633.00 7477.51 87.37
3837 0.2133 8850.00 8390.64 94.07
3838 0.2133 10553.00 9047.45 102.73
3839 0.2134 10843.00 9138.93 104.13
3840 0.2135 9801.00 8589.06 99.00
3841 0.2135 7969.00 7653.44 89.27
3842 0.2136 6427.00 6666.68 80.17
3843 0.2136 5454.00 5822.93 73.85
3844 0.2137 4700.00 5172.26 68.56
3845 0.2137 4460.00 4696.01 66.78
3846 0.2138 4023.00 4357.40 63.43
3847 0.2138 3969.00 4122.99 63.00
3848 0.2139 3724.00 3966.60 61.02
3849 0.2139 3774.00 3869.16 61.43
3850 0.2140 3770.00 3816.82 61.40
3851 0.2140 4056.00 3798.44 63.69
3852 0.2141 4171.00 3803.15 64.58
3853 0.2141 4494.00 3818.20 67.04
3854 0.2142 4719.00 3828.27 68.69
3855 0.2142 4578.00 3817.81 67.66
3856 0.2143 4556.00 3776.79 67.50
3857 0.2143 4139.00 3705.55 64.34
3858 0.2144 4110.00 3614.34 64.11
3859 0.2144 3534.00 3517.11 59.45
3860 0.2145 3700.00 3425.58 60.83
3861 0.2146 3449.00 3346.71 58.73
3862 0.2146 3519.00 3329.14 59.32
3863 0.2147 3352.00 3283.15 57.90
3864 0.2147 3316.00 3252.25 57.58
3865 0.2148 3305.00 3235.29 57.49
3866 0.2148 3209.00 3231.28 56.65
3867 0.2149 3399.00 3239.52 58.30
3868 0.2149 3392.00 3259.74 58.24
3869 0.2150 3503.00 3278.22 59.19
3870 0.2150 3505.00 3323.61 59.20
3871 0.2151 3571.00 3382.60 59.76
3872 0.2151 3555.00 3456.66 59.62
3873 0.2152 3700.00 3547.75 60.83
3874 0.2152 3818.00 3658.41 61.79
3875 0.2153 3975.00 3792.04 63.05
3876 0.2153 4228.00 3952.85 65.02
3877 0.2154 4336.00 4146.25 65.85
3878 0.2154 4663.00 4378.95 68.29
3879 0.2155 4893.00 4659.46 69.95
3880 0.2155 5314.00 4997.69 72.90
3881 0.2156 5551.00 5404.78 74.50
3882 0.2157 6058.00 5890.52 77.83
3883 0.2157 6576.00 6460.12 81.09
3884 0.2158 7118.00 7104.73 84.37
3885 0.2158 8060.00 7787.09 89.78
3886 0.2159 8907.00 8427.77 94.38
3887 0.2159 9622.00 8903.17 98.09
3888 0.2160 9742.00 9082.52 98.70
3889 0.2160 9421.00 8898.07 97.06
3890 0.2161 8719.00 8393.65 93.38
3891 0.2161 8281.00 7698.74 91.00
3892 0.2162 7486.00 6910.19 86.52
3893 0.2162 6734.00 6215.62 82.06
3894 0.2163 6222.00 5615.71 78.88
3895 0.2163 5807.00 5121.05 76.20
3896 0.2164 5284.00 4723.72 72.69
3897 0.2164 4852.00 4408.89 69.66
3898 0.2165 4537.00 4161.43 67.36
3899 0.2165 4437.00 3967.90 66.61
3900 0.2166 4082.00 3817.35 63.89
3901 0.2166 4101.00 3736.14 64.04
3902 0.2167 3911.00 3648.87 62.54
3903 0.2168 3853.00 3584.58 62.07
3904 0.2168 3726.00 3539.81 61.04
3905 0.2169 3796.00 3512.17 61.61
3906 0.2169 3566.00 3500.26 59.72
3907 0.2170 3663.00 3503.42 60.52
3908 0.2170 3666.00 3521.71 60.55
3909 0.2171 3638.00 3555.82 60.32
3910 0.2171 3717.00 3607.08 60.97
3911 0.2172 3797.00 3677.46 61.62
3912 0.2172 3859.00 3769.76 62.12
3913 0.2173 3868.00 3887.62 62.19
3914 0.2173 4211.00 4035.84 64.89
3915 0.2174 4203.00 4220.58 64.83
3916 0.2174 4725.00 4450.00 68.74
3917 0.2175 4636.00 4734.31 68.09
3918 0.2175 4963.00 5085.70 70.45
3919 0.2176 5197.00 5518.50 72.09
3920 0.2176 5813.00 6047.75 76.24
3921 0.2177 6546.00 6674.58 80.91
3922 0.2177 6928.00 7384.20 83.23
3923 0.2178 7855.00 8116.14 88.63
3924 0.2179 8457.00 8745.26 91.96
3925 0.2179 9684.00 9098.86 98.41
3926 0.2180 9282.00 9040.06 96.34
3927 0.2180 8958.00 8570.19 94.65
3928 0.2181 7674.00 7833.91 87.60
3929 0.2181 6937.00 7017.86 83.29
3930 0.2182 5861.00 6254.69 76.56
3931 0.2182 5190.00 5605.09 72.04
3932 0.2183 4742.00 5074.23 68.86
3933 0.2183 4377.00 4660.50 66.16
3934 0.2184 4155.00 4338.46 64.46
3935 0.2184 3825.00 4089.14 61.85
3936 0.2185 3822.00 3896.47 61.82
3937 0.2185 3586.00 3747.88 59.88
3938 0.2186 3605.00 3633.72 60.04
3939 0.2186 3377.00 3546.99 58.11
3940 0.2187 3335.00 3482.63 57.75
3941 0.2187 3358.00 3437.10 57.95
3942 0.2188 3408.00 3408.20 58.38
3943 0.2188 3399.00 3394.69 58.30
3944 0.2189 3351.00 3396.22 57.89
3945 0.2190 3381.00 3413.21 58.15
3946 0.2190 3428.00 3446.83 58.55
3947 0.2191 3568.00 3499.03 59.73
3948 0.2191 3513.00 3572.62 59.27
3949 0.2192 3741.00 3671.56 61.16
3950 0.2192 3986.00 3801.15 63.13
3951 0.2193 4249.00 3968.43 65.18
3952 0.2193 4608.00 4182.69 67.88
3953 0.2194 4750.00 4455.45 68.92
3954 0.2194 5329.00 4799.39 73.00
3955 0.2195 5854.00 5225.11 76.51
3956 0.2195 6642.00 5731.99 81.50
3957 0.2196 7291.00 6288.66 85.39
3958 0.2196 8010.00 6808.42 89.50
3959 0.2197 8312.00 7101.41 91.17
3960 0.2197 8515.00 7117.84 92.28
3961 0.2198 7909.00 6791.20 88.93
3962 0.2198 7026.00 6245.45 83.82
3963 0.2199 6232.00 5647.03 78.94
3964 0.2199 5594.00 5108.73 74.79
3965 0.2200 5093.00 4674.42 71.37
3966 0.2201 4552.00 4345.42 67.47
3967 0.2201 4418.00 4105.97 66.47
3968 0.2202 4352.00 3936.43 65.97
3969 0.2202 4013.00 3817.08 63.35
3970 0.2203 4227.00 3728.83 65.02
3971 0.2203 3977.00 3653.72 63.06
3972 0.2204 3859.00 3577.24 62.12
3973 0.2204 3617.00 3491.63 60.14
3974 0.2205 3600.00 3397.15 60.00
3975 0.2205 3319.00 3299.57 57.61
3976 0.2206 3305.00 3205.72 57.49
3977 0.2206 3101.00 3120.56 55.69
3978 0.2207 3038.00 3046.29 55.12
3979 0.2207 2878.00 2983.23 53.65
3980 0.2208 2896.00 2930.62 53.81
3981 0.2208 2781.00 2887.32 52.74
3982 0.2209 2684.00 2852.13 51.81
3983 0.2209 2731.00 2824.03 52.26
3984 0.2210 2742.00 2802.21 52.36
3985 0.2210 2773.00 2786.08 52.66
3986 0.2211 2680.00 2775.24 51.77
3987 0.2212 2752.00 2769.47 52.46
3988 0.2212 2700.00 2768.71 51.96
3989 0.2213 2743.00 2772.94 52.37
3990 0.2213 2765.00 2782.07 52.58
3991 0.2214 2833.00 2752.26 53.23
3992 0.2214 2844.00 2770.48 53.33
3993 0.2215 2882.00 2789.61 53.68
3994 0.2215 3023.00 2805.77 54.98
3995 0.2216 2994.00 2826.80 54.72
3996 0.2216 3002.00 2823.23 54.79
3997 0.2217 2827.00 2806.06 53.17
3998 0.2217 2916.00 2777.65 54.00
3999 0.2218 2700.00 2742.87 51.96
4000 0.2218 2619.00 2706.64 51.18
4001 0.2219 2683.00 2672.48 51.80
4002 0.2219 2587.00 2642.17 50.86
4003 0.2220 2436.00 2616.23 49.36
4004 0.2220 2564.00 2594.44 50.64
4005 0.2221 2554.00 2576.31 50.54
4006 0.2221 2483.00 2561.26 49.83
4007 0.2222 2556.00 2548.75 50.56
4008 0.2222 2417.00 2538.31 49.16
4009 0.2223 2608.00 2529.56 51.07
4010 0.2224 2447.00 2522.18 49.47
4011 0.2224 2508.00 2515.92 50.08
4012 0.2225 2433.00 2510.58 49.33
4013 0.2225 2548.00 2506.01 50.48
4014 0.2226 2369.00 2502.08 48.67
4015 0.2226 2389.00 2498.70 48.88
4016 0.2227 2474.00 2495.79 49.74
4017 0.2227 2434.00 2493.29 49.34
4018 0.2228 2384.00 2491.16 48.83
4019 0.2228 2376.00 2458.94 48.74
4020 0.2229 2500.00 2458.45 50.00
4021 0.2229 2480.00 2458.19 49.80
4022 0.2230 2496.00 2458.16 49.96
4023 0.2230 2600.00 2458.35 50.99
4024 0.2231 2554.00 2458.76 50.54
4025 0.2231 2496.00 2459.38 49.96
4026 0.2232 2375.00 2460.22 48.73
4027 0.2232 2495.00 2461.29 49.95
4028 0.2233 2430.00 2462.59 49.29
4029 0.2233 2533.00 2464.14 50.33
4030 0.2234 2478.00 2465.94 49.78
4031 0.2235 2395.00 2468.02 48.94
4032 0.2235 2414.00 2470.39 49.13
4033 0.2236 2433.00 2473.09 49.33
4034 0.2236 2455.00 2476.16 49.55
4035 0.2237 2451.00 2479.62 49.51
4036 0.2237 2613.00 2483.53 51.12
4037 0.2238 2484.00 2487.96 49.84
4038 0.2238 2508.00 2492.96 50.08
4039 0.2239 2432.00 2498.64 49.32
4040 0.2239 2526.00 2505.10 50.26
4041 0.2240 2598.00 2512.46 50.97
4042 0.2240 2589.00 2520.88 50.88
4043 0.2241 2549.00 2530.54 50.49
4044 0.2241 2546.00 2541.65 50.46
4045 0.2242 2613.00 2554.48 51.12
4046 0.2242 2610.00 2569.32 51.09
4047 0.2243 2767.00 2586.54 52.60
4048 0.2243 2717.00 2606.57 52.12
4049 0.2244 2692.00 2626.35 51.88
4050 0.2244 2626.00 2653.73 51.24
4051 0.2245 2749.00 2685.78 52.43
4052 0.2246 2791.00 2723.45 52.83
4053 0.2246 2847.00 2767.88 53.36
4054 0.2247 3004.00 2820.46 54.81
4055 0.2247 2918.00 2882.99 54.02
4056 0.2248 3065.00 2957.63 55.36
4057 0.2248 2980.00 3046.99 54.59
4058 0.2249 3156.00 3154.00 56.18
4059 0.2249 3115.00 3281.73 55.81
4060 0.2250 3261.00 3432.38 57.11
4061 0.2250 3347.00 3605.39 57.85
4062 0.2251 3440.00 3794.42 58.65
4063 0.2251 3470.00 3983.15 58.91
4064 0.2252 3453.00 4142.23 58.76
4065 0.2252 3745.00 4234.17 61.20
4066 0.2253 3403.00 4229.44 58.34
4067 0.2253 3611.00 4125.21 60.09
4068 0.2254 3374.00 3948.60 58.09
4069 0.2254 3370.00 3739.97 58.05
4070 0.2255 3293.00 3533.15 57.38
4071 0.2255 3118.00 3347.73 55.84
4072 0.2256 3033.00 3190.76 55.07
4073 0.2257 2967.00 3060.10 54.47
4074 0.2257 2925.00 2956.32 54.08
4075 0.2258 2915.00 2873.05 53.99
4076 0.2258 2964.00 2806.24 54.44
4077 0.2259 2717.00 2752.67 52.12
4078 0.2259 2951.00 2708.96 54.32
4079 0.2260 2659.00 2673.18 51.57
4080 0.2260 2859.00 2643.60 53.47
4081 0.2261 2739.00 2619.14 52.34
4082 0.2261 2694.00 2598.24 51.90
4083 0.2262 2779.00 2580.35 52.72
4084 0.2262 2705.00 2564.90 52.01
4085 0.2263 2662.00 2551.40 51.59
4086 0.2263 2572.00 2590.99 50.71
4087 0.2264 2673.00 2581.99 51.70
4088 0.2264 2679.00 2574.17 51.76
4089 0.2265 2698.00 2567.38 51.94
4090 0.2265 2536.00 2561.50 50.36
4091 0.2266 2572.00 2556.42 50.71
4092 0.2266 2604.00 2552.08 51.03
4093 0.2267 2678.00 2548.40 51.75
4094 0.2268 2565.00 2545.34 50.65
4095 0.2268 2565.00 2542.85 50.65
4096 0.2269 2720.00 2540.89 52.15
4097 0.2269 2615.00 2539.43 51.14
4098 0.2270 2671.00 2538.45 51.68
4099 0.2270 2610.00 2537.92 51.09
4100 0.2271 2736.00 2537.83 52.31
4101 0.2271 2591.00 2538.17 50.90
4102 0.2272 2615.00 2538.92 51.14
4103 0.2272 2525.00 2540.08 50.25
4104 0.2273 2674.00 2541.64 51.71
4105 0.2273 2682.00 2543.61 51.79
4106 0.2274 2606.00 2546.00 51.05
4107 0.2274 2743.00 2548.81 52.37
4108 0.2275 2732.00 2552.07 52.27
4109 0.2275 2685.00 2555.77 51.82
4110 0.2276 2735.00 2559.96 52.30
4111 0.2276 2754.00 2564.65 52.48
4112 0.2277 2658.00 2569.88 51.56
4113 0.2277 2760.00 2575.68 52.54
4114 0.2278 2710.00 2582.12 52.06
4115 0.2279 2780.00 2589.23 52.73
4116 0.2279 2743.00 2597.08 52.37
4117 0.2280 2794.00 2605.75 52.86
4118 0.2280 2878.00 2615.33 53.65
4119 0.2281 2808.00 2625.91 52.99
4120 0.2281 2934.00 2637.63 54.17
4121 0.2282 2828.00 2650.61 53.18
4122 0.2282 3001.00 2665.05 54.78
4123 0.2283 2946.00 2681.15 54.28
4124 0.2283 2973.00 2699.15 54.53
4125 0.2284 2926.00 2719.37 54.09
4126 0.2284 3105.00 2742.18 55.72
4127 0.2285 3072.00 2768.02 55.43
4128 0.2285 3023.00 2911.49 54.98
4129 0.2286 3157.00 2949.27 56.19
4130 0.2286 3237.00 2992.34 56.89
4131 0.2287 3340.00 3041.70 57.79
4132 0.2287 3326.00 3098.46 57.67
4133 0.2288 3544.00 3164.05 59.53
4134 0.2288 3372.00 3239.94 58.07
4135 0.2289 3563.00 3327.64 59.69
4136 0.2290 3809.00 3428.66 61.72
4137 0.2290 3693.00 3531.79 60.77
4138 0.2291 4032.00 3664.56 63.50
4139 0.2291 4009.00 3817.42 63.32
4140 0.2292 4445.00 3995.76 66.67
4141 0.2292 4397.00 4205.97 66.31
4142 0.2293 4913.00 4455.31 70.09
4143 0.2293 4727.00 4752.57 68.75
4144 0.2294 5337.00 5109.66 73.05
4145 0.2294 5597.00 5540.79 74.81
4146 0.2295 6030.00 6061.27 77.65
4147 0.2295 6475.00 6683.52 80.47
4148 0.2296 7117.00 7408.11 84.36
4149 0.2296 7809.00 8209.04 88.37
4150 0.2297 8181.00 9011.98 90.45
4151 0.2297 9340.00 10106.30 96.64
4152 0.2298 9238.00 10482.40 96.11
4153 0.2298 9388.00 10425.40 96.89
4154 0.2299 8483.00 9948.02 92.10
4155 0.2299 8398.00 9197.49 91.64
4156 0.2300 7336.00 8360.54 85.65
4157 0.2301 7108.00 7574.44 84.31
4158 0.2301 6827.00 6905.56 82.63
4159 0.2302 6449.00 6370.21 80.31
4160 0.2302 6281.00 5959.04 79.25
4161 0.2303 5889.00 5654.06 76.74
4162 0.2303 5989.00 5436.64 77.39
4163 0.2304 5627.00 5291.24 75.01
4164 0.2304 5967.00 5205.83 77.25
4165 0.2305 5738.00 5171.87 75.75
4166 0.2305 6088.00 5183.90 78.03
4167 0.2306 5742.00 5239.20 75.78
4168 0.2306 6178.00 5337.35 78.60
4169 0.2307 6385.00 5480.29 79.91
4170 0.2307 6610.00 5672.08 81.30
4171 0.2308 7081.00 5919.14 84.15
4172 0.2308 7255.00 6230.48 85.18
4173 0.2309 8126.00 6618.63 90.14
4174 0.2309 8387.00 7100.07 91.58
4175 0.2310 9558.00 7696.82 97.76
4176 0.2310 9898.00 8437.82 99.49
4177 0.2311 11735.00 9361.47 108.33
4178 0.2312 12206.00 10515.00 110.48
4179 0.2312 14407.00 11951.20 120.03
4180 0.2313 15110.00 13714.80 122.92
4181 0.2313 17407.00 15795.80 131.94
4182 0.2314 19252.00 18049.60 138.75
4183 0.2314 21805.00 20088.40 147.66
4184 0.2315 23029.00 21303.10 151.75
4185 0.2315 23396.00 21199.00 152.96
4186 0.2316 23490.00 19851.90 153.26
4187 0.2316 21131.00 17866.60 145.37
4188 0.2317 19477.00 15880.10 139.56
4189 0.2317 16692.00 14253.40 129.20
4190 0.2318 16462.00 13093.90 128.30
4191 0.2318 14897.00 12383.20 122.05
4192 0.2319 14844.00 12069.40 121.84
4193 0.2319 14149.00 12105.00 118.95
4194 0.2320 14825.00 12460.80 121.76
4195 0.2320 15439.00 13129.70 124.25
4196 0.2321 16662.00 14125.30 129.08
4197 0.2321 18153.00 15483.80 134.73
4198 0.2322 19743.00 17265.30 140.51
4199 0.2323 22604.00 19560.50 150.35
4200 0.2323 25094.00 22492.00 158.41
4201 0.2324 29135.00 26218.90 170.69
4202 0.2324 32085.00 30928.20 179.12
4203 0.2325 38177.00 36784.90 195.39
4204 0.2325 43437.00 43796.40 208.41
4205 0.2326 51131.00 51540.00 226.12
4206 0.2326 57427.00 58777.30 239.64
4207 0.2327 64029.00 63361.30 253.04
4208 0.2327 66104.00 63241.60 257.11
4209 0.2328 62119.00 58197.20 249.24
4210 0.2328 53745.00 50143.80 231.83
4211 0.2329 42946.00 41503.90 207.23
4212 0.2329 35581.00 33802.20 188.63
4213 0.2330 27796.00 27546.10 166.72
4214 0.2330 23566.00 22686.20 153.51
4215 0.2331 19276.00 18974.50 138.84
4216 0.2331 16550.00 16148.10 128.65
4217 0.2332 14159.00 13980.30 118.99
4218 0.2332 12848.00 12299.10 113.35
4219 0.2333 11166.00 10976.10 105.67
4220 0.2334 10044.00 9867.72 100.22
4221 0.2334 9068.00 9007.42 95.23
4222 0.2335 8500.00 8294.94 92.20
4223 0.2335 7832.00 7695.30 88.50
4224 0.2336 7165.00 7182.91 84.65
4225 0.2336 6793.00 6739.76 82.42
4226 0.2337 6153.00 6352.56 78.44
4227 0.2337 6014.00 6011.92 77.55
4228 0.2338 5585.00 5710.24 74.73
4229 0.2338 5494.00 5442.01 74.12
4230 0.2339 5076.00 5202.74 71.25
4231 0.2339 4847.00 4988.81 69.62
4232 0.2340 4635.00 4797.01 68.08
4233 0.2340 4529.00 4624.72 67.30
4234 0.2341 4404.00 4469.62 66.36
4235 0.2341 4333.00 4329.73 65.83
4236 0.2342 4167.00 4203.17 64.55
4237 0.2342 4076.00 4088.44 63.84
4238 0.2343 3935.00 3984.20 62.73
4239 0.2343 3750.00 3889.15 61.24
4240 0.2344 3805.00 3802.35 61.68
4241 0.2344 3702.00 3722.86 60.84
4242 0.2345 3740.00 3539.48 61.16
4243 0.2346 3589.00 3476.06 59.91
4244 0.2346 3479.00 3417.67 58.98
4245 0.2347 3358.00 3363.80 57.95
4246 0.2347 3494.00 3314.01 59.11
4247 0.2348 3343.00 3267.88 57.82
4248 0.2348 3144.00 3225.06 56.07
4249 0.2349 3289.00 3185.27 57.35
4250 0.2349 3202.00 3148.19 56.59
4251 0.2350 3188.00 3126.84 56.46
4252 0.2350 3111.00 3094.87 55.78
4253 0.2351 3099.00 3065.01 55.67
4254 0.2351 3051.00 3037.05 55.24
4255 0.2352 3075.00 3010.85 55.45
4256 0.2352 3021.00 2986.28 54.96
4257 0.2353 3064.00 2963.20 55.35
4258 0.2353 2883.00 2941.50 53.69
4259 0.2354 2901.00 2921.07 53.86
4260 0.2354 2834.00 2901.84 53.24
4261 0.2355 2795.00 2883.70 52.87
4262 0.2355 2857.00 2867.63 53.45
4263 0.2356 2818.00 2851.50 53.08
4264 0.2357 2873.00 2836.27 53.60
4265 0.2357 2841.00 2404.25 53.30
4266 0.2358 2815.00 2404.76 53.06
4267 0.2358 2829.00 2405.29 53.19
4268 0.2359 2841.00 2405.86 53.30
4269 0.2359 2788.00 2406.47 52.80
4270 0.2360 2719.00 2407.12 52.14
4271 0.2360 2812.00 2407.82 53.03
4272 0.2361 2796.00 2408.56 52.88
4273 0.2361 2754.00 2409.35 52.48
4274 0.2362 2705.00 2410.20 52.01
4275 0.2362 2781.00 2411.11 52.74
4276 0.2363 2620.00 2412.08 51.19
4277 0.2363 2676.00 2413.12 51.73
4278 0.2364 2616.00 2414.23 51.15
4279 0.2364 2620.00 2415.42 51.19
4280 0.2365 2722.00 2416.70 52.17
4281 0.2365 2668.00 2418.08 51.65
4282 0.2366 2694.00 2419.56 51.90
4283 0.2366 2716.00 2421.15 52.12
4284 0.2367 2682.00 2422.86 51.79
4285 0.2368 2625.00 2424.71 51.23
4286 0.2368 2738.00 2426.71 52.33
4287 0.2369 2636.00 2428.88 51.34
4288 0.2369 2603.00 2431.22 51.02
4289 0.2370 2722.00 2433.77 52.17
4290 0.2370 2711.00 2436.54 52.07
4291 0.2371 2705.00 2439.57 52.01
4292 0.2371 2599.00 2442.88 50.98
4293 0.2372 2668.00 2446.50 51.65
4294 0.2372 2677.00 2450.50 51.74
4295 0.2373 2680.00 2454.90 51.77
4296 0.2373 2615.00 2459.78 51.14
4297 0.2374 2633.00 2465.19 51.31
4298 0.2374 2635.00 2471.24 51.33
4299 0.2375 2652.00 2478.00 51.50
4300 0.2375 2644.00 2511.07 51.42
4301 0.2376 2675.00 2520.43 51.72
4302 0.2376 2724.00 2530.95 52.19
4303 0.2377 2742.00 2542.81 52.36
4304 0.2377 2673.00 2556.22 51.70
4305 0.2378 2702.00 2571.44 51.98
4306 0.2379 2788.00 2588.76 52.80
4307 0.2379 2771.00 2608.52 52.64
4308 0.2380 2785.00 2631.12 52.77
4309 0.2380 2674.00 2657.05 51.71
4310 0.2381 2907.00 2686.89 53.92
4311 0.2381 2887.00 2721.31 53.73
4312 0.2382 2950.00 2761.16 54.31
4313 0.2382 3027.00 2807.46 55.02
4314 0.2383 3042.00 2861.45 55.15
4315 0.2383 3182.00 2924.60 56.41
4316 0.2384 3308.00 2998.73 57.52
4317 0.2384 3361.00 3085.85 57.97
4318 0.2385 3321.00 3188.13 57.63
4319 0.2385 3544.00 3307.49 59.53
4320 0.2386 3786.00 3445.02 61.53
4321 0.2386 4097.00 3599.53 64.01
4322 0.2387 4284.00 3765.83 65.45
4323 0.2387 4601.00 3932.51 67.83
4324 0.2388 4988.00 4081.68 70.63
4325 0.2388 5297.00 4190.73 72.78
4326 0.2389 5597.00 4238.63 74.81
4327 0.2390 5183.00 4214.39 71.99
4328 0.2390 5022.00 4123.17 70.87
4329 0.2391 4406.00 3985.08 66.38
4330 0.2391 4247.00 3826.29 65.17
4331 0.2392 3952.00 3669.11 62.86
4332 0.2392 3897.00 3527.35 62.43
4333 0.2393 3784.00 3406.13 61.51
4334 0.2393 3644.00 3304.44 60.37
4335 0.2394 3514.00 3218.01 59.28
4336 0.2394 3259.00 3142.55 57.09
4337 0.2395 3403.00 3075.50 58.34
4338 0.2395 3314.00 3016.47 57.57
4339 0.2396 3255.00 2966.26 57.05
4340 0.2396 3143.00 2929.31 56.06
4341 0.2397 3154.00 2898.32 56.16
4342 0.2397 3098.00 2876.55 55.66
4343 0.2398 3137.00 2863.45 56.01
4344 0.2398 3063.00 2858.52 55.34
4345 0.2399 3136.00 2861.45 56.00
4346 0.2399 3104.00 2872.21 55.71
4347 0.2400 3191.00 2891.04 56.49
4348 0.2401 3223.00 2918.49 56.77
4349 0.2401 3175.00 2955.51 56.35
4350 0.2402 3336.00 3003.37 57.76
4351 0.2402 3426.00 3063.84 58.53
4352 0.2403 3408.00 3139.24 58.38
4353 0.2403 3486.00 3232.65 59.04
4354 0.2404 3874.00 3348.01 62.24
4355 0.2404 3856.00 3490.28 62.10
4356 0.2405 4193.00 3665.50 64.75
4357 0.2405 4460.00 3880.58 66.78
4358 0.2406 4810.00 4141.82 69.35
4359 0.2406 5108.00 4451.42 71.47
4360 0.2407 5490.00 4800.86 74.09
4361 0.2407 6031.00 5160.38 77.66
4362 0.2408 6245.00 5469.73 79.03
4363 0.2408 6545.00 5648.27 80.90
4364 0.2409 6499.00 5636.58 80.62
4365 0.2409 6200.00 5442.19 78.74
4366 0.2410 5874.00 5136.50 76.64
4367 0.2410 5724.00 4803.68 75.66
4368 0.2411 5563.00 4498.43 74.59
4369 0.2412 5346.00 4239.73 73.12
4370 0.2412 5388.00 4023.08 73.40
4371 0.2413 4992.00 3835.75 70.65
4372 0.2413 4797.00 3666.60 69.26
4373 0.2414 4296.00 3510.93 65.54
4374 0.2414 4170.00 3369.10 64.58
4375 0.2415 3805.00 3243.04 61.68
4376 0.2415 3743.00 3134.00 61.18
4377 0.2416 3539.00 3041.66 59.49
4378 0.2416 3338.00 2964.55 57.78
4379 0.2417 3195.00 2900.64 56.52
4380 0.2417 3252.00 2847.94 57.03
4381 0.2418 3097.00 2804.63 55.65
4382 0.2418 3015.00 2769.25 54.91
4383 0.2419 2980.00 2740.64 54.59
4384 0.2419 2800.00 2717.95 52.92
4385 0.2420 2936.00 2700.61 54.18
4386 0.2420 2776.00 2688.28 52.69
4387 0.2421 2749.00 2680.87 52.43
4388 0.2421 2782.00 2678.51 52.74
4389 0.2422 2788.00 2681.57 52.80
4390 0.2423 2672.00 2690.69 51.69
4391 0.2423 2647.00 2706.81 51.45
4392 0.2424 2645.00 2731.16 51.43
4393 0.2424 2675.00 2765.06 51.72
4394 0.2425 2669.00 2809.43 51.66
4395 0.2425 2686.00 2863.34 51.83
4396 0.2426 2823.00 2921.66 53.13
4397 0.2426 2659.00 2972.35 51.57
4398 0.2427 2807.00 2995.67 52.98
4399 0.2427 2630.00 2980.96 51.28
4400 0.2428 2737.00 2927.97 52.32
4401 0.2428 2611.00 2853.36 51.10
4402 0.2429 2641.00 2775.81 51.39
4403 0.2429 2597.00 2706.64 50.96
4404 0.2430 2567.00 2649.61 50.67
4405 0.2430 2649.00 2691.26 51.47
4406 0.2431 2542.00 2658.53 50.42
4407 0.2431 2558.00 2623.36 50.58
4408 0.2432 2550.00 2604.57 50.50
4409 0.2432 2564.00 2590.29 50.64
4410 0.2433 2559.00 2578.42 50.59
4411 0.2434 2544.00 2570.25 50.44
4412 0.2434 2513.00 2564.17 50.13
4413 0.2435 2604.00 2559.74 51.03
4414 0.2435 2581.00 2556.68 50.80
4415 0.2436 2634.00 2554.78 51.32
4416 0.2436 2470.00 2553.87 49.70
4417 0.2437 2553.00 2553.87 50.53
4418 0.2437 2595.00 2554.70 50.94
4419 0.2438 2553.00 2556.31 50.53
4420 0.2438 2538.00 2558.69 50.38
4421 0.2439 2473.00 2561.82 49.73
4422 0.2439 2624.00 2565.71 51.22
4423 0.2440 2545.00 2570.36 50.45
4424 0.2440 2769.00 2575.80 52.62
4425 0.2441 2524.00 2582.06 50.24
4426 0.2441 2534.00 2589.17 50.34
4427 0.2442 2602.00 2597.20 51.01
4428 0.2442 2489.00 2585.72 49.89
4429 0.2443 2623.00 2596.38 51.22
4430 0.2443 2644.00 2608.15 51.42
4431 0.2444 2746.00 2621.13 52.40
4432 0.2445 2599.00 2635.46 50.98
4433 0.2445 2668.00 2651.27 51.65
4434 0.2446 2689.00 2668.75 51.86
4435 0.2446 2729.00 2688.11 52.24
4436 0.2447 2690.00 2709.59 51.87
4437 0.2447 2797.00 2733.50 52.89
4438 0.2448 2814.00 2760.21 53.05
4439 0.2448 2961.00 2790.16 54.42
4440 0.2449 2904.00 2823.89 53.89
4441 0.2449 2887.00 2862.12 53.73
4442 0.2450 3040.00 2905.65 55.14
4443 0.2450 3051.00 2955.51 55.24
4444 0.2451 3100.00 3012.94 55.68
4445 0.2451 3125.00 3079.57 55.90
4446 0.2452 3292.00 3157.30 57.38
4447 0.2452 3292.00 3248.51 57.38
4448 0.2453 3460.00 3355.91 58.82
4449 0.2453 3612.00 3496.62 60.10
4450 0.2454 3767.00 3648.38 61.38
4451 0.2454 3848.00 3826.12 62.03
4452 0.2455 4014.00 4043.57 63.36
4453 0.2455 4246.00 4305.54 65.16
4454 0.2456 4752.00 4622.77 68.93
4455 0.2457 5171.00 5008.80 71.91
4456 0.2457 5490.00 5481.76 74.09
4457 0.2458 6096.00 6063.88 78.08
4458 0.2458 6531.00 6778.59 80.81
4459 0.2459 7365.00 7662.71 85.82
4460 0.2459 7905.00 8735.38 88.91
4461 0.2460 8929.00 9991.41 94.49
4462 0.2460 9855.00 11355.90 99.27
4463 0.2461 10929.00 12632.50 104.54
4464 0.2461 11871.00 13501.20 108.95
4465 0.2462 11924.00 13661.40 109.20
4466 0.2462 11951.00 13066.60 109.32
4467 0.2463 10888.00 11975.80 104.35
4468 0.2463 9822.00 10742.10 99.11
4469 0.2464 8775.00 9599.20 93.68
4470 0.2464 8067.00 8623.45 89.82
4471 0.2465 7263.00 7796.61 85.22
4472 0.2465 6832.00 7074.21 82.66
4473 0.2466 6030.00 6425.74 77.65
4474 0.2466 5664.00 5844.26 75.26
4475 0.2467 5113.00 5335.12 71.51
4476 0.2468 4724.00 4902.14 68.73
4477 0.2468 4425.00 4542.31 66.52
4478 0.2469 4251.00 4246.62 65.20
4479 0.2469 4001.00 4004.63 63.25
4480 0.2470 3752.00 3806.02 61.25
4481 0.2470 3519.00 3641.88 59.32
4482 0.2471 3415.00 3505.04 58.44
4483 0.2471 3392.00 3389.87 58.24
4484 0.2472 3245.00 3292.05 56.96
4485 0.2472 3205.00 3208.27 56.61
4486 0.2473 3014.00 3136.00 54.90
4487 0.2473 3031.00 3073.27 55.05
4488 0.2474 2936.00 3018.59 54.18
4489 0.2474 2892.00 2970.71 53.78
4490 0.2475 2888.00 2928.71 53.74
4491 0.2475 2827.00 2891.83 53.17
4492 0.2476 2763.00 2859.47 52.56
4493 0.2476 2851.00 2831.14 53.39
4494 0.2477 2711.00 2806.44 52.07
4495 0.2477 2796.00 2785.06 52.88
4496 0.2478 2581.00 2766.77 50.80
4497 0.2479 2716.00 2751.39 52.12
4498 0.2479 2697.00 2738.80 51.93
4499 0.2480 2653.00 2728.94 51.51
4500 0.2480 2712.00 2721.79 52.08
4501 0.2481 2693.00 2717.38 51.89
4502 0.2481 2659.00 2715.82 51.57
4503 0.2482 2605.00 2717.25 51.04
4504 0.2482 2734.00 2721.87 52.29
4505 0.2483 2649.00 2729.98 51.47
4506 0.2483 2733.00 2741.94 52.28
4507 0.2484 2607.00 2758.19 51.06
4508 0.2484 2751.00 2779.32 52.45
4509 0.2485 2740.00 2806.05 52.35
4510 0.2485 2668.00 2839.24 51.65
4511 0.2486 2858.00 2880.04 53.46
4512 0.2486 2797.00 2929.80 52.89
4513 0.2487 2944.00 2990.23 54.26
4514 0.2487 2905.00 3063.37 53.90
4515 0.2488 3079.00 3172.33 55.49
4516 0.2488 3034.00 3278.79 55.08
4517 0.2489 3192.00 3405.39 56.50
4518 0.2490 3396.00 3553.44 58.28
4519 0.2490 3505.00 3721.95 59.20
4520 0.2491 3757.00 3904.02 61.29
4521 0.2491 3985.00 4084.34 63.13
4522 0.2492 4237.00 4237.34 65.09
4523 0.2492 4292.00 4330.42 65.51
4524 0.2493 4630.00 4336.67 68.04
4525 0.2493 4198.00 4249.81 64.79
4526 0.2494 4238.00 4019.16 65.10
4527 0.2494 3758.00 3820.70 61.30
4528 0.2495 3734.00 3614.72 61.11
4529 0.2495 3361.00 3423.03 57.97
4530 0.2496 3334.00 3255.66 57.74
4531 0.2496 3199.00 3114.99 56.56
4532 0.2497 2905.00 2999.43 53.90
4533 0.2497 3020.00 2905.28 54.95
4534 0.2498 2821.00 2828.89 53.11
4535 0.2498 3039.00 2766.85 55.13
4536 0.2499 2772.00 2716.29 52.65
4537 0.2499 2871.00 2674.86 53.58
4538 0.2500 2753.00 2640.68 52.47
4539 0.2501 2659.00 2612.29 51.57
4540 0.2501 2665.00 2585.41 51.62
4541 0.2502 2665.00 2565.46 51.62
4542 0.2502 2699.00 2539.42 51.95
4543 0.2503 2545.00 2525.25 50.45
4544 0.2503 2610.00 2513.13 51.09
4545 0.2504 2478.00 2502.74 49.78
4546 0.2504 2593.00 2493.83 50.92
4547 0.2505 2536.00 2486.23 50.36
4548 0.2505 2704.00 2479.78 52.00
4549 0.2506 2801.00 2474.37 52.92
4550 0.2506 2747.00 2469.92 52.41
4551 0.2507 2885.00 2466.38 53.71
4552 0.2507 2795.00 2463.68 52.87
4553 0.2508 2721.00 2461.82 52.16
4554 0.2508 2672.00 2460.76 51.69
4555 0.2509 2593.00 2460.50 50.92
4556 0.2509 2620.00 2461.06 51.19
4557 0.2510 2578.00 2462.45 50.77
4558 0.2510 2545.00 2464.71 50.45
4559 0.2511 2524.00 2467.87 50.24
4560 0.2512 2606.00 2472.01 51.05
4561 0.2512 2496.00 2477.22 49.96
4562 0.2513 2584.00 2483.58 50.83
4563 0.2513 2650.00 2491.24 51.48
4564 0.2514 2548.00 2500.35 50.48
4565 0.2514 2643.00 2511.11 51.41
4566 0.2515 2816.00 2523.75 53.07
4567 0.2515 2730.00 2538.56 52.25
4568 0.2516 2820.00 2555.84 53.10
4569 0.2516 2941.00 2576.01 54.23
4570 0.2517 2848.00 2599.53 53.37
4571 0.2517 2789.00 2626.93 52.81
4572 0.2518 2856.00 2658.88 53.44
4573 0.2518 2974.00 2696.12 54.53
4574 0.2519 2935.00 2739.64 54.18
4575 0.2519 3078.00 2790.54 55.48
4576 0.2520 3161.00 2850.20 56.22
4577 0.2520 3285.00 2920.30 57.31
4578 0.2521 3365.00 3002.90 58.01
4579 0.2521 3405.00 3100.52 58.35
4580 0.2522 3571.00 3216.21 59.76
4581 0.2523 3682.00 3353.58 60.68
4582 0.2523 3952.00 3516.63 62.86
4583 0.2524 3884.00 3709.42 62.32
4584 0.2524 4191.00 3934.82 64.74
4585 0.2525 4319.00 4193.02 65.72
4586 0.2525 4440.00 4477.11 66.63
4587 0.2526 4646.00 4768.53 68.16
4588 0.2526 4701.00 5032.71 68.56
4589 0.2527 4918.00 5221.02 70.13
4590 0.2527 4828.00 5285.46 69.48
4591 0.2528 5110.00 5202.77 71.48
4592 0.2528 4771.00 4989.85 69.07
4593 0.2529 4603.00 4694.73 67.85
4594 0.2529 4467.00 4371.54 66.84
4595 0.2530 4219.00 4061.01 64.95
4596 0.2530 3866.00 3784.55 62.18
4597 0.2531 3716.00 3549.60 60.96
4598 0.2531 3611.00 3354.98 60.09
4599 0.2532 3392.00 3195.83 58.24
4600 0.2532 3320.00 3053.27 57.62
4601 0.2533 3248.00 2948.12 56.99
4602 0.2534 2986.00 2862.25 54.64
4603 0.2534 3088.00 2791.57 55.57
4604 0.2535 2952.00 2733.03 54.33
4605 0.2535 2858.00 2684.08 53.46
4606 0.2536 2722.00 2642.78 52.17
4607 0.2536 2792.00 2607.53 52.84
4608 0.2537 2687.00 2577.16 51.84
4609 0.2537 2701.00 2550.74 51.97
4610 0.2538 2606.00 2527.53 51.05
4611 0.2538 2591.00 2506.97 50.90
4612 0.2539 2616.00 2488.61 51.15
4613 0.2539 2445.00 2472.13 49.45
4614 0.2540 2515.00 2457.22 50.15
4615 0.2540 2520.00 2443.67 50.20
4616 0.2541 2470.00 2431.33 49.70
4617 0.2541 2527.00 2420.05 50.27
4618 0.2542 2359.00 2409.70 48.57
4619 0.2542 2362.00 2400.19 48.60
4620 0.2543 2423.00 2391.44 49.22
4621 0.2543 2418.00 2383.36 49.17
4622 0.2544 2354.00 2375.91 48.52
4623 0.2545 2348.00 2369.01 48.46
4624 0.2545 2443.00 2362.62 49.43
4625 0.2546 2488.00 2356.69 49.88
4626 0.2546 2392.00 2351.17 48.91
4627 0.2547 2325.00 2346.03 48.22
4628 0.2547 2315.00 2341.24 48.11
4629 0.2548 2287.00 2336.76 47.82
4630 0.2548 2365.00 2332.56 48.63
4631 0.2549 2311.00 2328.63 48.07
4632 0.2549 2278.00 2324.93 47.73
4633 0.2550 2229.00 2321.44 47.21
4634 0.2550 2234.00 2318.16 47.27
4635 0.2551 2273.00 2315.05 47.68
4636 0.2551 2209.00 2312.11 47.00
4637 0.2552 2152.00 2309.32 46.39
4638 0.2552 2277.00 2306.67 47.72
4639 0.2553 2166.00 2304.15 46.54
4640 0.2553 2285.00 2301.75 47.80
4641 0.2554 2240.00 2299.46 47.33
4642 0.2554 2269.00 2297.27 47.63
4643 0.2555 2285.00 2295.17 47.80
4644 0.2556 2234.00 2293.16 47.27
4645 0.2556 2147.00 2291.23 46.34
4646 0.2557 2105.00 2289.38 45.88
4647 0.2557 2223.00 2287.60 47.15
4648 0.2558 2194.00 2285.88 46.84
4649 0.2558 2256.00 2284.22 47.50
4650 0.2559 2207.00 2282.63 46.98
4651 0.2559 2202.00 2281.08 46.93
4652 0.2560 2185.00 2279.58 46.74
4653 0.2560 2271.00 2278.13 47.65
4654 0.2561 2232.00 2276.73 47.24
4655 0.2561 2180.00 2275.36 46.69
4656 0.2562 2336.00 2274.04 48.33
4657 0.2562 2146.00 2272.75 46.32
4658 0.2563 2241.00 2271.49 47.34
4659 0.2563 2210.00 2270.27 47.01
4660 0.2564 2163.00 2269.08 46.51
4661 0.2564 2170.00 2267.91 46.58
4662 0.2565 2152.00 2266.77 46.39
4663 0.2565 2228.00 2265.66 47.20
4664 0.2566 2158.00 2264.58 46.45
4665 0.2567 2247.00 2288.34 47.40
4666 0.2567 2103.00 2267.36 45.86
4667 0.2568 2271.00 2267.46 47.65
4668 0.2568 2173.00 2267.58 46.62
4669 0.2569 2117.00 2267.72 46.01
4670 0.2569 2149.00 2267.89 46.36
4671 0.2570 2254.00 2268.08 47.48
4672 0.2570 2210.00 2268.29 47.01
4673 0.2571 2187.00 2268.53 46.77
4674 0.2571 2160.00 2268.80 46.48
4675 0.2572 2174.00 2269.09 46.63
4676 0.2572 2167.00 2269.42 46.55
4677 0.2573 2049.00 2269.78 45.27
4678 0.2573 2227.00 2270.17 47.19
4679 0.2574 2105.00 2270.60 45.88
4680 0.2574 2169.00 2271.06 46.57
4681 0.2575 2172.00 2271.57 46.60
4682 0.2575 2169.00 2272.12 46.57
4683 0.2576 2147.00 2272.71 46.34
4684 0.2576 2211.00 2273.35 47.02
4685 0.2577 2257.00 2274.04 47.51
4686 0.2577 2116.00 2274.78 46.00
4687 0.2578 2229.00 2275.58 47.21
4688 0.2579 2077.00 2276.44 45.57
4689 0.2579 2197.00 2277.37 46.87
4690 0.2580 2174.00 2278.36 46.63
4691 0.2580 2213.00 2279.42 47.04
4692 0.2581 2228.00 2280.56 47.20
4693 0.2581 2188.00 2281.78 46.78
4694 0.2582 2205.00 2283.09 46.96
4695 0.2582 2137.00 2284.49 46.23
4696 0.2583 2187.00 2285.99 46.77
4697 0.2583 2184.00 2287.60 46.73
4698 0.2584 2228.00 2289.32 47.20
4699 0.2584 2182.00 2291.17 46.71
4700 0.2585 2276.00 2293.15 47.71
4701 0.2585 2125.00 2295.27 46.10
4702 0.2586 2230.00 2297.54 47.22
4703 0.2586 2146.00 2299.99 46.32
4704 0.2587 2159.00 2302.61 46.47
4705 0.2587 2219.00 2305.43 47.11
4706 0.2588 2158.00 2308.46 46.45
4707 0.2588 2259.00 2311.72 47.53
4708 0.2589 2151.00 2315.24 46.38
4709 0.2590 2308.00 2319.02 48.04
4710 0.2590 2133.00 2323.12 46.18
4711 0.2591 2290.00 2327.54 47.85
4712 0.2591 2201.00 2345.75 46.91
4713 0.2592 2219.00 2351.32 47.11
4714 0.2592 2096.00 2357.36 45.78
4715 0.2593 2146.00 2363.92 46.32
4716 0.2593 2217.00 2371.06 47.08
4717 0.2594 2044.00 2392.56 45.21
4718 0.2594 2275.00 2401.49 47.70
4719 0.2595 2153.00 2411.27 46.40
4720 0.2595 2268.00 2421.99 47.62
4721 0.2596 2185.00 2433.81 46.74
4722 0.2596 2238.00 2446.86 47.31
4723 0.2597 2230.00 2461.29 47.22
4724 0.2597 2278.00 2477.32 47.73
4725 0.2598 2299.00 2495.16 47.95
4726 0.2598 2242.00 2515.08 47.35
4727 0.2599 2335.00 2537.38 48.32
4728 0.2599 2301.00 2562.38 47.97
4729 0.2600 2422.00 2590.49 49.21
4730 0.2601 2390.00 2622.16 48.89
4731 0.2601 2401.00 2657.89 49.00
4732 0.2602 2341.00 2698.33 48.38
4733 0.2602 2442.00 2744.21 49.42
4734 0.2603 2372.00 2796.31 48.70
4735 0.2603 2446.00 2855.60 49.46
4736 0.2604 2430.00 2923.32 49.29
4737 0.2604 2556.00 3000.83 50.56
4738 0.2605 2613.00 3089.79 51.12
4739 0.2605 2559.00 3192.17 50.59
4740 0.2606 2781.00 3310.29 52.74
4741 0.2606 2855.00 3446.87 53.43
4742 0.2607 3015.00 3604.84 54.91
4743 0.2607 3040.00 3787.63 55.14
4744 0.2608 3438.00 3998.24 58.63
4745 0.2608 3700.00 4239.02 60.83
4746 0.2609 4318.00 4509.53 65.71
4747 0.2609 4896.00 4805.86 69.97
4748 0.2610 6134.00 5116.24 78.32
4749 0.2610 7948.00 5418.79 89.15
4750 0.2611 10780.00 5680.37 103.83
4751 0.2612 13305.00 5860.86 115.35
4752 0.2612 12575.00 5924.54 112.14
4753 0.2613 10134.00 5855.09 100.67
4754 0.2613 7782.00 5664.03 88.22
4755 0.2614 6226.00 5386.35 78.90
4756 0.2614 5105.00 5065.78 71.45
4757 0.2615 4485.00 4744.11 66.97
4758 0.2615 3969.00 4440.34 63.00
4759 0.2616 3655.00 4171.48 60.46
4760 0.2616 3463.00 3942.10 58.85
4761 0.2617 3217.00 3751.48 56.72
4762 0.2617 3222.00 3596.32 56.76
4763 0.2618 3084.00 3481.31 55.53
4764 0.2618 2987.00 3385.01 54.65
4765 0.2619 3024.00 3312.44 54.99
4766 0.2619 2926.00 3260.82 54.09
4767 0.2620 2990.00 3228.03 54.68
4768 0.2620 3013.00 3212.65 54.89
4769 0.2621 3057.00 3213.91 55.29
4770 0.2621 3173.00 3231.68 56.33
4771 0.2622 3159.00 3266.46 56.21
4772 0.2623 3322.00 3319.44 57.64
4773 0.2623 3355.00 3392.52 57.92
4774 0.2624 3552.00 3488.45 59.60
4775 0.2624 3738.00 3610.81 61.14
4776 0.2625 3893.00 3764.42 62.39
4777 0.2625 4057.00 3954.85 63.69
4778 0.2626 4356.00 4188.23 66.00
4779 0.2626 4569.00 4470.07 67.59
4780 0.2627 4910.00 4813.66 70.07
4781 0.2627 5392.00 5190.25 73.43
4782 0.2628 5916.00 5587.56 76.92
4783 0.2628 6490.00 5957.22 80.56
4784 0.2629 7015.00 6226.03 83.76
4785 0.2629 7326.00 6317.18 85.59
4786 0.2630 7221.00 6191.21 84.98
4787 0.2630 6551.00 5874.43 80.94
4788 0.2631 5823.00 5444.41 76.31
4789 0.2631 5146.00 4985.69 71.74
4790 0.2632 4700.00 4556.67 68.56
4791 0.2632 4313.00 4185.10 65.67
4792 0.2633 3982.00 3876.86 63.10
4793 0.2634 3608.00 3626.96 60.07
4794 0.2634 3502.00 3426.00 59.18
4795 0.2635 3304.00 3265.04 57.48
4796 0.2635 3100.00 3135.71 55.68
4797 0.2636 3072.00 3031.32 55.43
4798 0.2636 3001.00 2946.42 54.78
4799 0.2637 2985.00 2876.92 54.64
4800 0.2637 2859.00 2819.65 53.47
4801 0.2638 2698.00 2772.18 51.94
4802 0.2638 2667.00 2732.72 51.64
4803 0.2639 2649.00 2699.90 51.47
4804 0.2639 2662.00 2672.75 51.59
4805 0.2640 2585.00 2650.56 50.84
4806 0.2640 2540.00 2632.90 50.40
4807 0.2641 2521.00 2619.49 50.21
4808 0.2641 2543.00 2610.25 50.43
4809 0.2642 2462.00 2605.26 49.62
4810 0.2642 2554.00 2604.76 50.54
4811 0.2643 2489.00 2609.16 49.89
4812 0.2643 2473.00 2619.08 49.73
4813 0.2644 2487.00 2635.33 49.87
4814 0.2645 2560.00 2658.90 50.60
4815 0.2645 2499.00 2690.77 49.99
4816 0.2646 2505.00 2731.58 50.05
4817 0.2646 2410.00 2780.62 49.09
4818 0.2647 2369.00 2834.22 48.67
4819 0.2647 2421.00 2884.04 49.20
4820 0.2648 2406.00 2917.24 49.05
4821 0.2648 2485.00 2921.36 49.85
4822 0.2649 2463.00 2892.96 49.63
4823 0.2649 2423.00 2840.95 49.22
4824 0.2650 2367.00 2802.23 48.65
4825 0.2650 2471.00 2745.23 49.71
4826 0.2651 2373.00 2697.77 48.71
4827 0.2651 2470.00 2661.56 49.70
4828 0.2652 2339.00 2636.07 48.36
4829 0.2652 2344.00 2619.96 48.41
4830 0.2653 2350.00 2611.91 48.48
4831 0.2653 2313.00 2610.80 48.09
4832 0.2654 2431.00 2615.87 49.31
4833 0.2654 2378.00 2626.67 48.76
4834 0.2655 2374.00 2642.98 48.72
4835 0.2656 2359.00 2664.89 48.57
4836 0.2656 2428.00 2692.65 49.27
4837 0.2657 2395.00 2726.72 48.94
4838 0.2657 2504.00 2767.84 50.04
4839 0.2658 2517.00 2816.85 50.17
4840 0.2658 2638.00 2850.20 51.36
4841 0.2659 2619.00 2918.69 51.18
4842 0.2659 2819.00 2998.33 53.09
4843 0.2660 2873.00 3089.84 53.60
4844 0.2660 3034.00 3193.19 55.08
4845 0.2661 3450.00 3306.79 58.74
4846 0.2661 3958.00 3426.48 62.91
4847 0.2662 4666.00 3544.57 68.31
4848 0.2662 5977.00 3649.62 77.31
4849 0.2663 7106.00 3728.31 84.30
4850 0.2663 6808.00 3769.11 82.51
4851 0.2664 5979.00 3767.58 77.32
4852 0.2664 4729.00 3728.93 68.77
4853 0.2665 4170.00 3666.12 64.58
4854 0.2665 3680.00 3594.87 60.66
4855 0.2666 3481.00 3515.65 59.00
4856 0.2667 3291.00 3465.26 57.37
4857 0.2667 3230.00 3445.81 56.83
4858 0.2668 3193.00 3426.78 56.51
4859 0.2668 3234.00 3446.29 56.87
4860 0.2669 3430.00 3490.57 58.57
4861 0.2669 3518.00 3558.80 59.31
4862 0.2670 3779.00 3648.81 61.47
4863 0.2670 4079.00 3756.22 63.87
4864 0.2671 4744.00 3873.10 68.88
4865 0.2671 5684.00 3986.98 75.39
4866 0.2672 6869.00 4081.11 82.88
4867 0.2672 7356.00 4137.50 85.77
4868 0.2673 6736.00 4142.70 82.07
4869 0.2673 5631.00 4093.71 75.04
4870 0.2674 4757.00 3999.65 68.97
4871 0.2674 4380.00 3877.94 66.18
4872 0.2675 3970.00 3747.38 63.01
4873 0.2675 3747.00 3623.53 61.21
4874 0.2676 3544.00 3516.71 59.53
4875 0.2676 3425.00 3432.62 58.52
4876 0.2677 3506.00 3373.87 59.21
4877 0.2678 3492.00 3341.44 59.09
4878 0.2678 3599.00 3335.78 59.99
4879 0.2679 3650.00 3357.53 60.42
4880 0.2679 3877.00 3407.98 62.27
4881 0.2680 3791.00 3489.29 61.57
4882 0.2680 4221.00 3604.25 64.97
4883 0.2681 4474.00 3755.92 66.89
4884 0.2681 4900.00 3945.54 70.00
4885 0.2682 5197.00 4169.41 72.09
4886 0.2682 5747.00 4410.38 75.81
4887 0.2683 6368.00 4647.65 79.80
4888 0.2683 6814.00 4839.79 82.55
4889 0.2684 6869.00 4953.15 82.88
4890 0.2684 6702.00 4971.96 81.87
4891 0.2685 6350.00 4896.71 79.69
4892 0.2685 5885.00 4736.22 76.71
4893 0.2686 5416.00 4508.09 73.59
4894 0.2686 4852.00 4240.08 69.66
4895 0.2687 4538.00 3964.08 67.36
4896 0.2687 4058.00 3705.34 63.70
4897 0.2688 4034.00 3477.81 63.51
4898 0.2689 3717.00 3285.81 60.97
4899 0.2689 3637.00 3127.30 60.31
4900 0.2690 3334.00 2998.13 57.74
4901 0.2690 3252.00 2893.14 57.03
4902 0.2691 3118.00 2807.91 55.84
4903 0.2691 3013.00 2738.46 54.89
4904 0.2692 3109.00 2681.65 55.76
4905 0.2692 2848.00 2634.92 53.37
4906 0.2693 2842.00 2596.37 53.31
4907 0.2693 2795.00 2564.51 52.87
4908 0.2694 2723.00 2538.22 52.18
4909 0.2694 2711.00 2516.66 52.07
4910 0.2695 2733.00 2499.22 52.28
4911 0.2695 2661.00 2485.47 51.58
4912 0.2696 2706.00 2475.09 52.02
4913 0.2696 2601.00 2467.94 51.00
4914 0.2697 2634.00 2463.96 51.32
4915 0.2697 2677.00 2463.16 51.74
4916 0.2698 2676.00 2465.67 51.73
4917 0.2698 2769.00 2471.66 52.62
4918 0.2699 2643.00 2481.37 51.41
4919 0.2699 2864.00 2495.10 53.52
4920 0.2700 2824.00 2513.11 53.14
4921 0.2701 2855.00 2535.72 53.43
4922 0.2701 2875.00 2563.30 53.62
4923 0.2702 2853.00 2596.61 53.41
4924 0.2702 2901.00 2636.78 53.86
4925 0.2703 2931.00 2685.24 54.14
4926 0.2703 3085.00 2743.49 55.54
4927 0.2704 3137.00 2812.95 56.01
4928 0.2704 3160.00 2894.52 56.21
4929 0.2705 3214.00 2988.41 56.69
4930 0.2705 3492.00 3093.55 59.09
4931 0.2706 3382.00 3206.93 58.15
4932 0.2706 3557.00 3322.55 59.64
4933 0.2707 3516.00 3429.92 59.30
4934 0.2707 3671.00 3513.80 60.59
4935 0.2708 3598.00 3556.10 59.98
4936 0.2708 3638.00 3542.98 60.32
4937 0.2709 3602.00 3472.72 60.02
4938 0.2709 3457.00 3357.62 58.80
4939 0.2710 3306.00 3209.61 57.50
4940 0.2710 3106.00 3065.63 55.73
4941 0.2711 2945.00 2930.54 54.27
4942 0.2712 2768.00 2811.14 52.61
4943 0.2712 2788.00 2709.31 52.80
4944 0.2713 2575.00 2624.25 50.74
4945 0.2713 2615.00 2553.81 51.14
4946 0.2714 2457.00 2495.68 49.57
4947 0.2714 2505.00 2447.65 50.05
4948 0.2715 2387.00 2407.80 48.86
4949 0.2715 2387.00 2374.59 48.86
4950 0.2716 2317.00 2346.60 48.14
4951 0.2716 2323.00 2322.87 48.20
4952 0.2717 2318.00 2302.58 48.15
4953 0.2717 2236.00 2285.09 47.29
4954 0.2718 2229.00 2262.03 47.21
4955 0.2718 2213.00 2248.99 47.04
4956 0.2719 2219.00 2237.37 47.11
4957 0.2719 2232.00 2216.33 47.24
4958 0.2720 2217.00 2207.69 47.08
4959 0.2720 2102.00 2200.12 45.85
4960 0.2721 2193.00 2193.52 46.83
4961 0.2721 2186.00 2187.83 46.75
4962 0.2722 2179.00 2182.99 46.68
4963 0.2723 2150.00 2178.93 46.37
4964 0.2723 2161.00 2175.48 46.49
4965 0.2724 2227.00 2172.36 47.19
4966 0.2724 2145.00 2169.15 46.31
4967 0.2725 2139.00 2153.98 46.25
4968 0.2725 2170.00 2149.57 46.58
4969 0.2726 2089.00 2144.28 45.71
4970 0.2726 2105.00 2138.51 45.88
4971 0.2727 2015.00 2132.72 44.89
4972 0.2727 2097.00 2127.24 45.79
4973 0.2728 2094.00 2122.26 45.76
4974 0.2728 2057.00 2117.78 45.35
4975 0.2729 2129.00 2113.79 46.14
4976 0.2729 2041.00 2110.21 45.18
4977 0.2730 2121.00 2106.98 46.05
4978 0.2730 2036.00 2104.05 45.12
4979 0.2731 2110.00 2101.36 45.93
4980 0.2731 2051.00 2098.88 45.29
4981 0.2732 1949.00 2096.56 44.15
4982 0.2732 2116.00 2094.40 46.00
4983 0.2733 1987.00 2092.36 44.58
4984 0.2734 2103.00 2090.43 45.86
4985 0.2734 1963.00 2089.00 44.31
4986 0.2735 1983.00 2087.26 44.53
4987 0.2735 2028.00 2085.60 45.03
4988 0.2736 1947.00 2086.70 44.12
4989 0.2736 2012.00 2085.25 44.86
4990 0.2737 2038.00 2083.85 45.14
4991 0.2737 2088.00 2082.51 45.69
4992 0.2738 2030.00 2081.22 45.06
4993 0.2738 2018.00 2079.97 44.92
4994 0.2739 2020.00 2078.77 44.94
4995 0.2739 2047.00 2077.62 45.24
4996 0.2740 2024.00 2076.50 44.99
4997 0.2740 1960.00 2075.42 44.27
4998 0.2741 1974.00 2074.38 44.43
4999 0.2741 2010.00 2073.37 44.83
5000 0.2742 1974.00 2072.39 44.43
5001 0.2742 1986.00 2071.45 44.56
5002 0.2743 2092.00 2070.54 45.74
5003 0.2743 2059.00 2069.66 45.38
5004 0.2744 2073.00 2068.80 45.53
5005 0.2745 2001.00 2067.98 44.73
5006 0.2745 2038.00 2067.19 45.14
5007 0.2746 1948.00 2066.43 44.14
5008 0.2746 2056.00 2065.70 45.34
5009 0.2747 2013.00 2064.99 44.87
5010 0.2747 1958.00 2064.32 44.25
5011 0.2748 1994.00 2063.69 44.65
5012 0.2748 1948.00 2063.08 44.14
5013 0.2749 2020.00 2062.52 44.94
5014 0.2749 2086.00 2061.99 45.67
5015 0.2750 2147.00 2052.53 46.34
5016 0.2750 1895.00 2051.53 43.53
5017 0.2751 2006.00 2051.36 44.79
5018 0.2751 1914.00 2051.24 43.75
5019 0.2752 1982.00 2051.17 44.52
5020 0.2752 2051.00 2051.16 45.29
5021 0.2753 2031.00 2051.21 45.07
5022 0.2753 2004.00 2051.33 44.77
5023 0.2754 2063.00 2051.54 45.42
5024 0.2754 1969.00 2051.85 44.37
5025 0.2755 2055.00 2052.27 45.33
5026 0.2756 2032.00 2052.81 45.08
5027 0.2756 1991.00 2053.48 44.62
5028 0.2757 2043.00 2054.27 45.20
5029 0.2757 2011.00 2055.16 44.84
5030 0.2758 2028.00 2056.11 45.03
5031 0.2758 1914.00 2057.01 43.75
5032 0.2759 2011.00 2057.78 44.84
5033 0.2759 2024.00 2058.30 44.99
5034 0.2760 2062.00 2058.53 45.41
5035 0.2760 2066.00 2058.52 45.45
5036 0.2761 1998.00 2058.39 44.70
5037 0.2761 2105.00 2058.27 45.88
5038 0.2762 1939.00 2058.16 44.03
5039 0.2762 2080.00 2058.45 45.61
5040 0.2763 2001.00 2059.05 44.73
5041 0.2763 2028.00 2060.02 45.03
5042 0.2764 2021.00 2061.38 44.96
5043 0.2764 2085.00 2063.17 45.66
5044 0.2765 2132.00 2065.45 46.17
5045 0.2765 2025.00 2068.25 45.00
5046 0.2766 2079.00 2071.66 45.60
5047 0.2767 1943.00 2075.76 44.08
5048 0.2767 2073.00 2080.66 45.53
5049 0.2768 2021.00 2086.48 44.96
5050 0.2768 2107.00 2093.36 45.90
5051 0.2769 2041.00 2101.44 45.18
5052 0.2769 2109.00 2110.83 45.92
5053 0.2770 2055.00 2121.57 45.33
5054 0.2770 2143.00 2133.58 46.29
5055 0.2771 2108.00 2146.65 45.91
5056 0.2771 2130.00 2160.54 46.15
5057 0.2772 2064.00 2175.24 45.43
5058 0.2772 2127.00 2191.17 46.12
5059 0.2773 2179.00 2209.07 46.68
5060 0.2773 2056.00 2229.69 45.34
5061 0.2774 2226.00 2253.57 47.18
5062 0.2774 2111.00 2280.82 45.95
5063 0.2775 2342.00 2311.09 48.39
5064 0.2775 2305.00 2343.36 48.01
5065 0.2776 2439.00 2375.47 49.39
5066 0.2776 2348.00 2403.70 48.46
5067 0.2777 2412.00 2422.92 49.11
5068 0.2778 2429.00 2428.15 49.28
5069 0.2778 2398.00 2416.71 48.97
5070 0.2779 2317.00 2389.92 48.14
5071 0.2779 2234.00 2352.57 47.27
5072 0.2780 2296.00 2310.62 47.92
5073 0.2780 2226.00 2269.02 47.18
5074 0.2781 2262.00 2230.86 47.56
5075 0.2781 2109.00 2197.51 45.92
5076 0.2782 2192.00 2169.14 46.82
5077 0.2782 2085.00 2167.99 45.66
5078 0.2783 2120.00 2148.87 46.04
5079 0.2783 2074.00 2133.11 45.54
5080 0.2784 2125.00 2120.11 46.10
5081 0.2784 2056.00 2109.37 45.34
5082 0.2785 2073.00 2100.44 45.53
5083 0.2785 2062.00 2092.99 45.41
5084 0.2786 2047.00 2086.73 45.24
5085 0.2786 2117.00 2081.44 46.01
5086 0.2787 2000.00 2076.95 44.72
5087 0.2787 2054.00 2073.12 45.32
5088 0.2788 2024.00 2069.85 44.99
5089 0.2789 2073.00 2087.63 45.53
5090 0.2789 2002.00 2086.77 44.74
5091 0.2790 2060.00 2085.35 45.39
5092 0.2790 2032.00 2084.27 45.08
5093 0.2791 2045.00 2083.49 45.22
5094 0.2791 2056.00 2094.75 45.34
5095 0.2792 1919.00 2094.78 43.81
5096 0.2792 2044.00 2095.09 45.21
5097 0.2793 2117.00 2095.64 46.01
5098 0.2793 2063.00 2096.45 45.42
5099 0.2794 1960.00 2097.51 44.27
5100 0.2794 2100.00 2098.82 45.83
5101 0.2795 2051.00 2100.38 45.29
5102 0.2795 2006.00 2102.20 44.79
5103 0.2796 1971.00 2104.29 44.40
5104 0.2796 2083.00 2106.65 45.64
5105 0.2797 2020.00 2109.29 44.94
5106 0.2797 2142.00 2112.23 46.28
5107 0.2798 2041.00 2115.49 45.18
5108 0.2798 2043.00 2119.09 45.20
5109 0.2799 1976.00 2123.03 44.45
5110 0.2800 2048.00 2127.37 45.25
5111 0.2800 2113.00 2132.11 45.97
5112 0.2801 2017.00 2137.30 44.91
5113 0.2801 2112.00 2142.98 45.96
5114 0.2802 2061.00 2149.20 45.40
5115 0.2802 2021.00 2156.01 44.96
5116 0.2803 2061.00 2163.46 45.40
5117 0.2803 2111.00 2171.64 45.95
5118 0.2804 2110.00 2180.56 45.93
5119 0.2804 2111.00 2190.44 45.95
5120 0.2805 2078.00 2201.33 45.59
5121 0.2805 2082.00 2216.99 45.63
5122 0.2806 2082.00 2230.39 45.63
5123 0.2806 2001.00 2245.24 44.73
5124 0.2807 2132.00 2261.74 46.17
5125 0.2807 2108.00 2280.10 45.91
5126 0.2808 2157.00 2300.59 46.44
5127 0.2808 2178.00 2323.51 46.67
5128 0.2809 2162.00 2349.21 46.50
5129 0.2809 2221.00 2377.91 47.13
5130 0.2810 2231.00 2410.45 47.23
5131 0.2810 2233.00 2447.20 47.25
5132 0.2811 2389.00 2488.81 48.88
5133 0.2812 2391.00 2536.03 48.90
5134 0.2812 2385.00 2589.82 48.84
5135 0.2813 2483.00 2651.26 49.83
5136 0.2813 2445.00 2721.65 49.45
5137 0.2814 2738.00 2802.55 52.33
5138 0.2814 2678.00 2895.83 51.75
5139 0.2815 2783.00 3003.56 52.75
5140 0.2815 2990.00 3128.24 54.68
5141 0.2816 3113.00 3272.49 55.79
5142 0.2816 3274.00 3439.21 57.22
5143 0.2817 3573.00 3630.66 59.77
5144 0.2817 3987.00 3847.92 63.14
5145 0.2818 4381.00 4089.39 66.19
5146 0.2818 5120.00 4348.74 71.55
5147 0.2819 6058.00 4612.91 77.83
5148 0.2819 7360.00 4861.40 85.79
5149 0.2820 8714.00 5071.41 93.35
5150 0.2820 9487.00 5221.69 97.40
5151 0.2821 8182.00 5313.86 90.45
5152 0.2821 7211.00 5359.15 84.92
5153 0.2822 6238.00 5384.52 78.98
5154 0.2823 5566.00 5420.31 74.61
5155 0.2823 5171.00 5490.46 71.91
5156 0.2824 4879.00 5604.87 69.85
5157 0.2824 4658.00 5752.80 68.25
5158 0.2825 4808.00 5898.71 69.34
5159 0.2825 4789.00 5985.59 69.20
5160 0.2826 4882.00 5954.49 69.87
5161 0.2826 4924.00 5776.36 70.17
5162 0.2827 4660.00 5471.44 68.26
5163 0.2827 4609.00 5097.13 67.89
5164 0.2828 4135.00 4712.71 64.30
5165 0.2828 3852.00 4361.20 62.06
5166 0.2829 3564.00 4062.30 59.70
5167 0.2829 3356.00 3820.28 57.93
5168 0.2830 3174.00 3631.27 56.34
5169 0.2830 3119.00 3488.57 55.85
5170 0.2831 3098.00 3385.36 55.66
5171 0.2831 3042.00 3315.67 55.15
5172 0.2832 2920.00 3275.02 54.04
5173 0.2832 2845.00 3260.13 53.34
5174 0.2833 2901.00 3268.81 53.86
5175 0.2834 2964.00 3299.63 54.44
5176 0.2834 3117.00 3351.56 55.83
5177 0.2835 3167.00 3423.43 56.28
5178 0.2835 3353.00 3513.03 57.91
5179 0.2836 3650.00 3616.31 60.42
5180 0.2836 4015.00 3725.75 63.36
5181 0.2837 4301.00 3831.46 65.58
5182 0.2837 5142.00 3913.96 71.71
5183 0.2838 5200.00 3958.02 72.11
5184 0.2838 4763.00 3956.14 69.01
5185 0.2839 4210.00 3893.43 64.88
5186 0.2839 3836.00 3782.90 61.94
5187 0.2840 3571.00 3640.34 59.76
5188 0.2840 3151.00 3484.06 56.13
5189 0.2841 3072.00 3329.26 55.43
5190 0.2841 2864.00 3186.14 53.52
5191 0.2842 2779.00 3060.05 52.72
5192 0.2842 2757.00 2952.90 52.51
5193 0.2843 2662.00 2864.36 51.59
5194 0.2843 2602.00 2793.27 51.01
5195 0.2844 2622.00 2738.07 51.21
5196 0.2845 2540.00 2697.26 50.40
5197 0.2845 2454.00 2669.52 49.54
5198 0.2846 2531.00 2653.74 50.31
5199 0.2846 2506.00 2648.88 50.06
5200 0.2847 2486.00 2653.75 49.86
5201 0.2847 2510.00 2666.66 50.10
5202 0.2848 2470.00 2684.88 49.70
5203 0.2848 2519.00 2704.20 50.19
5204 0.2849 2465.00 2731.81 49.65
5205 0.2849 2576.00 2738.78 50.75
5206 0.2850 2644.00 2726.27 51.42
5207 0.2850 2463.00 2695.60 49.63
5208 0.2851 2552.00 2649.29 50.52
5209 0.2851 2500.00 2593.02 50.00
5210 0.2852 2361.00 2533.15 48.59
5211 0.2852 2417.00 2474.77 49.16
5212 0.2853 2331.00 2421.10 48.28
5213 0.2853 2214.00 2373.52 47.05
5214 0.2854 2251.00 2332.28 47.44
5215 0.2854 2261.00 2296.94 47.55
5216 0.2855 2083.00 2266.85 45.64
5217 0.2856 2228.00 2241.26 47.20
5218 0.2856 2159.00 2219.49 46.47
5219 0.2857 2190.00 2200.91 46.80
5220 0.2857 2145.00 2185.00 46.31
5221 0.2858 2111.00 2171.35 45.95
5222 0.2858 2090.00 2157.01 45.72
5223 0.2859 2190.00 2146.94 46.80
5224 0.2859 2124.00 2138.25 46.09
5225 0.2860 2091.00 2130.78 45.73
5226 0.2860 2034.00 2124.37 45.10
5227 0.2861 2125.00 2118.92 46.10
5228 0.2861 2119.00 2114.33 46.03
5229 0.2862 2053.00 2110.56 45.31
5230 0.2862 2133.00 2107.56 46.18
5231 0.2863 2111.00 2105.29 45.95
5232 0.2863 2088.00 2083.53 45.69
5233 0.2864 2112.00 2083.28 45.96
5234 0.2864 2058.00 2082.83 45.37
5235 0.2865 2190.00 2084.10 46.80
5236 0.2865 2088.00 2086.19 45.69
5237 0.2866 2130.00 2089.14 46.15
5238 0.2867 2159.00 2093.05 46.47
5239 0.2867 2069.00 2097.99 45.49
5240 0.2868 2139.00 2104.10 46.25
5241 0.2868 2078.00 2098.23 45.59
5242 0.2869 2047.00 2107.39 45.24
5243 0.2869 2151.00 2118.22 46.38
5244 0.2870 2183.00 2130.93 46.72
5245 0.2870 2174.00 2145.85 46.63
5246 0.2871 2332.00 2163.30 48.29
5247 0.2871 2326.00 2183.70 48.23
5248 0.2872 2256.00 2207.56 47.50
5249 0.2872 2435.00 2235.45 49.35
5250 0.2873 2358.00 2268.06 48.56
5251 0.2873 2532.00 2306.11 50.32
5252 0.2874 2422.00 2350.41 49.21
5253 0.2874 2604.00 2401.56 51.03
5254 0.2875 2580.00 2459.81 50.79
5255 0.2875 2738.00 2524.64 52.33
5256 0.2876 2859.00 2594.41 53.47
5257 0.2876 2852.00 2666.29 53.40
5258 0.2877 2971.00 2736.77 54.51
5259 0.2878 3053.00 2803.70 55.25
5260 0.2878 3014.00 2866.41 54.90
5261 0.2879 3003.00 2925.51 54.80
5262 0.2879 3023.00 2979.91 54.98
5263 0.2880 3069.00 3024.82 55.40
5264 0.2880 3196.00 3052.16 56.53
5265 0.2881 3136.00 3054.31 56.00
5266 0.2881 3148.00 3028.93 56.11
5267 0.2882 3032.00 2981.24 55.06
5268 0.2882 3026.00 2921.88 55.01
5269 0.2883 3093.00 2862.40 55.61
5270 0.2883 2918.00 2811.82 54.02
5271 0.2884 3049.00 2775.64 55.22
5272 0.2884 2861.00 2756.55 53.49
5273 0.2885 3065.00 2755.55 55.36
5274 0.2885 2918.00 2772.98 54.02
5275 0.2886 3091.00 2797.63 55.60
5276 0.2886 3110.00 2853.33 55.77
5277 0.2887 3128.00 2929.21 55.93
5278 0.2887 3238.00 3026.46 56.90
5279 0.2888 3318.00 3146.13 57.60
5280 0.2889 3667.00 3288.34 60.56
5281 0.2889 3649.00 3451.40 60.41
5282 0.2890 4195.00 3629.51 64.77
5283 0.2890 4183.00 3810.47 64.68
5284 0.2891 4764.00 3974.90 69.02
5285 0.2891 5004.00 4098.35 70.74
5286 0.2892 5161.00 4165.40 71.84
5287 0.2892 4936.00 4149.57 70.26
5288 0.2893 4534.00 4062.90 67.33
5289 0.2893 4410.00 3922.77 66.41
5290 0.2894 3992.00 3750.34 63.18
5291 0.2894 3799.00 3563.50 61.64
5292 0.2895 3545.00 3375.14 59.54
5293 0.2895 3488.00 3190.88 59.06
5294 0.2896 3096.00 3024.11 55.64
5295 0.2896 3002.00 2875.79 54.79
5296 0.2897 2815.00 2745.95 53.06
5297 0.2897 2665.00 2634.82 51.62
5298 0.2898 2639.00 2540.77 51.37
5299 0.2898 2532.00 2461.62 50.32
5300 0.2899 2519.00 2395.08 50.19
5301 0.2900 2307.00 2339.06 48.03
5302 0.2900 2395.00 2291.69 48.94
5303 0.2901 2397.00 2251.44 48.96
5304 0.2901 2249.00 2216.97 47.42
5305 0.2902 2170.00 2187.26 46.58
5306 0.2902 2202.00 2161.46 46.93
5307 0.2903 2138.00 2138.90 46.24
5308 0.2903 2136.00 2119.05 46.22
5309 0.2904 2181.00 2101.45 46.70
5310 0.2904 2155.00 2085.76 46.42
5311 0.2905 2114.00 2071.70 45.98
5312 0.2905 1969.00 2059.05 44.37
5313 0.2906 2135.00 2047.62 46.21
5314 0.2906 2008.00 2037.27 44.81
5315 0.2907 2082.00 2027.88 45.63
5316 0.2907 1949.00 2019.35 44.15
5317 0.2908 1902.00 2011.60 43.61
5318 0.2908 1902.00 2004.57 43.61
5319 0.2909 1958.00 1998.19 44.25
5320 0.2909 1982.00 1992.43 44.52
5321 0.2910 1916.00 1987.24 43.77
5322 0.2911 1999.00 1982.59 44.71
5323 0.2911 1965.00 1978.46 44.33
5324 0.2912 1879.00 1974.83 43.35
5325 0.2912 1976.00 1971.68 44.45
5326 0.2913 1864.00 1969.00 43.17
5327 0.2913 1899.00 1966.79 43.58
5328 0.2914 1926.00 1965.05 43.89
5329 0.2914 1967.00 1963.80 44.35
5330 0.2915 1965.00 1963.05 44.33
5331 0.2915 1989.00 1962.83 44.60
5332 0.2916 1937.00 1963.17 44.01
5333 0.2916 1927.00 1964.11 43.90
5334 0.2917 1963.00 1965.73 44.31
5335 0.2917 1916.00 1968.09 43.77
5336 0.2918 1909.00 1980.39 43.69
5337 0.2918 1849.00 1982.94 43.00
5338 0.2919 1932.00 1988.47 43.95
5339 0.2919 1959.00 1995.26 44.26
5340 0.2920 2015.00 2003.50 44.89
5341 0.2920 2018.00 2013.41 44.92
5342 0.2921 2055.00 2025.29 45.33
5343 0.2922 2007.00 2039.47 44.80
5344 0.2922 1987.00 2056.36 44.58
5345 0.2923 2023.00 2076.46 44.98
5346 0.2923 2091.00 2100.38 45.73
5347 0.2924 1957.00 2128.85 44.24
5348 0.2924 2072.00 2157.42 45.52
5349 0.2925 2113.00 2198.11 45.97
5350 0.2925 1996.00 2246.68 44.68
5351 0.2926 2145.00 2304.59 46.31
5352 0.2926 2220.00 2373.31 47.12
5353 0.2927 2224.00 2454.05 47.16
5354 0.2927 2267.00 2546.82 47.61
5355 0.2928 2355.00 2650.11 48.53
5356 0.2928 2400.00 2758.22 48.99
5357 0.2929 2427.00 2860.24 49.26
5358 0.2929 2539.00 2939.31 50.39
5359 0.2930 2521.00 2976.59 50.21
5360 0.2930 2522.00 2959.99 50.22
5361 0.2931 2483.00 2892.24 49.83
5362 0.2931 2491.00 2789.79 49.91
5363 0.2932 2357.00 2673.88 48.55
5364 0.2932 2514.00 2561.54 50.14
5365 0.2933 2258.00 2462.40 47.52
5366 0.2934 2196.00 2379.97 46.86
5367 0.2934 2232.00 2314.05 47.24
5368 0.2935 2113.00 2262.70 45.97
5369 0.2935 2175.00 2223.29 46.64
5370 0.2936 2178.00 2180.36 46.67
5371 0.2936 2108.00 2156.27 45.91
5372 0.2937 2007.00 2135.34 44.80
5373 0.2937 2055.00 2115.35 45.33
5374 0.2938 2071.00 2095.21 45.51
5375 0.2938 2018.00 2075.02 44.92
5376 0.2939 1979.00 2055.63 44.49
5377 0.2939 1978.00 2037.96 44.47
5378 0.2940 1937.00 2019.54 44.01
5379 0.2940 2081.00 2006.84 45.62
5380 0.2941 1986.00 1996.68 44.56
5381 0.2941 1957.00 1988.94 44.24
5382 0.2942 1957.00 1983.43 44.24
5383 0.2942 2003.00 1980.00 44.75
5384 0.2943 1927.00 1978.56 43.90
5385 0.2943 1973.00 1979.06 44.42
5386 0.2944 2017.00 1981.52 44.91
5387 0.2945 2026.00 1986.04 45.01
5388 0.2945 1974.00 1992.76 44.43
5389 0.2946 2069.00 2001.89 45.49
5390 0.2946 2097.00 2013.73 45.79
5391 0.2947 2064.00 2028.65 45.43
5392 0.2947 2091.00 2047.15 45.73
5393 0.2948 1995.00 2069.83 44.67
5394 0.2948 2161.00 2097.46 46.49
5395 0.2949 2094.00 2130.99 45.76
5396 0.2949 2132.00 2171.62 46.17
5397 0.2950 2134.00 2220.84 46.20
5398 0.2950 2236.00 2280.36 47.29
5399 0.2951 2316.00 2352.30 48.12
5400 0.2951 2400.00 2438.71 48.99
5401 0.2952 2429.00 2541.28 49.28
5402 0.2952 2423.00 2659.91 49.22
5403 0.2953 2538.00 2791.04 50.38
5404 0.2953 2531.00 2924.47 50.31
5405 0.2954 2660.00 3041.13 51.58
5406 0.2954 2633.00 3115.27 51.31
5407 0.2955 2645.00 3123.90 51.43
5408 0.2956 2775.00 3060.85 52.68
5409 0.2956 2644.00 2941.80 51.42
5410 0.2957 2595.00 2794.61 50.94
5411 0.2957 2504.00 2644.92 50.04
5412 0.2958 2432.00 2508.60 49.32
5413 0.2958 2398.00 2392.17 48.97
5414 0.2959 2291.00 2296.06 47.86
5415 0.2959 2156.00 2218.14 46.43
5416 0.2960 2139.00 2155.36 46.25
5417 0.2960 2137.00 2104.76 46.23
5418 0.2961 2153.00 2063.76 46.40
5419 0.2961 2021.00 2030.28 44.96
5420 0.2962 2047.00 2002.68 45.24
5421 0.2962 1960.00 1979.65 44.27
5422 0.2963 1970.00 1960.23 44.38
5423 0.2963 2014.00 1943.65 44.88
5424 0.2964 1925.00 1929.34 43.87
5425 0.2964 1909.00 1916.83 43.69
5426 0.2965 1873.00 1905.81 43.28
5427 0.2965 1913.00 1896.01 43.74
5428 0.2966 1906.00 1887.22 43.66
5429 0.2967 1857.00 1879.28 43.09
5430 0.2967 1919.00 1871.92 43.81
5431 0.2968 1871.00 1865.36 43.26
5432 0.2968 1960.00 1859.34 44.27
5433 0.2969 1893.00 1853.82 43.51
5434 0.2969 1903.00 1841.44 43.62
5435 0.2970 1881.00 1836.94 43.37
5436 0.2970 1854.00 1832.77 43.06
5437 0.2971 1867.00 1828.92 43.21
5438 0.2971 1742.00 1825.33 41.74
5439 0.2972 1775.00 1822.00 42.13
5440 0.2972 1779.00 1818.89 42.18
5441 0.2973 1730.00 1815.99 41.59
5442 0.2973 1758.00 1813.27 41.93
5443 0.2974 1682.00 1810.71 41.01
5444 0.2974 1809.00 1808.30 42.53
5445 0.2975 1785.00 1806.02 42.25
5446 0.2975 1657.00 1803.87 40.71
5447 0.2976 1750.00 1801.83 41.83
5448 0.2976 1800.00 1799.89 42.43
5449 0.2977 1840.00 1798.04 42.90
5450 0.2978 1763.00 1796.28 41.99
5451 0.2978 1810.00 1794.59 42.54
5452 0.2979 1730.00 1792.38 41.59
5453 0.2979 1751.00 1790.84 41.85
5454 0.2980 1794.00 1789.36 42.36
5455 0.2980 1742.00 1787.94 41.74
5456 0.2981 1747.00 1786.57 41.80
5457 0.2981 1701.00 1785.24 41.24
5458 0.2982 1700.00 1783.95 41.23
5459 0.2982 1808.00 1782.71 42.52
5460 0.2983 1712.00 1781.50 41.38
5461 0.2983 1751.00 1780.32 41.85
5462 0.2984 1709.00 1791.53 41.34
5463 0.2984 1772.00 1790.77 42.10
5464 0.2985 1737.00 1790.04 41.68
5465 0.2985 1653.00 1789.35 40.66
5466 0.2986 1830.00 1788.71 42.78
5467 0.2986 1770.00 1788.10 42.07
5468 0.2987 1726.00 1787.53 41.55
5469 0.2987 1769.00 1787.01 42.06
5470 0.2988 1789.00 1786.52 42.30
5471 0.2989 1768.00 1786.07 42.05
5472 0.2989 1719.00 1796.98 41.46
5473 0.2990 1738.00 1796.89 41.69
5474 0.2990 1739.00 1796.84 41.70
5475 0.2991 1724.00 1797.93 41.52
5476 0.2991 1699.00 1798.02 41.22
5477 0.2992 1786.00 1798.16 42.26
5478 0.2992 1749.00 1798.36 41.82
5479 0.2993 1734.00 1789.78 41.64
5480 0.2993 1789.00 1790.35 42.30
5481 0.2994 1684.00 1790.98 41.04
5482 0.2994 1698.00 1791.66 41.21
5483 0.2995 1678.00 1792.42 40.96
5484 0.2995 1676.00 1793.25 40.94
5485 0.2996 1795.00 1794.15 42.37
5486 0.2996 1703.00 1795.13 41.27
5487 0.2997 1734.00 1796.21 41.64
5488 0.2997 1701.00 1797.38 41.24
5489 0.2998 1699.00 1798.65 41.22
5490 0.2998 1771.00 1800.04 42.08
5491 0.2999 1755.00 1801.54 41.89
5492 0.3000 1742.00 1803.18 41.74
5493 0.3000 1726.00 1804.96 41.55
5494 0.3001 1804.00 1806.89 42.47
5495 0.3001 1816.00 1809.00 42.61
5496 0.3002 1827.00 1811.29 42.74
5497 0.3002 1700.00 1813.79 41.23
5498 0.3003 1850.00 1816.52 43.01
5499 0.3003 1730.00 1819.49 41.59
5500 0.3004 1767.00 1822.74 42.04
5501 0.3004 1792.00 1826.30 42.33
5502 0.3005 1773.00 1830.21 42.11
5503 0.3005 1807.00 1834.51 42.51
5504 0.3006 1864.00 1839.25 43.17
5505 0.3006 1738.00 1844.49 41.69
5506 0.3007 1751.00 1850.31 41.85
5507 0.3007 1877.00 1856.79 43.32
5508 0.3008 1817.00 1864.01 42.63
5509 0.3008 1815.00 1872.12 42.60
5510 0.3009 1872.00 1881.25 43.27
5511 0.3009 1849.00 1891.57 43.00
5512 0.3010 1871.00 1903.27 43.26
5513 0.3011 1859.00 1916.59 43.12
5514 0.3011 1881.00 1931.81 43.37
5515 0.3012 1953.00 1949.26 44.19
5516 0.3012 1933.00 1969.32 43.97
5517 0.3013 1872.00 1992.48 43.27
5518 0.3013 1946.00 2019.30 44.11
5519 0.3014 2093.00 2050.44 45.75
5520 0.3014 2016.00 2086.76 44.90
5521 0.3015 2074.00 2129.21 45.54
5522 0.3015 2135.00 2179.05 46.21
5523 0.3016 2238.00 2237.75 47.31
5524 0.3016 2193.00 2307.22 46.83
5525 0.3017 2318.00 2389.64 48.15
5526 0.3017 2232.00 2487.56 47.24
5527 0.3018 2504.00 2603.72 50.04
5528 0.3018 2526.00 2740.56 50.26
5529 0.3019 2622.00 2899.15 51.21
5530 0.3019 2643.00 3077.33 51.41
5531 0.3020 2748.00 3265.99 52.42
5532 0.3020 2864.00 3446.46 53.52
5533 0.3021 2962.00 3589.47 54.42
5534 0.3022 3024.00 3662.64 54.99
5535 0.3022 2871.00 3646.18 53.58
5536 0.3023 2905.00 3546.26 53.90
5537 0.3023 2787.00 3393.00 52.79
5538 0.3024 2795.00 3221.12 52.87
5539 0.3024 2601.00 3059.28 51.00
5540 0.3025 2529.00 2923.10 50.29
5541 0.3025 2376.00 2818.15 48.74
5542 0.3026 2407.00 2744.28 49.06
5543 0.3026 2387.00 2698.92 48.86
5544 0.3027 2254.00 2678.72 47.48
5545 0.3027 2397.00 2680.25 48.96
5546 0.3028 2358.00 2700.17 48.56
5547 0.3028 2450.00 2735.27 49.50
5548 0.3029 2294.00 2782.96 47.90
5549 0.3029 2449.00 2841.75 49.49
5550 0.3030 2446.00 2911.18 49.46
5551 0.3030 2610.00 2990.61 51.09
5552 0.3031 2707.00 3077.34 52.03
5553 0.3031 2727.00 3164.82 52.22
5554 0.3032 2958.00 3242.33 54.39
5555 0.3033 2991.00 3296.11 54.69
5556 0.3033 2986.00 3313.33 54.64
5557 0.3034 2836.00 3287.02 53.25
5558 0.3034 2817.00 3219.28 53.08
5559 0.3035 2580.00 3120.38 50.79
5560 0.3035 2551.00 3004.18 50.51
5561 0.3036 2402.00 2882.89 49.01
5562 0.3036 2263.00 2764.78 47.57
5563 0.3037 2265.00 2653.88 47.59
5564 0.3037 2148.00 2551.50 46.35
5565 0.3038 2121.00 2457.89 46.05
5566 0.3038 2065.00 2373.18 45.44
5567 0.3039 2062.00 2297.54 45.41
5568 0.3039 1935.00 2230.85 43.99
5569 0.3040 1973.00 2172.74 44.42
5570 0.3040 1930.00 2122.60 43.93
5571 0.3041 1888.00 2079.48 43.45
5572 0.3041 1923.00 2042.44 43.85
5573 0.3042 1903.00 2010.56 43.62
5574 0.3042 1798.00 1983.03 42.40
5575 0.3043 1833.00 1962.76 42.81
5576 0.3044 1739.00 1941.96 41.70
5577 0.3044 1745.00 1923.69 41.77
5578 0.3045 1829.00 1907.53 42.77
5579 0.3045 1767.00 1893.16 42.04
5580 0.3046 1721.00 1880.29 41.48
5581 0.3046 1726.00 1868.71 41.55
5582 0.3047 1731.00 1858.23 41.61
5583 0.3047 1825.00 1848.70 42.72
5584 0.3048 1747.00 1840.00 41.80
5585 0.3048 1740.00 1832.21 41.71
5586 0.3049 1729.00 1824.90 41.58
5587 0.3049 1733.00 1818.17 41.63
5588 0.3050 1678.00 1811.96 40.96
5589 0.3050 1748.00 1806.23 41.81
5590 0.3051 1644.00 1800.94 40.55
5591 0.3051 1717.00 1796.05 41.44
5592 0.3052 1759.00 1791.53 41.94
5593 0.3052 1715.00 1787.36 41.41
5594 0.3053 1753.00 1783.52 41.87
5595 0.3053 1683.00 1780.00 41.02
5596 0.3054 1671.00 1776.77 40.88
5597 0.3054 1671.00 1773.83 40.88
5598 0.3055 1714.00 1771.17 41.40
5599 0.3056 1666.00 1768.78 40.82
5600 0.3056 1751.00 1766.66 41.85
5601 0.3057 1665.00 1764.81 40.80
5602 0.3057 1706.00 1763.24 41.30
5603 0.3058 1667.00 1761.94 40.83
5604 0.3058 1661.00 1760.94 40.76
5605 0.3059 1664.00 1760.24 40.79
5606 0.3059 1700.00 1760.83 41.23
5607 0.3060 1719.00 1760.82 41.46
5608 0.3060 1713.00 1749.17 41.39
5609 0.3061 1667.00 1750.27 40.83
5610 0.3061 1665.00 1751.82 40.80
5611 0.3062 1732.00 1753.87 41.62
5612 0.3062 1720.00 1756.48 41.47
5613 0.3063 1845.00 1759.74 42.95
5614 0.3063 1712.00 1763.72 41.38
5615 0.3064 1710.00 1768.52 41.35
5616 0.3064 1785.00 1774.24 42.25
5617 0.3065 1802.00 1780.93 42.45
5618 0.3065 1893.00 1788.66 43.51
5619 0.3066 1841.00 1797.37 42.91
5620 0.3067 2020.00 1806.92 44.94
5621 0.3067 2070.00 1816.99 45.50
5622 0.3068 2018.00 1827.00 44.92
5623 0.3068 2116.00 1836.20 46.00
5624 0.3069 2294.00 1843.60 47.90
5625 0.3069 2397.00 1849.63 48.96
5626 0.3070 2533.00 1849.78 50.33
5627 0.3070 2458.00 1846.61 49.58
5628 0.3071 2305.00 1839.56 48.01
5629 0.3071 2117.00 1829.54 46.01
5630 0.3072 2177.00 1817.83 46.66
5631 0.3072 2086.00 1805.72 45.67
5632 0.3073 1947.00 1794.17 44.12
5633 0.3073 1894.00 1783.78 43.52
5634 0.3074 1901.00 1774.80 43.60
5635 0.3074 1773.00 1767.27 42.11
5636 0.3075 1862.00 1761.13 43.15
5637 0.3075 1744.00 1756.26 41.76
5638 0.3076 1770.00 1752.50 42.07
5639 0.3076 1771.00 1749.74 42.08
5640 0.3077 1734.00 1747.86 41.64
5641 0.3078 1828.00 1746.79 42.76
5642 0.3078 1740.00 1749.34 41.71
5643 0.3079 1728.00 1749.78 41.57
5644 0.3079 1777.00 1750.91 42.15
5645 0.3080 1767.00 1752.72 42.04
5646 0.3080 1766.00 1755.23 42.02
5647 0.3081 1764.00 1749.32 42.00
5648 0.3081 1776.00 1753.53 42.14
5649 0.3082 1818.00 1758.58 42.64
5650 0.3082 1729.00 1764.56 41.58
5651 0.3083 1804.00 1772.71 42.47
5652 0.3083 1817.00 1780.90 42.63
5653 0.3084 1743.00 1789.34 41.75
5654 0.3084 1895.00 1800.35 43.53
5655 0.3085 1761.00 1813.07 41.96
5656 0.3085 1894.00 1827.76 43.52
5657 0.3086 1814.00 1844.72 42.59
5658 0.3086 1921.00 1878.49 43.83
5659 0.3087 1970.00 1901.39 44.38
5660 0.3087 2016.00 1927.67 44.90
5661 0.3088 2187.00 1957.68 46.77
5662 0.3089 2193.00 1991.69 46.83
5663 0.3089 2307.00 2029.58 48.03
5664 0.3090 2484.00 2071.03 49.84
5665 0.3090 2677.00 2114.68 51.74
5666 0.3091 2759.00 2158.25 52.53
5667 0.3091 3169.00 2198.16 56.29
5668 0.3092 3224.00 2229.83 56.78
5669 0.3092 3282.00 2248.53 57.29
5670 0.3093 3122.00 2250.83 55.87
5671 0.3093 2862.00 2235.97 53.50
5672 0.3094 2650.00 2206.31 51.48
5673 0.3094 2450.00 2166.45 49.50
5674 0.3095 2342.00 2121.68 48.39
5675 0.3095 2255.00 2076.56 47.49
5676 0.3096 2082.00 2034.30 45.63
5677 0.3096 2059.00 1996.66 45.38
5678 0.3097 2085.00 1964.38 45.66
5679 0.3097 2036.00 1937.47 45.12
5680 0.3098 1947.00 1915.62 44.12
5681 0.3098 1912.00 1898.37 43.73
5682 0.3099 1884.00 1885.24 43.41
5683 0.3100 1929.00 1875.80 43.92
5684 0.3100 1890.00 1869.69 43.47
5685 0.3101 1837.00 1866.65 42.86
5686 0.3101 1783.00 1866.46 42.23
5687 0.3102 1807.00 1869.01 42.51
5688 0.3102 1852.00 1874.21 43.03
5689 0.3103 1866.00 1881.94 43.20
5690 0.3103 1878.00 1892.03 43.34
5691 0.3104 1889.00 1904.15 43.46
5692 0.3104 1841.00 1917.70 42.91
5693 0.3105 1937.00 1931.76 44.01
5694 0.3105 1922.00 1945.07 43.84
5695 0.3106 2041.00 1956.37 45.18
5696 0.3106 2013.00 1964.77 44.87
5697 0.3107 2080.00 1970.26 45.61
5698 0.3107 1996.00 1973.79 44.68
5699 0.3108 2056.00 1977.00 45.34
5700 0.3108 2091.00 1981.61 45.73
5701 0.3109 2143.00 1989.02 46.29
5702 0.3109 2242.00 1999.92 47.35
5703 0.3110 2310.00 2014.24 48.06
5704 0.3111 2384.00 2030.95 48.83
5705 0.3111 2382.00 2048.10 48.81
5706 0.3112 2493.00 2063.07 49.93
5707 0.3112 2616.00 2073.38 51.15
5708 0.3113 2641.00 2077.85 51.39
5709 0.3113 2565.00 2077.28 50.65
5710 0.3114 2511.00 2074.22 50.11
5711 0.3114 2418.00 2071.88 49.17
5712 0.3115 2373.00 2073.15 48.71
5713 0.3115 2448.00 2080.08 49.48
5714 0.3116 2304.00 2093.99 48.00
5715 0.3116 2366.00 2115.78 48.64
5716 0.3117 2338.00 2146.13 48.35
5717 0.3117 2495.00 2185.71 49.95
5718 0.3118 2417.00 2234.22 49.16
5719 0.3118 2590.00 2295.49 50.89
5720 0.3119 2709.00 2366.50 52.05
5721 0.3119 2725.00 2448.21 52.20
5722 0.3120 2867.00 2539.28 53.54
5723 0.3120 2937.00 2637.20 54.19
5724 0.3121 3082.00 2738.17 55.52
5725 0.3122 3091.00 2838.54 55.60
5726 0.3122 3141.00 2936.68 56.04
5727 0.3123 3187.00 3034.16 56.45
5728 0.3123 3199.00 3135.30 56.56
5729 0.3124 3287.00 3245.15 57.33
5730 0.3124 3325.00 3367.61 57.66
5731 0.3125 3395.00 3502.70 58.27
5732 0.3125 3480.00 3643.57 58.99
5733 0.3126 3650.00 3773.20 60.42
5734 0.3126 3493.00 3864.55 59.10
5735 0.3127 3658.00 3887.74 60.48
5736 0.3127 3453.00 3824.32 58.76
5737 0.3128 3587.00 3678.28 59.89
5738 0.3128 3345.00 3474.83 57.84
5739 0.3129 3364.00 3247.12 58.00
5740 0.3129 2987.00 3023.03 54.65
5741 0.3130 2971.00 2819.41 54.51
5742 0.3130 2784.00 2643.25 52.76
5743 0.3131 2628.00 2495.13 51.26
5744 0.3131 2438.00 2372.52 49.38
5745 0.3132 2312.00 2271.55 48.08
5746 0.3133 2374.00 2188.48 48.72
5747 0.3133 2189.00 2119.91 46.79
5748 0.3134 2215.00 2062.98 47.06
5749 0.3134 2070.00 2015.37 45.50
5750 0.3135 2096.00 1975.20 45.78
5751 0.3135 2015.00 1941.02 44.89
5752 0.3136 1972.00 1911.63 44.41
5753 0.3136 1944.00 1886.14 44.09
5754 0.3137 1888.00 1863.84 43.45
5755 0.3137 1890.00 1844.15 43.47
5756 0.3138 1880.00 1826.64 43.36
5757 0.3138 1918.00 1810.96 43.79
5758 0.3139 1805.00 1796.66 42.49
5759 0.3139 1808.00 1783.87 42.52
5760 0.3140 1737.00 1772.23 41.68
5761 0.3140 1724.00 1761.61 41.52
5762 0.3141 1773.00 1751.89 42.11
5763 0.3141 1754.00 1742.96 41.88
5764 0.3142 1774.00 1734.75 42.12
5765 0.3142 1726.00 1723.58 41.55
5766 0.3143 1699.00 1716.67 41.22
5767 0.3144 1765.00 1710.29 42.01
5768 0.3144 1674.00 1704.39 40.91
5769 0.3145 1690.00 1698.92 41.11
5770 0.3145 1732.00 1693.85 41.62
5771 0.3146 1653.00 1689.15 40.66
5772 0.3146 1679.00 1686.66 40.98
5773 0.3147 1657.00 1682.65 40.71
5774 0.3147 1627.00 1678.92 40.34
5775 0.3148 1672.00 1675.46 40.89
5776 0.3148 1693.00 1672.24 41.15
5777 0.3149 1605.00 1669.25 40.06
5778 0.3149 1683.00 1666.47 41.02
5779 0.3150 1659.00 1663.89 40.73
5780 0.3150 1599.00 1661.50 39.99
5781 0.3151 1637.00 1659.28 40.46
5782 0.3151 1658.00 1657.24 40.72
5783 0.3152 1672.00 1655.36 40.89
5784 0.3152 1626.00 1653.64 40.32
5785 0.3153 1650.00 1658.94 40.62
5786 0.3153 1614.00 1657.67 40.17
5787 0.3154 1611.00 1655.62 40.14
5788 0.3155 1611.00 1654.69 40.14
5789 0.3155 1582.00 1653.92 39.77
5790 0.3156 1614.00 1653.32 40.17
5791 0.3156 1602.00 1651.51 40.03
5792 0.3157 1700.00 1651.30 41.23
5793 0.3157 1628.00 1651.28 40.35
5794 0.3158 1574.00 1651.47 39.67
5795 0.3158 1610.00 1651.88 40.12
5796 0.3159 1582.00 1652.53 39.77
5797 0.3159 1642.00 1653.44 40.52
5798 0.3160 1623.00 1654.65 40.29
5799 0.3160 1657.00 1656.17 40.71
5800 0.3161 1600.00 1658.05 40.00
5801 0.3161 1560.00 1660.33 39.50
5802 0.3162 1568.00 1663.05 39.60
5803 0.3162 1679.00 1666.28 40.98
5804 0.3163 1581.00 1670.09 39.76
5805 0.3163 1639.00 1674.55 40.48
5806 0.3164 1613.00 1681.59 40.16
5807 0.3164 1713.00 1687.67 41.39
5808 0.3165 1656.00 1693.56 40.69
5809 0.3165 1676.00 1698.79 40.94
5810 0.3166 1674.00 1708.08 40.91
5811 0.3167 1695.00 1718.55 41.17
5812 0.3167 1781.00 1730.13 42.20
5813 0.3168 1763.00 1742.64 41.99
5814 0.3168 1885.00 1741.78 43.42
5815 0.3169 1951.00 1754.94 44.17
5816 0.3169 1946.00 1766.85 44.11
5817 0.3170 2107.00 1776.23 45.90
5818 0.3170 2123.00 1781.82 46.08
5819 0.3171 1946.00 1782.72 44.11
5820 0.3171 2045.00 1778.73 45.22
5821 0.3172 1859.00 1770.47 43.12
5822 0.3172 1785.00 1759.18 42.25
5823 0.3173 1768.00 1746.28 42.05
5824 0.3173 1757.00 1733.09 41.92
5825 0.3174 1665.00 1720.57 40.80
5826 0.3174 1730.00 1709.28 41.59
5827 0.3175 1700.00 1699.53 41.23
5828 0.3175 1654.00 1691.41 40.67
5829 0.3176 1662.00 1684.86 40.77
5830 0.3176 1636.00 1679.79 40.45
5831 0.3177 1605.00 1676.25 40.06
5832 0.3178 1604.00 1673.83 40.05
5833 0.3178 1571.00 1672.59 39.64
5834 0.3179 1629.00 1672.48 40.36
5835 0.3179 1652.00 1673.45 40.64
5836 0.3180 1623.00 1675.51 40.29
5837 0.3180 1623.00 1678.68 40.29
5838 0.3181 1652.00 1683.02 40.64
5839 0.3181 1581.00 1688.63 39.76
5840 0.3182 1595.00 1695.65 39.94
5841 0.3182 1646.00 1704.24 40.57
5842 0.3183 1638.00 1714.64 40.47
5843 0.3183 1642.00 1727.10 40.52
5844 0.3184 1550.00 1741.91 39.37
5845 0.3184 1651.00 1759.35 40.63
5846 0.3185 1705.00 1779.65 41.29
5847 0.3185 1704.00 1802.78 41.28
5848 0.3186 1674.00 1828.31 40.91
5849 0.3186 1766.00 1855.00 42.02
5850 0.3187 1725.00 1880.57 41.53
5851 0.3187 1698.00 1901.65 41.21
5852 0.3188 1771.00 1914.52 42.08
5853 0.3189 1696.00 1916.54 41.18
5854 0.3189 1731.00 1907.65 41.61
5855 0.3190 1709.00 1890.45 41.34
5856 0.3190 1768.00 1869.02 42.05
5857 0.3191 1738.00 1847.22 41.69
5858 0.3191 1716.00 1827.73 41.42
5859 0.3192 1688.00 1811.96 41.09
5860 0.3192 1688.00 1800.40 41.09
5861 0.3193 1610.00 1793.03 40.12
5862 0.3193 1657.00 1789.58 40.71
5863 0.3194 1674.00 1789.78 40.91
5864 0.3194 1609.00 1793.37 40.11
5865 0.3195 1673.00 1802.58 40.90
5866 0.3195 1696.00 1812.59 41.18
5867 0.3196 1637.00 1825.76 40.46
5868 0.3196 1761.00 1842.20 41.96
5869 0.3197 1670.00 1862.08 40.87
5870 0.3197 1790.00 1885.74 42.31
5871 0.3198 1845.00 1913.51 42.95
5872 0.3198 1851.00 1945.87 43.02
5873 0.3199 1910.00 1983.33 43.70
5874 0.3200 1984.00 2026.45 44.54
5875 0.3200 2014.00 2075.79 44.88
5876 0.3201 2036.00 2131.76 45.12
5877 0.3201 2151.00 2194.59 46.38
5878 0.3202 2248.00 2263.90 47.41
5879 0.3202 2410.00 2338.51 49.09
5880 0.3203 2549.00 2415.81 50.49
5881 0.3203 2906.00 2491.66 53.91
5882 0.3204 3034.00 2560.16 55.08
5883 0.3204 3414.00 2614.27 58.43
5884 0.3205 3542.00 2647.39 59.51
5885 0.3205 3140.00 2655.30 56.04
5886 0.3206 2991.00 2637.84 54.69
5887 0.3206 2719.00 2599.26 52.14
5888 0.3207 2511.00 2546.65 50.11
5889 0.3207 2300.00 2487.76 47.96
5890 0.3208 2242.00 2428.88 47.35
5891 0.3208 2065.00 2373.77 45.44
5892 0.3209 2095.00 2323.34 45.77
5893 0.3209 2025.00 2276.31 45.00
5894 0.3210 1955.00 2230.13 44.22
5895 0.3211 1893.00 2182.39 43.51
5896 0.3211 1872.00 2132.04 43.27
5897 0.3212 1837.00 2079.81 42.86
5898 0.3212 1725.00 2027.69 41.53
5899 0.3213 1743.00 1977.85 41.75
5900 0.3213 1756.00 1932.00 41.90
5901 0.3214 1730.00 1891.06 41.59
5902 0.3214 1711.00 1855.21 41.36
5903 0.3215 1640.00 1824.24 40.50
5904 0.3215 1676.00 1797.65 40.94
5905 0.3216 1697.00 1774.89 41.19
5906 0.3216 1635.00 1755.38 40.44
5907 0.3217 1616.00 1738.64 40.20
5908 0.3217 1561.00 1724.22 39.51
5909 0.3218 1573.00 1711.78 39.66
5910 0.3218 1621.00 1701.01 40.26
5911 0.3219 1578.00 1691.67 39.72
5912 0.3219 1578.00 1693.42 39.72
5913 0.3220 1560.00 1686.65 39.50
5914 0.3220 1592.00 1680.85 39.90
5915 0.3221 1602.00 1675.95 40.03
5916 0.3222 1604.00 1671.86 40.05
5917 0.3222 1648.00 1668.56 40.60
5918 0.3223 1553.00 1666.01 39.41
5919 0.3223 1555.00 1664.22 39.43
5920 0.3224 1578.00 1662.01 39.72
5921 0.3224 1651.00 1661.80 40.63
5922 0.3225 1589.00 1662.42 39.86
5923 0.3225 1633.00 1663.92 40.41
5924 0.3226 1652.00 1666.36 40.64
5925 0.3226 1677.00 1669.79 40.95
5926 0.3227 1591.00 1674.28 39.89
5927 0.3227 1571.00 1679.88 39.64
5928 0.3228 1648.00 1686.64 40.60
5929 0.3228 1700.00 1694.63 41.23
5930 0.3229 1725.00 1703.94 41.53
5931 0.3229 1764.00 1714.76 42.00
5932 0.3230 1813.00 1727.42 42.58
5933 0.3230 1862.00 1742.37 43.15
5934 0.3231 1949.00 1758.30 44.15
5935 0.3231 2015.00 1779.47 44.89
5936 0.3232 2050.00 1804.29 45.28
5937 0.3233 2267.00 1832.48 47.61
5938 0.3233 2393.00 1862.75 48.92
5939 0.3234 2514.00 1892.27 50.14
5940 0.3234 2664.00 1916.54 51.61
5941 0.3235 2794.00 1930.14 52.86
5942 0.3235 2935.00 1928.88 54.18
5943 0.3236 2637.00 1912.06 51.35
5944 0.3236 2524.00 1883.12 50.24
5945 0.3237 2304.00 1847.73 48.00
5946 0.3237 2152.00 1811.30 46.39
5947 0.3238 1975.00 1777.46 44.44
5948 0.3238 1943.00 1747.94 44.08
5949 0.3239 1756.00 1723.17 41.90
5950 0.3239 1701.00 1702.89 41.24
5951 0.3240 1784.00 1686.48 42.24
5952 0.3240 1742.00 1673.34 41.74
5953 0.3241 1704.00 1662.88 41.28
5954 0.3241 1644.00 1654.62 40.55
5955 0.3242 1747.00 1655.09 41.80
5956 0.3242 1634.00 1650.26 40.42
5957 0.3243 1680.00 1646.69 40.99
5958 0.3244 1629.00 1644.19 40.36
5959 0.3244 1551.00 1642.62 39.38
5960 0.3245 1633.00 1641.90 40.41
5961 0.3245 1650.00 1641.96 40.62
5962 0.3246 1624.00 1642.78 40.30
5963 0.3246 1578.00 1644.35 39.72
5964 0.3247 1589.00 1646.67 39.86
5965 0.3247 1531.00 1649.80 39.13
5966 0.3248 1636.00 1653.78 40.45
5967 0.3248 1551.00 1658.69 39.38
5968 0.3249 1588.00 1664.64 39.85
5969 0.3249 1552.00 1671.73 39.40
5970 0.3250 1652.00 1680.12 40.64
5971 0.3250 1597.00 1689.99 39.96
5972 0.3251 1624.00 1701.53 40.30
5973 0.3251 1584.00 1715.02 39.80
5974 0.3252 1626.00 1730.75 40.32
5975 0.3252 1641.00 1749.05 40.51
5976 0.3253 1621.00 1770.37 40.26
5977 0.3253 1658.00 1795.20 40.72
5978 0.3254 1631.00 1824.16 40.39
5979 0.3255 1626.00 1857.97 40.32
5980 0.3255 1636.00 1897.53 40.45
5981 0.3256 1751.00 1943.89 41.85
5982 0.3256 1850.00 1999.29 43.01
5983 0.3257 1774.00 2063.16 42.12
5984 0.3257 1827.00 2137.97 42.74
5985 0.3258 1839.00 2223.36 42.88
5986 0.3258 1926.00 2317.11 43.89
5987 0.3259 1869.00 2430.70 43.23
5988 0.3259 1966.00 2554.46 44.34
5989 0.3260 2100.00 2681.50 45.83
5990 0.3260 2144.00 2799.46 46.30
5991 0.3261 2199.00 2890.79 46.89
5992 0.3261 2258.00 2936.75 47.52
5993 0.3262 2315.00 2924.90 48.11
5994 0.3262 2210.00 2855.89 47.01
5995 0.3263 2207.00 2743.53 46.98
5996 0.3263 2040.00 2608.26 45.17
5997 0.3264 1948.00 2468.85 44.14
5998 0.3264 1891.00 2338.27 43.49
5999 0.3265 1862.00 2222.86 43.15
6000 0.3266 1777.00 2124.47 42.15
6001 0.3266 1680.00 2042.40 40.99
6002 0.3267 1748.00 1974.63 41.81
6003 0.3267 1699.00 1919.01 41.22
6004 0.3268 1709.00 1873.41 41.34
6005 0.3268 1681.00 1835.98 41.00
6006 0.3269 1641.00 1805.17 40.51
6007 0.3269 1626.00 1779.73 40.32
6008 0.3270 1628.00 1758.67 40.35
6009 0.3270 1687.00 1741.17 41.07
6010 0.3271 1672.00 1726.63 40.89
6011 0.3271 1703.00 1714.55 41.27
6012 0.3272 1616.00 1704.57 40.20
6013 0.3272 1631.00 1696.41 40.39
6014 0.3273 1606.00 1689.85 40.07
6015 0.3273 1636.00 1684.73 40.45
6016 0.3274 1648.00 1680.96 40.60
6017 0.3274 1664.00 1678.47 40.79
6018 0.3275 1705.00 1677.23 41.29
6019 0.3275 1641.00 1677.24 40.51
6020 0.3276 1648.00 1676.20 40.60
6021 0.3277 1652.00 1678.88 40.64
6022 0.3277 1683.00 1682.96 41.02
6023 0.3278 1657.00 1688.56 40.71
6024 0.3278 1687.00 1695.82 41.07
6025 0.3279 1774.00 1704.90 42.12
6026 0.3279 1779.00 1716.02 42.18
6027 0.3280 1794.00 1729.43 42.36
6028 0.3280 1828.00 1745.43 42.76
6029 0.3281 1881.00 1764.39 43.37
6030 0.3281 1878.00 1786.74 43.34
6031 0.3282 1927.00 1813.02 43.90
6032 0.3282 1914.00 1843.83 43.75
6033 0.3283 1953.00 1879.74 44.19
6034 0.3283 2031.00 1928.89 45.07
6035 0.3284 2078.00 1977.91 45.59
6036 0.3284 2162.00 2034.45 46.50
6037 0.3285 2119.00 2101.11 46.03
6038 0.3285 2164.00 2173.28 46.52
6039 0.3286 2313.00 2251.73 48.09
6040 0.3286 2386.00 2333.06 48.85
6041 0.3287 2372.00 2411.30 48.70
6042 0.3287 2420.00 2481.99 49.19
6043 0.3288 2395.00 2526.52 48.94
6044 0.3289 2464.00 2540.15 49.64
6045 0.3289 2422.00 2518.96 49.21
6046 0.3290 2326.00 2465.84 48.23
6047 0.3290 2349.00 2389.65 48.47
6048 0.3291 2302.00 2301.51 47.98
6049 0.3291 2112.00 2211.35 45.96
6050 0.3292 2094.00 2126.08 45.76
6051 0.3292 2068.00 2049.48 45.48
6052 0.3293 2030.00 1982.95 45.06
6053 0.3293 1965.00 1926.43 44.33
6054 0.3294 1877.00 1879.01 43.32
6055 0.3294 1958.00 1839.59 44.25
6056 0.3295 1748.00 1807.02 41.81
6057 0.3295 1855.00 1780.23 43.07
6058 0.3296 1805.00 1758.30 42.49
6059 0.3296 1719.00 1740.48 41.46
6060 0.3297 1731.00 1726.15 41.61
6061 0.3297 1721.00 1714.82 41.48
6062 0.3298 1660.00 1706.11 40.74
6063 0.3298 1699.00 1699.75 41.22
6064 0.3299 1670.00 1695.55 40.87
6065 0.3300 1615.00 1693.36 40.19
6066 0.3300 1729.00 1693.10 41.58
6067 0.3301 1644.00 1694.70 40.55
6068 0.3301 1690.00 1698.12 41.11
6069 0.3302 1699.00 1703.23 41.22
6070 0.3302 1721.00 1709.80 41.48
6071 0.3303 1646.00 1717.41 40.57
6072 0.3303 1596.00 1725.33 39.95
6073 0.3304 1654.00 1732.53 40.67
6074 0.3304 1660.00 1737.72 40.74
6075 0.3305 1679.00 1730.18 40.98
6076 0.3305 1661.00 1728.24 40.76
6077 0.3306 1626.00 1722.14 40.32
6078 0.3306 1581.00 1712.66 39.76
6079 0.3307 1659.00 1701.08 40.73
6080 0.3307 1656.00 1688.80 40.69
6081 0.3308 1631.00 1676.96 40.39
6082 0.3308 1595.00 1666.32 39.94
6083 0.3309 1635.00 1657.28 40.44
6084 0.3309 1588.00 1649.99 39.85
6085 0.3310 1593.00 1644.44 39.91
6086 0.3311 1618.00 1640.57 40.22
6087 0.3311 1672.00 1638.28 40.89
6088 0.3312 1641.00 1637.47 40.51
6089 0.3312 1634.00 1638.08 40.42
6090 0.3313 1662.00 1640.07 40.77
6091 0.3313 1677.00 1643.44 40.95
6092 0.3314 1675.00 1648.22 40.93
6093 0.3314 1664.00 1654.64 40.79
6094 0.3315 1675.00 1662.48 40.93
6095 0.3315 1740.00 1672.05 41.71
6096 0.3316 1736.00 1683.53 41.67
6097 0.3316 1744.00 1697.16 41.76
6098 0.3317 1721.00 1713.25 41.48
6099 0.3317 1710.00 1732.16 41.35
6100 0.3318 1842.00 1754.33 42.92
6101 0.3318 1820.00 1780.32 42.66
6102 0.3319 1804.00 1810.77 42.47
6103 0.3319 1838.00 1846.45 42.87
6104 0.3320 1890.00 1888.24 43.47
6105 0.3320 1901.00 1937.17 43.60
6106 0.3321 1985.00 1994.23 44.55
6107 0.3322 2008.00 2060.20 44.81
6108 0.3322 2061.00 2135.32 45.40
6109 0.3323 2033.00 2218.56 45.09
6110 0.3323 2174.00 2306.78 46.63
6111 0.3324 2206.00 2393.62 46.97
6112 0.3324 2303.00 2470.03 47.99
6113 0.3325 2296.00 2525.93 47.92
6114 0.3325 2400.00 2554.70 48.99
6115 0.3326 2467.00 2557.09 49.67
6116 0.3326 2459.00 2541.28 49.59
6117 0.3327 2443.00 2518.87 49.43
6118 0.3327 2521.00 2499.80 50.21
6119 0.3328 2608.00 2489.66 51.07
6120 0.3328 2425.00 2489.32 49.24
6121 0.3329 2600.00 2495.90 50.99
6122 0.3329 2562.00 2504.33 50.62
6123 0.3330 2625.00 2509.32 51.23
6124 0.3330 2600.00 2507.45 50.99
6125 0.3331 2524.00 2498.48 50.24
6126 0.3331 2489.00 2485.07 49.89
6127 0.3332 2373.00 2470.92 48.71
6128 0.3333 2561.00 2458.65 50.61
6129 0.3333 2515.00 2448.21 50.15
6130 0.3334 2671.00 2436.53 51.68
6131 0.3334 2565.00 2418.42 50.65
6132 0.3335 2570.00 2388.49 50.70
6133 0.3335 2421.00 2343.62 49.20
6134 0.3336 2495.00 2295.13 49.95
6135 0.3336 2241.00 2219.08 47.34
6136 0.3337 2133.00 2145.40 46.18
6137 0.3337 2109.00 2072.62 45.92
6138 0.3338 2067.00 2004.58 45.46
6139 0.3338 2046.00 1943.39 45.23
6140 0.3339 1806.00 1889.70 42.50
6141 0.3339 1912.00 1843.42 43.73
6142 0.3340 1759.00 1803.74 41.94
6143 0.3340 1816.00 1769.91 42.61
6144 0.3341 1758.00 1741.05 41.93
6145 0.3341 1787.00 1716.39 42.27
6146 0.3342 1640.00 1695.23 40.50
6147 0.3342 1667.00 1676.99 40.83
6148 0.3343 1668.00 1661.19 40.84
6149 0.3344 1620.00 1647.41 40.25
6150 0.3344 1637.00 1635.33 40.46
6151 0.3345 1590.00 1625.28 39.87
6152 0.3345 1612.00 1615.87 40.15
6153 0.3346 1501.00 1607.51 38.74
6154 0.3346 1558.00 1600.03 39.47
6155 0.3347 1574.00 1593.35 39.67
6156 0.3347 1564.00 1587.34 39.55
6157 0.3348 1543.00 1581.94 39.28
6158 0.3348 1541.00 1577.08 39.26
6159 0.3349 1570.00 1572.72 39.62
6160 0.3349 1524.00 1568.82 39.04
6161 0.3350 1549.00 1565.33 39.36
6162 0.3350 1567.00 1562.26 39.59
6163 0.3351 1565.00 1559.56 39.56
6164 0.3351 1536.00 1557.24 39.19
6165 0.3352 1470.00 1555.30 38.34
6166 0.3352 1547.00 1553.72 39.33
6167 0.3353 1474.00 1552.53 38.39
6168 0.3353 1458.00 1551.88 38.18
6169 0.3354 1479.00 1551.47 38.46
6170 0.3355 1498.00 1551.47 38.70
6171 0.3355 1494.00 1550.94 38.65
6172 0.3356 1556.00 1551.69 39.45
6173 0.3356 1461.00 1552.66 38.22
6174 0.3357 1509.00 1553.68 38.85
6175 0.3357 1494.00 1554.48 38.65
6176 0.3358 1596.00 1557.71 39.95
6177 0.3358 1572.00 1557.31 39.65
6178 0.3359 1524.00 1556.11 39.04
6179 0.3359 1506.00 1558.36 38.81
6180 0.3360 1582.00 1556.31 39.77
6181 0.3360 1460.00 1554.26 38.21
6182 0.3361 1498.00 1552.43 38.70
6183 0.3361 1515.00 1550.97 38.92
6184 0.3362 1481.00 1549.93 38.48
6185 0.3362 1386.00 1549.93 37.23
6186 0.3363 1488.00 1549.76 38.57
6187 0.3363 1442.00 1549.99 37.97
6188 0.3364 1503.00 1550.58 38.77
6189 0.3364 1540.00 1552.59 39.24
6190 0.3365 1538.00 1553.88 39.22
6191 0.3366 1532.00 1555.50 39.14
6192 0.3366 1460.00 1557.44 38.21
6193 0.3367 1530.00 1559.72 39.12
6194 0.3367 1473.00 1557.35 38.38
6195 0.3368 1480.00 1560.46 38.47
6196 0.3368 1543.00 1563.94 39.28
6197 0.3369 1603.00 1567.84 40.04
6198 0.3369 1501.00 1572.19 38.74
6199 0.3370 1589.00 1577.04 39.86
6200 0.3370 1521.00 1582.42 39.00
6201 0.3371 1500.00 1588.41 38.73
6202 0.3371 1574.00 1595.07 39.67
6203 0.3372 1555.00 1602.48 39.43
6204 0.3372 1651.00 1610.73 40.63
6205 0.3373 1565.00 1619.89 39.56
6206 0.3373 1673.00 1630.09 40.90
6207 0.3374 1587.00 1641.42 39.84
6208 0.3374 1608.00 1654.01 40.10
6209 0.3375 1635.00 1667.98 40.44
6210 0.3375 1626.00 1683.47 40.32
6211 0.3376 1707.00 1700.63 41.32
6212 0.3377 1679.00 1717.57 40.98
6213 0.3377 1756.00 1738.78 41.90
6214 0.3378 1622.00 1762.44 40.27
6215 0.3378 1725.00 1788.98 41.53
6216 0.3379 1688.00 1818.87 41.09
6217 0.3379 1769.00 1852.69 42.06
6218 0.3380 1827.00 1891.06 42.74
6219 0.3380 1817.00 1934.70 42.63
6220 0.3381 1842.00 1984.38 42.92
6221 0.3381 1868.00 2040.99 43.22
6222 0.3382 2049.00 2105.39 45.27
6223 0.3382 2003.00 2178.60 44.75
6224 0.3383 2102.00 2257.27 45.85
6225 0.3383 2221.00 2350.34 47.13
6226 0.3384 2340.00 2453.51 48.37
6227 0.3384 2625.00 2564.13 51.23
6228 0.3385 2843.00 2682.44 53.32
6229 0.3385 3149.00 2801.56 56.12
6230 0.3386 3543.00 2913.53 59.52
6231 0.3386 3960.00 3007.61 62.93
6232 0.3387 4466.00 3072.18 66.83
6233 0.3388 4480.00 3097.61 66.93
6234 0.3388 4199.00 3080.35 64.80
6235 0.3389 3854.00 3021.92 62.08
6236 0.3389 3284.00 2932.59 57.31
6237 0.3390 2990.00 2824.71 54.68
6238 0.3390 2694.00 2710.93 51.90
6239 0.3391 2527.00 2601.02 50.27
6240 0.3391 2367.00 2501.39 48.65
6241 0.3392 2362.00 2415.39 48.60
6242 0.3392 2151.00 2349.02 46.38
6243 0.3393 2180.00 2292.11 46.69
6244 0.3393 2116.00 2248.26 46.00
6245 0.3394 2135.00 2215.82 46.21
6246 0.3394 2068.00 2193.28 45.48
6247 0.3395 2066.00 2179.56 45.45
6248 0.3395 2173.00 2174.20 46.62
6249 0.3396 2097.00 2177.39 45.79
6250 0.3396 2031.00 2189.78 45.07
6251 0.3397 2101.00 2212.16 45.84
6252 0.3397 2155.00 2245.39 46.42
6253 0.3398 2146.00 2290.10 46.32
6254 0.3399 2236.00 2346.38 47.29
6255 0.3399 2169.00 2413.09 46.57
6256 0.3400 2444.00 2486.77 49.44
6257 0.3400 2358.00 2560.48 48.56
6258 0.3401 2290.00 2623.36 47.85
6259 0.3401 2383.00 2662.23 48.82
6260 0.3402 2352.00 2665.51 48.50
6261 0.3402 2401.00 2628.68 49.00
6262 0.3403 2272.00 2556.84 47.67
6263 0.3403 2246.00 2462.84 47.39
6264 0.3404 2158.00 2360.77 46.45
6265 0.3404 2067.00 2261.98 45.46
6266 0.3405 2037.00 2173.32 45.13
6267 0.3405 2019.00 2097.50 44.93
6268 0.3406 1912.00 2034.69 43.73
6269 0.3406 1966.00 1983.47 44.34
6270 0.3407 1952.00 1941.64 44.18
6271 0.3407 1797.00 1906.75 42.39
6272 0.3408 1877.00 1876.49 43.32
6273 0.3408 1771.00 1849.14 42.08
6274 0.3409 1790.00 1823.76 42.31
6275 0.3409 1661.00 1800.25 40.76
6276 0.3410 1713.00 1779.01 41.39
6277 0.3411 1688.00 1760.51 41.09
6278 0.3411 1740.00 1745.12 41.71
6279 0.3412 1731.00 1732.96 41.61
6280 0.3412 1666.00 1724.02 40.82
6281 0.3413 1697.00 1718.12 41.19
6282 0.3413 1721.00 1715.03 41.48
6283 0.3414 1677.00 1714.40 40.95
6284 0.3414 1572.00 1715.76 39.65
6285 0.3415 1693.00 1718.42 41.15
6286 0.3415 1638.00 1721.46 40.47
6287 0.3416 1669.00 1723.73 40.85
6288 0.3416 1683.00 1727.35 41.02
6289 0.3417 1641.00 1724.51 40.51
6290 0.3417 1569.00 1717.90 39.61
6291 0.3418 1575.00 1707.63 39.69
6292 0.3418 1558.00 1694.45 39.47
6293 0.3419 1600.00 1679.52 40.00
6294 0.3419 1566.00 1664.03 39.57
6295 0.3420 1588.00 1648.98 39.85
6296 0.3420 1558.00 1635.04 39.47
6297 0.3421 1599.00 1622.58 39.99
6298 0.3422 1609.00 1611.73 40.11
6299 0.3422 1613.00 1602.50 40.16
6300 0.3423 1614.00 1594.80 40.17
6301 0.3423 1581.00 1588.52 39.76
6302 0.3424 1600.00 1583.54 40.00
6303 0.3424 1668.00 1579.74 40.84
6304 0.3425 1520.00 1577.04 38.99
6305 0.3425 1587.00 1575.36 39.84
6306 0.3426 1561.00 1580.38 39.51
6307 0.3426 1615.00 1580.78 40.19
6308 0.3427 1526.00 1582.15 39.06
6309 0.3427 1610.00 1584.51 40.12
6310 0.3428 1549.00 1587.91 39.36
6311 0.3428 1614.00 1592.41 40.17
6312 0.3429 1589.00 1598.11 39.86
6313 0.3429 1654.00 1605.12 40.67
6314 0.3430 1646.00 1613.56 40.57
6315 0.3430 1621.00 1623.55 40.26
6316 0.3431 1725.00 1635.19 41.53
6317 0.3431 1620.00 1648.47 40.25
6318 0.3432 1674.00 1663.41 40.91
6319 0.3433 1713.00 1679.67 41.39
6320 0.3433 1684.00 1696.71 41.04
6321 0.3434 1767.00 1713.72 42.04
6322 0.3434 1779.00 1731.92 42.18
6323 0.3435 1702.00 1746.58 41.26
6324 0.3435 1774.00 1759.77 42.12
6325 0.3436 1819.00 1772.27 42.65
6326 0.3436 1794.00 1785.48 42.36
6327 0.3437 1875.00 1800.94 43.30
6328 0.3437 1818.00 1820.07 42.64
6329 0.3438 1855.00 1843.93 43.07
6330 0.3438 1846.00 1873.27 42.97
6331 0.3439 1913.00 1908.41 43.74
6332 0.3439 1979.00 1949.32 44.49
6333 0.3440 2098.00 1995.41 45.80
6334 0.3440 2113.00 2034.68 45.97
6335 0.3441 2206.00 2085.66 46.97
6336 0.3441 2247.00 2133.54 47.40
6337 0.3442 2366.00 2172.76 48.64
6338 0.3442 2366.00 2197.78 48.64
6339 0.3443 2315.00 2203.69 48.11
6340 0.3444 2288.00 2188.54 47.83
6341 0.3444 2119.00 2154.02 46.03
6342 0.3445 2142.00 2104.92 46.28
6343 0.3445 1914.00 2042.96 43.75
6344 0.3446 2015.00 1983.14 44.89
6345 0.3446 1887.00 1922.37 43.44
6346 0.3447 1879.00 1869.24 43.35
6347 0.3447 1841.00 1822.05 42.91
6348 0.3448 1740.00 1781.18 41.71
6349 0.3448 1777.00 1746.32 42.15
6350 0.3449 1684.00 1716.91 41.04
6351 0.3449 1779.00 1692.29 42.18
6352 0.3450 1707.00 1671.80 41.32
6353 0.3450 1711.00 1654.85 41.36
6354 0.3451 1692.00 1640.93 41.13
6355 0.3451 1769.00 1629.58 42.06
6356 0.3452 1746.00 1620.44 41.79
6357 0.3452 1666.00 1613.23 40.82
6358 0.3453 1730.00 1607.72 41.59
6359 0.3453 1674.00 1603.72 40.91
6360 0.3454 1686.00 1601.09 41.06
6361 0.3455 1692.00 1599.16 41.13
6362 0.3455 1733.00 1600.30 41.63
6363 0.3456 1698.00 1601.40 41.21
6364 0.3456 1757.00 1603.68 41.92
6365 0.3457 1754.00 1607.17 41.88
6366 0.3457 1725.00 1611.90 41.53
6367 0.3458 1663.00 1617.95 40.78
6368 0.3458 1720.00 1625.42 41.47
6369 0.3459 1704.00 1634.42 41.28
6370 0.3459 1746.00 1645.11 41.79
6371 0.3460 1824.00 1657.68 42.71
6372 0.3460 1791.00 1672.34 42.32
6373 0.3461 1869.00 1689.35 43.23
6374 0.3461 1852.00 1709.00 43.03
6375 0.3462 1889.00 1731.66 43.46
6376 0.3462 1867.00 1757.68 43.21
6377 0.3463 1938.00 1787.54 44.02
6378 0.3463 1864.00 1821.68 43.17
6379 0.3464 1979.00 1860.56 44.49
6380 0.3464 2015.00 1904.51 44.89
6381 0.3465 1985.00 1953.75 44.55
6382 0.3466 2064.00 2008.16 45.43
6383 0.3466 2033.00 2067.03 45.09
6384 0.3467 2114.00 2129.02 45.98
6385 0.3467 2175.00 2191.79 46.64
6386 0.3468 2099.00 2252.22 45.81
6387 0.3468 2284.00 2306.83 47.79
6388 0.3469 2147.00 2352.55 46.34
6389 0.3469 2297.00 2387.49 47.93
6390 0.3470 2302.00 2411.34 47.98
6391 0.3470 2205.00 2423.98 46.96
6392 0.3471 2371.00 2429.13 48.69
6393 0.3471 2333.00 2427.11 48.30
6394 0.3472 2223.00 2418.53 47.15
6395 0.3472 2167.00 2402.85 46.55
6396 0.3473 2235.00 2378.60 47.28
6397 0.3473 2148.00 2344.28 46.35
6398 0.3474 2185.00 2299.79 46.74
6399 0.3474 2113.00 2246.55 45.97
6400 0.3475 2154.00 2188.04 46.41
6401 0.3475 2047.00 2128.32 45.24
6402 0.3476 2046.00 2071.12 45.23
6403 0.3477 1999.00 2019.28 44.71
6404 0.3477 2023.00 1974.40 44.98
6405 0.3478 1975.00 1937.21 44.44
6406 0.3478 1959.00 1907.66 44.26
6407 0.3479 1977.00 1885.30 44.46
6408 0.3479 1842.00 1869.34 42.92
6409 0.3480 1935.00 1858.76 43.99
6410 0.3480 1803.00 1852.43 42.46
6411 0.3481 1797.00 1849.20 42.39
6412 0.3481 1754.00 1855.24 41.88
6413 0.3482 1786.00 1854.41 42.26
6414 0.3482 1777.00 1854.02 42.15
6415 0.3483 1804.00 1851.85 42.47
6416 0.3483 1705.00 1846.18 41.29
6417 0.3484 1716.00 1835.54 41.42
6418 0.3484 1745.00 1819.26 41.77
6419 0.3485 1625.00 1797.77 40.31
6420 0.3485 1683.00 1772.55 41.02
6421 0.3486 1714.00 1745.49 41.40
6422 0.3486 1678.00 1718.44 40.96
6423 0.3487 1655.00 1692.80 40.68
6424 0.3488 1633.00 1669.39 40.41
6425 0.3488 1691.00 1648.61 41.12
6426 0.3489 1638.00 1630.49 40.47
6427 0.3489 1709.00 1614.93 41.34
6428 0.3490 1584.00 1601.69 39.80
6429 0.3490 1651.00 1590.52 40.63
6430 0.3491 1601.00 1581.19 40.01
6431 0.3491 1656.00 1573.49 40.69
6432 0.3492 1661.00 1567.25 40.76
6433 0.3492 1582.00 1562.33 39.77
6434 0.3493 1578.00 1558.63 39.72
6435 0.3493 1643.00 1556.08 40.53
6436 0.3494 1572.00 1554.64 39.65
6437 0.3494 1582.00 1549.41 39.77
6438 0.3495 1611.00 1550.28 40.14
6439 0.3495 1658.00 1552.32 40.72
6440 0.3496 1646.00 1557.79 40.57
6441 0.3496 1639.00 1562.44 40.48
6442 0.3497 1667.00 1568.52 40.83
6443 0.3497 1524.00 1576.15 39.04
6444 0.3498 1674.00 1585.38 40.91
6445 0.3499 1600.00 1596.18 40.00
6446 0.3499 1763.00 1608.33 41.99
6447 0.3500 1639.00 1621.30 40.48
6448 0.3500 1740.00 1634.13 41.71
6449 0.3501 1726.00 1645.38 41.55
6450 0.3501 1680.00 1653.23 40.99
6451 0.3502 1726.00 1656.02 41.55
6452 0.3502 1650.00 1652.76 40.62
6453 0.3503 1751.00 1643.68 41.85
6454 0.3503 1726.00 1630.12 41.55
6455 0.3504 1719.00 1614.01 41.46
6456 0.3504 1634.00 1597.22 40.42
6457 0.3505 1649.00 1581.12 40.61
6458 0.3505 1608.00 1566.51 40.10
6459 0.3506 1597.00 1553.74 39.96
6460 0.3506 1634.00 1542.99 40.42
6461 0.3507 1625.00 1533.83 40.31
6462 0.3507 1591.00 1526.21 39.89
6463 0.3508 1621.00 1519.93 40.26
6464 0.3508 1635.00 1514.79 40.44
6465 0.3509 1532.00 1510.60 39.14
6466 0.3510 1632.00 1507.22 40.40
6467 0.3510 1524.00 1504.54 39.04
6468 0.3511 1583.00 1507.42 39.79
6469 0.3511 1582.00 1505.94 39.77
6470 0.3512 1556.00 1504.90 39.45
6471 0.3512 1584.00 1504.28 39.80
6472 0.3513 1552.00 1504.02 39.40
6473 0.3513 1574.00 1504.12 39.67
6474 0.3514 1542.00 1504.54 39.27
6475 0.3514 1599.00 1505.29 39.99
6476 0.3515 1615.00 1506.35 40.19
6477 0.3515 1581.00 1507.74 39.76
6478 0.3516 1606.00 1509.47 40.07
6479 0.3516 1592.00 1510.63 39.90
6480 0.3517 1560.00 1513.10 39.50
6481 0.3517 1635.00 1515.97 40.44
6482 0.3518 1541.00 1519.26 39.26
6483 0.3518 1659.00 1526.55 40.73
6484 0.3519 1613.00 1530.89 40.16
6485 0.3519 1692.00 1535.78 41.13
6486 0.3520 1649.00 1541.25 40.61
6487 0.3520 1612.00 1547.34 40.15
6488 0.3521 1635.00 1554.06 40.44
6489 0.3522 1625.00 1561.41 40.31
6490 0.3522 1592.00 1566.04 39.90
6491 0.3523 1569.00 1574.59 39.61
6492 0.3523 1712.00 1583.67 41.38
6493 0.3524 1728.00 1593.31 41.57
6494 0.3524 1683.00 1603.65 41.02
6495 0.3525 1644.00 1614.91 40.55
6496 0.3525 1691.00 1627.40 41.12
6497 0.3526 1712.00 1641.42 41.38
6498 0.3526 1738.00 1657.32 41.69
6499 0.3527 1731.00 1671.55 41.61
6500 0.3527 1746.00 1692.16 41.79
6501 0.3528 1805.00 1715.25 42.49
6502 0.3528 1798.00 1741.88 42.40
6503 0.3529 1809.00 1772.09 42.53
6504 0.3529 1829.00 1806.35 42.77
6505 0.3530 1946.00 1853.09 44.11
6506 0.3530 1899.00 1897.07 43.58
6507 0.3531 1916.00 1946.57 43.77
6508 0.3531 1991.00 2001.94 44.62
6509 0.3532 2076.00 2063.40 45.56
6510 0.3533 2145.00 2130.64 46.31
6511 0.3533 2255.00 2202.70 47.49
6512 0.3534 2498.00 2277.58 49.98
6513 0.3534 2578.00 2351.91 50.77
6514 0.3535 2814.00 2420.82 53.05
6515 0.3535 2874.00 2478.16 53.61
6516 0.3536 3183.00 2515.75 56.42
6517 0.3536 3067.00 2531.57 55.38
6518 0.3537 2998.00 2521.38 54.75
6519 0.3537 2767.00 2486.44 52.60
6520 0.3538 2643.00 2431.55 51.41
6521 0.3538 2473.00 2363.52 49.73
6522 0.3539 2294.00 2289.58 47.90
6523 0.3539 2365.00 2215.79 48.63
6524 0.3540 2137.00 2146.36 46.23
6525 0.3540 2159.00 2083.95 46.47
6526 0.3541 2016.00 2029.80 44.90
6527 0.3541 1990.00 1984.24 44.61
6528 0.3542 2023.00 1947.05 44.98
6529 0.3542 2017.00 1918.91 44.91
6530 0.3543 1957.00 1896.95 44.24
6531 0.3544 2008.00 1881.72 44.81
6532 0.3544 1996.00 1872.70 44.68
6533 0.3545 1933.00 1869.42 43.97
6534 0.3545 1977.00 1871.42 44.46
6535 0.3546 1951.00 1878.19 44.17
6536 0.3546 1961.00 1889.06 44.28
6537 0.3547 1985.00 1904.61 44.55
6538 0.3547 1928.00 1920.46 43.91
6539 0.3548 1938.00 1936.27 44.02
6540 0.3548 2087.00 1949.80 45.68
6541 0.3549 2122.00 1958.71 46.07
6542 0.3549 2076.00 1959.93 45.56
6543 0.3550 2055.00 1955.17 45.33
6544 0.3550 2130.00 1943.78 46.15
6545 0.3551 2013.00 1927.58 44.87
6546 0.3551 1990.00 1909.00 44.61
6547 0.3552 2021.00 1890.46 44.96
6548 0.3552 1998.00 1873.99 44.70
6549 0.3553 2024.00 1860.95 44.99
6550 0.3553 1972.00 1852.20 44.41
6551 0.3554 2062.00 1848.19 45.41
6552 0.3555 2021.00 1849.14 44.96
6553 0.3555 2055.00 1855.14 45.33
6554 0.3556 2012.00 1866.24 44.86
6555 0.3556 2031.00 1882.46 45.07
6556 0.3557 2067.00 1903.86 45.46
6557 0.3557 2074.00 1930.47 45.54
6558 0.3558 2078.00 1962.31 45.59
6559 0.3558 2152.00 1999.34 46.39
6560 0.3559 2150.00 2041.36 46.37
6561 0.3559 2203.00 2087.94 46.94
6562 0.3560 2263.00 2137.98 47.57
6563 0.3560 2330.00 2189.52 48.27
6564 0.3561 2314.00 2239.40 48.10
6565 0.3561 2364.00 2283.33 48.62
6566 0.3562 2471.00 2316.44 49.71
6567 0.3562 2386.00 2334.40 48.85
6568 0.3563 2405.00 2334.85 49.04
6569 0.3563 2325.00 2318.28 48.22
6570 0.3564 2411.00 2288.02 49.10
6571 0.3564 2267.00 2249.27 47.61
6572 0.3565 2354.00 2207.55 48.52
6573 0.3566 2305.00 2167.67 48.01
6574 0.3566 2248.00 2133.11 47.41
6575 0.3567 2301.00 2106.06 47.97
6576 0.3567 2256.00 2087.59 47.50
6577 0.3568 2183.00 2080.22 46.72
6578 0.3568 2220.00 2079.62 47.12
6579 0.3569 2306.00 2087.39 48.02
6580 0.3569 2119.00 2102.67 46.03
6581 0.3570 2277.00 2124.16 47.72
6582 0.3570 2258.00 2149.94 47.52
6583 0.3571 2362.00 2177.43 48.60
6584 0.3571 2301.00 2203.29 47.97
6585 0.3572 2323.00 2223.87 48.20
6586 0.3572 2312.00 2235.88 48.08
6587 0.3573 2311.00 2237.34 48.07
6588 0.3573 2332.00 2228.18 48.29
6589 0.3574 2206.00 2210.69 46.97
6590 0.3574 2272.00 2188.29 47.67
6591 0.3575 2170.00 2164.92 46.58
6592 0.3575 2169.00 2144.14 46.57
6593 0.3576 2211.00 2128.68 47.02
6594 0.3577 2186.00 2120.38 46.75
6595 0.3577 2158.00 2120.41 46.45
6596 0.3578 2147.00 2129.43 46.34
6597 0.3578 2217.00 2147.83 47.08
6598 0.3579 2160.00 2175.87 46.48
6599 0.3579 2194.00 2213.69 46.84
6600 0.3580 2223.00 2261.21 47.15
6601 0.3580 2182.00 2318.04 46.71
6602 0.3581 2314.00 2383.19 48.10
6603 0.3581 2264.00 2454.67 47.58
6604 0.3582 2311.00 2529.06 48.07
6605 0.3582 2385.00 2601.34 48.84
6606 0.3583 2384.00 2664.69 48.83
6607 0.3583 2318.00 2711.36 48.15
6608 0.3584 2421.00 2734.22 49.20
6609 0.3584 2271.00 2728.84 47.65
6610 0.3585 2313.00 2696.41 48.09
6611 0.3585 2380.00 2638.64 48.79
6612 0.3586 2244.00 2564.32 47.37
6613 0.3586 2269.00 2481.93 47.63
6614 0.3587 2130.00 2398.97 46.15
6615 0.3588 2234.00 2320.91 47.27
6616 0.3588 2206.00 2250.92 46.97
6617 0.3589 2198.00 2190.18 46.88
6618 0.3589 2092.00 2138.37 45.74
6619 0.3590 2142.00 2093.97 46.28
6620 0.3590 2055.00 2054.72 45.33
6621 0.3591 2067.00 2018.30 45.46
6622 0.3591 2155.00 1982.85 46.42
6623 0.3592 1995.00 1947.51 44.67
6624 0.3592 2035.00 1905.37 45.11
6625 0.3593 2008.00 1871.75 44.81
6626 0.3593 1963.00 1840.55 44.31
6627 0.3594 1867.00 1813.43 43.21
6628 0.3594 1961.00 1789.43 44.28
6629 0.3595 1829.00 1782.37 42.77
6630 0.3595 1854.00 1766.70 43.06
6631 0.3596 1801.00 1754.85 42.44
6632 0.3596 1944.00 1748.84 44.09
6633 0.3597 1811.00 1743.96 42.56
6634 0.3597 1837.00 1742.19 42.86
6635 0.3598 1859.00 1743.29 43.12
6636 0.3599 1715.00 1746.96 41.41
6637 0.3599 1961.00 1752.81 44.28
6638 0.3600 1833.00 1760.27 42.81
6639 0.3600 1959.00 1768.52 44.26
6640 0.3601 1984.00 1776.49 44.54
6641 0.3601 2031.00 1782.85 45.07
6642 0.3602 2070.00 1786.23 45.50
6643 0.3602 1997.00 1785.48 44.69
6644 0.3603 2045.00 1780.03 45.22
6645 0.3603 1930.00 1767.87 43.93
6646 0.3604 1921.00 1754.33 43.83
6647 0.3604 1809.00 1738.52 42.53
6648 0.3605 1817.00 1721.91 42.63
6649 0.3605 1813.00 1705.72 42.58
6650 0.3606 1776.00 1690.90 42.14
6651 0.3606 1795.00 1678.03 42.37
6652 0.3607 1785.00 1667.44 42.25
6653 0.3607 1684.00 1659.26 41.04
6654 0.3608 1771.00 1653.52 42.08
6655 0.3608 1756.00 1650.22 41.90
6656 0.3609 1751.00 1649.32 41.85
6657 0.3610 1786.00 1650.84 42.26
6658 0.3610 1773.00 1654.80 42.11
6659 0.3611 1857.00 1661.27 43.09
6660 0.3611 1783.00 1670.21 42.23
6661 0.3612 1883.00 1682.01 43.39
6662 0.3612 1848.00 1696.62 42.99
6663 0.3613 1945.00 1713.99 44.10
6664 0.3613 1938.00 1733.92 44.02
6665 0.3614 2050.00 1755.79 45.28
6666 0.3614 2095.00 1778.42 45.77
6667 0.3615 2119.00 1799.92 46.03
6668 0.3615 2170.00 1814.58 46.58
6669 0.3616 2298.00 1825.95 47.94
6670 0.3616 2337.00 1828.51 48.34
6671 0.3617 2324.00 1821.35 48.21
6672 0.3617 2298.00 1803.81 47.94
6673 0.3618 2168.00 1781.68 46.56
6674 0.3618 2042.00 1756.34 45.19
6675 0.3619 2041.00 1730.57 45.18
6676 0.3619 1937.00 1706.35 44.01
6677 0.3620 1963.00 1684.78 44.31
6678 0.3621 1833.00 1666.36 42.81
6679 0.3621 1839.00 1651.09 42.88
6680 0.3622 1794.00 1638.81 42.36
6681 0.3622 1842.00 1629.23 42.92
6682 0.3623 1765.00 1622.04 42.01
6683 0.3623 1750.00 1616.97 41.83
6684 0.3624 1791.00 1613.77 42.32
6685 0.3624 1770.00 1612.27 42.07
6686 0.3625 1814.00 1612.31 42.59
6687 0.3625 1781.00 1613.79 42.20
6688 0.3626 1730.00 1616.65 41.59
6689 0.3626 1773.00 1620.86 42.11
6690 0.3627 1786.00 1637.00 42.26
6691 0.3627 1888.00 1640.69 43.45
6692 0.3628 1830.00 1649.41 42.78
6693 0.3628 1830.00 1659.70 42.78
6694 0.3629 1854.00 1671.69 43.06
6695 0.3629 1857.00 1685.68 43.09
6696 0.3630 1912.00 1701.58 43.73
6697 0.3630 1870.00 1719.76 43.24
6698 0.3631 1909.00 1740.49 43.69
6699 0.3632 1879.00 1764.07 43.35
6700 0.3632 1963.00 1790.84 44.31
6701 0.3633 1952.00 1821.19 44.18
6702 0.3633 2024.00 1855.49 44.99
6703 0.3634 2063.00 1894.12 45.42
6704 0.3634 2053.00 1937.41 45.31
6705 0.3635 2120.00 1985.54 46.04
6706 0.3635 2148.00 2038.55 46.35
6707 0.3636 2250.00 2096.14 47.43
6708 0.3636 2320.00 2157.91 48.17
6709 0.3637 2318.00 2223.23 48.15
6710 0.3637 2416.00 2291.72 49.15
6711 0.3638 2460.00 2363.51 49.60
6712 0.3638 2430.00 2439.53 49.29
6713 0.3639 2537.00 2513.23 50.37
6714 0.3639 2628.00 2601.99 51.26
6715 0.3640 2619.00 2698.36 51.18
6716 0.3640 2728.00 2799.95 52.23
6717 0.3641 2783.00 2905.52 52.75
6718 0.3641 2854.00 3008.10 53.42
6719 0.3642 2895.00 3100.34 53.81
6720 0.3642 3056.00 3174.61 55.28
6721 0.3643 3021.00 3224.32 54.96
6722 0.3644 3046.00 3244.74 55.19
6723 0.3644 2971.00 3233.56 54.51
6724 0.3645 2953.00 3191.44 54.34
6725 0.3645 2877.00 3122.58 53.64
6726 0.3646 2824.00 3034.22 53.14
6727 0.3646 2833.00 2935.17 53.23
6728 0.3647 2656.00 2833.72 51.54
6729 0.3647 2598.00 2736.16 50.97
6730 0.3648 2575.00 2645.76 50.74
6731 0.3648 2551.00 2563.21 50.51
6732 0.3649 2379.00 2487.14 48.78
6733 0.3649 2427.00 2415.17 49.26
6734 0.3650 2332.00 2345.13 48.29
6735 0.3650 2394.00 2275.78 48.93
6736 0.3651 2330.00 2207.44 48.27
6737 0.3651 2284.00 2141.02 47.79
6738 0.3652 2269.00 2078.07 47.63
6739 0.3652 2185.00 2019.96 46.74
6740 0.3653 2156.00 1967.45 46.43
6741 0.3653 2088.00 1920.82 45.69
6742 0.3654 2049.00 1879.93 45.27
6743 0.3655 1936.00 1844.38 44.00
6744 0.3655 1982.00 1816.79 44.52
6745 0.3656 1894.00 1790.42 43.52
6746 0.3656 1997.00 1767.79 44.69
6747 0.3657 1975.00 1748.43 44.44
6748 0.3657 1879.00 1731.93 43.35
6749 0.3658 1863.00 1717.93 43.16
6750 0.3658 1882.00 1706.15 43.38
6751 0.3659 1915.00 1696.34 43.76
6752 0.3659 1923.00 1686.85 43.85
6753 0.3660 1874.00 1680.50 43.29
6754 0.3660 1919.00 1675.69 43.81
6755 0.3661 1845.00 1672.36 42.95
6756 0.3661 1850.00 1670.45 43.01
6757 0.3662 1874.00 1669.96 43.29
6758 0.3662 1865.00 1670.90 43.19
6759 0.3663 1790.00 1673.30 42.31
6760 0.3663 1881.00 1677.25 43.37
6761 0.3664 1819.00 1682.81 42.65
6762 0.3664 1871.00 1690.12 43.26
6763 0.3665 1896.00 1699.51 43.54
6764 0.3666 1952.00 1708.68 44.18
6765 0.3666 1842.00 1722.27 42.92
6766 0.3667 1907.00 1738.39 43.67
6767 0.3667 1860.00 1757.37 43.13
6768 0.3668 1951.00 1779.55 44.17
6769 0.3668 1997.00 1805.37 44.69
6770 0.3669 1934.00 1835.32 43.98
6771 0.3669 1947.00 1869.97 44.12
6772 0.3670 1918.00 1910.00 43.79
6773 0.3670 1923.00 1956.10 43.85
6774 0.3671 1939.00 2009.13 44.03
6775 0.3671 2078.00 2069.84 45.59
6776 0.3672 2008.00 2138.91 44.81
6777 0.3672 2139.00 2216.72 46.25
6778 0.3673 2146.00 2303.06 46.32
6779 0.3673 2143.00 2396.66 46.29
6780 0.3674 2237.00 2494.74 47.30
6781 0.3674 2293.00 2592.79 47.89
6782 0.3675 2408.00 2684.33 49.07
6783 0.3675 2289.00 2761.85 47.84
6784 0.3676 2489.00 2818.16 49.89
6785 0.3677 2467.00 2847.73 49.67
6786 0.3677 2483.00 2848.42 49.83
6787 0.3678 2409.00 2818.75 49.08
6788 0.3678 2373.00 2761.95 48.71
6789 0.3679 2387.00 2682.87 48.86
6790 0.3679 2325.00 2588.25 48.22
6791 0.3680 2274.00 2485.47 47.69
6792 0.3680 2175.00 2381.30 46.64
6793 0.3681 2139.00 2280.95 46.25
6794 0.3681 2182.00 2187.82 46.71
6795 0.3682 2098.00 2103.72 45.80
6796 0.3682 1997.00 2029.12 44.69
6797 0.3683 2027.00 1963.87 45.02
6798 0.3683 2057.00 1907.28 45.35
6799 0.3684 1967.00 1858.50 44.35
6800 0.3684 1936.00 1816.55 44.00
6801 0.3685 1908.00 1780.52 43.68
6802 0.3685 1992.00 1752.19 44.63
6803 0.3686 1857.00 1725.56 43.09
6804 0.3686 1892.00 1702.54 43.50
6805 0.3687 1826.00 1682.58 42.73
6806 0.3688 1812.00 1665.22 42.57
6807 0.3688 1816.00 1650.06 42.61
6808 0.3689 1808.00 1636.77 42.52
6809 0.3689 1848.00 1625.10 42.99
6810 0.3690 1772.00 1614.82 42.10
6811 0.3690 1841.00 1607.11 42.91
6812 0.3691 1817.00 1598.49 42.63
6813 0.3691 1773.00 1590.22 42.11
6814 0.3692 1776.00 1584.18 42.14
6815 0.3692 1771.00 1578.91 42.08
6816 0.3693 1766.00 1574.37 42.02
6817 0.3693 1793.00 1570.49 42.34
6818 0.3694 1684.00 1567.26 41.04
6819 0.3694 1778.00 1569.17 42.17
6820 0.3695 1771.00 1567.26 42.08
6821 0.3695 1772.00 1565.95 42.10
6822 0.3696 1738.00 1565.25 41.69
6823 0.3696 1701.00 1565.17 41.24
6824 0.3697 1816.00 1565.73 42.61
6825 0.3697 1840.00 1566.95 42.90
6826 0.3698 1826.00 1568.87 42.73
6827 0.3699 1794.00 1571.55 42.36
6828 0.3699 1892.00 1575.03 43.50
6829 0.3700 1784.00 1570.83 42.24
6830 0.3700 1868.00 1576.30 43.22
6831 0.3701 1884.00 1582.81 43.41
6832 0.3701 1911.00 1590.47 43.72
6833 0.3702 1865.00 1599.44 43.19
6834 0.3702 1827.00 1609.84 42.74
6835 0.3703 1921.00 1622.68 43.83
6836 0.3703 1995.00 1634.29 44.67
6837 0.3704 1962.00 1650.22 44.29
6838 0.3704 1939.00 1668.40 44.03
6839 0.3705 1989.00 1689.02 44.60
6840 0.3705 2034.00 1712.28 45.10
6841 0.3706 2085.00 1740.19 45.66
6842 0.3706 2143.00 1768.73 46.29
6843 0.3707 2165.00 1799.39 46.53
6844 0.3707 2128.00 1831.30 46.13
6845 0.3708 2081.00 1862.94 45.62
6846 0.3708 2261.00 1892.17 47.55
6847 0.3709 2154.00 1916.24 46.41
6848 0.3710 2218.00 1932.32 47.10
6849 0.3710 2208.00 1938.07 46.99
6850 0.3711 2262.00 1932.40 47.56
6851 0.3711 2284.00 1915.96 47.79
6852 0.3712 2289.00 1890.91 47.84
6853 0.3712 2172.00 1860.28 46.60
6854 0.3713 2166.00 1829.00 46.54
6855 0.3713 2153.00 1796.10 46.40
6856 0.3714 2111.00 1765.15 45.95
6857 0.3714 2132.00 1737.25 46.17
6858 0.3715 2050.00 1712.86 45.28
6859 0.3715 2055.00 1692.06 45.33
6860 0.3716 2079.00 1674.71 45.60
6861 0.3716 1955.00 1660.55 44.22
6862 0.3717 1913.00 1649.25 43.74
6863 0.3717 1963.00 1640.52 44.31
6864 0.3718 1894.00 1634.08 43.52
6865 0.3718 1881.00 1629.69 43.37
6866 0.3719 1969.00 1627.10 44.37
6867 0.3719 1894.00 1626.11 43.52
6868 0.3720 1988.00 1626.52 44.59
6869 0.3721 1947.00 1628.10 44.12
6870 0.3721 1959.00 1630.67 44.26
6871 0.3722 1900.00 1634.02 43.59
6872 0.3722 1960.00 1639.73 44.27
6873 0.3723 1994.00 1644.36 44.65
6874 0.3723 1944.00 1649.64 44.09
6875 0.3724 2018.00 1655.77 44.92
6876 0.3724 2006.00 1662.99 44.79
6877 0.3725 1922.00 1671.62 43.84
6878 0.3725 2042.00 1678.30 45.19
6879 0.3726 2001.00 1690.78 44.73
6880 0.3726 2128.00 1705.67 46.13
6881 0.3727 2222.00 1723.15 47.14
6882 0.3727 2152.00 1743.57 46.39
6883 0.3728 2139.00 1767.19 46.25
6884 0.3728 2195.00 1793.94 46.85
6885 0.3729 2289.00 1824.76 47.84
6886 0.3729 2350.00 1859.40 48.48
6887 0.3730 2399.00 1894.55 48.98
6888 0.3730 2334.00 1936.57 48.31
6889 0.3731 2377.00 1981.60 48.75
6890 0.3732 2541.00 2028.89 50.41
6891 0.3732 2563.00 2077.40 50.63
6892 0.3733 2591.00 2126.04 50.90
6893 0.3733 2622.00 2173.34 51.21
6894 0.3734 2671.00 2218.27 51.68
6895 0.3734 2782.00 2257.00 52.74
6896 0.3735 2792.00 2294.14 52.84
6897 0.3735 2884.00 2327.52 53.70
6898 0.3736 2828.00 2358.66 53.18
6899 0.3736 2929.00 2389.88 54.12
6900 0.3737 2943.00 2423.31 54.25
6901 0.3737 2981.00 2460.18 54.60
6902 0.3738 3059.00 2500.29 55.31
6903 0.3738 3090.00 2541.82 55.59
6904 0.3739 3002.00 2581.14 54.79
6905 0.3739 3155.00 2612.91 56.17
6906 0.3740 3160.00 2630.47 56.21
6907 0.3740 3122.00 2627.18 55.87
6908 0.3741 3155.00 2598.89 56.17
6909 0.3741 2985.00 2545.90 54.64
6910 0.3742 2966.00 2479.78 54.46
6911 0.3743 2893.00 2395.06 53.79
6912 0.3743 2692.00 2306.16 51.88
6913 0.3744 2620.00 2219.46 51.19
6914 0.3744 2462.00 2139.04 49.62
6915 0.3745 2475.00 2067.12 49.75
6916 0.3745 2376.00 2004.46 48.74
6917 0.3746 2346.00 1950.91 48.44
6918 0.3746 2369.00 1905.84 48.67
6919 0.3747 2316.00 1868.39 48.12
6920 0.3747 2275.00 1837.70 47.70
6921 0.3748 2139.00 1812.91 46.25
6922 0.3748 2166.00 1793.31 46.54
6923 0.3749 2124.00 1778.30 46.09
6924 0.3749 2128.00 1767.40 46.13
6925 0.3750 1985.00 1760.22 44.55
6926 0.3750 2044.00 1756.46 45.21
6927 0.3751 2051.00 1755.90 45.29
6928 0.3751 2035.00 1758.31 45.11
6929 0.3752 2043.00 1763.45 45.20
6930 0.3752 1992.00 1771.03 44.63
6931 0.3753 2019.00 1780.61 44.93
6932 0.3754 2042.00 1791.59 45.19
6933 0.3754 2032.00 1803.21 45.08
6934 0.3755 1985.00 1814.70 44.55
6935 0.3755 1999.00 1825.46 44.71
6936 0.3756 2066.00 1835.31 45.45
6937 0.3756 2161.00 1862.39 46.49
6938 0.3757 2137.00 1872.31 46.23
6939 0.3757 2194.00 1883.48 46.84
6940 0.3758 2260.00 1896.80 47.54
6941 0.3758 2224.00 1912.75 47.16
6942 0.3759 2314.00 1931.28 48.10
6943 0.3759 2535.00 1951.78 50.35
6944 0.3760 2650.00 1977.77 51.48
6945 0.3760 2753.00 1998.22 52.47
6946 0.3761 2945.00 2016.00 54.27
6947 0.3761 2853.00 2029.63 53.41
6948 0.3762 2765.00 2038.19 52.58
6949 0.3762 2605.00 2041.52 51.04
6950 0.3763 2421.00 2039.90 49.20
6951 0.3763 2334.00 2033.60 48.31
6952 0.3764 2232.00 2022.57 47.24
6953 0.3764 2188.00 2006.51 46.78
6954 0.3765 2171.00 1985.19 46.59
6955 0.3766 2035.00 1959.00 45.11
6956 0.3766 1980.00 1926.08 44.50
6957 0.3767 2009.00 1894.40 44.82
6958 0.3767 1942.00 1862.75 44.07
6959 0.3768 1895.00 1832.81 43.53
6960 0.3768 1928.00 1805.68 43.91
6961 0.3769 1823.00 1781.98 42.70
6962 0.3769 1942.00 1761.90 44.07
6963 0.3770 1834.00 1745.36 42.83
6964 0.3770 1896.00 1732.15 43.54
6965 0.3771 1865.00 1721.99 43.19
6966 0.3771 1866.00 1714.60 43.20
6967 0.3772 1833.00 1709.75 42.81
6968 0.3772 1737.00 1707.22 41.68
6969 0.3773 1748.00 1706.86 41.81
6970 0.3773 1776.00 1708.56 42.14
6971 0.3774 1814.00 1712.24 42.59
6972 0.3774 1810.00 1717.88 42.54
6973 0.3775 1813.00 1725.49 42.58
6974 0.3775 1866.00 1735.08 43.20
6975 0.3776 1813.00 1746.69 42.58
6976 0.3777 1875.00 1760.36 43.30
6977 0.3777 1893.00 1776.35 43.51
6978 0.3778 1829.00 1794.02 42.77
6979 0.3778 1894.00 1813.43 43.52
6980 0.3779 1957.00 1834.21 44.24
6981 0.3779 1938.00 1855.74 44.02
6982 0.3780 1968.00 1881.36 44.36
6983 0.3780 1928.00 1901.37 43.91
6984 0.3781 1970.00 1919.14 44.38
6985 0.3781 2114.00 1933.46 45.98
6986 0.3782 2018.00 1943.53 44.92
6987 0.3782 2037.00 1949.90 45.13
6988 0.3783 1926.00 1953.14 43.89
6989 0.3783 1980.00 1954.58 44.50
6990 0.3784 2074.00 1955.80 45.54
6991 0.3784 1987.00 1958.33 44.58
6992 0.3785 2067.00 1963.47 45.46
6993 0.3785 1978.00 1972.24 44.47
6994 0.3786 2011.00 1985.30 44.84
6995 0.3786 2006.00 2002.19 44.79
6996 0.3787 2027.00 2022.39 45.02
6997 0.3788 2097.00 2049.16 45.79
6998 0.3788 2093.00 2075.09 45.75
6999 0.3789 2202.00 2108.75 46.93
7000 0.3789 2204.00 2144.90 46.95
7001 0.3790 2303.00 2183.49 47.99
7002 0.3790 2330.00 2225.14 48.27
7003 0.3791 2392.00 2270.76 48.91
7004 0.3791 2595.00 2321.11 50.94
7005 0.3792 2744.00 2376.24 52.38
7006 0.3792 2811.00 2437.13 53.02
7007 0.3793 3009.00 2497.40 54.85
7008 0.3793 3157.00 2555.47 56.19
7009 0.3794 3252.00 2607.11 57.03
7010 0.3794 3302.00 2648.11 57.46
7011 0.3795 3299.00 2675.59 57.44
7012 0.3795 3135.00 2689.03 55.99
7013 0.3796 3021.00 2690.65 54.96
7014 0.3796 2982.00 2684.60 54.61
7015 0.3797 2809.00 2677.29 53.00
7016 0.3797 2871.00 2674.07 53.58
7017 0.3798 2959.00 2679.89 54.40
7018 0.3799 2867.00 2698.63 53.54
7019 0.3799 2912.00 2731.02 53.96
7020 0.3800 2928.00 2783.45 54.11
7021 0.3800 2992.00 2855.33 54.70
7022 0.3801 3105.00 2947.80 55.72
7023 0.3801 3220.00 3061.15 56.74
7024 0.3802 3481.00 3195.24 59.00
7025 0.3802 3533.00 3347.57 59.44
7026 0.3803 3642.00 3513.26 60.35
7027 0.3803 3938.00 3683.65 62.75
7028 0.3804 4269.00 3846.05 65.34
7029 0.3804 4351.00 3984.94 65.96
7030 0.3805 4780.00 4085.26 69.14
7031 0.3805 4814.00 4137.09 69.38
7032 0.3806 5006.00 4138.44 70.75
7033 0.3806 4905.00 4094.97 70.04
7034 0.3807 4898.00 4016.34 69.99
7035 0.3807 4818.00 3912.32 69.41
7036 0.3808 4690.00 3790.32 68.48
7037 0.3808 4460.00 3659.00 66.78
7038 0.3809 4341.00 3524.14 65.89
7039 0.3810 4066.00 3391.60 63.77
7040 0.3810 3886.00 3266.13 62.34
7041 0.3811 3811.00 3150.55 61.73
7042 0.3811 3565.00 3045.80 59.71
7043 0.3812 3610.00 2951.45 60.08
7044 0.3812 3418.00 2866.28 58.46
7045 0.3813 3245.00 2788.64 56.96
7046 0.3813 3099.00 2716.36 55.67
7047 0.3814 2905.00 2647.15 53.90
7048 0.3814 2808.00 2578.86 52.99
7049 0.3815 2844.00 2509.85 53.33
7050 0.3815 2645.00 2439.61 51.43
7051 0.3816 2466.00 2368.83 49.66
7052 0.3816 2443.00 2299.10 49.43
7053 0.3817 2351.00 2232.28 48.49
7054 0.3817 2354.00 2169.90 48.52
7055 0.3818 2254.00 2109.39 47.48
7056 0.3818 2300.00 2058.67 47.96
7057 0.3819 2093.00 2014.04 45.75
7058 0.3819 2132.00 1975.24 46.17
7059 0.3820 2161.00 1941.85 46.49
7060 0.3821 2120.00 1913.38 46.04
7061 0.3821 2140.00 1889.30 46.26
7062 0.3822 2002.00 1869.12 44.74
7063 0.3822 1934.00 1852.32 43.98
7064 0.3823 2067.00 1838.38 45.46
7065 0.3823 1978.00 1826.72 44.47
7066 0.3824 2015.00 1816.73 44.89
7067 0.3824 2046.00 1807.86 45.23
7068 0.3825 1967.00 1799.55 44.35
7069 0.3825 1980.00 1791.67 44.50
7070 0.3826 1999.00 1784.33 44.71
7071 0.3826 1988.00 1777.84 44.59
7072 0.3827 2020.00 1772.63 44.94
7073 0.3827 1929.00 1769.05 43.92
7074 0.3828 1947.00 1767.37 44.12
7075 0.3828 1929.00 1767.77 43.92
7076 0.3829 1947.00 1770.37 44.12
7077 0.3829 1972.00 1775.28 44.41
7078 0.3830 1962.00 1782.58 44.29
7079 0.3830 1970.00 1792.39 44.38
7080 0.3831 1978.00 1804.85 44.47
7081 0.3832 1938.00 1820.13 44.02
7082 0.3832 1895.00 1838.38 43.53
7083 0.3833 2073.00 1859.79 45.53
7084 0.3833 2089.00 1884.49 45.71
7085 0.3834 2135.00 1912.54 46.21
7086 0.3834 2088.00 1949.11 45.69
7087 0.3835 2220.00 1983.68 47.12
7088 0.3835 2326.00 2020.12 48.23
7089 0.3836 2350.00 2057.44 48.48
7090 0.3836 2480.00 2093.84 49.80
7091 0.3837 2468.00 2126.13 49.68
7092 0.3837 2629.00 2152.87 51.27
7093 0.3838 2521.00 2170.51 50.21
7094 0.3838 2652.00 2176.87 51.50
7095 0.3839 2484.00 2171.08 49.84
7096 0.3839 2465.00 2153.84 49.65
7097 0.3840 2332.00 2127.36 48.29
7098 0.3840 2184.00 2094.70 46.73
7099 0.3841 2150.00 2059.18 46.37
7100 0.3841 2082.00 2022.05 45.63
7101 0.3842 2125.00 1989.02 46.10
7102 0.3843 1926.00 1959.90 43.89
7103 0.3843 2003.00 1935.53 44.75
7104 0.3844 1958.00 1916.43 44.25
7105 0.3844 1987.00 1902.57 44.58
7106 0.3845 1839.00 1893.75 42.88
7107 0.3845 1964.00 1889.55 44.32
7108 0.3846 1787.00 1889.29 42.27
7109 0.3846 1841.00 1892.04 42.91
7110 0.3847 1806.00 1896.53 42.50
7111 0.3847 1887.00 1901.13 43.44
7112 0.3848 1836.00 1903.94 42.85
7113 0.3848 1822.00 1903.05 42.68
7114 0.3849 1815.00 1896.92 42.60
7115 0.3849 1722.00 1884.74 41.50
7116 0.3850 1787.00 1866.73 42.27
7117 0.3850 1766.00 1842.85 42.02
7118 0.3851 1780.00 1817.08 42.19
7119 0.3851 1730.00 1785.91 41.59
7120 0.3852 1715.00 1759.17 41.41
7121 0.3852 1699.00 1734.24 41.22
7122 0.3853 1731.00 1710.82 41.61
7123 0.3854 1684.00 1689.67 41.04
7124 0.3854 1695.00 1670.85 41.17
7125 0.3855 1768.00 1643.00 42.05
7126 0.3855 1672.00 1628.76 40.89
7127 0.3856 1733.00 1616.27 41.63
7128 0.3856 1647.00 1605.38 40.58
7129 0.3857 1673.00 1595.88 40.90
7130 0.3857 1630.00 1587.58 40.37
7131 0.3858 1716.00 1580.33 41.42
7132 0.3858 1629.00 1573.97 40.36
7133 0.3859 1620.00 1568.39 40.25
7134 0.3859 1657.00 1563.48 40.71
7135 0.3860 1604.00 1559.16 40.05
7136 0.3860 1637.00 1555.36 40.46
7137 0.3861 1674.00 1545.97 40.91
7138 0.3861 1617.00 1543.14 40.21
7139 0.3862 1587.00 1540.68 39.84
7140 0.3862 1586.00 1537.98 39.82
7141 0.3863 1566.00 1536.15 39.57
7142 0.3863 1622.00 1534.60 40.27
7143 0.3864 1596.00 1533.30 39.95
7144 0.3865 1595.00 1532.25 39.94
7145 0.3865 1569.00 1531.45 39.61
7146 0.3866 1595.00 1530.87 39.94
7147 0.3866 1575.00 1531.10 39.69
7148 0.3867 1583.00 1530.98 39.79
7149 0.3867 1619.00 1531.09 40.24
7150 0.3868 1572.00 1531.44 39.65
7151 0.3868 1620.00 1536.92 40.25
7152 0.3869 1583.00 1537.85 39.79
7153 0.3869 1647.00 1539.04 40.58
7154 0.3870 1644.00 1538.01 40.55
7155 0.3870 1634.00 1538.52 40.42
7156 0.3871 1654.00 1542.13 40.67
7157 0.3871 1634.00 1544.66 40.42
7158 0.3872 1704.00 1547.54 41.28
7159 0.3872 1533.00 1550.79 39.15
7160 0.3873 1662.00 1554.15 40.77
7161 0.3873 1632.00 1558.16 40.40
7162 0.3874 1650.00 1562.54 40.62
7163 0.3874 1698.00 1567.25 41.21
7164 0.3875 1716.00 1572.29 41.42
7165 0.3875 1600.00 1577.67 40.00
7166 0.3876 1711.00 1583.93 41.36
7167 0.3877 1687.00 1590.24 41.07
7168 0.3877 1624.00 1597.22 40.30
7169 0.3878 1741.00 1609.79 41.73
7170 0.3878 1696.00 1618.73 41.18
7171 0.3879 1776.00 1628.87 42.14
7172 0.3879 1704.00 1640.38 41.28
7173 0.3880 1701.00 1653.46 41.24
7174 0.3880 1815.00 1668.30 42.60
7175 0.3881 1836.00 1685.12 42.85
7176 0.3881 1832.00 1704.18 42.80
7177 0.3882 1869.00 1725.75 43.23
7178 0.3882 1822.00 1750.15 42.68
7179 0.3883 1961.00 1777.76 44.28
7180 0.3883 1985.00 1808.93 44.55
7181 0.3884 2033.00 1844.03 45.09
7182 0.3884 2091.00 1883.61 45.73
7183 0.3885 2105.00 1927.38 45.88
7184 0.3885 2292.00 1975.51 47.87
7185 0.3886 2289.00 2027.46 47.84
7186 0.3886 2382.00 2082.14 48.81
7187 0.3887 2537.00 2137.46 50.37
7188 0.3888 2562.00 2190.28 50.62
7189 0.3888 2711.00 2236.44 52.07
7190 0.3889 2842.00 2271.14 53.31
7191 0.3889 2889.00 2290.06 53.75
7192 0.3890 2693.00 2290.46 51.89
7193 0.3890 2643.00 2272.15 51.41
7194 0.3891 2450.00 2237.66 49.50
7195 0.3891 2428.00 2198.14 49.27
7196 0.3892 2365.00 2145.39 48.63
7197 0.3892 2187.00 2090.52 46.77
7198 0.3893 2087.00 2036.88 45.68
7199 0.3893 2027.00 1986.58 45.02
7200 0.3894 2104.00 1940.71 45.87
7201 0.3894 2077.00 1899.64 45.57
7202 0.3895 1975.00 1863.42 44.44
7203 0.3895 1845.00 1831.89 42.95
7204 0.3896 1894.00 1804.78 43.52
7205 0.3896 1865.00 1781.80 43.19
7206 0.3897 1906.00 1762.43 43.66
7207 0.3897 1845.00 1746.72 42.95
7208 0.3898 1843.00 1734.13 42.93
7209 0.3899 1829.00 1724.36 42.77
7210 0.3899 1781.00 1713.23 42.20
7211 0.3900 1860.00 1708.20 43.13
7212 0.3900 1843.00 1705.00 42.93
7213 0.3901 1826.00 1703.20 42.73
7214 0.3901 1836.00 1702.33 42.85
7215 0.3902 1812.00 1701.83 42.57
7216 0.3902 1973.00 1701.20 44.42
7217 0.3903 1867.00 1700.03 43.21
7218 0.3903 1893.00 1698.16 43.51
7219 0.3904 1791.00 1695.69 42.32
7220 0.3904 1797.00 1692.92 42.39
7221 0.3905 1832.00 1690.27 42.80
7222 0.3905 1786.00 1688.14 42.26
7223 0.3906 1741.00 1686.85 41.73
7224 0.3906 1799.00 1684.63 42.41
7225 0.3907 1808.00 1685.67 42.52
7226 0.3907 1747.00 1688.03 41.80
7227 0.3908 1759.00 1691.72 41.94
7228 0.3908 1814.00 1696.75 42.59
7229 0.3909 1819.00 1703.14 42.65
7230 0.3910 1778.00 1710.97 42.17
7231 0.3910 1764.00 1720.36 42.00
7232 0.3911 1758.00 1731.47 41.93
7233 0.3911 1794.00 1744.55 42.36
7234 0.3912 1832.00 1759.84 42.80
7235 0.3912 1854.00 1777.63 43.06
7236 0.3913 1803.00 1798.21 42.46
7237 0.3913 1854.00 1822.83 43.06
7238 0.3914 1872.00 1850.05 43.27
7239 0.3914 1833.00 1881.09 42.81
7240 0.3915 1880.00 1916.26 43.36
7241 0.3915 1921.00 1955.80 43.83
7242 0.3916 1962.00 1999.80 44.29
7243 0.3916 1937.00 2048.04 44.01
7244 0.3917 1937.00 2099.88 44.01
7245 0.3917 2017.00 2154.21 44.91
7246 0.3918 2042.00 2209.25 45.19
7247 0.3918 2075.00 2262.73 45.55
7248 0.3919 2092.00 2312.15 45.74
7249 0.3919 2132.00 2355.19 46.17
7250 0.3920 2083.00 2390.28 45.64
7251 0.3921 2140.00 2416.87 46.26
7252 0.3921 2110.00 2435.46 45.93
7253 0.3922 2106.00 2447.06 45.89
7254 0.3922 2066.00 2452.58 45.45
7255 0.3923 2155.00 2452.57 46.42
7256 0.3923 2083.00 2447.22 45.64
7257 0.3924 2094.00 2436.71 45.76
7258 0.3924 2178.00 2421.53 46.67
7259 0.3925 2103.00 2402.72 45.86
7260 0.3925 2112.00 2381.91 45.96
7261 0.3926 2072.00 2361.21 45.52
7262 0.3926 2121.00 2342.88 46.05
7263 0.3927 2138.00 2328.90 46.24
7264 0.3927 2160.00 2320.65 46.48
7265 0.3928 2181.00 2319.10 46.70
7266 0.3928 2222.00 2324.55 47.14
7267 0.3929 2222.00 2337.06 47.14
7268 0.3929 2258.00 2356.46 47.52
7269 0.3930 2327.00 2382.19 48.24
7270 0.3930 2308.00 2413.10 48.04
7271 0.3931 2396.00 2447.09 48.95
7272 0.3932 2585.00 2491.13 50.84
7273 0.3932 2620.00 2521.31 51.19
7274 0.3933 2740.00 2543.42 52.35
7275 0.3933 2635.00 2554.20 51.33
7276 0.3934 2636.00 2552.34 51.34
7277 0.3934 2534.00 2539.09 50.34
7278 0.3935 2445.00 2517.93 49.45
7279 0.3935 2292.00 2493.68 47.87
7280 0.3936 2220.00 2471.32 47.12
7281 0.3936 2227.00 2455.06 47.19
7282 0.3937 2146.00 2448.04 46.32
7283 0.3937 2069.00 2452.20 45.49
7284 0.3938 2097.00 2468.34 45.79
7285 0.3938 2072.00 2496.16 45.52
7286 0.3939 2044.00 2534.05 45.21
7287 0.3939 2029.00 2578.87 45.04
7288 0.3940 2085.00 2625.51 45.66
7289 0.3940 1939.00 2666.98 44.03
7290 0.3941 2088.00 2694.89 45.69
7291 0.3941 1978.00 2701.23 44.47
7292 0.3942 2033.00 2680.78 45.09
7293 0.3943 1967.00 2632.99 44.35
7294 0.3943 1986.00 2562.35 44.56
7295 0.3944 1981.00 2476.72 44.51
7296 0.3944 1910.00 2384.51 43.70
7297 0.3945 1924.00 2292.95 43.86
7298 0.3945 1783.00 2206.91 42.23
7299 0.3946 1772.00 2123.91 42.10
7300 0.3946 1849.00 2055.30 43.00
7301 0.3947 1846.00 1995.72 42.97
7302 0.3947 1792.00 1944.45 42.33
7303 0.3948 1792.00 1900.58 42.33
7304 0.3948 1778.00 1863.05 42.17
7305 0.3949 1687.00 1831.22 41.07
7306 0.3949 1709.00 1803.69 41.34
7307 0.3950 1675.00 1780.02 40.93
7308 0.3950 1711.00 1759.57 41.36
7309 0.3951 1659.00 1741.86 40.73
7310 0.3951 1719.00 1726.46 41.46
7311 0.3952 1792.00 1713.00 42.33
7312 0.3952 1615.00 1701.22 40.19
7313 0.3953 1618.00 1690.57 40.22
7314 0.3954 1668.00 1681.18 40.84
7315 0.3954 1660.00 1673.17 40.74
7316 0.3955 1673.00 1666.11 40.90
7317 0.3955 1633.00 1659.92 40.41
7318 0.3956 1680.00 1654.49 40.99
7319 0.3956 1631.00 1649.78 40.39
7320 0.3957 1685.00 1645.72 41.05
7321 0.3957 1624.00 1642.28 40.30
7322 0.3958 1666.00 1639.43 40.82
7323 0.3958 1637.00 1637.13 40.46
7324 0.3959 1678.00 1635.39 40.96
7325 0.3959 1623.00 1634.19 40.29
7326 0.3960 1577.00 1633.52 39.71
7327 0.3960 1622.00 1633.40 40.27
7328 0.3961 1659.00 1647.54 40.73
7329 0.3961 1647.00 1648.81 40.58
7330 0.3962 1720.00 1650.68 41.47
7331 0.3962 1712.00 1653.19 41.38
7332 0.3963 1593.00 1660.65 39.91
7333 0.3963 1658.00 1664.62 40.72
7334 0.3964 1670.00 1669.30 40.87
7335 0.3965 1739.00 1674.85 41.70
7336 0.3965 1770.00 1681.13 42.07
7337 0.3966 1719.00 1688.49 41.46
7338 0.3966 1725.00 1696.83 41.53
7339 0.3967 1725.00 1710.02 41.53
7340 0.3967 1764.00 1720.40 42.00
7341 0.3968 1721.00 1731.70 41.48
7342 0.3968 1779.00 1743.75 42.18
7343 0.3969 1810.00 1756.32 42.54
7344 0.3969 1907.00 1769.04 43.67
7345 0.3970 1893.00 1781.47 43.51
7346 0.3970 1846.00 1793.12 42.97
7347 0.3971 1855.00 1803.62 43.07
7348 0.3971 1848.00 1812.20 42.99
7349 0.3972 1838.00 1820.13 42.87
7350 0.3972 1850.00 1825.05 43.01
7351 0.3973 1780.00 1832.01 42.19
7352 0.3973 1737.00 1839.59 41.68
7353 0.3974 1902.00 1848.58 43.61
7354 0.3974 1869.00 1859.72 43.23
7355 0.3975 1902.00 1873.64 43.61
7356 0.3976 1935.00 1890.89 43.99
7357 0.3976 1916.00 1911.98 43.77
7358 0.3977 1970.00 1937.35 44.38
7359 0.3977 1994.00 1967.49 44.65
7360 0.3978 1958.00 2002.94 44.25
7361 0.3978 1944.00 2044.24 44.09
7362 0.3979 2108.00 2092.06 45.91
7363 0.3979 2039.00 2148.90 45.16
7364 0.3980 2144.00 2210.26 46.30
7365 0.3980 2159.00 2281.27 46.47
7366 0.3981 2285.00 2360.62 47.80
7367 0.3981 2334.00 2447.77 48.31
7368 0.3982 2387.00 2540.68 48.86
7369 0.3982 2492.00 2637.25 49.92
7370 0.3983 2559.00 2729.41 50.59
7371 0.3983 2821.00 2814.48 53.11
7372 0.3984 2793.00 2881.39 52.85
7373 0.3984 2864.00 2921.41 53.52
7374 0.3985 2811.00 2928.37 53.02
7375 0.3985 2888.00 2900.79 53.74
7376 0.3986 2622.00 2842.73 51.21
7377 0.3987 2776.00 2762.35 52.69
7378 0.3987 2417.00 2669.63 49.16
7379 0.3988 2450.00 2573.75 49.50
7380 0.3988 2345.00 2481.63 48.43
7381 0.3989 2209.00 2397.74 47.00
7382 0.3989 2273.00 2324.16 47.68
7383 0.3990 2122.00 2256.79 46.07
7384 0.3990 2213.00 2204.36 47.04
7385 0.3991 2075.00 2160.98 45.55
7386 0.3991 2122.00 2125.68 46.07
7387 0.3992 2037.00 2095.57 45.13
7388 0.3992 2138.00 2069.58 46.24
7389 0.3993 2021.00 2046.23 44.96
7390 0.3993 1947.00 2017.88 44.12
7391 0.3994 1966.00 1997.03 44.34
7392 0.3994 1920.00 1976.82 43.82
7393 0.3995 1936.00 1957.42 44.00
7394 0.3995 1890.00 1939.22 43.47
7395 0.3996 2001.00 1922.67 44.73
7396 0.3996 1902.00 1908.15 43.61
7397 0.3997 1973.00 1895.93 44.42
7398 0.3997 1949.00 1886.18 44.15
7399 0.3998 1923.00 1878.94 43.85
7400 0.3999 1990.00 1874.23 44.61
7401 0.3999 1922.00 1872.02 43.84
7402 0.4000 1910.00 1872.27 43.70
7403 0.4000 1967.00 1874.73 44.35
7404 0.4001 1996.00 1879.85 44.68
7405 0.4001 1878.00 1887.42 43.34
7406 0.4002 1936.00 1897.52 44.00
7407 0.4002 1967.00 1910.21 44.35
7408 0.4003 1997.00 1925.64 44.69
7409 0.4003 2084.00 1943.95 45.65
7410 0.4004 2013.00 1965.36 44.87
7411 0.4004 2122.00 1990.10 46.07
7412 0.4005 2117.00 2018.45 46.01
7413 0.4005 2091.00 2050.68 45.73
7414 0.4006 2102.00 2087.19 45.85
7415 0.4006 2122.00 2128.31 46.07
7416 0.4007 2220.00 2174.44 47.12
7417 0.4007 2329.00 2226.01 48.26
7418 0.4008 2285.00 2283.48 47.80
7419 0.4008 2295.00 2347.40 47.91
7420 0.4009 2291.00 2418.39 47.86
7421 0.4010 2409.00 2497.29 49.08
7422 0.4010 2501.00 2584.87 50.01
7423 0.4011 2618.00 2681.94 51.17
7424 0.4011 2578.00 2789.05 50.77
7425 0.4012 2696.00 2906.24 51.92
7426 0.4012 2688.00 3032.76 51.85
7427 0.4013 2821.00 3166.81 53.11
7428 0.4013 2901.00 3304.83 53.86
7429 0.4014 3057.00 3442.69 55.29
7430 0.4014 3122.00 3578.32 55.87
7431 0.4015 3268.00 3697.78 57.17
7432 0.4015 3315.00 3799.14 57.58
7433 0.4016 3311.00 3877.78 57.54
7434 0.4016 3476.00 3930.94 58.96
7435 0.4017 3409.00 3957.85 58.39
7436 0.4017 3485.00 3959.45 59.03
7437 0.4018 3349.00 3937.67 57.87
7438 0.4018 3396.00 3894.74 58.28
7439 0.4019 3396.00 3832.79 58.28
7440 0.4019 3275.00 3753.74 57.23
7441 0.4020 3289.00 3659.50 57.35
7442 0.4021 3193.00 3552.29 56.51
7443 0.4021 3300.00 3434.53 57.45
7444 0.4022 3018.00 3309.21 54.94
7445 0.4022 3048.00 3179.68 55.21
7446 0.4023 2864.00 3049.47 53.52
7447 0.4023 2896.00 2922.06 53.81
7448 0.4024 2724.00 2800.51 52.19
7449 0.4024 2744.00 2687.26 52.38
7450 0.4025 2619.00 2584.04 51.18
7451 0.4025 2544.00 2491.64 50.44
7452 0.4026 2398.00 2410.33 48.97
7453 0.4026 2403.00 2339.94 49.02
7454 0.4027 2347.00 2279.83 48.45
7455 0.4027 2205.00 2229.23 46.96
7456 0.4028 2297.00 2188.02 47.93
7457 0.4028 2197.00 2154.01 46.87
7458 0.4029 2275.00 2128.48 47.70
7459 0.4029 2195.00 2108.01 46.85
7460 0.4030 2218.00 2093.24 47.10
7461 0.4030 2186.00 2083.46 46.75
7462 0.4031 2138.00 2077.77 46.24
7463 0.4032 2119.00 2075.04 46.03
7464 0.4032 2018.00 2073.83 44.92
7465 0.4033 2143.00 2072.34 46.29
7466 0.4033 2077.00 2067.82 45.57
7467 0.4034 2081.00 2059.95 45.62
7468 0.4034 2058.00 2046.69 45.37
7469 0.4035 2067.00 2027.72 45.46
7470 0.4035 2039.00 2003.79 45.16
7471 0.4036 2013.00 1976.45 44.87
7472 0.4036 1988.00 1947.57 44.59
7473 0.4037 2016.00 1918.82 44.90
7474 0.4037 2036.00 1891.53 45.12
7475 0.4038 1902.00 1866.51 43.61
7476 0.4038 1903.00 1844.16 43.62
7477 0.4039 1825.00 1817.17 42.72
7478 0.4039 1893.00 1800.52 43.51
7479 0.4040 1853.00 1786.45 43.05
7480 0.4040 1858.00 1773.35 43.10
7481 0.4041 1817.00 1763.79 42.63
7482 0.4041 1806.00 1756.13 42.50
7483 0.4042 1804.00 1750.16 42.47
7484 0.4043 1801.00 1745.67 42.44
7485 0.4043 1800.00 1742.44 42.43
7486 0.4044 1711.00 1740.25 41.36
7487 0.4044 1747.00 1738.89 41.80
7488 0.4045 1717.00 1738.17 41.44
7489 0.4045 1778.00 1737.89 42.17
7490 0.4046 1741.00 1737.83 41.73
7491 0.4046 1701.00 1737.71 41.24
7492 0.4047 1741.00 1737.16 41.73
7493 0.4047 1700.00 1735.78 41.23
7494 0.4048 1734.00 1733.13 41.64
7495 0.4048 1680.00 1728.89 40.99
7496 0.4049 1765.00 1722.97 42.01
7497 0.4049 1686.00 1715.51 41.06
7498 0.4050 1701.00 1706.93 41.24
7499 0.4050 1706.00 1697.72 41.30
7500 0.4051 1758.00 1688.44 41.93
7501 0.4051 1698.00 1679.49 41.21
7502 0.4052 1640.00 1674.95 40.50
7503 0.4052 1668.00 1667.49 40.84
7504 0.4053 1693.00 1660.92 41.15
7505 0.4054 1681.00 1655.23 41.00
7506 0.4054 1702.00 1650.39 41.26
7507 0.4055 1694.00 1646.34 41.16
7508 0.4055 1674.00 1643.03 40.91
7509 0.4056 1673.00 1639.39 40.90
7510 0.4056 1671.00 1637.39 40.88
7511 0.4057 1717.00 1635.97 41.44
7512 0.4057 1662.00 1635.09 40.77
7513 0.4058 1689.00 1634.73 41.10
7514 0.4058 1622.00 1634.86 40.27
7515 0.4059 1642.00 1635.48 40.52
7516 0.4059 1615.00 1636.58 40.19
7517 0.4060 1713.00 1638.18 41.39
7518 0.4060 1596.00 1640.28 39.95
7519 0.4061 1714.00 1642.90 41.40
7520 0.4061 1688.00 1646.07 41.09
7521 0.4062 1678.00 1649.83 40.96
7522 0.4062 1655.00 1654.21 40.68
7523 0.4063 1652.00 1659.27 40.64
7524 0.4063 1744.00 1665.06 41.76
7525 0.4064 1648.00 1671.85 40.60
7526 0.4065 1669.00 1679.34 40.85
7527 0.4065 1744.00 1687.95 41.76
7528 0.4066 1701.00 1697.49 41.24
7529 0.4066 1807.00 1708.24 42.51
7530 0.4067 1720.00 1720.31 41.47
7531 0.4067 1809.00 1733.89 42.53
7532 0.4068 1783.00 1749.12 42.23
7533 0.4068 1847.00 1765.18 42.98
7534 0.4069 1817.00 1784.34 42.63
7535 0.4069 1822.00 1805.76 42.68
7536 0.4070 1856.00 1834.62 43.08
7537 0.4070 1961.00 1861.31 44.28
7538 0.4071 1907.00 1890.80 43.67
7539 0.4071 1977.00 1923.19 44.46
7540 0.4072 2102.00 1958.37 45.85
7541 0.4072 2056.00 1996.00 45.34
7542 0.4073 2174.00 2035.40 46.63
7543 0.4073 2221.00 2075.44 47.13
7544 0.4074 2370.00 2114.49 48.68
7545 0.4074 2371.00 2145.45 48.69
7546 0.4075 2443.00 2176.25 49.43
7547 0.4076 2402.00 2198.98 49.01
7548 0.4076 2493.00 2212.17 49.93
7549 0.4077 2430.00 2208.28 49.29
7550 0.4077 2370.00 2201.90 48.68
7551 0.4078 2337.00 2187.93 48.34
7552 0.4078 2202.00 2169.06 46.93
7553 0.4079 2159.00 2148.13 46.47
7554 0.4079 2232.00 2127.61 47.24
7555 0.4080 2118.00 2103.67 46.02
7556 0.4080 2103.00 2087.42 45.86
7557 0.4081 2059.00 2079.88 45.38
7558 0.4081 2171.00 2069.93 46.59
7559 0.4082 2081.00 2060.69 45.62
7560 0.4082 2138.00 2049.77 46.24
7561 0.4083 2042.00 2035.52 45.19
7562 0.4083 2096.00 2016.77 45.78
7563 0.4084 2043.00 1993.35 45.20
7564 0.4084 2009.00 1966.14 44.82
7565 0.4085 1997.00 1936.66 44.69
7566 0.4085 1978.00 1906.60 44.47
7567 0.4086 1925.00 1877.37 43.87
7568 0.4087 1882.00 1849.89 43.38
7569 0.4087 1820.00 1824.65 42.66
7570 0.4088 1778.00 1801.77 42.17
7571 0.4088 1899.00 1781.18 43.58
7572 0.4089 1826.00 1762.79 42.73
7573 0.4089 1789.00 1746.42 42.30
7574 0.4090 1905.00 1730.12 43.65
7575 0.4090 1797.00 1717.45 42.39
7576 0.4091 1760.00 1706.40 41.95
7577 0.4091 1729.00 1696.84 41.58
7578 0.4092 1768.00 1688.64 42.05
7579 0.4092 1736.00 1681.66 41.67
7580 0.4093 1781.00 1675.78 42.20
7581 0.4093 1676.00 1670.89 40.94
7582 0.4094 1695.00 1666.88 41.17
7583 0.4094 1652.00 1663.68 40.64
7584 0.4095 1728.00 1661.21 41.57
7585 0.4095 1716.00 1661.32 41.42
7586 0.4096 1673.00 1660.20 40.90
7587 0.4096 1728.00 1659.68 41.57
7588 0.4097 1686.00 1659.75 41.06
7589 0.4098 1730.00 1660.38 41.59
7590 0.4098 1671.00 1661.59 40.88
7591 0.4099 1680.00 1663.36 40.99
7592 0.4099 1704.00 1665.73 41.28
7593 0.4100 1700.00 1668.69 41.23
7594 0.4100 1687.00 1672.30 41.07
7595 0.4101 1695.00 1676.57 41.17
7596 0.4101 1649.00 1681.56 40.61
7597 0.4102 1620.00 1687.30 40.25
7598 0.4102 1715.00 1693.88 41.41
7599 0.4103 1750.00 1701.36 41.83
7600 0.4103 1737.00 1709.81 41.68
7601 0.4104 1732.00 1719.35 41.62
7602 0.4104 1767.00 1730.07 42.04
7603 0.4105 1794.00 1742.10 42.36
7604 0.4105 1807.00 1755.58 42.51
7605 0.4106 1758.00 1770.67 41.93
7606 0.4106 1817.00 1786.97 42.63
7607 0.4107 1887.00 1805.85 43.44
7608 0.4107 1903.00 1826.78 43.62
7609 0.4108 1896.00 1850.27 43.54
7610 0.4109 1950.00 1876.40 44.16
7611 0.4109 1877.00 1909.56 43.32
7612 0.4110 2002.00 1941.54 44.74
7613 0.4110 2119.00 1976.53 46.03
7614 0.4111 2072.00 2014.39 45.52
7615 0.4111 2117.00 2054.75 46.01
7616 0.4112 2150.00 2096.88 46.37
7617 0.4112 2179.00 2139.64 46.68
7618 0.4113 2209.00 2181.39 47.00
7619 0.4113 2303.00 2219.97 47.99
7620 0.4114 2333.00 2253.23 48.30
7621 0.4114 2362.00 2278.94 48.60
7622 0.4115 2361.00 2295.69 48.59
7623 0.4115 2259.00 2302.92 47.53
7624 0.4116 2371.00 2301.47 48.69
7625 0.4116 2178.00 2300.64 46.67
7626 0.4117 2255.00 2288.52 47.49
7627 0.4117 2232.00 2275.22 47.24
7628 0.4118 2178.00 2263.43 46.67
7629 0.4118 2248.00 2255.34 47.41
7630 0.4119 2170.00 2252.75 46.58
7631 0.4119 2218.00 2255.97 47.10
7632 0.4120 2269.00 2265.45 47.63
7633 0.4121 2301.00 2280.78 47.97
7634 0.4121 2243.00 2301.08 47.36
7635 0.4122 2369.00 2324.66 48.67
7636 0.4122 2413.00 2349.45 49.12
7637 0.4123 2348.00 2372.86 48.46
7638 0.4123 2422.00 2391.97 49.21
7639 0.4124 2360.00 2404.11 48.58
7640 0.4124 2411.00 2407.49 49.10
7641 0.4125 2281.00 2401.86 47.76
7642 0.4125 2413.00 2388.71 49.12
7643 0.4126 2281.00 2370.92 47.76
7644 0.4126 2223.00 2351.91 47.15
7645 0.4127 2243.00 2334.79 47.36
7646 0.4127 2137.00 2321.86 46.23
7647 0.4128 2228.00 2314.34 47.20
7648 0.4128 2153.00 2312.51 46.40
7649 0.4129 2241.00 2315.83 47.34
7650 0.4129 2266.00 2323.25 47.60
7651 0.4130 2224.00 2333.49 47.16
7652 0.4130 2291.00 2345.36 47.86
7653 0.4131 2225.00 2358.03 47.17
7654 0.4132 2232.00 2371.20 47.24
7655 0.4132 2339.00 2384.95 48.36
7656 0.4133 2294.00 2399.53 47.90
7657 0.4133 2287.00 2414.81 47.82
7658 0.4134 2347.00 2429.89 48.45
7659 0.4134 2345.00 2442.90 48.43
7660 0.4135 2437.00 2451.10 49.37
7661 0.4135 2416.00 2451.38 49.15
7662 0.4136 2471.00 2441.06 49.71
7663 0.4136 2366.00 2418.75 48.64
7664 0.4137 2300.00 2384.86 47.96
7665 0.4137 2212.00 2341.55 47.03
7666 0.4138 2134.00 2291.04 46.20
7667 0.4138 2113.00 2239.11 45.97
7668 0.4139 2108.00 2183.28 45.91
7669 0.4139 2028.00 2135.11 45.03
7670 0.4140 1985.00 2091.45 44.55
7671 0.4140 1988.00 2052.93 44.59
7672 0.4141 1991.00 2019.67 44.62
7673 0.4141 1905.00 1991.41 43.65
7674 0.4142 1823.00 1967.68 42.70
7675 0.4143 1926.00 1947.96 43.89
7676 0.4143 1890.00 1931.74 43.47
7677 0.4144 1846.00 1918.65 42.97
7678 0.4144 1855.00 1908.45 43.07
7679 0.4145 1870.00 1901.00 43.24
7680 0.4145 1954.00 1896.28 44.20
7681 0.4146 2051.00 1894.33 45.29
7682 0.4146 1925.00 1895.19 43.87
7683 0.4147 1853.00 1898.87 43.05
7684 0.4147 1870.00 1905.20 43.24
7685 0.4148 1844.00 1914.42 42.94
7686 0.4148 1880.00 1926.14 43.36
7687 0.4149 1817.00 1939.95 42.63
7688 0.4149 1896.00 1955.15 43.54
7689 0.4150 1838.00 1970.72 42.87
7690 0.4150 1868.00 1985.31 43.22
7691 0.4151 1889.00 1997.28 43.46
7692 0.4151 1921.00 2007.20 43.83
7693 0.4152 1853.00 2009.84 43.05
7694 0.4152 1890.00 2006.51 43.47
7695 0.4153 1865.00 1997.91 43.19
7696 0.4154 1875.00 1985.38 43.30
7697 0.4154 1880.00 1970.70 43.36
7698 0.4155 1841.00 1955.63 42.91
7699 0.4155 1835.00 1941.69 42.84
7700 0.4156 1899.00 1929.96 43.58
7701 0.4156 1780.00 1921.11 42.19
7702 0.4157 1950.00 1915.51 44.16
7703 0.4157 1860.00 1913.35 43.13
7704 0.4158 1905.00 1914.67 43.65
7705 0.4158 1924.00 1919.48 43.86
7706 0.4159 1888.00 1927.79 43.45
7707 0.4159 1889.00 1939.60 43.46
7708 0.4160 1914.00 1955.39 43.75
7709 0.4160 2000.00 1974.47 44.72
7710 0.4161 1947.00 1997.37 44.12
7711 0.4161 1996.00 2024.27 44.68
7712 0.4162 1965.00 2055.35 44.33
7713 0.4162 2096.00 2090.82 45.78
7714 0.4163 2076.00 2130.72 45.56
7715 0.4163 2145.00 2175.23 46.31
7716 0.4164 2185.00 2224.17 46.74
7717 0.4165 2252.00 2277.30 47.46
7718 0.4165 2186.00 2334.13 46.75
7719 0.4166 2311.00 2393.87 48.07
7720 0.4166 2422.00 2455.47 49.21
7721 0.4167 2423.00 2517.49 49.22
7722 0.4167 2487.00 2578.18 49.87
7723 0.4168 2475.00 2636.05 49.75
7724 0.4168 2609.00 2688.54 51.08
7725 0.4169 2445.00 2734.45 49.45
7726 0.4169 2613.00 2772.65 51.12
7727 0.4170 2522.00 2802.20 50.22
7728 0.4170 2661.00 2822.78 51.58
7729 0.4171 2731.00 2833.31 52.26
7730 0.4171 2799.00 2832.78 52.91
7731 0.4172 2752.00 2820.25 52.46
7732 0.4172 2772.00 2795.32 52.65
7733 0.4173 2900.00 2758.43 53.85
7734 0.4173 2659.00 2713.21 51.57
7735 0.4174 2656.00 2657.35 51.54
7736 0.4174 2576.00 2595.65 50.75
7737 0.4175 2565.00 2530.49 50.65
7738 0.4176 2439.00 2465.85 49.39
7739 0.4176 2365.00 2400.39 48.63
7740 0.4177 2388.00 2337.17 48.87
7741 0.4177 2205.00 2276.81 46.96
7742 0.4178 2244.00 2220.27 47.37
7743 0.4178 2130.00 2164.08 46.15
7744 0.4179 2054.00 2116.02 45.32
7745 0.4179 2039.00 2072.20 45.16
7746 0.4180 1974.00 2029.18 44.43
7747 0.4180 1954.00 1993.21 44.20
7748 0.4181 1892.00 1960.64 43.50
7749 0.4181 1893.00 1931.15 43.51
7750 0.4182 1806.00 1904.46 42.50
7751 0.4182 1853.00 1880.36 43.05
7752 0.4183 1848.00 1858.66 42.99
7753 0.4183 1806.00 1839.24 42.50
7754 0.4184 1748.00 1821.89 41.81
7755 0.4184 1838.00 1806.50 42.87
7756 0.4185 1810.00 1792.95 42.54
7757 0.4185 1833.00 1781.12 42.81
7758 0.4186 1798.00 1770.88 42.40
7759 0.4187 1790.00 1762.05 42.31
7760 0.4187 1768.00 1754.47 42.05
7761 0.4188 1774.00 1751.74 42.12
7762 0.4188 1721.00 1746.04 41.48
7763 0.4189 1723.00 1740.58 41.51
7764 0.4189 1750.00 1735.55 41.83
7765 0.4190 1812.00 1730.45 42.57
7766 0.4190 1727.00 1725.13 41.56
7767 0.4191 1631.00 1718.70 40.39
7768 0.4191 1749.00 1713.12 41.82
7769 0.4192 1723.00 1707.68 41.51
7770 0.4192 1776.00 1702.61 42.14
7771 0.4193 1726.00 1696.53 41.55
7772 0.4193 1770.00 1692.67 42.07
7773 0.4194 1689.00 1689.54 41.10
7774 0.4194 1674.00 1683.80 40.91
7775 0.4195 1735.00 1682.25 41.65
7776 0.4195 1730.00 1681.42 41.59
7777 0.4196 1765.00 1681.34 42.01
7778 0.4196 1766.00 1682.01 42.02
7779 0.4197 1768.00 1683.44 42.05
7780 0.4198 1644.00 1685.66 40.55
7781 0.4198 1833.00 1688.71 42.81
7782 0.4199 1808.00 1692.64 42.52
7783 0.4199 1760.00 1697.52 41.95
7784 0.4200 1802.00 1703.42 42.45
7785 0.4200 1819.00 1710.44 42.65
7786 0.4201 1870.00 1718.69 43.24
7787 0.4201 1856.00 1728.30 43.08
7788 0.4202 1946.00 1739.39 44.11
7789 0.4202 1887.00 1752.11 43.44
7790 0.4203 1997.00 1766.58 44.69
7791 0.4203 1938.00 1782.89 44.02
7792 0.4204 1962.00 1801.07 44.29
7793 0.4204 1978.00 1821.00 44.47
7794 0.4205 2084.00 1842.15 45.65
7795 0.4205 2107.00 1864.37 45.90
7796 0.4206 2073.00 1886.48 45.53
7797 0.4206 2174.00 1907.12 46.63
7798 0.4207 2145.00 1924.61 46.31
7799 0.4207 2241.00 1937.20 47.34
7800 0.4208 2222.00 1943.49 47.14
7801 0.4209 2273.00 1942.82 47.68
7802 0.4209 2255.00 1935.53 47.49
7803 0.4210 2213.00 1921.03 47.04
7804 0.4210 2220.00 1908.92 47.12
7805 0.4211 2197.00 1891.15 46.87
7806 0.4211 2194.00 1873.29 46.84
7807 0.4212 2184.00 1856.43 46.73
7808 0.4212 2166.00 1841.23 46.54
7809 0.4213 2032.00 1827.93 45.08
7810 0.4213 2005.00 1816.61 44.78
7811 0.4214 1956.00 1807.09 44.23
7812 0.4214 1993.00 1799.15 44.64
7813 0.4215 1987.00 1792.48 44.58
7814 0.4215 1954.00 1786.69 44.20
7815 0.4216 1989.00 1781.43 44.60
7816 0.4216 1925.00 1776.43 43.87
7817 0.4217 1963.00 1771.59 44.31
7818 0.4217 1843.00 1766.99 42.93
7819 0.4218 1950.00 1762.84 44.16
7820 0.4218 1845.00 1759.45 42.95
7821 0.4219 1870.00 1757.07 43.24
7822 0.4220 1782.00 1755.88 42.21
7823 0.4220 1961.00 1757.38 44.28
7824 0.4221 1877.00 1758.60 43.32
7825 0.4221 1893.00 1760.80 43.51
7826 0.4222 1909.00 1763.69 43.69
7827 0.4222 1858.00 1766.96 43.10
7828 0.4223 1851.00 1770.09 43.02
7829 0.4223 1809.00 1773.48 42.53
7830 0.4224 1932.00 1776.93 43.95
7831 0.4224 1846.00 1780.69 42.97
7832 0.4225 1880.00 1785.07 43.36
7833 0.4225 1808.00 1790.61 42.52
7834 0.4226 1945.00 1800.32 44.10
7835 0.4226 1902.00 1809.24 43.61
7836 0.4227 1872.00 1820.24 43.27
7837 0.4227 1911.00 1831.61 43.72
7838 0.4228 1843.00 1847.36 42.93
7839 0.4228 1937.00 1865.63 44.01
7840 0.4229 1890.00 1886.48 43.47
7841 0.4229 1895.00 1909.83 43.53
7842 0.4230 1913.00 1935.45 43.74
7843 0.4230 2014.00 1962.93 44.88
7844 0.4231 2021.00 1991.53 44.96
7845 0.4232 2009.00 2020.21 44.82
7846 0.4232 2002.00 2047.63 44.74
7847 0.4233 2076.00 2068.79 45.56
7848 0.4233 2146.00 2089.21 46.32
7849 0.4234 2133.00 2104.29 46.18
7850 0.4234 2163.00 2113.59 46.51
7851 0.4235 2069.00 2117.37 45.49
7852 0.4235 2202.00 2119.35 46.93
7853 0.4236 2180.00 2114.71 46.69
7854 0.4236 2191.00 2107.19 46.81
7855 0.4237 2209.00 2092.90 47.00
7856 0.4237 2184.00 2081.19 46.73
7857 0.4238 2129.00 2067.76 46.14
7858 0.4238 2008.00 2053.04 44.81
7859 0.4239 2026.00 2037.68 45.01
7860 0.4239 2034.00 2022.56 45.10
7861 0.4240 2029.00 2008.68 45.04
7862 0.4240 1996.00 1996.96 44.68
7863 0.4241 2047.00 1988.19 45.24
7864 0.4241 1950.00 1982.97 44.16
7865 0.4242 1995.00 1981.40 44.67
7866 0.4243 2007.00 1984.04 44.80
7867 0.4243 1893.00 1991.14 43.51
7868 0.4244 1964.00 2002.49 44.32
7869 0.4244 1976.00 2018.46 44.45
7870 0.4245 1974.00 2037.85 44.43
7871 0.4245 2009.00 2060.88 44.82
7872 0.4246 1959.00 2086.88 44.26
7873 0.4246 2018.00 2114.94 44.92
7874 0.4247 1983.00 2143.69 44.53
7875 0.4247 2024.00 2171.33 44.99
7876 0.4248 1977.00 2195.57 44.46
7877 0.4248 1934.00 2213.96 43.98
7878 0.4249 1999.00 2224.14 44.71
7879 0.4249 1947.00 2224.43 44.12
7880 0.4250 2019.00 2214.67 44.93
7881 0.4250 2009.00 2194.76 44.82
7882 0.4251 1932.00 2167.01 43.95
7883 0.4251 2014.00 2134.01 44.88
7884 0.4252 1956.00 2098.40 44.23
7885 0.4252 1990.00 2062.61 44.61
7886 0.4253 1993.00 2028.48 44.64
7887 0.4254 1908.00 1997.24 43.68
7888 0.4254 1864.00 1969.62 43.17
7889 0.4255 1938.00 1947.19 44.02
7890 0.4255 1857.00 1927.51 43.09
7891 0.4256 1912.00 1911.71 43.73
7892 0.4256 1919.00 1899.60 43.81
7893 0.4257 1889.00 1890.97 43.46
7894 0.4257 1930.00 1885.66 43.93
7895 0.4258 1940.00 1883.50 44.05
7896 0.4258 1956.00 1884.42 44.23
7897 0.4259 1923.00 1888.37 43.85
7898 0.4259 1910.00 1895.35 43.70
7899 0.4260 1898.00 1905.40 43.57
7900 0.4260 1979.00 1918.55 44.49
7901 0.4261 1908.00 1934.83 43.68
7902 0.4261 1974.00 1954.21 44.43
7903 0.4262 1941.00 1976.55 44.06
7904 0.4262 2006.00 2001.55 44.79
7905 0.4263 1908.00 2028.59 43.68
7906 0.4263 2031.00 2056.99 45.07
7907 0.4264 2065.00 2085.64 45.44
7908 0.4265 2004.00 2113.46 44.77
7909 0.4265 2042.00 2139.38 45.19
7910 0.4266 2096.00 2160.45 45.78
7911 0.4266 2060.00 2180.16 45.39
7912 0.4267 2126.00 2195.69 46.11
7913 0.4267 2054.00 2206.19 45.32
7914 0.4268 2146.00 2210.76 46.32
7915 0.4268 2073.00 2208.66 45.53
7916 0.4269 2158.00 2199.73 46.45
7917 0.4269 2162.00 2184.66 46.50
7918 0.4270 2090.00 2164.95 45.72
7919 0.4270 2095.00 2142.67 45.77
7920 0.4271 2001.00 2120.03 44.73
7921 0.4271 2100.00 2098.97 45.83
7922 0.4272 2103.00 2081.05 45.86
7923 0.4272 2012.00 2067.30 44.86
7924 0.4273 1965.00 2059.90 44.33
7925 0.4273 1955.00 2055.27 44.22
7926 0.4274 2012.00 2056.01 44.86
7927 0.4274 1942.00 2061.09 44.07
7928 0.4275 1993.00 2069.77 44.64
7929 0.4276 2038.00 2081.05 45.14
7930 0.4276 2041.00 2093.63 45.18
7931 0.4277 2012.00 2106.12 44.86
7932 0.4277 1997.00 2117.17 44.69
7933 0.4278 2037.00 2125.77 45.13
7934 0.4278 2007.00 2131.36 44.80
7935 0.4279 2073.00 2133.56 45.53
7936 0.4279 2029.00 2133.24 45.04
7937 0.4280 2075.00 2130.26 45.55
7938 0.4280 1955.00 2128.32 44.22
7939 0.4281 1997.00 2119.81 44.69
7940 0.4281 1981.00 2108.06 44.51
7941 0.4282 2025.00 2092.86 45.00
7942 0.4282 1960.00 2074.38 44.27
7943 0.4283 1936.00 2053.15 44.00
7944 0.4283 1991.00 2030.09 44.62
7945 0.4284 1900.00 2006.32 43.59
7946 0.4284 1944.00 1982.98 44.09
7947 0.4285 1880.00 1961.07 43.36
7948 0.4285 1934.00 1941.34 43.98
7949 0.4286 1841.00 1924.31 42.91
7950 0.4287 1872.00 1910.28 43.27
7951 0.4287 1954.00 1899.38 44.20
7952 0.4288 1795.00 1891.66 42.37
7953 0.4288 1924.00 1887.08 43.86
7954 0.4289 1890.00 1885.64 43.47
7955 0.4289 1951.00 1887.26 44.17
7956 0.4290 1926.00 1891.94 43.89
7957 0.4290 1952.00 1899.65 44.18
7958 0.4291 1836.00 1910.40 42.85
7959 0.4291 1977.00 1924.16 44.46
7960 0.4292 1979.00 1940.86 44.49
7961 0.4292 1987.00 1962.48 44.58
7962 0.4293 2014.00 1984.50 44.88
7963 0.4293 2002.00 2008.44 44.74
7964 0.4294 2119.00 2033.42 46.03
7965 0.4294 2084.00 2058.23 45.65
7966 0.4295 2117.00 2079.01 46.01
7967 0.4295 2124.00 2098.24 46.09
7968 0.4296 2191.00 2111.77 46.81
7969 0.4296 2191.00 2118.04 46.81
7970 0.4297 2231.00 2116.29 47.23
7971 0.4298 2266.00 2106.75 47.60
7972 0.4298 2258.00 2090.69 47.52
7973 0.4299 2216.00 2074.61 47.07
7974 0.4299 2265.00 2051.41 47.59
7975 0.4300 2281.00 2027.51 47.76
7976 0.4300 2249.00 2004.27 47.42
7977 0.4301 2375.00 1981.12 48.73
7978 0.4301 2313.00 1961.18 48.09
7979 0.4302 2474.00 1943.02 49.74
7980 0.4302 2376.00 1927.92 48.74
7981 0.4303 2389.00 1912.95 48.88
7982 0.4303 2412.00 1899.55 49.11
7983 0.4304 2391.00 1887.90 48.90
7984 0.4304 2305.00 1878.26 48.01
7985 0.4305 2235.00 1870.88 47.28
7986 0.4305 2272.00 1865.93 47.67
7987 0.4306 2223.00 1863.49 47.15
7988 0.4306 2266.00 1863.50 47.60
7989 0.4307 2203.00 1865.78 46.94
7990 0.4307 2233.00 1869.99 47.25
7991 0.4308 2226.00 1875.66 47.18
7992 0.4309 2315.00 1882.07 48.11
7993 0.4309 2281.00 1888.48 47.76
7994 0.4310 2392.00 1893.93 48.91
7995 0.4310 2443.00 1897.55 49.43
7996 0.4311 2337.00 1898.44 48.34
7997 0.4311 2494.00 1896.14 49.94
7998 0.4312 2334.00 1890.52 48.31
7999 0.4312 2408.00 1878.09 49.07
8000 0.4313 2290.00 1866.91 47.85
8001 0.4313 2246.00 1853.96 47.39
8002 0.4314 2181.00 1839.97 46.70
8003 0.4314 2218.00 1825.70 47.10
8004 0.4315 2130.00 1811.77 46.15
8005 0.4315 2009.00 1798.68 44.82
8006 0.4316 2089.00 1786.78 45.71
8007 0.4316 1995.00 1776.31 44.67
8008 0.4317 2000.00 1767.38 44.72
8009 0.4317 1897.00 1760.01 43.55
8010 0.4318 1891.00 1754.21 43.49
8011 0.4318 1894.00 1749.91 43.52
8012 0.4319 1899.00 1747.05 43.58
8013 0.4320 1892.00 1745.54 43.50
8014 0.4320 1835.00 1745.40 42.84
8015 0.4321 1805.00 1745.57 42.49
8016 0.4321 1826.00 1748.78 42.73
8017 0.4322 1759.00 1752.58 41.94
8018 0.4322 1825.00 1757.74 42.72
8019 0.4323 1811.00 1764.33 42.56
8020 0.4323 1811.00 1772.40 42.56
8021 0.4324 1837.00 1782.06 42.86
8022 0.4324 1779.00 1793.86 42.18
8023 0.4325 1871.00 1806.95 43.26
8024 0.4325 1847.00 1824.60 42.98
8025 0.4326 1930.00 1841.32 43.93
8026 0.4326 1872.00 1859.67 43.27
8027 0.4327 1913.00 1879.36 43.74
8028 0.4327 1885.00 1899.86 43.42
8029 0.4328 1889.00 1920.33 43.46
8030 0.4328 1894.00 1939.69 43.52
8031 0.4329 1940.00 1956.74 44.05
8032 0.4329 1917.00 1967.53 43.78
8033 0.4330 1971.00 1977.01 44.40
8034 0.4331 1955.00 1982.28 44.22
8035 0.4331 1915.00 1984.09 43.76
8036 0.4332 1912.00 1983.77 43.73
8037 0.4332 1833.00 1982.92 42.81
8038 0.4333 1887.00 1983.12 43.44
8039 0.4333 1851.00 1985.64 43.02
8040 0.4334 1796.00 1991.51 42.38
8041 0.4334 1955.00 2001.38 44.22
8042 0.4335 1867.00 2015.63 43.21
8043 0.4335 1949.00 2035.08 44.15
8044 0.4336 1985.00 2058.05 44.55
8045 0.4336 1981.00 2085.78 44.51
8046 0.4337 1985.00 2117.81 44.55
8047 0.4337 2121.00 2153.17 46.05
8048 0.4338 2017.00 2190.74 44.91
8049 0.4338 2031.00 2230.15 45.07
8050 0.4339 2110.00 2266.58 45.93
8051 0.4339 2067.00 2298.89 45.46
8052 0.4340 2139.00 2324.63 46.25
8053 0.4340 2076.00 2341.94 45.56
8054 0.4341 2139.00 2350.11 46.25
8055 0.4342 2121.00 2349.76 46.05
8056 0.4342 2054.00 2342.77 45.32
8057 0.4343 2055.00 2331.70 45.33
8058 0.4343 2053.00 2319.11 45.31
8059 0.4344 2189.00 2306.92 46.79
8060 0.4344 2130.00 2296.03 46.15
8061 0.4345 2133.00 2286.17 46.18
8062 0.4345 2167.00 2276.16 46.55
8063 0.4346 2213.00 2264.31 47.04
8064 0.4346 2250.00 2249.15 47.43
8065 0.4347 2218.00 2228.20 47.10
8066 0.4347 2183.00 2205.64 46.72
8067 0.4348 2147.00 2181.61 46.34
8068 0.4348 2231.00 2157.32 47.23
8069 0.4349 2338.00 2135.22 48.35
8070 0.4349 2282.00 2116.93 47.77
8071 0.4350 2302.00 2103.46 47.98
8072 0.4350 2411.00 2095.30 49.10
8073 0.4351 2383.00 2092.48 48.82
8074 0.4351 2562.00 2094.71 50.62
8075 0.4352 2664.00 2101.40 51.61
8076 0.4352 2799.00 2111.80 52.91
8077 0.4353 2778.00 2125.00 52.71
8078 0.4354 2791.00 2140.12 52.83
8079 0.4354 2912.00 2156.46 53.96
8080 0.4355 2903.00 2173.58 53.88
8081 0.4355 2978.00 2191.40 54.57
8082 0.4356 2808.00 2209.94 52.99
8083 0.4356 2828.00 2230.57 53.18
8084 0.4357 2813.00 2250.07 53.04
8085 0.4357 2822.00 2268.90 53.12
8086 0.4358 2761.00 2285.63 52.55
8087 0.4358 2779.00 2298.56 52.72
8088 0.4359 2730.00 2305.51 52.25
8089 0.4359 2774.00 2306.35 52.67
8090 0.4360 2788.00 2300.00 52.80
8091 0.4360 2610.00 2286.82 51.09
8092 0.4361 2551.00 2267.42 50.51
8093 0.4361 2449.00 2244.25 49.49
8094 0.4362 2447.00 2218.29 49.47
8095 0.4362 2266.00 2190.69 47.60
8096 0.4363 2320.00 2162.24 48.17
8097 0.4363 2247.00 2133.31 47.40
8098 0.4364 2170.00 2104.00 46.58
8099 0.4365 2090.00 2074.44 45.72
8100 0.4365 2081.00 2044.78 45.62
8101 0.4366 1982.00 2015.35 44.52
8102 0.4366 1989.00 1986.59 44.60
8103 0.4367 1993.00 1958.96 44.64
8104 0.4367 1965.00 1932.93 44.33
8105 0.4368 1948.00 1908.82 44.14
8106 0.4368 1862.00 1886.22 43.15
8107 0.4369 1946.00 1866.57 44.11
8108 0.4369 1852.00 1849.21 43.03
8109 0.4370 1891.00 1834.06 43.49
8110 0.4370 1780.00 1820.60 42.19
8111 0.4371 1821.00 1809.53 42.67
8112 0.4371 1922.00 1800.26 43.84
8113 0.4372 1821.00 1792.66 42.67
8114 0.4372 1745.00 1786.62 41.77
8115 0.4373 1731.00 1782.02 41.61
8116 0.4373 1765.00 1778.78 42.01
8117 0.4374 1749.00 1776.83 41.82
8118 0.4374 1711.00 1776.12 41.36
8119 0.4375 1673.00 1776.63 40.90
8120 0.4376 1786.00 1778.35 42.26
8121 0.4376 1796.00 1781.27 42.38
8122 0.4377 1679.00 1785.44 40.98
8123 0.4377 1735.00 1790.88 41.65
8124 0.4378 1760.00 1797.63 41.95
8125 0.4378 1748.00 1809.11 41.81
8126 0.4379 1729.00 1818.66 41.58
8127 0.4379 1750.00 1829.62 41.83
8128 0.4380 1730.00 1841.95 41.59
8129 0.4380 1756.00 1855.59 41.90
8130 0.4381 1775.00 1870.37 42.13
8131 0.4381 1721.00 1886.07 41.48
8132 0.4382 1815.00 1902.36 42.60
8133 0.4382 1763.00 1918.87 41.99
8134 0.4383 1825.00 1935.28 42.72
8135 0.4383 1763.00 1951.32 41.99
8136 0.4384 1844.00 1966.95 42.94
8137 0.4384 1831.00 1982.29 42.79
8138 0.4385 1862.00 1997.67 43.15
8139 0.4385 1878.00 2013.47 43.34
8140 0.4386 1925.00 2030.08 43.87
8141 0.4387 1797.00 2048.65 42.39
8142 0.4387 1962.00 2067.59 44.29
8143 0.4388 1878.00 2086.22 43.34
8144 0.4388 2056.00 2107.68 45.34
8145 0.4389 1981.00 2130.13 44.51
8146 0.4389 2076.00 2153.18 45.56
8147 0.4390 2119.00 2176.13 46.03
8148 0.4390 2176.00 2197.92 46.65
8149 0.4391 2273.00 2217.21 47.68
8150 0.4391 2281.00 2232.42 47.76
8151 0.4392 2257.00 2242.04 47.51
8152 0.4392 2132.00 2244.96 46.17
8153 0.4393 2150.00 2240.73 46.37
8154 0.4393 2070.00 2229.78 45.50
8155 0.4394 2086.00 2213.35 45.67
8156 0.4394 2087.00 2193.20 45.68
8157 0.4395 2032.00 2171.35 45.08
8158 0.4395 2007.00 2149.63 44.80
8159 0.4396 2030.00 2131.88 45.06
8160 0.4396 1975.00 2114.29 44.44
8161 0.4397 1945.00 2099.63 44.10
8162 0.4398 1906.00 2087.82 43.66
8163 0.4398 1920.00 2078.51 43.82
8164 0.4399 1943.00 2071.08 44.08
8165 0.4399 1944.00 2064.93 44.09
8166 0.4400 1936.00 2059.55 44.00
8167 0.4400 1925.00 2054.65 43.87
8168 0.4401 1996.00 2050.22 44.68
8169 0.4401 1912.00 2044.35 43.73
8170 0.4402 1945.00 2037.80 44.10
8171 0.4402 1963.00 2036.00 44.31
8172 0.4403 2001.00 2035.19 44.73
8173 0.4403 2032.00 2035.12 45.08
8174 0.4404 2044.00 2035.31 45.21
8175 0.4404 2076.00 2035.13 45.56
8176 0.4405 2078.00 2033.99 45.59
8177 0.4405 2008.00 2031.41 44.81
8178 0.4406 2072.00 2027.17 45.52
8179 0.4406 2045.00 2021.29 45.22
8180 0.4407 2068.00 2014.05 45.48
8181 0.4407 2067.00 2005.87 45.46
8182 0.4408 2113.00 1997.26 45.97
8183 0.4409 2119.00 1988.73 46.03
8184 0.4409 2063.00 1980.83 45.42
8185 0.4410 1981.00 1974.10 44.51
8186 0.4410 2010.00 1968.25 44.83
8187 0.4411 2055.00 1965.24 45.33
8188 0.4411 1983.00 1964.51 44.53
8189 0.4412 1913.00 1966.08 43.74
8190 0.4412 1934.00 1969.71 43.98
8191 0.4413 1942.00 1974.85 44.07
8192 0.4413 1939.00 1980.71 44.03
8193 0.4414 1830.00 1986.26 42.78
8194 0.4414 1953.00 1990.40 44.19
8195 0.4415 1925.00 1992.19 43.87
8196 0.4415 1875.00 1991.05 43.30
8197 0.4416 1892.00 1987.00 43.50
8198 0.4416 1903.00 1980.63 43.62
8199 0.4417 1891.00 1975.82 43.49
8200 0.4417 1927.00 1968.08 43.90
8201 0.4418 1887.00 1961.38 43.44
8202 0.4418 1856.00 1956.61 43.08
8203 0.4419 1964.00 1954.43 44.32
8204 0.4420 1950.00 1955.24 44.16
8205 0.4420 1978.00 1959.24 44.47
8206 0.4421 1979.00 1967.37 44.49
8207 0.4421 1983.00 1977.74 44.53
8208 0.4422 1952.00 1991.04 44.18
8209 0.4422 2013.00 2006.90 44.87
8210 0.4423 2035.00 2024.77 45.11
8211 0.4423 2109.00 2044.03 45.92
8212 0.4424 2155.00 2063.69 46.42
8213 0.4424 2058.00 2082.66 45.37
8214 0.4425 2251.00 2099.71 47.44
8215 0.4425 2204.00 2110.39 46.95
8216 0.4426 2276.00 2120.48 47.71
8217 0.4426 2244.00 2126.22 47.37
8218 0.4427 2294.00 2127.83 47.90
8219 0.4427 2271.00 2126.15 47.65
8220 0.4428 2222.00 2122.46 47.14
8221 0.4428 2267.00 2118.28 47.61
8222 0.4429 2182.00 2115.10 46.71
8223 0.4429 2278.00 2114.19 47.73
8224 0.4430 2211.00 2116.50 47.02
8225 0.4431 2432.00 2122.59 49.32
8226 0.4431 2307.00 2132.57 48.03
8227 0.4432 2429.00 2144.88 49.28
8228 0.4432 2539.00 2161.05 50.39
8229 0.4433 2516.00 2178.43 50.16
8230 0.4433 2666.00 2195.13 51.63
8231 0.4434 2622.00 2209.01 51.21
8232 0.4434 2808.00 2218.00 52.99
8233 0.4435 2713.00 2220.66 52.09
8234 0.4435 2850.00 2216.44 53.39
8235 0.4436 2612.00 2205.81 51.11
8236 0.4436 2571.00 2189.96 50.71
8237 0.4437 2618.00 2170.42 51.17
8238 0.4437 2486.00 2148.89 49.86
8239 0.4438 2457.00 2126.26 49.57
8240 0.4438 2226.00 2103.77 47.18
8241 0.4439 2305.00 2082.23 48.01
8242 0.4439 2138.00 2062.28 46.24
8243 0.4440 2181.00 2044.37 46.70
8244 0.4440 2124.00 2028.76 46.09
8245 0.4441 2084.00 2015.48 45.65
8246 0.4442 2090.00 2004.31 45.72
8247 0.4442 1972.00 1994.78 44.41
8248 0.4443 1994.00 1986.24 44.65
8249 0.4443 2022.00 1978.01 44.97
8250 0.4444 1969.00 1969.55 44.37
8251 0.4444 1901.00 1960.69 43.60
8252 0.4445 1883.00 1954.85 43.39
8253 0.4445 1806.00 1946.30 42.50
8254 0.4446 1939.00 1938.98 44.03
8255 0.4446 1836.00 1933.65 42.85
8256 0.4447 1840.00 1930.25 42.90
8257 0.4447 1871.00 1930.67 43.26
8258 0.4448 1914.00 1934.38 43.75
8259 0.4448 1881.00 1941.39 43.37
8260 0.4449 1927.00 1951.42 43.90
8261 0.4449 2013.00 1963.92 44.87
8262 0.4450 1968.00 1977.97 44.36
8263 0.4450 2017.00 1992.16 44.91
8264 0.4451 2022.00 2004.74 44.97
8265 0.4451 2064.00 2012.57 45.43
8266 0.4452 2120.00 2015.77 46.04
8267 0.4453 2187.00 2011.82 46.77
8268 0.4453 2220.00 2000.21 47.12
8269 0.4454 2045.00 1981.60 45.22
8270 0.4454 2034.00 1957.60 45.10
8271 0.4455 1958.00 1932.64 44.25
8272 0.4455 1917.00 1904.18 43.78
8273 0.4456 1818.00 1876.23 42.64
8274 0.4456 1748.00 1849.91 41.81
8275 0.4457 1707.00 1825.90 41.32
8276 0.4457 1736.00 1804.50 41.67
8277 0.4458 1737.00 1785.70 41.68
8278 0.4458 1669.00 1769.39 40.85
8279 0.4459 1674.00 1755.34 40.91
8280 0.4459 1650.00 1743.31 40.62
8281 0.4460 1672.00 1730.32 40.89
8282 0.4460 1636.00 1727.08 40.45
8283 0.4461 1630.00 1719.88 40.37
8284 0.4461 1669.00 1713.87 40.85
8285 0.4462 1691.00 1708.91 41.12
8286 0.4462 1648.00 1704.88 40.60
8287 0.4463 1649.00 1701.70 40.61
8288 0.4464 1686.00 1699.25 41.06
8289 0.4464 1643.00 1696.61 40.53
8290 0.4465 1610.00 1695.56 40.12
8291 0.4465 1630.00 1695.13 40.37
8292 0.4466 1690.00 1695.32 41.11
8293 0.4466 1649.00 1696.10 40.61
8294 0.4467 1668.00 1697.47 40.84
8295 0.4467 1654.00 1699.46 40.67
8296 0.4468 1666.00 1702.06 40.82
8297 0.4468 1615.00 1705.32 40.19
8298 0.4469 1648.00 1709.25 40.60
8299 0.4469 1647.00 1713.90 40.58
8300 0.4470 1729.00 1718.90 41.58
8301 0.4470 1735.00 1725.15 41.65
8302 0.4471 1667.00 1732.27 40.83
8303 0.4471 1758.00 1740.33 41.93
8304 0.4472 1769.00 1749.40 42.06
8305 0.4472 1749.00 1759.53 41.82
8306 0.4473 1695.00 1769.43 41.17
8307 0.4473 1718.00 1781.85 41.45
8308 0.4474 1814.00 1795.44 42.59
8309 0.4474 1735.00 1810.23 41.65
8310 0.4475 1823.00 1824.82 42.70
8311 0.4476 1870.00 1842.05 43.24
8312 0.4476 1865.00 1860.50 43.19
8313 0.4477 1898.00 1880.18 43.57
8314 0.4477 1889.00 1900.98 43.46
8315 0.4478 1856.00 1922.68 43.08
8316 0.4478 1920.00 1944.84 43.82
8317 0.4479 1967.00 1966.76 44.35
8318 0.4479 1961.00 1990.15 44.28
8319 0.4480 1959.00 2008.69 44.26
8320 0.4480 2121.00 2023.74 46.05
8321 0.4481 2159.00 2034.21 46.47
8322 0.4481 2178.00 2039.36 46.67
8323 0.4482 2076.00 2038.99 45.56
8324 0.4482 1995.00 2033.48 44.67
8325 0.4483 1981.00 2023.78 44.51
8326 0.4483 1935.00 2011.13 43.99
8327 0.4484 2018.00 1996.86 44.92
8328 0.4484 1884.00 1982.18 43.41
8329 0.4485 1901.00 1967.98 43.60
8330 0.4485 1925.00 1957.90 43.87
8331 0.4486 1866.00 1946.01 43.20
8332 0.4487 1973.00 1935.22 44.42
8333 0.4487 1870.00 1925.19 43.24
8334 0.4488 1887.00 1915.49 43.44
8335 0.4488 1863.00 1905.67 43.16
8336 0.4489 1900.00 1895.43 43.59
8337 0.4489 1866.00 1884.66 43.20
8338 0.4490 1865.00 1873.45 43.19
8339 0.4490 1860.00 1862.08 43.13
8340 0.4491 1862.00 1850.92 43.15
8341 0.4491 1728.00 1840.36 41.57
8342 0.4492 1769.00 1828.77 42.06
8343 0.4492 1805.00 1820.44 42.49
8344 0.4493 1812.00 1813.51 42.57
8345 0.4493 1754.00 1808.06 41.88
8346 0.4494 1749.00 1801.71 41.82
8347 0.4494 1885.00 1799.18 43.42
8348 0.4495 1763.00 1797.95 41.99
8349 0.4495 1838.00 1797.85 42.87
8350 0.4496 1768.00 1798.71 42.05
8351 0.4496 1789.00 1800.38 42.30
8352 0.4497 1828.00 1802.72 42.76
8353 0.4498 1792.00 1805.72 42.33
8354 0.4498 1764.00 1808.82 42.00
8355 0.4499 1822.00 1813.34 42.68
8356 0.4499 1804.00 1818.87 42.47
8357 0.4500 1846.00 1825.61 42.97
8358 0.4500 1753.00 1833.78 41.87
8359 0.4501 1783.00 1843.55 42.23
8360 0.4501 1791.00 1854.25 42.32
8361 0.4502 1813.00 1867.28 42.58
8362 0.4502 1903.00 1882.95 43.62
8363 0.4503 1824.00 1902.70 42.71
8364 0.4503 1865.00 1923.14 43.19
8365 0.4504 1908.00 1946.22 43.68
8366 0.4504 1882.00 1972.11 43.38
8367 0.4505 1939.00 2001.01 44.03
8368 0.4505 1954.00 2033.06 44.20
8369 0.4506 1975.00 2068.33 44.44
8370 0.4506 2043.00 2106.86 45.20
8371 0.4507 2114.00 2148.09 45.98
8372 0.4507 2163.00 2192.48 46.51
8373 0.4508 2238.00 2238.99 47.31
8374 0.4509 2247.00 2286.67 47.40
8375 0.4509 2281.00 2334.23 47.76
8376 0.4510 2346.00 2380.09 48.44
8377 0.4510 2404.00 2420.30 49.03
8378 0.4511 2365.00 2457.96 48.63
8379 0.4511 2420.00 2489.54 49.19
8380 0.4512 2429.00 2514.47 49.28
8381 0.4512 2461.00 2532.84 49.61
8382 0.4513 2488.00 2545.30 49.88
8383 0.4513 2434.00 2552.90 49.34
8384 0.4514 2499.00 2556.88 49.99
8385 0.4514 2368.00 2558.46 48.66
8386 0.4515 2391.00 2559.52 48.90
8387 0.4515 2516.00 2559.45 50.16
8388 0.4516 2389.00 2559.45 48.88
8389 0.4516 2532.00 2559.42 50.32
8390 0.4517 2375.00 2558.62 48.73
8391 0.4517 2491.00 2555.69 49.91
8392 0.4518 2528.00 2548.82 50.28
8393 0.4518 2531.00 2536.18 50.31
8394 0.4519 2514.00 2516.25 50.14
8395 0.4520 2496.00 2488.27 49.96
8396 0.4520 2493.00 2452.38 49.93
8397 0.4521 2305.00 2409.70 48.01
8398 0.4521 2341.00 2362.08 48.38
8399 0.4522 2189.00 2311.66 46.79
8400 0.4522 2158.00 2260.66 46.45
8401 0.4523 2145.00 2210.97 46.31
8402 0.4523 2075.00 2165.76 45.55
8403 0.4524 2079.00 2122.63 45.60
8404 0.4524 1944.00 2083.81 44.09
8405 0.4525 1981.00 2049.54 44.51
8406 0.4525 1894.00 2019.77 43.52
8407 0.4526 1886.00 1994.35 43.43
8408 0.4526 1883.00 1973.06 43.39
8409 0.4527 1870.00 1955.64 43.24
8410 0.4527 1872.00 1941.83 43.27
8411 0.4528 1834.00 1931.38 42.83
8412 0.4528 1834.00 1924.12 42.83
8413 0.4529 1908.00 1919.89 43.68
8414 0.4529 1897.00 1918.57 43.55
8415 0.4530 1819.00 1920.10 42.65
8416 0.4531 1845.00 1924.46 42.95
8417 0.4531 1843.00 1931.64 42.93
8418 0.4532 1820.00 1941.67 42.66
8419 0.4532 1813.00 1955.16 42.58
8420 0.4533 1912.00 1970.93 43.73
8421 0.4533 1809.00 1989.53 42.53
8422 0.4534 1928.00 2011.05 43.91
8423 0.4534 1926.00 2034.58 43.89
8424 0.4535 1881.00 2060.06 43.37
8425 0.4535 1872.00 2086.64 43.27
8426 0.4536 1889.00 2113.34 43.46
8427 0.4536 1909.00 2139.04 43.69
8428 0.4537 1954.00 2162.64 44.20
8429 0.4537 1995.00 2183.30 44.67
8430 0.4538 2010.00 2200.62 44.83
8431 0.4538 2039.00 2214.65 45.16
8432 0.4539 1930.00 2226.46 43.93
8433 0.4539 2009.00 2235.70 44.82
8434 0.4540 1996.00 2243.41 44.68
8435 0.4540 1962.00 2249.62 44.29
8436 0.4541 2013.00 2253.63 44.87
8437 0.4542 1882.00 2254.06 43.38
8438 0.4542 1987.00 2248.92 44.58
8439 0.4543 1926.00 2236.43 43.89
8440 0.4543 1950.00 2215.50 44.16
8441 0.4544 1877.00 2186.24 43.32
8442 0.4544 1897.00 2150.08 43.55
8443 0.4545 1900.00 2109.27 43.59
8444 0.4545 1856.00 2066.44 43.08
8445 0.4546 1876.00 2023.92 43.31
8446 0.4546 1786.00 1983.50 42.26
8447 0.4547 1808.00 1946.29 42.52
8448 0.4547 1774.00 1912.84 42.12
8449 0.4548 1762.00 1883.29 41.98
8450 0.4548 1719.00 1857.52 41.46
8451 0.4549 1751.00 1835.23 41.85
8452 0.4549 1721.00 1816.11 41.48
8453 0.4550 1755.00 1797.43 41.89
8454 0.4550 1770.00 1783.64 42.07
8455 0.4551 1781.00 1772.04 42.20
8456 0.4551 1812.00 1762.36 42.57
8457 0.4552 1746.00 1754.42 41.79
8458 0.4553 1716.00 1748.00 41.42
8459 0.4553 1675.00 1742.99 40.93
8460 0.4554 1732.00 1739.27 41.62
8461 0.4554 1780.00 1736.76 42.19
8462 0.4555 1743.00 1735.41 41.75
8463 0.4555 1757.00 1735.19 41.92
8464 0.4556 1724.00 1736.09 41.52
8465 0.4556 1755.00 1738.11 41.89
8466 0.4557 1746.00 1741.29 41.79
8467 0.4557 1778.00 1744.77 42.17
8468 0.4558 1744.00 1750.21 41.76
8469 0.4558 1784.00 1757.16 42.24
8470 0.4559 1800.00 1765.47 42.43
8471 0.4559 1835.00 1775.19 42.84
8472 0.4560 1805.00 1786.31 42.49
8473 0.4560 1866.00 1798.80 43.20
8474 0.4561 1894.00 1812.51 43.52
8475 0.4561 1894.00 1827.16 43.52
8476 0.4562 1869.00 1842.27 43.23
8477 0.4562 1935.00 1858.51 43.99
8478 0.4563 1909.00 1872.28 43.69
8479 0.4564 1863.00 1884.87 43.16
8480 0.4564 2024.00 1893.11 44.99
8481 0.4565 2030.00 1897.09 45.06
8482 0.4565 1999.00 1896.31 44.71
8483 0.4566 1940.00 1890.85 44.05
8484 0.4566 2034.00 1881.34 45.10
8485 0.4567 1971.00 1868.89 44.40
8486 0.4567 1934.00 1854.79 43.98
8487 0.4568 1942.00 1840.26 44.07
8488 0.4568 1879.00 1826.31 43.35
8489 0.4569 1904.00 1813.69 43.63
8490 0.4569 1895.00 1802.87 43.53
8491 0.4570 1901.00 1794.06 43.60
8492 0.4570 1856.00 1787.30 43.08
8493 0.4571 1889.00 1782.47 43.46
8494 0.4571 1912.00 1780.27 43.73
8495 0.4572 1897.00 1778.50 43.55
8496 0.4572 1964.00 1777.62 44.32
8497 0.4573 1913.00 1777.19 43.74
8498 0.4573 1920.00 1776.65 43.82
8499 0.4574 1882.00 1775.54 43.38
8500 0.4575 1868.00 1773.50 43.22
8501 0.4575 1819.00 1770.40 42.65
8502 0.4576 1936.00 1766.32 44.00
8503 0.4576 1910.00 1761.53 43.70
8504 0.4577 1927.00 1755.87 43.90
8505 0.4577 1789.00 1750.90 42.30
8506 0.4578 1861.00 1746.46 43.14
8507 0.4578 1821.00 1742.90 42.67
8508 0.4579 1844.00 1737.37 42.94
8509 0.4579 1871.00 1736.27 43.26
8510 0.4580 1770.00 1736.59 42.07
8511 0.4580 1779.00 1738.40 42.18
8512 0.4581 1796.00 1741.73 42.38
8513 0.4581 1844.00 1746.64 42.94
8514 0.4582 1769.00 1753.14 42.06
8515 0.4582 1795.00 1761.26 42.37
8516 0.4583 1887.00 1770.62 43.44
8517 0.4583 1777.00 1782.01 42.15
8518 0.4584 1800.00 1794.92 42.43
8519 0.4584 1800.00 1809.22 42.43
8520 0.4585 1823.00 1821.98 42.70
8521 0.4585 1844.00 1838.16 42.94
8522 0.4586 1838.00 1854.50 42.87
8523 0.4587 1837.00 1870.22 42.86
8524 0.4587 1893.00 1884.47 43.51
8525 0.4588 1799.00 1896.32 42.41
8526 0.4588 1863.00 1904.94 43.16
8527 0.4589 1859.00 1908.57 43.12
8528 0.4589 1875.00 1909.45 43.30
8529 0.4590 1877.00 1906.55 43.32
8530 0.4590 1906.00 1900.36 43.66
8531 0.4591 1881.00 1891.46 43.37
8532 0.4591 1860.00 1880.43 43.13
8533 0.4592 1930.00 1867.72 43.93
8534 0.4592 1894.00 1853.68 43.52
8535 0.4593 1858.00 1838.67 43.10
8536 0.4593 1952.00 1823.07 44.18
8537 0.4594 1854.00 1807.33 43.06
8538 0.4594 1858.00 1791.94 43.10
8539 0.4595 1911.00 1777.33 43.72
8540 0.4595 1855.00 1763.33 43.07
8541 0.4596 1769.00 1751.35 42.06
8542 0.4596 1859.00 1740.98 43.12
8543 0.4597 1777.00 1732.29 42.15
8544 0.4598 1787.00 1725.28 42.27
8545 0.4598 1786.00 1719.88 42.26
8546 0.4599 1783.00 1715.99 42.23
8547 0.4599 1757.00 1713.48 41.92
8548 0.4600 1742.00 1712.22 41.74
8549 0.4600 1780.00 1712.02 42.19
8550 0.4601 1755.00 1712.70 41.89
8551 0.4601 1803.00 1711.01 42.46
8552 0.4602 1801.00 1712.78 42.44
8553 0.4602 1806.00 1714.66 42.50
8554 0.4603 1801.00 1716.34 42.44
8555 0.4603 1793.00 1717.54 42.34
8556 0.4604 1787.00 1717.98 42.27
8557 0.4604 1824.00 1715.85 42.71
8558 0.4605 1786.00 1714.30 42.26
8559 0.4605 1739.00 1711.72 41.70
8560 0.4606 1790.00 1710.50 42.31
8561 0.4606 1774.00 1706.45 42.12
8562 0.4607 1760.00 1702.08 41.95
8563 0.4607 1734.00 1697.70 41.64
8564 0.4608 1771.00 1693.59 42.08
8565 0.4609 1766.00 1689.97 42.02
8566 0.4609 1760.00 1686.99 41.95
8567 0.4610 1778.00 1685.36 42.17
8568 0.4610 1745.00 1684.51 41.77
8569 0.4611 1752.00 1683.96 41.86
8570 0.4611 1714.00 1684.29 41.40
8571 0.4612 1756.00 1685.49 41.90
8572 0.4612 1790.00 1687.57 42.31
8573 0.4613 1679.00 1690.49 40.98
8574 0.4613 1771.00 1694.25 42.08
8575 0.4614 1752.00 1698.83 41.86
8576 0.4614 1774.00 1704.25 42.12
8577 0.4615 1711.00 1710.55 41.36
8578 0.4615 1805.00 1717.80 42.49
8579 0.4616 1724.00 1726.10 41.52
8580 0.4616 1825.00 1735.56 42.72
8581 0.4617 1782.00 1746.25 42.21
8582 0.4617 1707.00 1760.74 41.32
8583 0.4618 1778.00 1773.93 42.17
8584 0.4618 1741.00 1788.13 41.73
8585 0.4619 1890.00 1802.97 43.47
8586 0.4620 1853.00 1817.93 43.05
8587 0.4620 1984.00 1832.33 44.54
8588 0.4621 1836.00 1845.44 42.85
8589 0.4621 1923.00 1856.61 43.85
8590 0.4622 1921.00 1865.45 43.83
8591 0.4622 2006.00 1871.93 44.79
8592 0.4623 1989.00 1876.37 44.60
8593 0.4623 1922.00 1879.42 43.84
8594 0.4624 2050.00 1881.82 45.28
8595 0.4624 2010.00 1884.26 44.83
8596 0.4625 2019.00 1887.27 44.93
8597 0.4625 2013.00 1891.33 44.87
8598 0.4626 2030.00 1895.98 45.06
8599 0.4626 2010.00 1901.12 44.83
8600 0.4627 2006.00 1906.18 44.79
8601 0.4627 2071.00 1910.41 45.51
8602 0.4628 2059.00 1911.22 45.38
8603 0.4628 2096.00 1911.38 45.78
8604 0.4629 1999.00 1908.44 44.71
8605 0.4629 2100.00 1902.01 45.83
8606 0.4630 2016.00 1891.99 44.90
8607 0.4631 1962.00 1878.61 44.29
8608 0.4631 2046.00 1862.45 45.23
8609 0.4632 1985.00 1844.38 44.55
8610 0.4632 1922.00 1825.38 43.84
8611 0.4633 1976.00 1806.43 44.45
8612 0.4633 1839.00 1788.31 42.88
8613 0.4634 1826.00 1771.63 42.73
8614 0.4634 1788.00 1756.52 42.28
8615 0.4635 1764.00 1743.61 42.00
8616 0.4635 1736.00 1732.69 41.67
8617 0.4636 1758.00 1723.71 41.93
8618 0.4636 1662.00 1716.59 40.77
8619 0.4637 1752.00 1719.21 41.86
8620 0.4637 1601.00 1715.59 40.01
8621 0.4638 1655.00 1713.50 40.68
8622 0.4638 1656.00 1712.86 40.69
8623 0.4639 1648.00 1713.61 40.60
8624 0.4639 1685.00 1715.71 41.05
8625 0.4640 1677.00 1718.67 40.95
8626 0.4640 1628.00 1723.35 40.35
8627 0.4641 1632.00 1729.27 40.40
8628 0.4642 1635.00 1736.38 40.44
8629 0.4642 1655.00 1744.56 40.68
8630 0.4643 1665.00 1753.66 40.80
8631 0.4643 1584.00 1763.40 39.80
8632 0.4644 1653.00 1773.39 40.66
8633 0.4644 1638.00 1783.10 40.47
8634 0.4645 1640.00 1791.87 40.50
8635 0.4645 1666.00 1798.98 40.82
8636 0.4646 1625.00 1803.74 40.31
8637 0.4646 1576.00 1805.63 39.70
8638 0.4647 1584.00 1804.43 39.80
8639 0.4647 1584.00 1800.25 39.80
8640 0.4648 1634.00 1793.56 40.42
8641 0.4648 1628.00 1785.02 40.35
8642 0.4649 1620.00 1775.35 40.25
8643 0.4649 1580.00 1765.25 39.75
8644 0.4650 1641.00 1755.31 40.51
8645 0.4650 1628.00 1745.99 40.35
8646 0.4651 1650.00 1737.60 40.62
8647 0.4651 1589.00 1730.35 39.86
8648 0.4652 1612.00 1724.39 40.15
8649 0.4653 1610.00 1719.75 40.12
8650 0.4653 1641.00 1715.89 40.51
8651 0.4654 1603.00 1713.98 40.04
8652 0.4654 1684.00 1713.41 41.04
8653 0.4655 1620.00 1712.38 40.25
8654 0.4655 1685.00 1714.48 41.05
8655 0.4656 1640.00 1717.90 40.50
8656 0.4656 1656.00 1722.65 40.69
8657 0.4657 1702.00 1729.93 41.26
8658 0.4657 1625.00 1737.46 40.31
8659 0.4658 1735.00 1746.46 41.65
8660 0.4658 1688.00 1756.97 41.09
8661 0.4659 1733.00 1769.05 41.63
8662 0.4659 1758.00 1782.75 41.93
8663 0.4660 1762.00 1798.08 41.98
8664 0.4660 1673.00 1814.99 40.90
8665 0.4661 1729.00 1834.01 41.58
8666 0.4661 1849.00 1853.55 43.00
8667 0.4662 1880.00 1873.80 43.36
8668 0.4662 1854.00 1894.16 43.06
8669 0.4663 1914.00 1913.76 43.75
8670 0.4664 1919.00 1931.68 43.81
8671 0.4664 1884.00 1947.02 43.41
8672 0.4665 1964.00 1959.04 44.32
8673 0.4665 1994.00 1967.29 44.65
8674 0.4666 2004.00 1971.78 44.77
8675 0.4666 1949.00 1972.89 44.15
8676 0.4667 1989.00 1971.39 44.60
8677 0.4667 1991.00 1968.19 44.62
8678 0.4668 1933.00 1964.24 43.97
8679 0.4668 1879.00 1960.28 43.35
8680 0.4669 1813.00 1956.75 42.58
8681 0.4669 1908.00 1953.75 43.68
8682 0.4670 1839.00 1951.16 42.88
8683 0.4670 1836.00 1948.38 42.85
8684 0.4671 1803.00 1945.05 42.46
8685 0.4671 1833.00 1940.62 42.81
8686 0.4672 1860.00 1935.40 43.13
8687 0.4672 1853.00 1929.22 43.05
8688 0.4673 1856.00 1922.56 43.08
8689 0.4673 1781.00 1916.51 42.20
8690 0.4674 1881.00 1911.48 43.37
8691 0.4675 1711.00 1908.10 41.36
8692 0.4675 1840.00 1906.93 42.90
8693 0.4676 1771.00 1908.33 42.08
8694 0.4676 1808.00 1912.52 42.52
8695 0.4677 1786.00 1919.59 42.26
8696 0.4677 1851.00 1929.46 43.02
8697 0.4678 1868.00 1941.90 43.22
8698 0.4678 1861.00 1956.63 43.14
8699 0.4679 1894.00 1973.07 43.52
8700 0.4679 1873.00 1990.52 43.28
8701 0.4680 1866.00 2008.04 43.20
8702 0.4680 1884.00 2024.89 43.41
8703 0.4681 1808.00 2040.13 42.52
8704 0.4681 1949.00 2055.61 44.15
8705 0.4682 1941.00 2066.20 44.06
8706 0.4682 1910.00 2074.51 43.70
8707 0.4683 1894.00 2081.09 43.52
8708 0.4683 1939.00 2086.73 44.03
8709 0.4684 1955.00 2092.22 44.22
8710 0.4684 1904.00 2098.21 43.63
8711 0.4685 1993.00 2105.19 44.64
8712 0.4686 1952.00 2113.46 44.18
8713 0.4686 1979.00 2123.28 44.49
8714 0.4687 1898.00 2134.91 43.57
8715 0.4687 1989.00 2148.75 44.60
8716 0.4688 2025.00 2165.02 45.00
8717 0.4688 2033.00 2184.90 45.09
8718 0.4689 1976.00 2208.81 44.45
8719 0.4689 2051.00 2237.51 45.29
8720 0.4690 2140.00 2271.72 46.26
8721 0.4690 2192.00 2311.15 46.82
8722 0.4691 2253.00 2358.01 47.47
8723 0.4691 2145.00 2411.33 46.31
8724 0.4692 2303.00 2470.81 47.99
8725 0.4692 2251.00 2534.93 47.44
8726 0.4693 2328.00 2601.20 48.25
8727 0.4693 2375.00 2665.80 48.73
8728 0.4694 2490.00 2722.57 49.90
8729 0.4694 2528.00 2767.47 50.28
8730 0.4695 2623.00 2793.44 51.22
8731 0.4695 2613.00 2795.72 51.12
8732 0.4696 2601.00 2772.32 51.00
8733 0.4697 2599.00 2724.66 50.98
8734 0.4697 2525.00 2657.27 50.25
8735 0.4698 2543.00 2576.54 50.43
8736 0.4698 2366.00 2489.44 48.64
8737 0.4699 2316.00 2401.30 48.12
8738 0.4699 2253.00 2316.67 47.47
8739 0.4700 2233.00 2238.23 47.25
8740 0.4700 2131.00 2167.31 46.16
8741 0.4701 2074.00 2104.38 45.54
8742 0.4701 2085.00 2049.17 45.66
8743 0.4702 1954.00 2001.12 44.20
8744 0.4702 1900.00 1959.53 43.59
8745 0.4703 1891.00 1923.58 43.49
8746 0.4703 1921.00 1892.58 43.83
8747 0.4704 1847.00 1865.86 42.98
8748 0.4704 1831.00 1842.85 42.79
8749 0.4705 1791.00 1823.04 42.32
8750 0.4705 1754.00 1806.01 41.88
8751 0.4706 1788.00 1791.53 42.28
8752 0.4706 1741.00 1779.03 41.73
8753 0.4707 1788.00 1768.40 42.28
8754 0.4707 1721.00 1760.85 41.48
8755 0.4708 1738.00 1753.42 41.69
8756 0.4709 1687.00 1747.41 41.07
8757 0.4709 1717.00 1742.64 41.44
8758 0.4710 1730.00 1739.08 41.59
8759 0.4710 1686.00 1736.67 41.06
8760 0.4711 1748.00 1734.23 41.81
8761 0.4711 1690.00 1734.04 41.11
8762 0.4712 1730.00 1734.92 41.59
8763 0.4712 1654.00 1736.84 40.67
8764 0.4713 1671.00 1739.76 40.88
8765 0.4713 1699.00 1743.62 41.22
8766 0.4714 1699.00 1748.32 41.22
8767 0.4714 1627.00 1753.70 40.34
8768 0.4715 1638.00 1759.56 40.47
8769 0.4715 1700.00 1765.53 41.23
8770 0.4716 1658.00 1771.26 40.72
8771 0.4716 1739.00 1776.30 41.70
8772 0.4717 1690.00 1780.20 41.11
8773 0.4717 1653.00 1782.55 40.66
8774 0.4718 1676.00 1783.11 40.94
8775 0.4718 1712.00 1781.80 41.38
8776 0.4719 1663.00 1778.65 40.78
8777 0.4720 1763.00 1774.35 41.99
8778 0.4720 1720.00 1769.23 41.47
8779 0.4721 1671.00 1763.84 40.88
8780 0.4721 1718.00 1758.71 41.45
8781 0.4722 1756.00 1754.24 41.90
8782 0.4722 1710.00 1750.74 41.35
8783 0.4723 1701.00 1747.90 41.24
8784 0.4723 1681.00 1746.78 41.00
8785 0.4724 1728.00 1746.82 41.57
8786 0.4724 1735.00 1747.86 41.65
8787 0.4725 1713.00 1749.97 41.39
8788 0.4725 1778.00 1752.18 42.17
8789 0.4726 1751.00 1754.42 41.85
8790 0.4726 1685.00 1756.30 41.05
8791 0.4727 1766.00 1757.48 42.02
8792 0.4727 1746.00 1757.27 41.79
8793 0.4728 1724.00 1756.68 41.52
8794 0.4728 1703.00 1755.33 41.27
8795 0.4729 1696.00 1753.49 41.18
8796 0.4729 1733.00 1751.51 41.63
8797 0.4730 1655.00 1749.77 40.68
8798 0.4731 1693.00 1748.63 41.15
8799 0.4731 1719.00 1748.43 41.46
8800 0.4732 1699.00 1749.45 41.22
8801 0.4732 1654.00 1751.98 40.67
8802 0.4733 1697.00 1755.76 41.19
8803 0.4733 1604.00 1761.97 40.05
8804 0.4734 1737.00 1770.28 41.68
8805 0.4734 1696.00 1780.86 41.18
8806 0.4735 1716.00 1793.55 41.42
8807 0.4735 1703.00 1808.68 41.27
8808 0.4736 1685.00 1825.56 41.05
8809 0.4736 1749.00 1845.76 41.82
8810 0.4737 1754.00 1867.99 41.88
8811 0.4737 1790.00 1891.75 42.31
8812 0.4738 1794.00 1916.15 42.36
8813 0.4738 1836.00 1939.91 42.85
8814 0.4739 1822.00 1961.44 42.68
8815 0.4739 1807.00 1978.90 42.51
8816 0.4740 1853.00 1990.57 43.05
8817 0.4740 1838.00 1995.07 42.87
8818 0.4741 1882.00 1991.92 43.38
8819 0.4742 1829.00 1981.48 42.77
8820 0.4742 1786.00 1964.89 42.26
8821 0.4743 1787.00 1943.74 42.27
8822 0.4743 1845.00 1919.73 42.95
8823 0.4744 1824.00 1894.44 42.71
8824 0.4744 1770.00 1869.18 42.07
8825 0.4745 1787.00 1844.94 42.27
8826 0.4745 1676.00 1822.36 40.94
8827 0.4746 1705.00 1801.81 41.29
8828 0.4746 1722.00 1781.85 41.50
8829 0.4747 1663.00 1765.49 40.78
8830 0.4747 1725.00 1750.94 41.53
8831 0.4748 1639.00 1737.90 40.48
8832 0.4748 1667.00 1726.06 40.83
8833 0.4749 1668.00 1715.74 40.84
8834 0.4749 1661.00 1705.59 40.76
8835 0.4750 1581.00 1696.08 39.76
8836 0.4750 1602.00 1687.21 40.03
8837 0.4751 1596.00 1679.03 39.95
8838 0.4751 1547.00 1671.58 39.33
8839 0.4752 1602.00 1664.93 40.03
8840 0.4753 1595.00 1659.12 39.94
8841 0.4753 1615.00 1653.94 40.19
8842 0.4754 1623.00 1649.82 40.29
8843 0.4754 1598.00 1646.48 39.97
8844 0.4755 1562.00 1643.84 39.52
8845 0.4755 1525.00 1633.92 39.05
8846 0.4756 1587.00 1632.43 39.84
8847 0.4756 1593.00 1631.21 39.91
8848 0.4757 1628.00 1629.20 40.35
8849 0.4757 1557.00 1628.08 39.46
8850 0.4758 1562.00 1626.89 39.52
8851 0.4758 1619.00 1625.63 40.24
8852 0.4759 1561.00 1624.42 39.51
8853 0.4759 1599.00 1623.38 39.99
8854 0.4760 1593.00 1622.68 39.91
8855 0.4760 1542.00 1622.48 39.27
8856 0.4761 1617.00 1622.91 40.21
8857 0.4761 1578.00 1624.05 39.72
8858 0.4762 1534.00 1626.00 39.17
8859 0.4762 1560.00 1628.80 39.50
8860 0.4763 1637.00 1632.51 40.46
8861 0.4764 1601.00 1637.17 40.01
8862 0.4764 1638.00 1643.41 40.47
8863 0.4765 1599.00 1650.13 39.99
8864 0.4765 1603.00 1657.93 40.04
8865 0.4766 1613.00 1666.84 40.16
8866 0.4766 1613.00 1677.40 40.16
8867 0.4767 1585.00 1688.43 39.81
8868 0.4767 1613.00 1700.33 40.16
8869 0.4768 1636.00 1712.82 40.45
8870 0.4768 1661.00 1725.49 40.76
8871 0.4769 1669.00 1737.74 40.85
8872 0.4769 1674.00 1748.79 40.91
8873 0.4770 1653.00 1757.76 40.66
8874 0.4770 1613.00 1763.72 40.16
8875 0.4771 1691.00 1765.92 41.12
8876 0.4771 1694.00 1763.91 41.16
8877 0.4772 1699.00 1757.70 41.22
8878 0.4772 1726.00 1747.99 41.55
8879 0.4773 1690.00 1735.12 41.11
8880 0.4773 1621.00 1720.35 40.26
8881 0.4774 1701.00 1704.68 41.24
8882 0.4775 1621.00 1688.95 40.26
8883 0.4775 1605.00 1673.83 40.06
8884 0.4776 1646.00 1659.71 40.57
8885 0.4776 1580.00 1646.84 39.75
8886 0.4777 1640.00 1635.30 40.50
8887 0.4777 1588.00 1625.23 39.85
8888 0.4778 1592.00 1616.26 39.90
8889 0.4778 1556.00 1608.43 39.45
8890 0.4779 1594.00 1601.64 39.92
8891 0.4779 1535.00 1595.78 39.18
8892 0.4780 1552.00 1590.73 39.40
8893 0.4780 1560.00 1586.41 39.50
8894 0.4781 1540.00 1582.73 39.24
8895 0.4781 1604.00 1579.61 40.05
8896 0.4782 1581.00 1576.99 39.76
8897 0.4782 1556.00 1574.80 39.45
8898 0.4783 1577.00 1573.00 39.71
8899 0.4783 1511.00 1571.54 38.87
8900 0.4784 1542.00 1570.38 39.27
8901 0.4784 1604.00 1569.46 40.05
8902 0.4785 1571.00 1568.81 39.64
8903 0.4786 1578.00 1568.39 39.72
8904 0.4786 1537.00 1567.28 39.20
8905 0.4787 1521.00 1567.30 39.00
8906 0.4787 1546.00 1567.55 39.32
8907 0.4788 1589.00 1568.02 39.86
8908 0.4788 1530.00 1574.77 39.12
8909 0.4789 1546.00 1575.84 39.32
8910 0.4789 1550.00 1577.17 39.37
8911 0.4790 1561.00 1579.79 39.51
8912 0.4790 1556.00 1581.58 39.45
8913 0.4791 1608.00 1583.53 40.10
8914 0.4791 1662.00 1585.45 40.77
8915 0.4792 1572.00 1587.45 39.65
8916 0.4792 1636.00 1589.29 40.45
8917 0.4793 1589.00 1590.83 39.86
8918 0.4793 1569.00 1591.93 39.61
8919 0.4794 1606.00 1591.82 40.07
8920 0.4794 1578.00 1591.76 39.72
8921 0.4795 1543.00 1591.09 39.28
8922 0.4795 1607.00 1589.87 40.09
8923 0.4796 1605.00 1588.23 40.06
8924 0.4797 1527.00 1586.65 39.08
8925 0.4797 1584.00 1584.60 39.80
8926 0.4798 1611.00 1582.54 40.14
8927 0.4798 1568.00 1580.56 39.60
8928 0.4799 1556.00 1579.24 39.45
8929 0.4799 1578.00 1577.54 39.72
8930 0.4800 1543.00 1576.01 39.28
8931 0.4800 1543.00 1572.40 39.28
8932 0.4801 1517.00 1571.27 38.95
8933 0.4801 1537.00 1570.36 39.20
8934 0.4802 1550.00 1569.69 39.37
8935 0.4802 1534.00 1569.32 39.17
8936 0.4803 1510.00 1569.26 38.86
8937 0.4803 1507.00 1569.54 38.82
8938 0.4804 1511.00 1570.17 38.87
8939 0.4804 1543.00 1571.18 39.28
8940 0.4805 1539.00 1572.56 39.23
8941 0.4805 1645.00 1574.33 40.56
8942 0.4806 1525.00 1576.49 39.05
8943 0.4806 1518.00 1579.06 38.96
8944 0.4807 1552.00 1581.40 39.40
8945 0.4808 1486.00 1584.80 38.55
8946 0.4808 1561.00 1588.60 39.51
8947 0.4809 1603.00 1592.78 40.04
8948 0.4809 1534.00 1597.29 39.17
8949 0.4810 1591.00 1602.07 39.89
8950 0.4810 1599.00 1606.98 39.99
8951 0.4811 1594.00 1611.87 39.92
8952 0.4811 1611.00 1616.52 40.14
8953 0.4812 1592.00 1621.85 39.90
8954 0.4812 1548.00 1625.34 39.34
8955 0.4813 1600.00 1627.90 40.00
8956 0.4813 1618.00 1629.42 40.22
8957 0.4814 1589.00 1629.88 39.86
8958 0.4814 1634.00 1629.38 40.42
8959 0.4815 1595.00 1628.11 39.94
8960 0.4815 1614.00 1626.33 40.17
8961 0.4816 1532.00 1624.32 39.14
8962 0.4816 1572.00 1622.35 39.65
8963 0.4817 1585.00 1620.66 39.81
8964 0.4817 1539.00 1619.23 39.23
8965 0.4818 1516.00 1618.59 38.94
8966 0.4819 1531.00 1618.31 39.13
8967 0.4819 1629.00 1619.12 40.36
8968 0.4820 1558.00 1620.75 39.47
8969 0.4820 1591.00 1623.22 39.89
8970 0.4821 1490.00 1626.54 38.60
8971 0.4821 1586.00 1630.73 39.82
8972 0.4822 1549.00 1636.03 39.36
8973 0.4822 1584.00 1641.92 39.80
8974 0.4823 1600.00 1648.58 40.00
8975 0.4823 1605.00 1655.92 40.06
8976 0.4824 1557.00 1663.86 39.46
8977 0.4824 1562.00 1672.02 39.52
8978 0.4825 1572.00 1680.18 39.65
8979 0.4825 1585.00 1688.00 39.81
8980 0.4826 1650.00 1695.16 40.62
8981 0.4826 1601.00 1701.39 40.01
8982 0.4827 1590.00 1706.54 39.87
8983 0.4827 1618.00 1710.62 40.22
8984 0.4828 1579.00 1713.79 39.74
8985 0.4828 1601.00 1716.25 40.01
8986 0.4829 1585.00 1718.20 39.81
8987 0.4829 1621.00 1719.75 40.26
8988 0.4830 1644.00 1720.93 40.55
8989 0.4831 1588.00 1721.66 39.85
8990 0.4831 1675.00 1721.88 40.93
8991 0.4832 1624.00 1721.58 40.30
8992 0.4832 1619.00 1720.87 40.24
8993 0.4833 1678.00 1719.99 40.96
8994 0.4833 1621.00 1719.25 40.26
8995 0.4834 1659.00 1719.02 40.73
8996 0.4834 1659.00 1720.38 40.73
8997 0.4835 1649.00 1722.23 40.61
8998 0.4835 1738.00 1725.52 41.69
8999 0.4836 1689.00 1728.90 41.10
9000 0.4836 1675.00 1735.66 40.93
9001 0.4837 1745.00 1744.37 41.77
9002 0.4837 1686.00 1755.15 41.06
9003 0.4838 1738.00 1768.13 41.69
9004 0.4838 1759.00 1783.45 41.94
9005 0.4839 1783.00 1801.29 42.23
9006 0.4839 1820.00 1821.81 42.66
9007 0.4840 1853.00 1845.25 43.05
9008 0.4840 1885.00 1871.80 43.42
9009 0.4841 1906.00 1901.75 43.66
9010 0.4842 1909.00 1935.31 43.69
9011 0.4842 2009.00 1972.70 44.82
9012 0.4843 1986.00 2014.09 44.56
9013 0.4843 2130.00 2059.53 46.15
9014 0.4844 2151.00 2108.92 46.38
9015 0.4844 2130.00 2161.87 46.15
9016 0.4845 2131.00 2217.61 46.16
9017 0.4845 2289.00 2274.92 47.84
9018 0.4846 2297.00 2332.29 47.93
9019 0.4846 2240.00 2386.24 47.33
9020 0.4847 2390.00 2433.28 48.89
9021 0.4847 2361.00 2471.99 48.59
9022 0.4848 2408.00 2494.13 49.07
9023 0.4848 2379.00 2499.27 48.78
9024 0.4849 2421.00 2486.57 49.20
9025 0.4849 2349.00 2457.43 48.47
9026 0.4850 2402.00 2415.15 49.01
9027 0.4850 2278.00 2364.24 47.73
9028 0.4851 2221.00 2309.27 47.13
9029 0.4851 2110.00 2254.20 45.93
9030 0.4852 2066.00 2201.89 45.45
9031 0.4853 2071.00 2154.02 45.51
9032 0.4853 1964.00 2111.30 44.32
9033 0.4854 1975.00 2073.65 44.44
9034 0.4854 1939.00 2040.46 44.03
9035 0.4855 1893.00 2010.83 43.51
9036 0.4855 1826.00 1983.75 42.73
9037 0.4856 1864.00 1958.38 43.17
9038 0.4856 1778.00 1934.11 42.17
9039 0.4857 1783.00 1910.62 42.23
9040 0.4857 1767.00 1887.90 42.04
9041 0.4858 1729.00 1866.25 41.58
9042 0.4858 1750.00 1845.95 41.83
9043 0.4859 1718.00 1827.32 41.45
9044 0.4859 1714.00 1810.62 41.40
9045 0.4860 1684.00 1795.99 41.04
9046 0.4860 1665.00 1783.42 40.80
9047 0.4861 1668.00 1772.97 40.84
9048 0.4861 1702.00 1764.49 41.26
9049 0.4862 1689.00 1759.35 41.10
9050 0.4862 1679.00 1754.32 40.98
9051 0.4863 1676.00 1750.67 40.94
9052 0.4864 1648.00 1748.15 40.60
9053 0.4864 1680.00 1746.50 40.99
9054 0.4865 1646.00 1745.16 40.57
9055 0.4865 1622.00 1745.08 40.27
9056 0.4866 1661.00 1744.73 40.76
9057 0.4866 1676.00 1744.55 40.94
9058 0.4867 1621.00 1744.70 40.26
9059 0.4867 1700.00 1744.74 41.23
9060 0.4868 1725.00 1744.87 41.53
9061 0.4868 1691.00 1745.04 41.12
9062 0.4869 1692.00 1745.19 41.13
9063 0.4869 1688.00 1745.23 41.09
9064 0.4870 1747.00 1745.07 41.80
9065 0.4870 1605.00 1744.69 40.06
9066 0.4871 1692.00 1744.12 41.13
9067 0.4871 1654.00 1743.48 40.67
9068 0.4872 1661.00 1742.95 40.76
9069 0.4872 1647.00 1742.71 40.58
9070 0.4873 1700.00 1742.88 41.23
9071 0.4873 1743.00 1743.55 41.75
9072 0.4874 1717.00 1744.67 41.44
9073 0.4875 1810.00 1746.07 42.54
9074 0.4875 1697.00 1747.43 41.19
9075 0.4876 1770.00 1748.34 42.07
9076 0.4876 1672.00 1748.33 40.89
9077 0.4877 1724.00 1746.94 41.52
9078 0.4877 1757.00 1743.84 41.92
9079 0.4878 1706.00 1738.59 41.30
9080 0.4878 1741.00 1731.79 41.73
9081 0.4879 1722.00 1723.45 41.50
9082 0.4879 1702.00 1714.03 41.26
9083 0.4880 1690.00 1704.03 41.11
9084 0.4880 1672.00 1693.94 40.89
9085 0.4881 1689.00 1684.26 41.10
9086 0.4881 1672.00 1675.21 40.89
9087 0.4882 1664.00 1667.05 40.79
9088 0.4882 1645.00 1659.93 40.56
9089 0.4883 1677.00 1653.87 40.95
9090 0.4883 1665.00 1649.16 40.80
9091 0.4884 1701.00 1645.17 41.24
9092 0.4884 1586.00 1642.08 39.82
9093 0.4885 1640.00 1639.77 40.50
9094 0.4886 1637.00 1638.07 40.46
9095 0.4886 1558.00 1636.81 39.47
9096 0.4887 1619.00 1635.80 40.24
9097 0.4887 1601.00 1634.59 40.01
9098 0.4888 1688.00 1633.60 41.09
9099 0.4888 1528.00 1632.51 39.09
9100 0.4889 1624.00 1631.24 40.30
9101 0.4889 1567.00 1629.90 39.59
9102 0.4890 1630.00 1628.60 40.37
9103 0.4890 1583.00 1626.93 39.79
9104 0.4891 1588.00 1626.15 39.85
9105 0.4891 1567.00 1625.80 39.59
9106 0.4892 1605.00 1625.96 40.06
9107 0.4892 1605.00 1626.67 40.06
9108 0.4893 1656.00 1627.96 40.69
9109 0.4893 1567.00 1629.80 39.59
9110 0.4894 1623.00 1632.21 40.29
9111 0.4894 1610.00 1635.15 40.12
9112 0.4895 1662.00 1638.62 40.77
9113 0.4895 1626.00 1642.62 40.32
9114 0.4896 1591.00 1647.15 39.89
9115 0.4897 1607.00 1652.19 40.09
9116 0.4897 1634.00 1657.19 40.42
9117 0.4898 1685.00 1663.22 41.05
9118 0.4898 1643.00 1669.71 40.53
9119 0.4899 1740.00 1676.59 41.71
9120 0.4899 1613.00 1683.81 40.16
9121 0.4900 1650.00 1691.24 40.62
9122 0.4900 1677.00 1698.99 40.95
9123 0.4901 1721.00 1706.39 41.48
9124 0.4901 1785.00 1713.51 42.25
9125 0.4902 1714.00 1720.22 41.40
9126 0.4902 1778.00 1726.47 42.17
9127 0.4903 1767.00 1732.30 42.04
9128 0.4903 1813.00 1737.85 42.58
9129 0.4904 1843.00 1743.29 42.93
9130 0.4904 1823.00 1748.77 42.70
9131 0.4905 1915.00 1754.37 43.76
9132 0.4905 1917.00 1760.11 43.78
9133 0.4906 1933.00 1765.86 43.97
9134 0.4906 1927.00 1771.49 43.90
9135 0.4907 1961.00 1776.90 44.28
9136 0.4908 1979.00 1781.98 44.49
9137 0.4908 1949.00 1786.84 44.15
9138 0.4909 1938.00 1791.69 44.02
9139 0.4909 1879.00 1796.80 43.35
9140 0.4910 1912.00 1796.57 43.73
9141 0.4910 1844.00 1803.11 42.94
9142 0.4911 1864.00 1810.55 43.17
9143 0.4911 1875.00 1818.85 43.30
9144 0.4912 1865.00 1827.81 43.19
9145 0.4912 1844.00 1837.05 42.94
9146 0.4913 1847.00 1846.52 42.98
9147 0.4913 1843.00 1854.44 42.93
9148 0.4914 1932.00 1860.53 43.95
9149 0.4914 1827.00 1863.92 42.74
9150 0.4915 1880.00 1864.08 43.36
9151 0.4915 1872.00 1860.56 43.27
9152 0.4916 1868.00 1853.30 43.22
9153 0.4916 1811.00 1842.66 42.56
9154 0.4917 1820.00 1829.28 42.66
9155 0.4917 1756.00 1814.04 41.90
9156 0.4918 1786.00 1797.82 42.26
9157 0.4919 1729.00 1781.49 41.58
9158 0.4919 1761.00 1765.51 41.96
9159 0.4920 1762.00 1750.84 41.98
9160 0.4920 1686.00 1737.75 41.06
9161 0.4921 1671.00 1726.39 40.88
9162 0.4921 1669.00 1716.88 40.85
9163 0.4922 1691.00 1709.28 41.12
9164 0.4922 1713.00 1703.57 41.39
9165 0.4923 1749.00 1698.68 41.82
9166 0.4923 1740.00 1697.29 41.71
9167 0.4924 1735.00 1697.03 41.65
9168 0.4924 1786.00 1698.49 42.26
9169 0.4925 1691.00 1701.60 41.12
9170 0.4925 1846.00 1706.30 42.97
9171 0.4926 1750.00 1712.53 41.83
9172 0.4926 1809.00 1720.17 42.53
9173 0.4927 1680.00 1729.06 40.99
9174 0.4927 1830.00 1738.97 42.78
9175 0.4928 1871.00 1749.58 43.26
9176 0.4928 1828.00 1760.42 42.76
9177 0.4929 1891.00 1770.94 43.49
9178 0.4930 1821.00 1782.79 42.67
9179 0.4930 1970.00 1790.66 44.38
9180 0.4931 1920.00 1796.17 43.82
9181 0.4931 2006.00 1799.01 44.79
9182 0.4932 1896.00 1798.62 43.54
9183 0.4932 1994.00 1795.30 44.65
9184 0.4933 1955.00 1790.06 44.22
9185 0.4933 1837.00 1782.42 42.86
9186 0.4934 1877.00 1773.70 43.32
9187 0.4934 1829.00 1764.63 42.77
9188 0.4935 1847.00 1755.49 42.98
9189 0.4935 1795.00 1747.46 42.37
9190 0.4936 1818.00 1740.24 42.64
9191 0.4936 1758.00 1733.95 41.93
9192 0.4937 1915.00 1728.49 43.76
9193 0.4937 1890.00 1723.62 43.47
9194 0.4938 1905.00 1719.06 43.65
9195 0.4938 1913.00 1714.49 43.74
9196 0.4939 1896.00 1709.64 43.54
9197 0.4939 2008.00 1704.33 44.81
9198 0.4940 1891.00 1698.46 43.49
9199 0.4941 1939.00 1692.03 44.03
9200 0.4941 1793.00 1685.19 42.34
9201 0.4942 1886.00 1678.05 43.43
9202 0.4942 1826.00 1670.78 42.73
9203 0.4943 1788.00 1662.98 42.28
9204 0.4943 1775.00 1655.79 42.13
9205 0.4944 1699.00 1648.71 41.22
9206 0.4944 1748.00 1641.81 41.81
9207 0.4945 1719.00 1634.95 41.46
9208 0.4945 1718.00 1628.18 41.45
9209 0.4946 1691.00 1621.54 41.12
9210 0.4946 1710.00 1615.09 41.35
9211 0.4947 1741.00 1608.87 41.73
9212 0.4947 1656.00 1603.11 40.69
9213 0.4948 1651.00 1597.52 40.63
9214 0.4948 1623.00 1592.26 40.29
9215 0.4949 1702.00 1587.30 41.26
9216 0.4949 1639.00 1582.64 40.48
9217 0.4950 1635.00 1578.29 40.44
9218 0.4950 1684.00 1574.26 41.04
9219 0.4951 1602.00 1570.55 40.03
9220 0.4951 1661.00 1567.19 40.76
9221 0.4952 1637.00 1564.20 40.46
9222 0.4953 1621.00 1561.58 40.26
9223 0.4953 1588.00 1559.33 39.85
9224 0.4954 1687.00 1557.99 41.07
9225 0.4954 1662.00 1556.45 40.77
9226 0.4955 1718.00 1554.96 41.45
9227 0.4955 1620.00 1554.01 40.25
9228 0.4956 1617.00 1554.14 40.21
9229 0.4956 1693.00 1553.68 41.15
9230 0.4957 1636.00 1553.42 40.45
9231 0.4957 1690.00 1553.37 41.11
9232 0.4958 1647.00 1553.54 40.58
9233 0.4958 1684.00 1553.93 41.04
9234 0.4959 1607.00 1554.58 40.09
9235 0.4959 1687.00 1555.50 41.07
9236 0.4960 1626.00 1556.68 40.32
9237 0.4960 1646.00 1558.12 40.57
9238 0.4961 1666.00 1559.78 40.82
9239 0.4961 1651.00 1561.50 40.63
9240 0.4962 1636.00 1563.34 40.45
9241 0.4962 1601.00 1565.10 40.01
9242 0.4963 1643.00 1566.62 40.53
9243 0.4964 1589.00 1567.77 39.86
9244 0.4964 1653.00 1568.45 40.66
9245 0.4965 1659.00 1568.64 40.73
9246 0.4965 1590.00 1568.29 39.87
9247 0.4966 1687.00 1567.69 41.07
9248 0.4966 1612.00 1566.91 40.15
9249 0.4967 1639.00 1566.13 40.48
9250 0.4967 1637.00 1565.52 40.46
9251 0.4968 1682.00 1565.20 41.01
9252 0.4968 1601.00 1565.30 40.01
9253 0.4969 1663.00 1565.55 40.78
9254 0.4969 1601.00 1566.64 40.01
9255 0.4970 1681.00 1568.26 41.00
9256 0.4970 1674.00 1570.42 40.91
9257 0.4971 1655.00 1573.14 40.68
9258 0.4971 1621.00 1576.32 40.26
9259 0.4972 1664.00 1579.96 40.79
9260 0.4972 1664.00 1584.31 40.79
9261 0.4973 1686.00 1588.60 41.06
9262 0.4973 1644.00 1594.08 40.55
9263 0.4974 1619.00 1600.01 40.24
9264 0.4975 1641.00 1606.42 40.51
9265 0.4975 1655.00 1613.23 40.68
9266 0.4976 1645.00 1620.34 40.56
9267 0.4976 1604.00 1627.57 40.05
9268 0.4977 1627.00 1634.71 40.34
9269 0.4977 1737.00 1641.53 41.68
9270 0.4978 1645.00 1647.79 40.56
9271 0.4978 1681.00 1653.37 41.00
9272 0.4979 1655.00 1658.24 40.68
9273 0.4979 1716.00 1662.55 41.42
9274 0.4980 1704.00 1666.58 41.28
9275 0.4980 1696.00 1670.66 41.18
9276 0.4981 1691.00 1675.21 41.12
9277 0.4981 1713.00 1680.57 41.39
9278 0.4982 1714.00 1686.89 41.40
9279 0.4982 1715.00 1694.60 41.41
9280 0.4983 1715.00 1703.62 41.41
9281 0.4983 1679.00 1713.91 40.98
9282 0.4984 1772.00 1725.31 42.10
9283 0.4984 1742.00 1737.56 41.74
9284 0.4985 1697.00 1750.39 41.19
9285 0.4986 1698.00 1763.49 41.21
9286 0.4986 1726.00 1776.69 41.55
9287 0.4987 1709.00 1789.94 41.34
9288 0.4987 1734.00 1803.37 41.64
9289 0.4988 1730.00 1817.28 41.59
9290 0.4988 1751.00 1829.95 41.85
9291 0.4989 1791.00 1845.58 42.32
9292 0.4989 1816.00 1862.07 42.61
9293 0.4990 1875.00 1879.08 43.30
9294 0.4990 1826.00 1895.78 42.73
9295 0.4991 1871.00 1911.07 43.26
9296 0.4991 1883.00 1923.58 43.39
9297 0.4992 1836.00 1931.91 42.85
9298 0.4992 1817.00 1934.98 42.63
9299 0.4993 1813.00 1932.26 42.58
9300 0.4993 1866.00 1924.68 43.20
9301 0.4994 1841.00 1911.54 42.91
9302 0.4994 1864.00 1894.88 43.17
9303 0.4995 1792.00 1876.05 42.33
9304 0.4995 1808.00 1856.31 42.52
9305 0.4996 1764.00 1836.70 42.00
9306 0.4997 1812.00 1817.91 42.57
9307 0.4997 1751.00 1800.48 41.85
9308 0.4998 1847.00 1784.65 42.98
9309 0.4998 1796.00 1770.57 42.38
9310 0.4999 1764.00 1758.19 42.00
9311 0.4999 1793.00 1747.36 42.34
9312 0.5000 1744.00 1737.89 41.76
9313 0.5000 1714.00 1729.49 41.40
9314 0.5001 1794.00 1721.95 42.36
9315 0.5001 1759.00 1713.55 41.94
9316 0.5002 1752.00 1707.28 41.86
9317 0.5002 1692.00 1701.61 41.13
9318 0.5003 1672.00 1696.62 40.89
9319 0.5003 1709.00 1692.48 41.34
9320 0.5004 1670.00 1689.37 40.87
9321 0.5004 1680.00 1687.46 40.99
9322 0.5005 1719.00 1686.89 41.46
9323 0.5005 1699.00 1687.76 41.22
9324 0.5006 1700.00 1690.11 41.23
9325 0.5006 1706.00 1693.93 41.30
9326 0.5007 1645.00 1699.14 40.56
9327 0.5008 1689.00 1705.54 41.10
9328 0.5008 1621.00 1714.41 40.26
9329 0.5009 1667.00 1722.99 40.83
9330 0.5009 1662.00 1732.08 40.77
9331 0.5010 1659.00 1741.19 40.73
9332 0.5010 1686.00 1749.74 41.06
9333 0.5011 1692.00 1757.09 41.13
9334 0.5011 1691.00 1762.59 41.12
9335 0.5012 1596.00 1765.79 39.95
9336 0.5012 1639.00 1766.46 40.48
9337 0.5013 1643.00 1764.68 40.53
9338 0.5013 1726.00 1760.78 41.55
9339 0.5014 1641.00 1754.69 40.51
9340 0.5014 1660.00 1747.93 40.74
9341 0.5015 1672.00 1740.11 40.89
9342 0.5015 1663.00 1731.98 40.78
9343 0.5016 1617.00 1723.51 40.21
9344 0.5016 1636.00 1715.02 40.45
9345 0.5017 1713.00 1706.46 41.39
9346 0.5017 1701.00 1698.24 41.24
9347 0.5018 1657.00 1690.66 40.71
9348 0.5019 1703.00 1683.94 41.27
9349 0.5019 1723.00 1678.26 41.51
9350 0.5020 1758.00 1673.62 41.93
9351 0.5020 1709.00 1669.94 41.34
9352 0.5021 1693.00 1666.90 41.15
9353 0.5021 1678.00 1664.44 40.96
9354 0.5022 1648.00 1662.05 40.60
9355 0.5022 1724.00 1659.35 41.52
9356 0.5023 1683.00 1655.96 41.02
9357 0.5023 1651.00 1651.73 40.63
9358 0.5024 1738.00 1646.17 41.69
9359 0.5024 1667.00 1639.39 40.83
9360 0.5025 1702.00 1631.53 41.26
9361 0.5025 1710.00 1622.83 41.35
9362 0.5026 1670.00 1613.54 40.87
9363 0.5026 1612.00 1604.58 40.15
9364 0.5027 1633.00 1595.23 40.41
9365 0.5027 1598.00 1586.21 39.97
9366 0.5028 1585.00 1577.67 39.81
9367 0.5028 1529.00 1569.74 39.10
9368 0.5029 1586.00 1563.03 39.82
9369 0.5030 1547.00 1556.40 39.33
9370 0.5030 1562.00 1550.42 39.52
9371 0.5031 1553.00 1545.03 39.41
9372 0.5031 1546.00 1540.21 39.32
9373 0.5032 1579.00 1535.90 39.74
9374 0.5032 1521.00 1532.78 39.00
9375 0.5033 1587.00 1529.36 39.84
9376 0.5033 1531.00 1526.32 39.13
9377 0.5034 1599.00 1523.62 39.99
9378 0.5034 1527.00 1521.23 39.08
9379 0.5035 1508.00 1519.12 38.83
9380 0.5035 1568.00 1517.26 39.60
9381 0.5036 1500.00 1515.63 38.73
9382 0.5036 1558.00 1514.22 39.47
9383 0.5037 1535.00 1513.00 39.18
9384 0.5037 1492.00 1511.97 38.63
9385 0.5038 1458.00 1511.12 38.18
9386 0.5038 1557.00 1510.43 39.46
9387 0.5039 1562.00 1509.89 39.52
9388 0.5039 1530.00 1509.50 39.12
9389 0.5040 1492.00 1509.24 38.63
9390 0.5041 1500.00 1509.09 38.73
9391 0.5041 1528.00 1509.04 39.09
9392 0.5042 1492.00 1509.06 38.63
9393 0.5042 1544.00 1509.12 39.29
9394 0.5043 1472.00 1509.20 38.37
9395 0.5043 1507.00 1509.26 38.82
9396 0.5044 1472.00 1509.27 38.37
9397 0.5044 1469.00 1509.22 38.33
9398 0.5045 1481.00 1508.67 38.48
9399 0.5045 1585.00 1508.51 39.81
9400 0.5046 1509.00 1508.46 38.85
9401 0.5046 1570.00 1508.28 39.62
9402 0.5047 1500.00 1508.15 38.73
9403 0.5047 1527.00 1508.11 39.08
9404 0.5048 1491.00 1508.18 38.61
9405 0.5048 1507.00 1508.70 38.82
9406 0.5049 1529.00 1509.11 39.10
9407 0.5049 1538.00 1509.71 39.22
9408 0.5050 1480.00 1509.91 38.47
9409 0.5050 1544.00 1511.64 39.29
9410 0.5051 1557.00 1512.95 39.46
9411 0.5052 1539.00 1514.52 39.23
9412 0.5052 1551.00 1516.37 39.38
9413 0.5053 1597.00 1518.50 39.96
9414 0.5053 1589.00 1520.95 39.86
9415 0.5054 1571.00 1524.99 39.64
9416 0.5054 1524.00 1528.14 39.04
9417 0.5055 1548.00 1531.67 39.34
9418 0.5055 1550.00 1535.62 39.37
9419 0.5056 1595.00 1539.97 39.94
9420 0.5056 1583.00 1542.47 39.79
9421 0.5057 1531.00 1547.74 39.13
9422 0.5057 1584.00 1553.41 39.80
9423 0.5058 1615.00 1559.46 40.19
9424 0.5058 1633.00 1565.79 40.41
9425 0.5059 1593.00 1572.26 39.91
9426 0.5059 1601.00 1578.67 40.01
9427 0.5060 1615.00 1584.79 40.19
9428 0.5060 1606.00 1590.13 40.07
9429 0.5061 1682.00 1594.73 41.01
9430 0.5061 1624.00 1597.97 40.30
9431 0.5062 1648.00 1599.97 40.60
9432 0.5062 1583.00 1600.47 39.79
9433 0.5063 1628.00 1599.51 40.35
9434 0.5064 1570.00 1597.27 39.62
9435 0.5064 1640.00 1594.03 40.50
9436 0.5065 1723.00 1590.12 41.51
9437 0.5065 1630.00 1585.88 40.37
9438 0.5066 1604.00 1581.62 40.05
9439 0.5066 1591.00 1577.58 39.89
9440 0.5067 1584.00 1574.00 39.80
9441 0.5067 1615.00 1571.00 40.19
9442 0.5068 1612.00 1568.70 40.15
9443 0.5068 1585.00 1567.16 39.81
9444 0.5069 1625.00 1566.41 40.31
9445 0.5069 1617.00 1566.38 40.21
9446 0.5070 1598.00 1567.26 39.97
9447 0.5070 1586.00 1570.38 39.82
9448 0.5071 1673.00 1572.64 40.90
9449 0.5071 1602.00 1576.03 40.03
9450 0.5072 1585.00 1580.19 39.81
9451 0.5072 1603.00 1585.24 40.04
9452 0.5073 1599.00 1591.12 39.99
9453 0.5073 1574.00 1597.81 39.67
9454 0.5074 1571.00 1605.29 39.64
9455 0.5075 1628.00 1613.47 40.35
9456 0.5075 1633.00 1622.27 40.41
9457 0.5076 1649.00 1631.48 40.61
9458 0.5076 1639.00 1640.88 40.48
9459 0.5077 1652.00 1650.14 40.64
9460 0.5077 1711.00 1658.20 41.36
9461 0.5078 1667.00 1665.85 40.83
9462 0.5078 1733.00 1671.94 41.63
9463 0.5079 1740.00 1676.04 41.71
9464 0.5079 1690.00 1677.33 41.11
9465 0.5080 1651.00 1676.71 40.63
9466 0.5080 1667.00 1673.80 40.83
9467 0.5081 1762.00 1668.96 41.98
9468 0.5081 1689.00 1662.70 41.10
9469 0.5082 1651.00 1655.58 40.63
9470 0.5082 1627.00 1648.96 40.34
9471 0.5083 1675.00 1641.79 40.93
9472 0.5083 1691.00 1635.23 41.12
9473 0.5084 1657.00 1629.56 40.71
9474 0.5084 1665.00 1624.96 40.80
9475 0.5085 1677.00 1621.55 40.95
9476 0.5086 1629.00 1619.38 40.36
9477 0.5086 1631.00 1618.46 40.39
9478 0.5087 1668.00 1618.77 40.84
9479 0.5087 1753.00 1620.28 41.87
9480 0.5088 1670.00 1622.93 40.87
9481 0.5088 1700.00 1626.64 41.23
9482 0.5089 1778.00 1631.31 42.17
9483 0.5089 1685.00 1636.77 41.05
9484 0.5090 1749.00 1642.94 41.82
9485 0.5090 1727.00 1649.55 41.56
9486 0.5091 1758.00 1656.34 41.93
9487 0.5091 1761.00 1663.01 41.96
9488 0.5092 1740.00 1669.26 41.71
9489 0.5092 1752.00 1674.50 41.86
9490 0.5093 1823.00 1679.12 42.70
9491 0.5093 1760.00 1682.70 41.95
9492 0.5094 1745.00 1685.96 41.77
9493 0.5094 1746.00 1687.79 41.79
9494 0.5095 1737.00 1689.16 41.68
9495 0.5095 1757.00 1690.44 41.92
9496 0.5096 1703.00 1692.01 41.27
9497 0.5097 1718.00 1694.20 41.45
9498 0.5097 1684.00 1697.24 41.04
9499 0.5098 1681.00 1700.75 41.00
9500 0.5098 1657.00 1705.68 40.71
9501 0.5099 1691.00 1711.39 41.12
9502 0.5099 1672.00 1717.64 40.89
9503 0.5100 1731.00 1724.12 41.61
9504 0.5100 1776.00 1730.39 42.14
9505 0.5101 1686.00 1736.86 41.06
9506 0.5101 1781.00 1741.54 42.20
9507 0.5102 1774.00 1745.03 42.12
9508 0.5102 1808.00 1746.88 42.52
9509 0.5103 1735.00 1747.11 41.65
9510 0.5103 1796.00 1745.72 42.38
9511 0.5104 1782.00 1742.76 42.21
9512 0.5104 1768.00 1738.36 42.05
9513 0.5105 1765.00 1732.70 42.01
9514 0.5105 1765.00 1725.99 42.01
9515 0.5106 1787.00 1718.56 42.27
9516 0.5106 1768.00 1710.75 42.05
9517 0.5107 1719.00 1702.94 41.46
9518 0.5108 1695.00 1695.46 41.17
9519 0.5108 1698.00 1688.67 41.21
9520 0.5109 1704.00 1682.77 41.28
9521 0.5109 1719.00 1677.94 41.46
9522 0.5110 1654.00 1674.24 40.67
9523 0.5110 1666.00 1671.69 40.82
9524 0.5111 1675.00 1670.21 40.93
9525 0.5111 1607.00 1669.68 40.09
9526 0.5112 1645.00 1669.91 40.56
9527 0.5112 1690.00 1670.68 41.11
9528 0.5113 1645.00 1671.77 40.56
9529 0.5113 1668.00 1672.92 40.84
9530 0.5114 1644.00 1673.95 40.55
9531 0.5114 1679.00 1674.75 40.98
9532 0.5115 1698.00 1675.32 41.21
9533 0.5115 1656.00 1675.75 40.69
9534 0.5116 1629.00 1676.18 40.36
9535 0.5116 1667.00 1677.00 40.83
9536 0.5117 1685.00 1678.42 41.05
9537 0.5117 1702.00 1680.68 41.26
9538 0.5118 1724.00 1683.98 41.52
9539 0.5119 1710.00 1688.46 41.35
9540 0.5119 1695.00 1694.16 41.17
9541 0.5120 1760.00 1701.06 41.95
9542 0.5120 1676.00 1709.09 40.94
9543 0.5121 1739.00 1718.06 41.70
9544 0.5121 1777.00 1727.78 42.15
9545 0.5122 1724.00 1737.96 41.52
9546 0.5122 1713.00 1748.30 41.39
9547 0.5123 1749.00 1758.51 41.82
9548 0.5123 1791.00 1768.31 42.32
9549 0.5124 1831.00 1777.48 42.79
9550 0.5124 1826.00 1785.83 42.73
9551 0.5125 1804.00 1793.26 42.47
9552 0.5125 1841.00 1799.64 42.91
9553 0.5126 1830.00 1804.83 42.78
9554 0.5126 1902.00 1811.82 43.61
9555 0.5127 1912.00 1814.24 43.73
9556 0.5127 1913.00 1815.08 43.74
9557 0.5128 1875.00 1814.37 43.30
9558 0.5128 1827.00 1812.27 42.74
9559 0.5129 1875.00 1809.13 43.30
9560 0.5130 1813.00 1805.42 42.58
9561 0.5130 1908.00 1801.66 43.68
9562 0.5131 1852.00 1798.40 43.03
9563 0.5131 1871.00 1795.46 43.26
9564 0.5132 1870.00 1794.31 43.24
9565 0.5132 1856.00 1794.47 43.08
9566 0.5133 1926.00 1795.83 43.89
9567 0.5133 1886.00 1798.08 43.43
9568 0.5134 1935.00 1800.71 43.99
9569 0.5134 1898.00 1803.10 43.57
9570 0.5135 1982.00 1804.53 44.52
9571 0.5135 1984.00 1804.36 44.54
9572 0.5136 1990.00 1802.14 44.61
9573 0.5136 2036.00 1797.70 45.12
9574 0.5137 1911.00 1791.05 43.72
9575 0.5137 1918.00 1782.94 43.79
9576 0.5138 1868.00 1774.25 43.22
9577 0.5138 1916.00 1764.71 43.77
9578 0.5139 1890.00 1755.36 43.47
9579 0.5139 1868.00 1746.74 43.22
9580 0.5140 1813.00 1739.21 42.58
9581 0.5141 1835.00 1733.05 42.84
9582 0.5141 1827.00 1728.39 42.74
9583 0.5142 1834.00 1725.28 42.83
9584 0.5142 1821.00 1723.61 42.67
9585 0.5143 1801.00 1723.20 42.44
9586 0.5143 1773.00 1723.74 42.11
9587 0.5144 1811.00 1725.09 42.56
9588 0.5144 1788.00 1726.27 42.28
9589 0.5145 1754.00 1727.06 41.88
9590 0.5145 1808.00 1727.02 42.52
9591 0.5146 1804.00 1725.83 42.47
9592 0.5146 1838.00 1723.33 42.87
9593 0.5147 1845.00 1719.51 42.95
9594 0.5147 1783.00 1714.56 42.23
9595 0.5148 1789.00 1708.74 42.30
9596 0.5148 1828.00 1702.36 42.76
9597 0.5149 1742.00 1695.73 41.74
9598 0.5149 1748.00 1689.20 41.81
9599 0.5150 1856.00 1682.77 43.08
9600 0.5150 1802.00 1676.71 42.45
9601 0.5151 1822.00 1671.14 42.68
9602 0.5152 1723.00 1665.03 41.51
9603 0.5152 1762.00 1660.83 41.98
9604 0.5153 1783.00 1657.47 42.23
9605 0.5153 1683.00 1655.03 41.02
9606 0.5154 1685.00 1653.55 41.05
9607 0.5154 1718.00 1653.00 41.45
9608 0.5155 1740.00 1653.26 41.71
9609 0.5155 1683.00 1654.12 41.02
9610 0.5156 1750.00 1655.29 41.83
9611 0.5156 1714.00 1656.40 41.40
9612 0.5157 1753.00 1657.05 41.87
9613 0.5157 1686.00 1657.22 41.06
9614 0.5158 1733.00 1656.05 41.63
9615 0.5158 1713.00 1653.82 41.39
9616 0.5159 1766.00 1650.70 42.02
9617 0.5159 1743.00 1647.00 41.75
9618 0.5160 1704.00 1643.12 41.28
9619 0.5160 1710.00 1639.47 41.35
9620 0.5161 1659.00 1636.40 40.73
9621 0.5161 1737.00 1633.97 41.68
9622 0.5162 1653.00 1633.20 40.66
9623 0.5163 1729.00 1632.84 41.58
9624 0.5163 1736.00 1633.31 41.67
9625 0.5164 1647.00 1634.23 40.58
9626 0.5164 1642.00 1635.64 40.52
9627 0.5165 1662.00 1636.97 40.77
9628 0.5165 1725.00 1637.80 41.53
9629 0.5166 1652.00 1637.71 40.64
9630 0.5166 1694.00 1636.37 41.16
9631 0.5167 1643.00 1633.60 40.53
9632 0.5167 1712.00 1629.41 41.38
9633 0.5168 1657.00 1623.99 40.71
9634 0.5168 1662.00 1617.52 40.77
9635 0.5169 1623.00 1610.69 40.29
9636 0.5169 1633.00 1603.73 40.41
9637 0.5170 1591.00 1596.93 39.89
9638 0.5170 1584.00 1590.59 39.80
9639 0.5171 1653.00 1584.82 40.66
9640 0.5171 1570.00 1579.66 39.62
9641 0.5172 1618.00 1575.12 40.22
9642 0.5172 1563.00 1571.74 39.53
9643 0.5173 1632.00 1568.26 40.40
9644 0.5174 1638.00 1565.21 40.47
9645 0.5174 1579.00 1562.55 39.74
9646 0.5175 1651.00 1560.23 40.63
9647 0.5175 1574.00 1557.44 39.67
9648 0.5176 1666.00 1555.85 40.82
9649 0.5176 1634.00 1554.64 40.42
9650 0.5177 1610.00 1553.85 40.12
9651 0.5177 1576.00 1553.53 39.70
9652 0.5178 1593.00 1553.70 39.91
9653 0.5178 1700.00 1554.39 41.23
9654 0.5179 1587.00 1554.91 39.84
9655 0.5179 1585.00 1556.72 39.81
9656 0.5180 1624.00 1559.12 40.30
9657 0.5180 1591.00 1562.13 39.89
9658 0.5181 1617.00 1565.79 40.21
9659 0.5181 1642.00 1570.09 40.52
9660 0.5182 1634.00 1574.85 40.42
9661 0.5182 1605.00 1580.45 40.06
9662 0.5183 1622.00 1587.07 40.27
9663 0.5183 1568.00 1594.56 39.60
9664 0.5184 1653.00 1603.00 40.66
9665 0.5184 1604.00 1612.44 40.05
9666 0.5185 1687.00 1622.97 41.07
9667 0.5186 1641.00 1634.65 40.51
9668 0.5186 1632.00 1647.55 40.40
9669 0.5187 1763.00 1661.71 41.99
9670 0.5187 1648.00 1677.15 40.60
9671 0.5188 1645.00 1693.85 40.56
9672 0.5188 1732.00 1711.66 41.62
9673 0.5189 1757.00 1730.43 41.92
9674 0.5189 1724.00 1751.01 41.52
9675 0.5190 1773.00 1770.54 42.11
9676 0.5190 1737.00 1789.60 41.68
9677 0.5191 1760.00 1807.56 41.95
9678 0.5191 1869.00 1823.65 43.23
9679 0.5192 1830.00 1837.22 42.78
9680 0.5192 1825.00 1847.73 42.72
9681 0.5193 1933.00 1854.72 43.97
9682 0.5193 1906.00 1857.92 43.66
9683 0.5194 1895.00 1857.21 43.53
9684 0.5194 1931.00 1852.81 43.94
9685 0.5195 1900.00 1844.49 43.59
9686 0.5195 1812.00 1832.82 42.57
9687 0.5196 1855.00 1818.40 43.07
9688 0.5197 1881.00 1801.92 43.37
9689 0.5197 1825.00 1784.23 42.72
9690 0.5198 1776.00 1765.44 42.14
9691 0.5198 1821.00 1747.61 42.67
9692 0.5199 1715.00 1730.67 41.41
9693 0.5199 1701.00 1715.02 41.24
9694 0.5200 1710.00 1700.98 41.35
9695 0.5200 1720.00 1688.66 41.47
9696 0.5201 1634.00 1678.12 40.42
9697 0.5201 1698.00 1669.29 41.21
9698 0.5202 1701.00 1660.89 41.24
9699 0.5202 1682.00 1655.00 41.01
9700 0.5203 1704.00 1648.97 41.28
9701 0.5203 1721.00 1644.97 41.48
9702 0.5204 1696.00 1641.41 41.18
9703 0.5204 1801.00 1637.93 42.44
9704 0.5205 1700.00 1634.29 41.23
9705 0.5205 1754.00 1630.28 41.88
9706 0.5206 1721.00 1625.84 41.48
9707 0.5206 1708.00 1621.04 41.33
9708 0.5207 1730.00 1616.02 41.59
9709 0.5208 1648.00 1610.99 40.60
9710 0.5208 1696.00 1606.16 41.18
9711 0.5209 1691.00 1601.69 41.12
9712 0.5209 1689.00 1597.65 41.10
9713 0.5210 1665.00 1594.05 40.80
9714 0.5210 1565.00 1590.84 39.56
9715 0.5211 1631.00 1587.89 40.39
9716 0.5211 1562.00 1584.82 39.52
9717 0.5212 1634.00 1582.03 40.42
9718 0.5212 1626.00 1579.29 40.32
9719 0.5213 1528.00 1576.29 39.09
9720 0.5213 1627.00 1573.16 40.34
9721 0.5214 1620.00 1569.64 40.25
9722 0.5214 1566.00 1565.81 39.57
9723 0.5215 1583.00 1562.56 39.79
9724 0.5215 1607.00 1559.40 40.09
9725 0.5216 1638.00 1556.42 40.47
9726 0.5216 1568.00 1553.68 39.60
9727 0.5217 1644.00 1551.29 40.55
9728 0.5217 1539.00 1549.31 39.23
9729 0.5218 1619.00 1547.81 40.24
9730 0.5219 1597.00 1546.86 39.96
9731 0.5219 1587.00 1546.49 39.84
9732 0.5220 1656.00 1546.73 40.69
9733 0.5220 1509.00 1547.61 38.85
9734 0.5221 1643.00 1549.14 40.53
9735 0.5221 1550.00 1551.30 39.37
9736 0.5222 1622.00 1554.11 40.27
9737 0.5222 1585.00 1557.55 39.81
9738 0.5223 1591.00 1560.93 39.89
9739 0.5223 1565.00 1565.25 39.56
9740 0.5224 1568.00 1570.27 39.60
9741 0.5224 1528.00 1575.61 39.09
9742 0.5225 1568.00 1580.91 39.60
9743 0.5225 1593.00 1586.32 39.91
9744 0.5226 1580.00 1591.40 39.75
9745 0.5226 1583.00 1595.92 39.79
9746 0.5227 1622.00 1599.67 40.27
9747 0.5227 1611.00 1602.55 40.14
9748 0.5228 1709.00 1604.56 41.34
9749 0.5228 1594.00 1605.86 39.92
9750 0.5229 1707.00 1606.70 41.32
9751 0.5230 1598.00 1607.39 39.97
9752 0.5230 1633.00 1608.25 40.41
9753 0.5231 1575.00 1611.25 39.69
9754 0.5231 1573.00 1613.25 39.66
9755 0.5232 1589.00 1616.04 39.86
9756 0.5232 1541.00 1619.65 39.26
9757 0.5233 1627.00 1624.02 40.34
9758 0.5233 1607.00 1628.37 40.09
9759 0.5234 1584.00 1633.73 39.80
9760 0.5234 1616.00 1639.13 40.20
9761 0.5235 1620.00 1644.19 40.25
9762 0.5235 1705.00 1648.46 41.29
9763 0.5236 1677.00 1651.51 40.95
9764 0.5236 1665.00 1652.92 40.80
9765 0.5237 1603.00 1652.39 40.04
9766 0.5237 1637.00 1649.74 40.46
9767 0.5238 1679.00 1645.02 40.98
9768 0.5238 1631.00 1638.44 40.39
9769 0.5239 1728.00 1630.42 41.57
9770 0.5239 1653.00 1621.44 40.66
9771 0.5240 1645.00 1612.06 40.56
9772 0.5241 1642.00 1602.73 40.52
9773 0.5241 1635.00 1594.27 40.44
9774 0.5242 1596.00 1586.16 39.95
9775 0.5242 1538.00 1578.97 39.22
9776 0.5243 1603.00 1572.81 40.04
9777 0.5243 1594.00 1567.59 39.92
9778 0.5244 1666.00 1563.55 40.82
9779 0.5244 1600.00 1560.56 40.00
9780 0.5245 1660.00 1558.58 40.74
9781 0.5245 1601.00 1557.56 40.01
9782 0.5246 1642.00 1557.49 40.52
9783 0.5246 1647.00 1558.50 40.58
9784 0.5247 1598.00 1560.12 39.97
9785 0.5247 1639.00 1562.75 40.48
9786 0.5248 1548.00 1566.24 39.34
9787 0.5248 1657.00 1570.60 40.71
9788 0.5249 1543.00 1575.80 39.28
9789 0.5249 1621.00 1581.79 40.26
9790 0.5250 1701.00 1588.51 41.24
9791 0.5250 1669.00 1595.83 40.85
9792 0.5251 1686.00 1603.56 41.06
9793 0.5252 1670.00 1611.43 40.87
9794 0.5252 1672.00 1619.08 40.89
9795 0.5253 1660.00 1626.04 40.74
9796 0.5253 1668.00 1631.81 40.84
9797 0.5254 1668.00 1635.89 40.84
9798 0.5254 1639.00 1639.92 40.48
9799 0.5255 1684.00 1639.60 41.04
9800 0.5255 1637.00 1636.96 40.46
9801 0.5256 1659.00 1632.26 40.73
9802 0.5256 1577.00 1625.93 39.71
9803 0.5257 1639.00 1618.52 40.48
9804 0.5257 1557.00 1610.76 39.46
9805 0.5258 1597.00 1601.95 39.96
9806 0.5258 1584.00 1594.22 39.80
9807 0.5259 1565.00 1586.97 39.56
9808 0.5259 1646.00 1580.33 40.57
9809 0.5260 1611.00 1574.28 40.14
9810 0.5260 1645.00 1568.75 40.56
9811 0.5261 1529.00 1563.61 39.10
9812 0.5261 1572.00 1558.72 39.65
9813 0.5262 1555.00 1553.89 39.43
9814 0.5263 1581.00 1549.12 39.76
9815 0.5263 1577.00 1544.30 39.71
9816 0.5264 1653.00 1539.40 40.66
9817 0.5264 1513.00 1534.50 38.90
9818 0.5265 1578.00 1529.64 39.72
9819 0.5265 1621.00 1524.92 40.26
9820 0.5266 1585.00 1520.43 39.81
9821 0.5266 1582.00 1516.60 39.77
9822 0.5267 1620.00 1512.73 40.25
9823 0.5267 1600.00 1509.21 40.00
9824 0.5268 1530.00 1506.04 39.12
9825 0.5268 1518.00 1503.23 38.96
9826 0.5269 1526.00 1500.74 39.06
9827 0.5269 1635.00 1498.55 40.44
9828 0.5270 1545.00 1496.66 39.31
9829 0.5270 1513.00 1495.02 38.90
9830 0.5271 1598.00 1491.77 39.97
9831 0.5271 1526.00 1490.62 39.06
9832 0.5272 1564.00 1490.91 39.55
9833 0.5272 1581.00 1490.16 39.76
9834 0.5273 1523.00 1489.59 39.03
9835 0.5274 1561.00 1488.71 39.51
9836 0.5274 1572.00 1488.47 39.65
9837 0.5275 1567.00 1488.39 39.59
9838 0.5275 1554.00 1488.45 39.42
9839 0.5276 1523.00 1488.65 39.03
9840 0.5276 1567.00 1489.01 39.59
9841 0.5277 1540.00 1489.51 39.24
9842 0.5277 1650.00 1490.16 40.62
9843 0.5278 1546.00 1490.96 39.32
9844 0.5278 1489.00 1491.92 38.59
9845 0.5279 1574.00 1493.05 39.67
9846 0.5279 1533.00 1494.35 39.15
9847 0.5280 1583.00 1495.82 39.79
9848 0.5280 1552.00 1497.49 39.40
9849 0.5281 1561.00 1499.35 39.51
9850 0.5281 1644.00 1501.16 40.55
9851 0.5282 1620.00 1503.32 40.25
9852 0.5282 1607.00 1505.80 40.09
9853 0.5283 1547.00 1508.48 39.33
9854 0.5283 1577.00 1511.35 39.71
9855 0.5284 1539.00 1514.39 39.23
9856 0.5285 1604.00 1517.59 40.05
9857 0.5285 1613.00 1522.63 40.16
9858 0.5286 1568.00 1526.07 39.60
9859 0.5286 1596.00 1529.56 39.95
9860 0.5287 1645.00 1533.11 40.56
9861 0.5287 1570.00 1536.69 39.62
9862 0.5288 1606.00 1540.35 40.07
9863 0.5288 1628.00 1544.13 40.35
9864 0.5289 1577.00 1548.52 39.71
9865 0.5289 1671.00 1552.76 40.88
9866 0.5290 1670.00 1557.35 40.87
9867 0.5290 1625.00 1562.41 40.31
9868 0.5291 1632.00 1567.99 40.40
9869 0.5291 1725.00 1574.89 41.53
9870 0.5292 1629.00 1581.76 40.36
9871 0.5292 1574.00 1589.31 39.67
9872 0.5293 1656.00 1598.51 40.69
9873 0.5293 1645.00 1607.47 40.56
9874 0.5294 1715.00 1616.81 41.41
9875 0.5294 1671.00 1626.88 40.88
9876 0.5295 1658.00 1637.23 40.72
9877 0.5296 1690.00 1647.61 41.11
9878 0.5296 1682.00 1657.72 41.01
9879 0.5297 1749.00 1667.14 41.82
9880 0.5297 1747.00 1675.49 41.80
9881 0.5298 1812.00 1682.37 42.57
9882 0.5298 1742.00 1687.70 41.74
9883 0.5299 1802.00 1690.79 42.45
9884 0.5299 1748.00 1691.78 41.81
9885 0.5300 1675.00 1690.74 40.93
9886 0.5300 1814.00 1687.88 42.59
9887 0.5301 1748.00 1683.52 41.81
9888 0.5301 1776.00 1678.08 42.14
9889 0.5302 1687.00 1672.00 41.07
9890 0.5302 1672.00 1665.72 40.89
9891 0.5303 1657.00 1659.61 40.71
9892 0.5303 1653.00 1653.98 40.66
9893 0.5304 1612.00 1648.48 40.15
9894 0.5304 1650.00 1644.41 40.62
9895 0.5305 1589.00 1641.23 39.86
9896 0.5305 1636.00 1638.91 40.45
9897 0.5306 1651.00 1637.33 40.63
9898 0.5306 1611.00 1636.32 40.14
9899 0.5307 1548.00 1635.67 39.34
9900 0.5308 1614.00 1635.18 40.17
9901 0.5308 1604.00 1634.68 40.05
9902 0.5309 1649.00 1634.08 40.61
9903 0.5309 1611.00 1633.47 40.14
9904 0.5310 1667.00 1632.81 40.83
9905 0.5310 1586.00 1632.36 39.82
9906 0.5311 1627.00 1631.79 40.34
9907 0.5311 1623.00 1632.39 40.29
9908 0.5312 1652.00 1633.79 40.64
9909 0.5312 1653.00 1636.10 40.66
9910 0.5313 1600.00 1639.39 40.00
9911 0.5313 1700.00 1643.71 41.23
9912 0.5314 1545.00 1649.05 39.31
9913 0.5314 1642.00 1655.41 40.52
9914 0.5315 1676.00 1662.80 40.94
9915 0.5315 1624.00 1671.22 40.30
9916 0.5316 1650.00 1680.70 40.62
9917 0.5316 1651.00 1691.21 40.63
9918 0.5317 1742.00 1704.08 41.74
9919 0.5317 1610.00 1716.48 40.12
9920 0.5318 1709.00 1729.47 41.34
9921 0.5319 1658.00 1742.68 40.72
9922 0.5319 1679.00 1755.53 40.98
9923 0.5320 1661.00 1767.32 40.76
9924 0.5320 1769.00 1777.30 42.06
9925 0.5321 1736.00 1784.04 41.67
9926 0.5321 1737.00 1788.43 41.68
9927 0.5322 1728.00 1789.47 41.57
9928 0.5322 1738.00 1787.23 41.69
9929 0.5323 1752.00 1782.06 41.86
9930 0.5323 1764.00 1774.53 42.00
9931 0.5324 1885.00 1765.25 43.42
9932 0.5324 1739.00 1754.80 41.70
9933 0.5325 1696.00 1743.64 41.18
9934 0.5325 1766.00 1732.13 42.02
9935 0.5326 1691.00 1720.53 41.12
9936 0.5326 1670.00 1709.01 40.87
9937 0.5327 1706.00 1697.77 41.30
9938 0.5327 1728.00 1686.95 41.57
9939 0.5328 1679.00 1676.73 40.98
9940 0.5328 1678.00 1667.26 40.96
9941 0.5329 1659.00 1658.71 40.73
9942 0.5330 1702.00 1651.09 41.26
9943 0.5330 1689.00 1644.48 41.10
9944 0.5331 1637.00 1639.26 40.46
9945 0.5331 1660.00 1635.23 40.74
9946 0.5332 1677.00 1633.09 40.95
9947 0.5332 1662.00 1631.35 40.77
9948 0.5333 1657.00 1630.64 40.71
9949 0.5333 1694.00 1630.82 41.16
9950 0.5334 1715.00 1631.77 41.41
9951 0.5334 1708.00 1633.57 41.33
9952 0.5335 1709.00 1635.48 41.34
9953 0.5335 1658.00 1637.59 40.72
9954 0.5336 1752.00 1639.70 41.86
9955 0.5336 1699.00 1641.71 41.22
9956 0.5337 1722.00 1643.53 41.50
9957 0.5337 1704.00 1645.21 41.28
9958 0.5338 1705.00 1646.86 41.29
9959 0.5338 1708.00 1648.64 41.33
9960 0.5339 1701.00 1650.68 41.24
9961 0.5339 1688.00 1653.30 41.09
9962 0.5340 1652.00 1656.60 40.64
9963 0.5341 1637.00 1660.65 40.46
9964 0.5341 1704.00 1665.52 41.28
9965 0.5342 1694.00 1671.76 41.16
9966 0.5342 1661.00 1678.13 40.76
9967 0.5343 1684.00 1685.11 41.04
9968 0.5343 1686.00 1692.52 41.06
9969 0.5344 1717.00 1700.20 41.44
9970 0.5344 1681.00 1708.05 41.00
9971 0.5345 1748.00 1715.83 41.81
9972 0.5345 1729.00 1723.49 41.58
9973 0.5346 1857.00 1731.00 43.09
9974 0.5346 1822.00 1738.29 42.68
9975 0.5347 1891.00 1745.34 43.49
9976 0.5347 1921.00 1752.09 43.83
9977 0.5348 1996.00 1758.52 44.68
9978 0.5348 2017.00 1764.56 44.91
9979 0.5349 1916.00 1770.23 43.77
9980 0.5349 1965.00 1775.81 44.33
9981 0.5350 1804.00 1782.46 42.47
9982 0.5350 1829.00 1787.71 42.77
9983 0.5351 1805.00 1793.26 42.49
9984 0.5352 1852.00 1799.43 43.03
9985 0.5352 1919.00 1806.49 43.81
9986 0.5353 1810.00 1814.67 42.54
9987 0.5353 1861.00 1824.16 43.14
9988 0.5354 1844.00 1835.03 42.94
9989 0.5354 1873.00 1848.38 43.28
9990 0.5355 1855.00 1861.95 43.07
9991 0.5355 1957.00 1876.67 44.24
9992 0.5356 2025.00 1892.22 45.00
9993 0.5356 2126.00 1908.19 46.11
9994 0.5357 2149.00 1924.06 46.36
9995 0.5357 2258.00 1939.21 47.52
9996 0.5358 2234.00 1952.93 47.27
9997 0.5358 2223.00 1964.50 47.15
9998 0.5359 2197.00 1973.26 46.87
9999 0.5359 2096.00 1978.68 45.78
10000 0.5360 2135.00 1980.44 46.21
10001 0.5360 2094.00 1978.46 45.76
10002 0.5361 2118.00 1972.97 46.02
10003 0.5361 2028.00 1964.31 45.03
10004 0.5362 2109.00 1953.03 45.92
10005 0.5363 1985.00 1939.60 44.55
10006 0.5363 1985.00 1924.79 44.55
10007 0.5364 2043.00 1908.92 45.20
10008 0.5364 1950.00 1892.27 44.16
10009 0.5365 2010.00 1874.86 44.83
10010 0.5365 1968.00 1857.42 44.36
10011 0.5366 1982.00 1839.94 44.52
10012 0.5366 1922.00 1822.76 43.84
10013 0.5367 1957.00 1806.16 44.24
10014 0.5367 1927.00 1792.78 43.90
10015 0.5368 1882.00 1778.30 43.38
10016 0.5368 1891.00 1765.44 43.49
10017 0.5369 1859.00 1753.78 43.12
10018 0.5369 1893.00 1743.23 43.51
10019 0.5370 1887.00 1733.78 43.44
10020 0.5370 1895.00 1725.22 43.53
10021 0.5371 1925.00 1717.26 43.87
10022 0.5371 1858.00 1709.67 43.10
10023 0.5372 1812.00 1702.21 42.57
10024 0.5372 1776.00 1694.75 42.14
10025 0.5373 1785.00 1687.27 42.25
10026 0.5374 1818.00 1679.81 42.64
10027 0.5374 1759.00 1672.51 41.94
10028 0.5375 1759.00 1665.54 41.94
10029 0.5375 1753.00 1659.09 41.87
10030 0.5376 1795.00 1653.33 42.37
10031 0.5376 1707.00 1648.34 41.32
10032 0.5377 1769.00 1643.85 42.06
10033 0.5377 1686.00 1640.70 41.06
10034 0.5378 1750.00 1638.07 41.83
10035 0.5378 1699.00 1636.91 41.22
10036 0.5379 1732.00 1636.73 41.62
10037 0.5379 1679.00 1637.49 40.98
10038 0.5380 1702.00 1639.16 41.26
10039 0.5380 1788.00 1641.60 42.28
10040 0.5381 1705.00 1644.95 41.29
10041 0.5381 1825.00 1649.04 42.72
10042 0.5382 1684.00 1653.81 41.04
10043 0.5382 1737.00 1659.18 41.68
10044 0.5383 1710.00 1665.02 41.35
10045 0.5383 1754.00 1671.27 41.88
10046 0.5384 1681.00 1677.52 41.00
10047 0.5385 1730.00 1683.85 41.59
10048 0.5385 1729.00 1689.87 41.58
10049 0.5386 1674.00 1695.28 40.91
10050 0.5386 1809.00 1699.78 42.53
10051 0.5387 1772.00 1703.10 42.10
10052 0.5387 1742.00 1705.09 41.74
10053 0.5388 1753.00 1705.68 41.87
10054 0.5388 1733.00 1704.94 41.63
10055 0.5389 1706.00 1703.06 41.30
10056 0.5389 1778.00 1698.91 42.17
10057 0.5390 1730.00 1695.79 41.59
10058 0.5390 1759.00 1692.17 41.94
10059 0.5391 1728.00 1688.51 41.57
10060 0.5391 1704.00 1685.05 41.28
10061 0.5392 1701.00 1681.94 41.24
10062 0.5392 1626.00 1679.34 40.32
10063 0.5393 1748.00 1677.37 41.81
10064 0.5393 1711.00 1676.13 41.36
10065 0.5394 1783.00 1675.70 42.23
10066 0.5394 1675.00 1676.10 40.93
10067 0.5395 1681.00 1677.33 41.00
10068 0.5396 1697.00 1679.29 41.19
10069 0.5396 1736.00 1681.80 41.67
10070 0.5397 1696.00 1684.61 41.18
10071 0.5397 1707.00 1688.19 41.32
10072 0.5398 1762.00 1690.34 41.98
10073 0.5398 1737.00 1691.84 41.68
10074 0.5399 1712.00 1693.02 41.38
10075 0.5399 1697.00 1692.03 41.19
10076 0.5400 1707.00 1689.68 41.32
10077 0.5400 1767.00 1686.12 42.04
10078 0.5401 1822.00 1681.65 42.68
10079 0.5401 1731.00 1676.60 41.61
10080 0.5402 1762.00 1671.82 41.98
10081 0.5402 1750.00 1666.71 41.83
10082 0.5403 1790.00 1662.01 42.31
10083 0.5403 1794.00 1659.40 42.36
10084 0.5404 1759.00 1656.07 41.94
10085 0.5404 1701.00 1653.53 41.24
10086 0.5405 1717.00 1651.29 41.44
10087 0.5405 1738.00 1650.31 41.69
10088 0.5406 1705.00 1650.00 41.29
10089 0.5407 1731.00 1650.23 41.61
10090 0.5407 1720.00 1650.91 41.47
10091 0.5408 1678.00 1651.55 40.96
10092 0.5408 1775.00 1652.86 42.13
10093 0.5409 1759.00 1654.42 41.94
10094 0.5409 1771.00 1656.25 42.08
10095 0.5410 1791.00 1658.36 42.32
10096 0.5410 1756.00 1660.78 41.90
10097 0.5411 1743.00 1663.47 41.75
10098 0.5411 1735.00 1666.39 41.65
10099 0.5412 1741.00 1669.40 41.73
10100 0.5412 1725.00 1672.33 41.53
10101 0.5413 1816.00 1674.99 42.61
10102 0.5413 1776.00 1677.18 42.14
10103 0.5414 1767.00 1678.79 42.04
10104 0.5414 1738.00 1679.91 41.69
10105 0.5415 1736.00 1680.25 41.67
10106 0.5415 1761.00 1680.15 41.96
10107 0.5416 1719.00 1679.83 41.46
10108 0.5416 1717.00 1679.53 41.44
10109 0.5417 1744.00 1679.55 41.76
10110 0.5417 1668.00 1680.10 40.84
10111 0.5418 1727.00 1681.04 41.56
10112 0.5419 1753.00 1683.83 41.87
10113 0.5419 1781.00 1687.12 42.20
10114 0.5420 1769.00 1691.80 42.06
10115 0.5420 1768.00 1697.52 42.05
10116 0.5421 1764.00 1704.58 42.00
10117 0.5421 1775.00 1713.04 42.13
10118 0.5422 1782.00 1723.85 42.21
10119 0.5422 1799.00 1735.29 42.41
10120 0.5423 1796.00 1748.27 42.38
10121 0.5423 1813.00 1762.83 42.58
10122 0.5424 1781.00 1778.96 42.20
10123 0.5424 1763.00 1796.55 41.99
10124 0.5425 1845.00 1815.71 42.95
10125 0.5425 1795.00 1836.25 42.37
10126 0.5426 1875.00 1858.01 43.30
10127 0.5426 1897.00 1880.58 43.55
10128 0.5427 1957.00 1903.66 44.24
10129 0.5427 1994.00 1926.84 44.65
10130 0.5428 2037.00 1949.32 45.13
10131 0.5428 2132.00 1970.51 46.17
10132 0.5429 2138.00 1989.73 46.24
10133 0.5430 2238.00 2005.47 47.31
10134 0.5430 2138.00 2018.80 46.24
10135 0.5431 2140.00 2028.54 46.26
10136 0.5431 1990.00 2033.86 44.61
10137 0.5432 2028.00 2037.80 45.03
10138 0.5432 2035.00 2037.25 45.11
10139 0.5433 2034.00 2033.87 45.10
10140 0.5433 1973.00 2029.34 44.42
10141 0.5434 1949.00 2024.04 44.15
10142 0.5434 1996.00 2018.70 44.68
10143 0.5435 1902.00 2013.87 43.61
10144 0.5435 1889.00 2009.89 43.46
10145 0.5436 1931.00 2006.86 43.94
10146 0.5436 1911.00 2004.17 43.72
10147 0.5437 1885.00 2002.34 43.42
10148 0.5437 1905.00 2000.38 43.65
10149 0.5438 1965.00 1997.18 44.33
10150 0.5438 1958.00 1992.95 44.25
10151 0.5439 1993.00 1985.39 44.64
10152 0.5439 1906.00 1978.05 43.66
10153 0.5440 1919.00 1966.73 43.81
10154 0.5441 1813.00 1952.84 42.58
10155 0.5441 1896.00 1936.73 43.54
10156 0.5442 1820.00 1918.90 42.66
10157 0.5442 1864.00 1899.93 43.17
10158 0.5443 1900.00 1880.49 43.59
10159 0.5443 1806.00 1861.16 42.50
10160 0.5444 1821.00 1842.48 42.67
10161 0.5444 1904.00 1824.92 43.63
10162 0.5445 1871.00 1808.77 43.26
10163 0.5445 1852.00 1794.25 43.03
10164 0.5446 1829.00 1781.61 42.77
10165 0.5446 1786.00 1770.64 42.26
10166 0.5447 1802.00 1761.52 42.45
10167 0.5447 1810.00 1753.44 42.54
10168 0.5448 1845.00 1747.43 42.95
10169 0.5448 1830.00 1742.80 42.78
10170 0.5449 1833.00 1739.41 42.81
10171 0.5449 1802.00 1737.11 42.45
10172 0.5450 1816.00 1735.79 42.61
10173 0.5450 1767.00 1735.24 42.04
10174 0.5451 1818.00 1735.35 42.64
10175 0.5452 1787.00 1735.99 42.27
10176 0.5452 1795.00 1736.98 42.37
10177 0.5453 1784.00 1738.14 42.24
10178 0.5453 1856.00 1739.30 43.08
10179 0.5454 1811.00 1740.28 42.56
10180 0.5454 1853.00 1740.95 43.05
10181 0.5455 1760.00 1741.24 41.95
10182 0.5455 1897.00 1742.49 43.55
10183 0.5456 1765.00 1742.12 42.01
10184 0.5456 1844.00 1741.67 42.94
10185 0.5457 1809.00 1741.46 42.53
10186 0.5457 1897.00 1741.65 43.55
10187 0.5458 1864.00 1742.44 43.17
10188 0.5458 1848.00 1744.04 42.99
10189 0.5459 1936.00 1746.58 44.00
10190 0.5459 1920.00 1750.18 43.82
10191 0.5460 1919.00 1754.92 43.81
10192 0.5460 1870.00 1760.86 43.24
10193 0.5461 1947.00 1768.03 44.12
10194 0.5461 1932.00 1776.48 43.95
10195 0.5462 1937.00 1786.17 44.01
10196 0.5463 1906.00 1797.03 43.66
10197 0.5463 2012.00 1808.88 44.86
10198 0.5464 1985.00 1821.48 44.55
10199 0.5464 2045.00 1834.41 45.22
10200 0.5465 2143.00 1846.43 46.29
10201 0.5465 2072.00 1858.56 45.52
10202 0.5466 2126.00 1869.40 46.11
10203 0.5466 2093.00 1878.49 45.75
10204 0.5467 2119.00 1885.42 46.03
10205 0.5467 2183.00 1889.19 46.72
10206 0.5468 2242.00 1891.44 47.35
10207 0.5468 2219.00 1891.50 47.11
10208 0.5469 2192.00 1889.65 46.82
10209 0.5469 2108.00 1886.70 45.91
10210 0.5470 2097.00 1882.11 45.79
10211 0.5470 2069.00 1876.68 45.49
10212 0.5471 2015.00 1870.78 44.89
10213 0.5471 2044.00 1864.69 45.21
10214 0.5472 2015.00 1858.72 44.89
10215 0.5472 2005.00 1853.06 44.78
10216 0.5473 1933.00 1847.85 43.97
10217 0.5474 2005.00 1843.08 44.78
10218 0.5474 1960.00 1838.63 44.27
10219 0.5475 1897.00 1834.25 43.55
10220 0.5475 1931.00 1829.62 43.94
10221 0.5476 1925.00 1824.42 43.87
10222 0.5476 1909.00 1818.34 43.69
10223 0.5477 1835.00 1811.18 42.84
10224 0.5477 1856.00 1802.71 43.08
10225 0.5478 1909.00 1793.36 43.69
10226 0.5478 1879.00 1783.18 43.35
10227 0.5479 1852.00 1772.45 43.03
10228 0.5479 1840.00 1761.56 42.90
10229 0.5480 1855.00 1751.33 43.07
10230 0.5480 1820.00 1741.17 42.66
10231 0.5481 1780.00 1731.86 42.19
10232 0.5481 1775.00 1723.62 42.13
10233 0.5482 1812.00 1716.61 42.57
10234 0.5482 1778.00 1710.67 42.17
10235 0.5483 1774.00 1706.40 42.12
10236 0.5483 1861.00 1703.54 43.14
10237 0.5484 1775.00 1702.09 42.13
10238 0.5485 1807.00 1702.02 42.51
10239 0.5485 1788.00 1703.26 42.28
10240 0.5486 1768.00 1707.09 42.05
10241 0.5486 1762.00 1710.76 41.98
10242 0.5487 1803.00 1715.48 42.46
10243 0.5487 1831.00 1720.55 42.79
10244 0.5488 1853.00 1726.97 43.05
10245 0.5488 1868.00 1733.99 43.22
10246 0.5489 1891.00 1741.42 43.49
10247 0.5489 1923.00 1749.11 43.85
10248 0.5490 1884.00 1756.89 43.41
10249 0.5490 1857.00 1764.64 43.09
10250 0.5491 1870.00 1772.29 43.24
10251 0.5491 1945.00 1779.80 44.10
10252 0.5492 1828.00 1787.19 42.76
10253 0.5492 1957.00 1794.59 44.24
10254 0.5493 1869.00 1802.06 43.23
10255 0.5493 1943.00 1809.65 44.08
10256 0.5494 1953.00 1817.36 44.19
10257 0.5494 1921.00 1825.13 43.83
10258 0.5495 1957.00 1832.80 44.24
10259 0.5496 1938.00 1840.13 44.02
10260 0.5496 1989.00 1846.87 44.60
10261 0.5497 1939.00 1852.74 44.03
10262 0.5497 1970.00 1857.57 44.38
10263 0.5498 2052.00 1864.00 45.30
10264 0.5498 2007.00 1866.63 44.80
10265 0.5499 2017.00 1868.28 44.91
10266 0.5499 1951.00 1869.18 44.17
10267 0.5500 1973.00 1869.42 44.42
10268 0.5500 1928.00 1869.16 43.91
10269 0.5501 1915.00 1868.42 43.76
10270 0.5501 1875.00 1867.16 43.30
10271 0.5502 1866.00 1865.21 43.20
10272 0.5502 1848.00 1862.37 42.99
10273 0.5503 1820.00 1858.42 42.66
10274 0.5503 1854.00 1853.16 43.06
10275 0.5504 1844.00 1846.48 42.94
10276 0.5504 1865.00 1838.37 43.19
10277 0.5505 1805.00 1828.92 42.49
10278 0.5505 1933.00 1818.54 43.97
10279 0.5506 1770.00 1807.53 42.07
10280 0.5507 1939.00 1796.36 44.03
10281 0.5507 1920.00 1785.39 43.82
10282 0.5508 1811.00 1775.15 42.56
10283 0.5508 1813.00 1765.58 42.58
10284 0.5509 1821.00 1757.41 42.67
10285 0.5509 1746.00 1750.63 41.79
10286 0.5510 1731.00 1744.28 41.61
10287 0.5510 1884.00 1740.58 43.41
10288 0.5511 1750.00 1738.49 41.83
10289 0.5511 1818.00 1738.00 42.64
10290 0.5512 1812.00 1737.63 42.57
10291 0.5512 1797.00 1740.23 42.39
10292 0.5513 1749.00 1744.21 41.82
10293 0.5513 1798.00 1750.65 42.40
10294 0.5514 1882.00 1756.87 43.38
10295 0.5514 1790.00 1763.80 42.31
10296 0.5515 1870.00 1770.79 43.24
10297 0.5515 1899.00 1778.05 43.58
10298 0.5516 1911.00 1784.79 43.72
10299 0.5516 2000.00 1790.18 44.72
10300 0.5517 2050.00 1792.73 45.28
10301 0.5518 1987.00 1795.08 44.58
10302 0.5518 2009.00 1795.29 44.82
10303 0.5519 1974.00 1793.28 44.43
10304 0.5519 1959.00 1789.20 44.26
10305 0.5520 1922.00 1783.37 43.84
10306 0.5520 1883.00 1776.21 43.39
10307 0.5521 1798.00 1768.25 42.40
10308 0.5521 1849.00 1759.95 43.00
10309 0.5522 1753.00 1751.80 41.87
10310 0.5522 1749.00 1744.13 41.82
10311 0.5523 1752.00 1737.20 41.86
10312 0.5523 1764.00 1731.24 42.00
10313 0.5524 1758.00 1726.34 41.93
10314 0.5524 1755.00 1722.59 41.89
10315 0.5525 1702.00 1720.01 41.26
10316 0.5525 1725.00 1718.60 41.53
10317 0.5526 1756.00 1718.32 41.90
10318 0.5526 1757.00 1719.12 41.92
10319 0.5527 1779.00 1720.83 42.18
10320 0.5527 1733.00 1723.39 41.63
10321 0.5528 1762.00 1726.56 41.98
10322 0.5529 1719.00 1730.09 41.46
10323 0.5529 1728.00 1733.73 41.57
10324 0.5530 1694.00 1737.16 41.16
10325 0.5530 1733.00 1740.09 41.63
10326 0.5531 1724.00 1742.28 41.52
10327 0.5531 1689.00 1743.32 41.10
10328 0.5532 1738.00 1743.44 41.69
10329 0.5532 1665.00 1741.81 40.80
10330 0.5533 1701.00 1739.48 41.24
10331 0.5533 1708.00 1735.97 41.33
10332 0.5534 1713.00 1731.30 41.39
10333 0.5534 1691.00 1725.61 41.12
10334 0.5535 1715.00 1719.07 41.41
10335 0.5535 1792.00 1711.97 42.33
10336 0.5536 1647.00 1704.57 40.58
10337 0.5536 1708.00 1696.34 41.33
10338 0.5537 1671.00 1689.33 40.88
10339 0.5537 1635.00 1681.96 40.44
10340 0.5538 1669.00 1675.99 40.85
10341 0.5538 1633.00 1670.82 40.41
10342 0.5539 1693.00 1666.55 41.15
10343 0.5539 1720.00 1663.22 41.47
10344 0.5540 1663.00 1660.38 40.78
10345 0.5541 1685.00 1658.88 41.05
10346 0.5541 1701.00 1658.32 41.24
10347 0.5542 1583.00 1658.63 39.79
10348 0.5542 1692.00 1659.74 41.13
10349 0.5543 1646.00 1661.59 40.57
10350 0.5543 1759.00 1664.13 41.94
10351 0.5544 1719.00 1667.25 41.46
10352 0.5544 1690.00 1670.85 41.11
10353 0.5545 1656.00 1674.78 40.69
10354 0.5545 1696.00 1678.84 41.18
10355 0.5546 1721.00 1682.91 41.48
10356 0.5546 1667.00 1686.76 40.83
10357 0.5547 1623.00 1690.25 40.29
10358 0.5547 1744.00 1693.24 41.76
10359 0.5548 1690.00 1695.69 41.11
10360 0.5548 1747.00 1697.66 41.80
10361 0.5549 1719.00 1699.24 41.46
10362 0.5549 1725.00 1700.59 41.53
10363 0.5550 1749.00 1701.93 41.82
10364 0.5550 1731.00 1703.45 41.61
10365 0.5551 1785.00 1705.22 42.25
10366 0.5552 1761.00 1707.51 41.96
10367 0.5552 1700.00 1710.31 41.23
10368 0.5553 1793.00 1713.04 42.34
10369 0.5553 1780.00 1716.91 42.19
10370 0.5554 1806.00 1721.23 42.50
10371 0.5554 1811.00 1725.95 42.56
10372 0.5555 1783.00 1730.94 42.23
10373 0.5555 1782.00 1736.98 42.21
10374 0.5556 1763.00 1742.23 41.99
10375 0.5556 1794.00 1747.49 42.36
10376 0.5557 1803.00 1752.01 42.46
10377 0.5557 1862.00 1756.99 43.15
10378 0.5558 1735.00 1761.83 41.65
10379 0.5558 1749.00 1766.57 41.82
10380 0.5559 1724.00 1771.32 41.52
10381 0.5559 1736.00 1776.23 41.67
10382 0.5560 1755.00 1781.55 41.89
10383 0.5560 1743.00 1787.33 41.75
10384 0.5561 1819.00 1793.85 42.65
10385 0.5561 1770.00 1801.34 42.07
10386 0.5562 1813.00 1809.93 42.58
10387 0.5563 1791.00 1819.72 42.32
10388 0.5563 1793.00 1830.72 42.34
10389 0.5564 1813.00 1842.87 42.58
10390 0.5564 1853.00 1856.01 43.05
10391 0.5565 1969.00 1869.83 44.37
10392 0.5565 1930.00 1883.99 43.93
10393 0.5566 2054.00 1898.17 45.32
10394 0.5566 2104.00 1911.58 45.87
10395 0.5567 2026.00 1923.89 45.01
10396 0.5567 1965.00 1934.61 44.33
10397 0.5568 1981.00 1943.37 44.51
10398 0.5568 1971.00 1949.79 44.40
10399 0.5569 1900.00 1953.91 43.59
10400 0.5569 1929.00 1955.17 43.92
10401 0.5570 1868.00 1954.26 43.22
10402 0.5570 1884.00 1950.76 43.41
10403 0.5571 1866.00 1944.59 43.20
10404 0.5571 1809.00 1935.67 42.53
10405 0.5572 1733.00 1924.02 41.63
10406 0.5572 1754.00 1909.51 41.88
10407 0.5573 1775.00 1892.80 42.13
10408 0.5574 1815.00 1873.36 42.60
10409 0.5574 1652.00 1853.48 40.64
10410 0.5575 1706.00 1832.74 41.30
10411 0.5575 1694.00 1811.96 41.16
10412 0.5576 1637.00 1791.67 40.46
10413 0.5576 1714.00 1772.23 41.40
10414 0.5577 1723.00 1754.02 41.51
10415 0.5577 1699.00 1737.20 41.22
10416 0.5578 1771.00 1721.87 42.08
10417 0.5578 1714.00 1708.20 41.40
10418 0.5579 1697.00 1696.08 41.19
10419 0.5579 1640.00 1685.49 40.50
10420 0.5580 1677.00 1676.06 40.95
10421 0.5580 1657.00 1668.26 40.71
10422 0.5581 1706.00 1661.67 41.30
10423 0.5581 1636.00 1656.20 40.45
10424 0.5582 1637.00 1651.75 40.46
10425 0.5582 1623.00 1648.21 40.29
10426 0.5583 1620.00 1645.53 40.25
10427 0.5583 1720.00 1643.64 41.47
10428 0.5584 1677.00 1642.51 40.95
10429 0.5585 1626.00 1642.10 40.32
10430 0.5585 1669.00 1642.41 40.85
10431 0.5586 1655.00 1643.43 40.68
10432 0.5586 1647.00 1645.14 40.58
10433 0.5587 1619.00 1647.52 40.24
10434 0.5587 1620.00 1650.54 40.25
10435 0.5588 1614.00 1654.12 40.17
10436 0.5588 1609.00 1658.84 40.11
10437 0.5589 1640.00 1663.33 40.50
10438 0.5589 1683.00 1668.09 41.02
10439 0.5590 1627.00 1672.96 40.34
10440 0.5590 1633.00 1677.79 40.41
10441 0.5591 1706.00 1682.48 41.30
10442 0.5591 1655.00 1686.65 40.68
10443 0.5592 1662.00 1690.10 40.77
10444 0.5592 1764.00 1692.82 42.00
10445 0.5593 1725.00 1694.51 41.53
10446 0.5593 1796.00 1694.94 42.38
10447 0.5594 1807.00 1693.97 42.51
10448 0.5594 1755.00 1691.47 41.89
10449 0.5595 1682.00 1687.42 41.01
10450 0.5596 1653.00 1681.88 40.66
10451 0.5596 1654.00 1675.02 40.67
10452 0.5597 1626.00 1667.09 40.32
10453 0.5597 1695.00 1658.71 41.17
10454 0.5598 1677.00 1648.23 40.95
10455 0.5598 1675.00 1638.94 40.93
10456 0.5599 1639.00 1629.76 40.48
10457 0.5599 1629.00 1620.87 40.36
10458 0.5600 1623.00 1612.37 40.29
10459 0.5600 1627.00 1604.52 40.34
10460 0.5601 1616.00 1597.41 40.20
10461 0.5601 1551.00 1590.76 39.38
10462 0.5602 1566.00 1584.80 39.57
10463 0.5602 1584.00 1579.47 39.80
10464 0.5603 1651.00 1574.72 40.63
10465 0.5603 1567.00 1570.54 39.59
10466 0.5604 1602.00 1566.88 40.03
10467 0.5604 1538.00 1563.71 39.22
10468 0.5605 1599.00 1560.99 39.99
10469 0.5605 1560.00 1558.69 39.50
10470 0.5606 1594.00 1556.79 39.92
10471 0.5607 1513.00 1554.70 38.90
10472 0.5607 1553.00 1553.51 39.41
10473 0.5608 1631.00 1552.65 40.39
10474 0.5608 1586.00 1552.11 39.82
10475 0.5609 1611.00 1551.86 40.14
10476 0.5609 1565.00 1551.91 39.56
10477 0.5610 1619.00 1552.23 40.24
10478 0.5610 1636.00 1552.83 40.45
10479 0.5611 1583.00 1553.68 39.79
10480 0.5611 1611.00 1554.79 40.14
10481 0.5612 1578.00 1556.13 39.72
10482 0.5612 1671.00 1557.69 40.88
10483 0.5613 1567.00 1559.44 39.59
10484 0.5613 1563.00 1561.36 39.53
10485 0.5614 1564.00 1562.67 39.55
10486 0.5614 1577.00 1565.09 39.71
10487 0.5615 1617.00 1567.31 40.21
10488 0.5615 1630.00 1569.56 40.37
10489 0.5616 1690.00 1571.83 41.11
10490 0.5616 1600.00 1574.11 40.00
10491 0.5617 1601.00 1576.44 40.01
10492 0.5618 1598.00 1578.86 39.97
10493 0.5618 1638.00 1581.41 40.47
10494 0.5619 1651.00 1584.18 40.63
10495 0.5619 1601.00 1587.17 40.01
10496 0.5620 1627.00 1590.56 40.34
10497 0.5620 1586.00 1594.31 39.82
10498 0.5621 1643.00 1598.45 40.53
10499 0.5621 1666.00 1602.99 40.82
10500 0.5622 1690.00 1607.88 41.11
10501 0.5622 1661.00 1613.07 40.76
10502 0.5623 1626.00 1618.45 40.32
10503 0.5623 1708.00 1623.89 41.33
10504 0.5624 1645.00 1629.24 40.56
10505 0.5624 1648.00 1634.33 40.60
10506 0.5625 1674.00 1640.22 40.91
10507 0.5625 1685.00 1644.20 41.05
10508 0.5626 1678.00 1647.34 40.96
10509 0.5626 1675.00 1648.79 40.93
10510 0.5627 1740.00 1649.78 41.71
10511 0.5627 1641.00 1649.54 40.51
10512 0.5628 1706.00 1648.08 41.30
10513 0.5629 1684.00 1645.96 41.04
10514 0.5629 1665.00 1642.28 40.80
10515 0.5630 1720.00 1637.83 41.47
10516 0.5630 1684.00 1632.84 41.04
10517 0.5631 1688.00 1627.54 41.09
10518 0.5631 1641.00 1622.22 40.51
10519 0.5632 1695.00 1617.07 41.17
10520 0.5632 1669.00 1612.24 40.85
10521 0.5633 1722.00 1607.88 41.50
10522 0.5633 1606.00 1604.05 40.07
10523 0.5634 1664.00 1600.79 40.79
10524 0.5634 1602.00 1598.11 40.03
10525 0.5635 1666.00 1596.00 40.82
10526 0.5635 1644.00 1594.44 40.55
10527 0.5636 1680.00 1593.42 40.99
10528 0.5636 1639.00 1592.91 40.48
10529 0.5637 1635.00 1593.77 40.44
10530 0.5637 1686.00 1593.88 41.06
10531 0.5638 1653.00 1594.76 40.66
10532 0.5638 1725.00 1596.03 41.53
10533 0.5639 1619.00 1597.69 40.24
10534 0.5640 1647.00 1599.02 40.58
10535 0.5640 1647.00 1600.93 40.58
10536 0.5641 1738.00 1603.63 41.69
10537 0.5641 1682.00 1606.65 41.01
10538 0.5642 1696.00 1609.97 41.18
10539 0.5642 1615.00 1613.56 40.19
10540 0.5643 1632.00 1617.41 40.40
10541 0.5643 1689.00 1621.44 41.10
10542 0.5644 1656.00 1625.62 40.69
10543 0.5644 1684.00 1629.87 41.04
10544 0.5645 1713.00 1634.10 41.39
10545 0.5645 1677.00 1638.24 40.95
10546 0.5646 1710.00 1642.22 41.35
10547 0.5646 1726.00 1645.99 41.55
10548 0.5647 1757.00 1649.50 41.92
10549 0.5647 1679.00 1652.75 40.98
10550 0.5648 1738.00 1655.74 41.69
10551 0.5648 1683.00 1658.52 41.02
10552 0.5649 1750.00 1661.18 41.83
10553 0.5649 1711.00 1663.18 41.36
10554 0.5650 1696.00 1665.87 41.18
10555 0.5651 1732.00 1668.70 41.62
10556 0.5651 1709.00 1669.92 41.34
10557 0.5652 1802.00 1673.47 42.45
10558 0.5652 1715.00 1677.02 41.41
10559 0.5653 1680.00 1680.86 40.99
10560 0.5653 1700.00 1684.93 41.23
10561 0.5654 1687.00 1689.21 41.07
10562 0.5654 1672.00 1693.67 40.89
10563 0.5655 1694.00 1698.30 41.16
10564 0.5655 1723.00 1703.01 41.51
10565 0.5656 1674.00 1707.71 40.91
10566 0.5656 1711.00 1712.27 41.36
10567 0.5657 1702.00 1716.45 41.26
10568 0.5657 1745.00 1720.03 41.77
10569 0.5658 1764.00 1722.72 42.00
10570 0.5658 1693.00 1724.28 41.15
10571 0.5659 1740.00 1724.47 41.71
10572 0.5659 1707.00 1723.08 41.32
10573 0.5660 1738.00 1720.19 41.69
10574 0.5660 1718.00 1716.07 41.45
10575 0.5661 1741.00 1710.41 41.73
10576 0.5661 1723.00 1703.75 41.51
10577 0.5662 1676.00 1696.44 40.94
10578 0.5663 1719.00 1688.84 41.46
10579 0.5663 1743.00 1681.26 41.75
10580 0.5664 1680.00 1673.92 40.99
10581 0.5664 1718.00 1667.00 41.45
10582 0.5665 1737.00 1660.53 41.68
10583 0.5665 1755.00 1654.77 41.89
10584 0.5666 1792.00 1649.08 42.33
10585 0.5666 1742.00 1643.60 41.74
10586 0.5667 1723.00 1638.20 41.51
10587 0.5667 1697.00 1632.77 41.19
10588 0.5668 1715.00 1627.24 41.41
10589 0.5668 1686.00 1621.63 41.06
10590 0.5669 1729.00 1615.77 41.58
10591 0.5669 1691.00 1610.21 41.12
10592 0.5670 1704.00 1604.85 41.28
10593 0.5670 1638.00 1599.79 40.47
10594 0.5671 1703.00 1595.11 41.27
10595 0.5671 1631.00 1590.88 40.39
10596 0.5672 1651.00 1587.12 40.63
10597 0.5672 1639.00 1583.83 40.48
10598 0.5673 1633.00 1580.99 40.41
10599 0.5674 1670.00 1578.56 40.87
10600 0.5674 1620.00 1576.47 40.25
10601 0.5675 1670.00 1574.67 40.87
10602 0.5675 1565.00 1573.09 39.56
10603 0.5676 1691.00 1571.65 41.12
10604 0.5676 1641.00 1570.31 40.51
10605 0.5677 1644.00 1569.00 40.55
10606 0.5677 1596.00 1567.73 39.95
10607 0.5678 1657.00 1565.50 40.71
10608 0.5678 1662.00 1564.31 40.77
10609 0.5679 1622.00 1563.21 40.27
10610 0.5679 1645.00 1563.00 40.56
10611 0.5680 1554.00 1562.21 39.42
10612 0.5680 1623.00 1561.62 40.29
10613 0.5681 1623.00 1561.27 40.29
10614 0.5681 1607.00 1561.42 40.09
10615 0.5682 1628.00 1561.64 40.35
10616 0.5682 1629.00 1562.15 40.36
10617 0.5683 1639.00 1562.98 40.48
10618 0.5683 1686.00 1564.12 41.06
10619 0.5684 1657.00 1565.60 40.71
10620 0.5685 1647.00 1567.43 40.58
10621 0.5685 1654.00 1569.84 40.67
10622 0.5686 1696.00 1572.38 41.18
10623 0.5686 1698.00 1575.30 41.21
10624 0.5687 1679.00 1578.61 40.98
10625 0.5687 1633.00 1582.34 40.41
10626 0.5688 1601.00 1586.49 40.01
10627 0.5688 1643.00 1591.09 40.53
10628 0.5689 1715.00 1596.14 41.41
10629 0.5689 1664.00 1601.66 40.79
10630 0.5690 1677.00 1607.66 40.95
10631 0.5690 1645.00 1614.12 40.56
10632 0.5691 1599.00 1621.03 39.99
10633 0.5691 1659.00 1628.40 40.73
10634 0.5692 1678.00 1636.07 40.96
10635 0.5692 1677.00 1644.04 40.95
10636 0.5693 1721.00 1652.19 41.48
10637 0.5693 1730.00 1660.40 41.59
10638 0.5694 1676.00 1668.57 40.94
10639 0.5694 1786.00 1676.55 42.26
10640 0.5695 1773.00 1684.82 42.11
10641 0.5696 1684.00 1692.11 41.04
10642 0.5696 1746.00 1698.91 41.79
10643 0.5697 1708.00 1704.99 41.33
10644 0.5697 1747.00 1710.63 41.80
10645 0.5698 1749.00 1715.63 41.82
10646 0.5698 1734.00 1720.63 41.64
10647 0.5699 1716.00 1724.35 41.42
10648 0.5699 1646.00 1727.42 40.57
10649 0.5700 1668.00 1729.86 40.84
10650 0.5700 1669.00 1731.69 40.85
10651 0.5701 1789.00 1732.94 42.30
10652 0.5701 1731.00 1733.60 41.61
10653 0.5702 1719.00 1733.70 41.46
10654 0.5702 1731.00 1733.54 41.61
10655 0.5703 1781.00 1733.08 42.20
10656 0.5703 1742.00 1732.44 41.74
10657 0.5704 1646.00 1731.73 40.57
10658 0.5704 1733.00 1730.97 41.63
10659 0.5705 1718.00 1730.45 41.45
10660 0.5705 1798.00 1730.11 42.40
10661 0.5706 1658.00 1729.98 40.72
10662 0.5707 1699.00 1730.75 41.22
10663 0.5707 1725.00 1730.83 41.53
10664 0.5708 1754.00 1730.84 41.88
10665 0.5708 1711.00 1730.61 41.36
10666 0.5709 1735.00 1729.37 41.65
10667 0.5709 1696.00 1728.24 41.18
10668 0.5710 1718.00 1726.49 41.45
10669 0.5710 1811.00 1724.06 42.56
10670 0.5711 1706.00 1720.93 41.30
10671 0.5711 1714.00 1717.12 41.40
10672 0.5712 1662.00 1712.70 40.77
10673 0.5712 1706.00 1707.78 41.30
10674 0.5713 1742.00 1702.49 41.74
10675 0.5713 1765.00 1696.97 42.01
10676 0.5714 1754.00 1691.39 41.88
10677 0.5714 1760.00 1685.82 41.95
10678 0.5715 1731.00 1680.45 41.61
10679 0.5715 1595.00 1675.24 39.94
10680 0.5716 1706.00 1670.22 41.30
10681 0.5716 1699.00 1665.31 41.22
10682 0.5717 1649.00 1660.48 40.61
10683 0.5718 1661.00 1655.66 40.76
10684 0.5718 1668.00 1650.81 40.84
10685 0.5719 1703.00 1645.95 41.27
10686 0.5719 1633.00 1641.10 40.41
10687 0.5720 1713.00 1636.33 41.39
10688 0.5720 1685.00 1631.73 41.05
10689 0.5721 1669.00 1627.32 40.85
10690 0.5721 1664.00 1623.34 40.79
10691 0.5722 1659.00 1619.78 40.73
10692 0.5722 1673.00 1616.52 40.90
10693 0.5723 1544.00 1613.96 39.29
10694 0.5723 1643.00 1611.93 40.53
10695 0.5724 1738.00 1610.69 41.69
10696 0.5724 1639.00 1609.95 40.48
10697 0.5725 1652.00 1609.50 40.64
10698 0.5725 1660.00 1609.53 40.74
10699 0.5726 1624.00 1610.39 40.30
10700 0.5726 1619.00 1611.57 40.24
10701 0.5727 1599.00 1612.67 39.99
10702 0.5727 1677.00 1614.20 40.95
10703 0.5728 1673.00 1615.93 40.90
10704 0.5729 1694.00 1617.77 41.16
10705 0.5729 1649.00 1619.64 40.61
10706 0.5730 1670.00 1621.29 40.87
10707 0.5730 1696.00 1622.94 41.18
10708 0.5731 1620.00 1624.37 40.25
10709 0.5731 1636.00 1625.54 40.45
10710 0.5732 1684.00 1626.42 41.04
10711 0.5732 1670.00 1626.99 40.87
10712 0.5733 1682.00 1626.64 41.01
10713 0.5733 1709.00 1626.62 41.34
10714 0.5734 1664.00 1626.30 40.79
10715 0.5734 1657.00 1625.68 40.71
10716 0.5735 1710.00 1624.90 41.35
10717 0.5735 1624.00 1623.57 40.30
10718 0.5736 1660.00 1622.21 40.74
10719 0.5736 1654.00 1620.71 40.67
10720 0.5737 1648.00 1619.17 40.60
10721 0.5737 1736.00 1617.68 41.67
10722 0.5738 1708.00 1616.31 41.33
10723 0.5738 1617.00 1614.81 40.21
10724 0.5739 1602.00 1613.84 40.03
10725 0.5740 1693.00 1613.62 41.15
10726 0.5740 1693.00 1613.03 41.15
10727 0.5741 1696.00 1612.04 41.18
10728 0.5741 1681.00 1611.66 41.00
10729 0.5742 1661.00 1611.31 40.76
10730 0.5742 1650.00 1610.96 40.62
10731 0.5743 1640.00 1610.60 40.50
10732 0.5743 1631.00 1610.27 40.39
10733 0.5744 1679.00 1610.01 40.98
10734 0.5744 1771.00 1609.92 42.08
10735 0.5745 1737.00 1610.02 41.68
10736 0.5745 1692.00 1610.48 41.13
10737 0.5746 1666.00 1611.34 40.82
10738 0.5746 1680.00 1612.66 40.99
10739 0.5747 1669.00 1614.49 40.85
10740 0.5747 1701.00 1616.87 41.24
10741 0.5748 1628.00 1620.48 40.35
10742 0.5748 1674.00 1624.00 40.91
10743 0.5749 1793.00 1628.07 42.34
10744 0.5749 1649.00 1632.73 40.61
10745 0.5750 1704.00 1637.82 41.28
10746 0.5751 1769.00 1643.33 42.06
10747 0.5751 1724.00 1649.16 41.52
10748 0.5752 1733.00 1655.19 41.63
10749 0.5752 1706.00 1661.30 41.30
10750 0.5753 1800.00 1667.31 42.43
10751 0.5753 1778.00 1672.95 42.17
10752 0.5754 1872.00 1678.32 43.27
10753 0.5754 1932.00 1683.16 43.95
10754 0.5755 1861.00 1687.31 43.14
10755 0.5755 1792.00 1690.72 42.33
10756 0.5756 1723.00 1693.29 41.51
10757 0.5756 1731.00 1694.94 41.61
10758 0.5757 1701.00 1695.64 41.24
10759 0.5757 1767.00 1695.34 42.04
10760 0.5758 1827.00 1694.03 42.74
10761 0.5758 1736.00 1691.73 41.67
10762 0.5759 1739.00 1688.53 41.70
10763 0.5759 1661.00 1685.54 40.76
10764 0.5760 1724.00 1681.01 41.52
10765 0.5760 1783.00 1676.14 42.23
10766 0.5761 1702.00 1671.19 41.26
10767 0.5762 1742.00 1666.38 41.74
10768 0.5762 1731.00 1661.92 41.61
10769 0.5763 1694.00 1657.97 41.16
10770 0.5763 1704.00 1654.62 41.28
10771 0.5764 1701.00 1652.06 41.24
10772 0.5764 1843.00 1650.04 42.93
10773 0.5765 1693.00 1648.67 41.15
10774 0.5765 1716.00 1647.91 41.42
10775 0.5766 1688.00 1647.71 41.09
10776 0.5766 1606.00 1648.00 40.07
10777 0.5767 1679.00 1648.72 40.98
10778 0.5767 1683.00 1649.81 41.02
10779 0.5768 1732.00 1651.20 41.62
10780 0.5768 1726.00 1652.83 41.55
10781 0.5769 1744.00 1654.65 41.76
10782 0.5769 1744.00 1656.61 41.76
10783 0.5770 1706.00 1658.67 41.30
10784 0.5770 1694.00 1660.94 41.16
10785 0.5771 1780.00 1663.18 42.19
10786 0.5771 1756.00 1665.51 41.90
10787 0.5772 1809.00 1667.93 42.53
10788 0.5772 1704.00 1670.45 41.28
10789 0.5773 1742.00 1673.02 41.74
10790 0.5774 1735.00 1675.66 41.65
10791 0.5774 1786.00 1678.92 42.26
10792 0.5775 1763.00 1681.44 41.99
10793 0.5775 1773.00 1683.83 42.11
10794 0.5776 1825.00 1686.21 42.72
10795 0.5776 1739.00 1687.95 41.70
10796 0.5777 1737.00 1689.76 41.68
10797 0.5777 1794.00 1691.12 42.36
10798 0.5778 1735.00 1692.57 41.65
10799 0.5778 1801.00 1693.51 42.44
10800 0.5779 1753.00 1694.56 41.87
10801 0.5779 1749.00 1695.35 41.82
10802 0.5780 1760.00 1695.79 41.95
10803 0.5780 1782.00 1695.89 42.21
10804 0.5781 1752.00 1695.60 41.86
10805 0.5781 1703.00 1694.92 41.27
10806 0.5782 1752.00 1693.91 41.86
10807 0.5782 1731.00 1692.66 41.61
10808 0.5783 1736.00 1691.31 41.67
10809 0.5783 1683.00 1690.03 41.02
10810 0.5784 1733.00 1688.95 41.63
10811 0.5785 1724.00 1688.22 41.52
10812 0.5785 1775.00 1687.94 42.13
10813 0.5786 1695.00 1688.17 41.17
10814 0.5786 1773.00 1688.37 42.11
10815 0.5787 1755.00 1689.63 41.89
10816 0.5787 1758.00 1691.30 41.93
10817 0.5788 1752.00 1693.26 41.86
10818 0.5788 1782.00 1695.34 42.21
10819 0.5789 1816.00 1697.35 42.61
10820 0.5789 1836.00 1698.24 42.85
10821 0.5790 1826.00 1699.52 42.73
10822 0.5790 1812.00 1700.16 42.57
10823 0.5791 1823.00 1700.07 42.70
10824 0.5791 1779.00 1699.27 42.18
10825 0.5792 1742.00 1697.69 41.74
10826 0.5792 1716.00 1695.52 41.42
10827 0.5793 1750.00 1692.93 41.83
10828 0.5793 1738.00 1690.15 41.69
10829 0.5794 1693.00 1687.40 41.15
10830 0.5794 1683.00 1685.21 41.02
10831 0.5795 1629.00 1683.12 40.36
10832 0.5796 1672.00 1681.60 40.89
10833 0.5796 1673.00 1680.74 40.90
10834 0.5797 1649.00 1680.62 40.61
10835 0.5797 1651.00 1681.25 40.63
10836 0.5798 1613.00 1682.62 40.16
10837 0.5798 1637.00 1684.69 40.46
10838 0.5799 1620.00 1688.54 40.25
10839 0.5799 1651.00 1691.81 40.63
10840 0.5800 1631.00 1695.54 40.39
10841 0.5800 1655.00 1699.62 40.68
10842 0.5801 1680.00 1703.59 40.99
10843 0.5801 1623.00 1708.17 40.29
10844 0.5802 1693.00 1712.92 41.15
10845 0.5802 1612.00 1717.81 40.15
10846 0.5803 1655.00 1722.82 40.68
10847 0.5803 1576.00 1727.91 39.70
10848 0.5804 1636.00 1733.06 40.45
10849 0.5804 1638.00 1738.15 40.47
10850 0.5805 1662.00 1743.09 40.77
10851 0.5805 1635.00 1747.74 40.44
10852 0.5806 1681.00 1751.90 41.00
10853 0.5807 1607.00 1755.40 40.09
10854 0.5807 1682.00 1758.06 41.01
10855 0.5808 1620.00 1759.74 40.25
10856 0.5808 1621.00 1760.37 40.26
10857 0.5809 1699.00 1759.93 41.22
10858 0.5809 1668.00 1758.50 40.84
10859 0.5810 1654.00 1756.36 40.67
10860 0.5810 1672.00 1753.46 40.89
10861 0.5811 1665.00 1749.91 40.80
10862 0.5811 1589.00 1746.44 39.86
10863 0.5812 1621.00 1742.79 40.26
10864 0.5812 1655.00 1739.51 40.68
10865 0.5813 1620.00 1736.46 40.25
10866 0.5813 1668.00 1733.65 40.84
10867 0.5814 1633.00 1731.03 40.41
10868 0.5814 1657.00 1728.47 40.71
10869 0.5815 1630.00 1725.86 40.37
10870 0.5815 1674.00 1723.03 40.91
10871 0.5816 1663.00 1719.86 40.78
10872 0.5816 1656.00 1716.29 40.69
10873 0.5817 1639.00 1712.26 40.48
10874 0.5818 1589.00 1708.39 39.86
10875 0.5818 1674.00 1703.74 40.91
10876 0.5819 1628.00 1698.99 40.35
10877 0.5819 1665.00 1694.36 40.80
10878 0.5820 1589.00 1690.01 39.86
10879 0.5820 1638.00 1686.13 40.47
10880 0.5821 1665.00 1683.37 40.80
10881 0.5821 1710.00 1680.78 41.35
10882 0.5822 1671.00 1678.96 40.88
10883 0.5822 1640.00 1678.01 40.50
10884 0.5823 1679.00 1677.85 40.98
10885 0.5823 1631.00 1678.32 40.39
10886 0.5824 1676.00 1679.95 40.94
10887 0.5824 1619.00 1682.38 40.24
10888 0.5825 1686.00 1685.64 41.06
10889 0.5825 1631.00 1689.70 40.39
10890 0.5826 1643.00 1694.53 40.53
10891 0.5826 1621.00 1700.01 40.26
10892 0.5827 1639.00 1706.07 40.48
10893 0.5827 1685.00 1713.21 41.05
10894 0.5828 1704.00 1719.92 41.28
10895 0.5829 1725.00 1726.87 41.53
10896 0.5829 1696.00 1733.75 41.18
10897 0.5830 1713.00 1740.37 41.39
10898 0.5830 1740.00 1746.53 41.71
10899 0.5831 1692.00 1752.09 41.13
10900 0.5831 1742.00 1756.88 41.74
10901 0.5832 1737.00 1760.81 41.68
10902 0.5832 1769.00 1763.80 42.06
10903 0.5833 1759.00 1765.79 41.94
10904 0.5833 1772.00 1766.50 42.10
10905 0.5834 1776.00 1766.33 42.14
10906 0.5834 1815.00 1764.99 42.60
10907 0.5835 1802.00 1762.53 42.45
10908 0.5835 1710.00 1758.94 41.35
10909 0.5836 1858.00 1754.32 43.10
10910 0.5836 1761.00 1748.79 41.96
10911 0.5837 1759.00 1743.36 41.94
10912 0.5837 1766.00 1736.60 42.02
10913 0.5838 1777.00 1729.55 42.15
10914 0.5838 1678.00 1722.46 40.96
10915 0.5839 1770.00 1715.35 42.07
10916 0.5840 1717.00 1708.33 41.44
10917 0.5840 1637.00 1702.23 40.46
10918 0.5841 1729.00 1696.68 41.58
10919 0.5841 1669.00 1691.70 40.85
10920 0.5842 1693.00 1687.30 41.15
10921 0.5842 1595.00 1683.43 39.94
10922 0.5843 1723.00 1680.04 41.51
10923 0.5843 1651.00 1677.06 40.63
10924 0.5844 1720.00 1674.44 41.47
10925 0.5844 1669.00 1672.13 40.85
10926 0.5845 1689.00 1670.12 41.10
10927 0.5845 1671.00 1669.13 40.88
10928 0.5846 1645.00 1667.70 40.56
10929 0.5846 1694.00 1666.58 41.16
10930 0.5847 1692.00 1665.80 41.13
10931 0.5847 1701.00 1665.37 41.24
10932 0.5848 1691.00 1665.10 41.12
10933 0.5848 1699.00 1665.43 41.22
10934 0.5849 1611.00 1666.12 40.14
10935 0.5849 1698.00 1667.15 41.21
10936 0.5850 1656.00 1668.48 40.69
10937 0.5851 1688.00 1670.06 41.09
10938 0.5851 1744.00 1671.82 41.76
10939 0.5852 1696.00 1673.72 41.18
10940 0.5852 1697.00 1675.66 41.19
10941 0.5853 1760.00 1677.60 41.95
10942 0.5853 1805.00 1679.44 42.49
10943 0.5854 1766.00 1681.11 42.02
10944 0.5854 1687.00 1682.51 41.07
10945 0.5855 1639.00 1683.55 40.48
10946 0.5855 1645.00 1684.13 40.56
10947 0.5856 1714.00 1684.12 41.40
10948 0.5856 1645.00 1683.61 40.56
10949 0.5857 1658.00 1682.53 40.72
10950 0.5857 1689.00 1680.60 41.10
10951 0.5858 1657.00 1678.53 40.71
10952 0.5858 1731.00 1676.09 41.61
10953 0.5859 1638.00 1673.39 40.47
10954 0.5859 1609.00 1671.17 40.11
10955 0.5860 1677.00 1668.33 40.95
10956 0.5860 1682.00 1665.58 41.01
10957 0.5861 1610.00 1663.04 40.12
10958 0.5862 1706.00 1660.80 41.30
10959 0.5862 1698.00 1658.93 41.21
10960 0.5863 1673.00 1657.51 40.90
10961 0.5863 1695.00 1657.15 41.17
10962 0.5864 1621.00 1656.76 40.26
10963 0.5864 1654.00 1656.91 40.67
10964 0.5865 1713.00 1657.61 41.39
10965 0.5865 1683.00 1658.87 41.02
10966 0.5866 1681.00 1660.18 41.00
10967 0.5866 1729.00 1662.56 41.58
10968 0.5867 1708.00 1665.55 41.33
10969 0.5867 1726.00 1669.11 41.55
10970 0.5868 1711.00 1673.20 41.36
10971 0.5868 1785.00 1677.82 42.25
10972 0.5869 1779.00 1682.84 42.18
10973 0.5869 1797.00 1688.20 42.39
10974 0.5870 1819.00 1693.78 42.65
10975 0.5870 1800.00 1699.47 42.43
10976 0.5871 1823.00 1705.17 42.70
10977 0.5871 1824.00 1710.76 42.71
10978 0.5872 1782.00 1716.18 42.21
10979 0.5873 1856.00 1721.35 43.08
10980 0.5873 1853.00 1726.22 43.05
10981 0.5874 1813.00 1730.70 42.58
10982 0.5874 1772.00 1734.72 42.10
10983 0.5875 1805.00 1740.04 42.49
10984 0.5875 1779.00 1742.70 42.18
10985 0.5876 1809.00 1744.42 42.53
10986 0.5876 1836.00 1744.29 42.85
10987 0.5877 1813.00 1743.67 42.58
10988 0.5877 1817.00 1741.73 42.63
10989 0.5878 1772.00 1738.48 42.10
10990 0.5878 1759.00 1734.03 41.94
10991 0.5879 1788.00 1728.54 42.28
10992 0.5879 1861.00 1721.96 43.14
10993 0.5880 1765.00 1715.09 42.01
10994 0.5880 1764.00 1707.92 42.00
10995 0.5881 1691.00 1700.75 41.12
10996 0.5881 1719.00 1694.34 41.46
10997 0.5882 1775.00 1687.81 42.13
10998 0.5882 1764.00 1681.85 42.00
10999 0.5883 1691.00 1676.56 41.12
11000 0.5884 1701.00 1672.01 41.24
11001 0.5884 1666.00 1668.21 40.82
11002 0.5885 1687.00 1665.18 41.07
11003 0.5885 1672.00 1662.86 40.89
11004 0.5886 1726.00 1661.21 41.55
11005 0.5886 1741.00 1660.18 41.73
11006 0.5887 1661.00 1659.60 40.76
11007 0.5887 1645.00 1659.61 40.56
11008 0.5888 1610.00 1660.05 40.12
11009 0.5888 1695.00 1660.88 41.17
11010 0.5889 1720.00 1662.07 41.47
11011 0.5889 1723.00 1663.59 41.51
11012 0.5890 1742.00 1665.44 41.74
11013 0.5890 1711.00 1667.61 41.36
11014 0.5891 1694.00 1670.02 41.16
11015 0.5891 1768.00 1673.18 42.05
11016 0.5892 1624.00 1676.07 40.30
11017 0.5892 1721.00 1679.52 41.48
11018 0.5893 1657.00 1683.41 40.71
11019 0.5893 1677.00 1687.67 40.95
11020 0.5894 1649.00 1692.32 40.61
11021 0.5894 1642.00 1696.79 40.52
11022 0.5895 1592.00 1702.21 39.90
11023 0.5896 1659.00 1708.00 40.73
11024 0.5896 1664.00 1714.12 40.79
11025 0.5897 1640.00 1720.53 40.50
11026 0.5897 1709.00 1727.50 41.34
11027 0.5898 1728.00 1734.24 41.57
11028 0.5898 1757.00 1741.03 41.92
11029 0.5899 1744.00 1747.67 41.76
11030 0.5899 1815.00 1753.97 42.60
11031 0.5900 1716.00 1759.74 41.42
11032 0.5900 1799.00 1764.86 42.41
11033 0.5901 1713.00 1768.95 41.39
11034 0.5901 1794.00 1771.99 42.36
11035 0.5902 1716.00 1773.95 41.42
11036 0.5902 1759.00 1774.90 41.94
11037 0.5903 1676.00 1774.99 40.94
11038 0.5903 1669.00 1774.46 40.85
11039 0.5904 1673.00 1773.56 40.90
11040 0.5904 1702.00 1773.77 41.26
11041 0.5905 1685.00 1773.00 41.05
11042 0.5905 1708.00 1772.67 41.33
11043 0.5906 1637.00 1772.91 40.46
11044 0.5907 1665.00 1773.86 40.80
11045 0.5907 1655.00 1775.60 40.68
11046 0.5908 1598.00 1778.15 39.97
11047 0.5908 1589.00 1781.47 39.86
11048 0.5909 1733.00 1785.49 41.63
11049 0.5909 1690.00 1791.17 41.11
11050 0.5910 1675.00 1796.26 40.93
11051 0.5910 1691.00 1801.75 41.12
11052 0.5911 1625.00 1807.26 40.31
11053 0.5911 1735.00 1812.73 41.65
11054 0.5912 1693.00 1818.01 41.15
11055 0.5912 1660.00 1823.00 40.74
11056 0.5913 1648.00 1827.59 40.60
11057 0.5913 1732.00 1831.72 41.62
11058 0.5914 1655.00 1835.31 40.68
11059 0.5914 1758.00 1838.32 41.93
11060 0.5915 1780.00 1840.65 42.19
11061 0.5915 1707.00 1841.63 41.32
11062 0.5916 1726.00 1842.40 41.55
11063 0.5916 1714.00 1842.79 41.40
11064 0.5917 1702.00 1841.49 41.26
11065 0.5918 1672.00 1839.38 40.89
11066 0.5918 1735.00 1836.18 41.65
11067 0.5919 1663.00 1831.87 40.78
11068 0.5919 1684.00 1826.42 41.04
11069 0.5920 1658.00 1819.84 40.72
11070 0.5920 1645.00 1812.25 40.56
11071 0.5921 1798.00 1803.63 42.40
11072 0.5921 1621.00 1794.35 40.26
11073 0.5922 1643.00 1784.15 40.53
11074 0.5922 1673.00 1773.80 40.90
11075 0.5923 1673.00 1763.44 40.90
11076 0.5923 1654.00 1753.20 40.67
11077 0.5924 1698.00 1743.23 41.21
11078 0.5924 1666.00 1733.91 40.82
11079 0.5925 1716.00 1725.15 41.42
11080 0.5925 1643.00 1717.17 40.53
11081 0.5926 1595.00 1710.05 39.94
11082 0.5926 1622.00 1703.84 40.27
11083 0.5927 1622.00 1698.57 40.27
11084 0.5927 1573.00 1694.24 39.66
11085 0.5928 1609.00 1690.85 40.11
11086 0.5929 1573.00 1688.37 39.66
11087 0.5929 1552.00 1686.80 39.40
11088 0.5930 1627.00 1686.10 40.34
11089 0.5930 1581.00 1686.11 39.76
11090 0.5931 1688.00 1687.10 41.09
11091 0.5931 1603.00 1688.91 40.04
11092 0.5932 1612.00 1691.50 40.15
11093 0.5932 1644.00 1694.85 40.55
11094 0.5933 1653.00 1698.93 40.66
11095 0.5933 1629.00 1703.69 40.36
11096 0.5934 1676.00 1709.09 40.94
11097 0.5934 1731.00 1715.03 41.61
11098 0.5935 1762.00 1721.42 41.98
11099 0.5935 1706.00 1728.13 41.30
11100 0.5936 1749.00 1735.00 41.82
11101 0.5936 1696.00 1741.88 41.18
11102 0.5937 1771.00 1748.57 42.08
11103 0.5937 1726.00 1754.92 41.55
11104 0.5938 1745.00 1760.79 41.77
11105 0.5938 1802.00 1766.06 42.45
11106 0.5939 1778.00 1770.68 42.17
11107 0.5940 1724.00 1774.58 41.52
11108 0.5940 1751.00 1777.88 41.85
11109 0.5941 1706.00 1780.08 41.30
11110 0.5941 1695.00 1783.00 41.17
11111 0.5942 1662.00 1784.67 40.77
11112 0.5942 1782.00 1785.94 42.21
11113 0.5943 1674.00 1786.93 40.91
11114 0.5943 1694.00 1787.76 41.16
11115 0.5944 1695.00 1788.59 41.17
11116 0.5944 1598.00 1789.41 39.97
11117 0.5945 1586.00 1790.74 39.82
11118 0.5945 1679.00 1792.56 40.98
11119 0.5946 1666.00 1795.00 40.82
11120 0.5946 1694.00 1798.16 41.16
11121 0.5947 1644.00 1802.09 40.55
11122 0.5947 1628.00 1806.77 40.35
11123 0.5948 1708.00 1812.15 41.33
11124 0.5948 1622.00 1818.13 40.27
11125 0.5949 1645.00 1824.31 40.56
11126 0.5949 1580.00 1831.05 39.75
11127 0.5950 1601.00 1837.90 40.01
11128 0.5951 1583.00 1844.61 39.79
11129 0.5951 1662.00 1851.11 40.77
11130 0.5952 1670.00 1857.17 40.87
11131 0.5952 1712.00 1862.62 41.38
11132 0.5953 1722.00 1867.27 41.50
11133 0.5953 1625.00 1870.95 40.31
11134 0.5954 1607.00 1873.48 40.09
11135 0.5954 1609.00 1874.70 40.11
11136 0.5955 1590.00 1874.52 39.87
11137 0.5955 1665.00 1872.90 40.80
11138 0.5956 1639.00 1869.89 40.48
11139 0.5956 1637.00 1865.65 40.46
11140 0.5957 1577.00 1859.76 39.71
11141 0.5957 1649.00 1853.97 40.61
11142 0.5958 1615.00 1847.50 40.19
11143 0.5958 1621.00 1840.81 40.26
11144 0.5959 1589.00 1834.11 39.86
11145 0.5959 1635.00 1827.21 40.44
11146 0.5960 1699.00 1820.91 41.22
11147 0.5960 1679.00 1814.92 40.98
11148 0.5961 1610.00 1809.29 40.12
11149 0.5962 1630.00 1804.06 40.37
11150 0.5962 1632.00 1799.19 40.40
11151 0.5963 1590.00 1794.95 39.87
11152 0.5963 1664.00 1791.33 40.79
11153 0.5964 1653.00 1788.42 40.66
11154 0.5964 1644.00 1786.29 40.55
11155 0.5965 1614.00 1785.01 40.17
11156 0.5965 1647.00 1784.96 40.58
11157 0.5966 1611.00 1785.47 40.14
11158 0.5966 1623.00 1786.79 40.29
11159 0.5967 1569.00 1788.74 39.61
11160 0.5967 1636.00 1791.42 40.45
11161 0.5968 1590.00 1794.56 39.87
11162 0.5968 1599.00 1797.97 39.99
11163 0.5969 1566.00 1802.71 39.57
11164 0.5969 1617.00 1806.11 40.21
11165 0.5970 1644.00 1809.22 40.55
11166 0.5970 1680.00 1811.92 40.99
11167 0.5971 1589.00 1814.12 39.86
11168 0.5971 1741.00 1815.82 41.73
11169 0.5972 1663.00 1817.06 40.78
11170 0.5973 1561.00 1817.92 39.51
11171 0.5973 1709.00 1818.52 41.34
11172 0.5974 1626.00 1818.95 40.32
11173 0.5974 1681.00 1819.30 41.00
11174 0.5975 1678.00 1819.54 40.96
11175 0.5975 1652.00 1819.82 40.64
11176 0.5976 1652.00 1820.30 40.64
11177 0.5976 1673.00 1820.94 40.90
11178 0.5977 1599.00 1821.82 39.99
11179 0.5977 1680.00 1823.06 40.99
11180 0.5978 1683.00 1824.71 41.02
11181 0.5978 1674.00 1826.91 40.91
11182 0.5979 1631.00 1829.73 40.39
11183 0.5979 1673.00 1833.20 40.90
11184 0.5980 1665.00 1837.30 40.80
11185 0.5980 1737.00 1841.94 41.68
11186 0.5981 1695.00 1846.97 41.17
11187 0.5981 1667.00 1852.22 40.83
11188 0.5982 1625.00 1857.61 40.31
11189 0.5982 1686.00 1862.66 41.06
11190 0.5983 1667.00 1866.81 40.83
11191 0.5984 1697.00 1870.97 41.19
11192 0.5984 1703.00 1874.51 41.27
11193 0.5985 1712.00 1877.42 41.38
11194 0.5985 1749.00 1879.71 41.82
11195 0.5986 1716.00 1881.37 41.42
11196 0.5986 1744.00 1882.57 41.76
11197 0.5987 1774.00 1883.28 42.12
11198 0.5987 1811.00 1883.74 42.56
11199 0.5988 1822.00 1883.49 42.68
11200 0.5988 1840.00 1882.67 42.90
11201 0.5989 1846.00 1880.87 42.97
11202 0.5989 1906.00 1878.76 43.66
11203 0.5990 1794.00 1875.92 42.36
11204 0.5990 1817.00 1872.25 42.63
11205 0.5991 1777.00 1867.88 42.15
11206 0.5991 1858.00 1863.28 43.10
11207 0.5992 1746.00 1857.51 41.79
11208 0.5992 1740.00 1851.11 41.71
11209 0.5993 1703.00 1844.08 41.27
11210 0.5993 1693.00 1836.40 41.15
11211 0.5994 1694.00 1828.03 41.16
11212 0.5995 1662.00 1818.99 40.77
11213 0.5995 1648.00 1808.62 40.60
11214 0.5996 1664.00 1798.02 40.79
11215 0.5996 1677.00 1786.78 40.95
11216 0.5997 1671.00 1775.03 40.88
11217 0.5997 1683.00 1762.83 41.02
11218 0.5998 1661.00 1750.71 40.76
11219 0.5998 1652.00 1738.25 40.64
11220 0.5999 1647.00 1726.63 40.58
11221 0.5999 1629.00 1715.51 40.36
11222 0.6000 1629.00 1705.05 40.36
11223 0.6000 1666.00 1695.30 40.82
11224 0.6001 1620.00 1686.32 40.25
11225 0.6001 1646.00 1677.99 40.57
11226 0.6002 1592.00 1670.10 39.90
11227 0.6002 1684.00 1663.39 41.04
11228 0.6003 1620.00 1657.38 40.25
11229 0.6003 1554.00 1652.02 39.42
11230 0.6004 1636.00 1647.24 40.45
11231 0.6004 1534.00 1643.01 39.17
11232 0.6005 1540.00 1639.28 39.24
11233 0.6006 1574.00 1635.99 39.67
11234 0.6006 1613.00 1633.13 40.16
11235 0.6007 1597.00 1630.65 39.96
11236 0.6007 1564.00 1628.54 39.55
11237 0.6008 1594.00 1626.80 39.92
11238 0.6008 1550.00 1626.01 39.37
11239 0.6009 1622.00 1625.13 40.27
11240 0.6009 1538.00 1624.48 39.22
11241 0.6010 1585.00 1624.19 39.81
11242 0.6010 1539.00 1624.27 39.23
11243 0.6011 1512.00 1624.72 38.88
11244 0.6011 1528.00 1625.56 39.09
11245 0.6012 1492.00 1626.78 38.63
11246 0.6012 1521.00 1628.49 39.00
11247 0.6013 1504.00 1630.47 38.78
11248 0.6013 1586.00 1632.82 39.82
11249 0.6014 1581.00 1635.51 39.76
11250 0.6014 1565.00 1638.51 39.56
11251 0.6015 1556.00 1641.77 39.45
11252 0.6015 1521.00 1645.22 39.00
11253 0.6016 1552.00 1648.76 39.40
11254 0.6016 1590.00 1652.28 39.87
11255 0.6017 1523.00 1655.63 39.03
11256 0.6018 1501.00 1658.61 38.74
11257 0.6018 1561.00 1661.14 39.51
11258 0.6019 1560.00 1662.99 39.50
11259 0.6019 1607.00 1664.03 40.09
11260 0.6020 1524.00 1664.14 39.04
11261 0.6020 1548.00 1663.66 39.34
11262 0.6021 1546.00 1661.86 39.32
11263 0.6021 1567.00 1659.21 39.59
11264 0.6022 1639.00 1655.67 40.48
11265 0.6022 1626.00 1651.80 40.32
11266 0.6023 1559.00 1647.63 39.48
11267 0.6023 1564.00 1643.34 39.55
11268 0.6024 1529.00 1639.11 39.10
11269 0.6024 1537.00 1635.09 39.20
11270 0.6025 1542.00 1631.38 39.27
11271 0.6025 1495.00 1628.05 38.67
11272 0.6026 1543.00 1624.97 39.28
11273 0.6026 1602.00 1622.44 40.03
11274 0.6027 1628.00 1620.59 40.35
11275 0.6027 1620.00 1619.23 40.25
11276 0.6028 1621.00 1618.37 40.26
11277 0.6029 1635.00 1617.96 40.44
11278 0.6029 1627.00 1618.00 40.34
11279 0.6030 1648.00 1618.13 40.60
11280 0.6030 1656.00 1618.74 40.69
11281 0.6031 1600.00 1619.89 40.00
11282 0.6031 1615.00 1621.31 40.19
11283 0.6032 1732.00 1623.00 41.62
11284 0.6032 1608.00 1624.86 40.10
11285 0.6033 1700.00 1626.83 41.23
11286 0.6033 1613.00 1629.00 40.16
11287 0.6034 1642.00 1631.30 40.52
11288 0.6034 1643.00 1633.73 40.53
11289 0.6035 1685.00 1636.32 41.05
11290 0.6035 1604.00 1639.09 40.05
11291 0.6036 1590.00 1642.06 39.87
11292 0.6036 1675.00 1645.24 40.93
11293 0.6037 1588.00 1648.65 39.85
11294 0.6037 1592.00 1652.25 39.90
11295 0.6038 1621.00 1656.03 40.26
11296 0.6038 1629.00 1659.89 40.36
11297 0.6039 1569.00 1663.77 39.61
11298 0.6040 1548.00 1667.56 39.34
11299 0.6040 1588.00 1671.19 39.85
11300 0.6041 1540.00 1674.60 39.24
11301 0.6041 1634.00 1677.76 40.42
11302 0.6042 1581.00 1680.72 39.76
11303 0.6042 1624.00 1682.27 40.30
11304 0.6043 1583.00 1685.06 39.79
11305 0.6043 1573.00 1687.91 39.66
11306 0.6044 1658.00 1690.81 40.72
11307 0.6044 1584.00 1693.98 39.80
11308 0.6045 1696.00 1697.44 41.18
11309 0.6045 1671.00 1701.12 40.88
11310 0.6046 1672.00 1705.06 40.89
11311 0.6046 1600.00 1708.91 40.00
11312 0.6047 1655.00 1712.34 40.68
11313 0.6047 1631.00 1715.73 40.39
11314 0.6048 1638.00 1718.56 40.47
11315 0.6048 1627.00 1720.59 40.34
11316 0.6049 1585.00 1721.65 39.81
11317 0.6049 1610.00 1721.54 40.12
11318 0.6050 1519.00 1720.52 38.97
11319 0.6051 1662.00 1717.82 40.77
11320 0.6051 1667.00 1713.87 40.83
11321 0.6052 1604.00 1708.83 40.05
11322 0.6052 1551.00 1702.89 39.38
11323 0.6053 1531.00 1696.33 39.13
11324 0.6053 1570.00 1689.41 39.62
11325 0.6054 1560.00 1682.38 39.50
11326 0.6054 1586.00 1675.40 39.82
11327 0.6055 1563.00 1668.50 39.53
11328 0.6055 1570.00 1662.40 39.62
11329 0.6056 1559.00 1656.85 39.48
11330 0.6056 1556.00 1651.40 39.45
11331 0.6057 1646.00 1647.13 40.57
11332 0.6057 1510.00 1643.52 38.86
11333 0.6058 1555.00 1640.57 39.43
11334 0.6058 1449.00 1638.25 38.07
11335 0.6059 1553.00 1636.57 39.41
11336 0.6059 1538.00 1635.40 39.22
11337 0.6060 1528.00 1634.89 39.09
11338 0.6060 1465.00 1634.93 38.28
11339 0.6061 1539.00 1635.48 39.23
11340 0.6062 1590.00 1636.84 39.87
11341 0.6062 1557.00 1638.28 39.46
11342 0.6063 1574.00 1640.10 39.67
11343 0.6063 1606.00 1642.23 40.07
11344 0.6064 1569.00 1644.63 39.61
11345 0.6064 1651.00 1647.24 40.63
11346 0.6065 1528.00 1650.01 39.09
11347 0.6065 1624.00 1652.88 40.30
11348 0.6066 1516.00 1655.81 38.94
11349 0.6066 1621.00 1658.74 40.26
11350 0.6067 1607.00 1661.48 40.09
11351 0.6067 1622.00 1664.22 40.27
11352 0.6068 1640.00 1666.73 40.50
11353 0.6068 1510.00 1668.94 38.86
11354 0.6069 1516.00 1670.74 38.94
11355 0.6069 1571.00 1672.37 39.64
11356 0.6070 1521.00 1672.87 39.00
11357 0.6070 1570.00 1673.52 39.62
11358 0.6071 1600.00 1671.93 40.00
11359 0.6071 1603.00 1670.27 40.04
11360 0.6072 1577.00 1667.88 39.71
11361 0.6073 1576.00 1664.73 39.70
11362 0.6073 1552.00 1660.92 39.40
11363 0.6074 1575.00 1656.61 39.69
11364 0.6074 1584.00 1651.98 39.80
11365 0.6075 1613.00 1647.23 40.16
11366 0.6075 1515.00 1642.54 38.92
11367 0.6076 1603.00 1637.55 40.04
11368 0.6076 1498.00 1633.41 38.70
11369 0.6077 1629.00 1629.72 40.36
11370 0.6077 1511.00 1625.77 38.87
11371 0.6078 1615.00 1623.21 40.19
11372 0.6078 1594.00 1621.30 39.92
11373 0.6079 1567.00 1619.93 39.59
11374 0.6079 1637.00 1619.16 40.46
11375 0.6080 1592.00 1618.97 39.90
11376 0.6080 1515.00 1619.37 38.92
11377 0.6081 1607.00 1620.02 40.09
11378 0.6081 1578.00 1621.57 39.72
11379 0.6082 1634.00 1623.67 40.42
11380 0.6082 1678.00 1626.33 40.96
11381 0.6083 1665.00 1629.55 40.80
11382 0.6084 1667.00 1633.30 40.83
11383 0.6084 1665.00 1637.72 40.80
11384 0.6085 1574.00 1642.55 39.67
11385 0.6085 1646.00 1647.91 40.57
11386 0.6086 1663.00 1653.75 40.78
11387 0.6086 1750.00 1660.05 41.83
11388 0.6087 1714.00 1666.77 41.40
11389 0.6087 1672.00 1673.83 40.89
11390 0.6088 1727.00 1681.17 41.56
11391 0.6088 1715.00 1688.75 41.41
11392 0.6089 1711.00 1696.34 41.36
11393 0.6089 1730.00 1703.89 41.59
11394 0.6090 1788.00 1711.30 42.28
11395 0.6090 1678.00 1718.43 40.96
11396 0.6091 1704.00 1725.26 41.28
11397 0.6091 1698.00 1731.66 41.21
11398 0.6092 1680.00 1737.55 40.99
11399 0.6092 1729.00 1742.87 41.58
11400 0.6093 1673.00 1747.54 40.90
11401 0.6093 1725.00 1751.66 41.53
11402 0.6094 1650.00 1754.88 40.62
11403 0.6095 1687.00 1757.32 41.07
11404 0.6095 1631.00 1758.93 40.39
11405 0.6096 1610.00 1759.70 40.12
11406 0.6096 1734.00 1759.63 41.64
11407 0.6097 1648.00 1758.77 40.60
11408 0.6097 1634.00 1757.12 40.42
11409 0.6098 1679.00 1754.73 40.98
11410 0.6098 1620.00 1751.63 40.25
11411 0.6099 1651.00 1747.85 40.63
11412 0.6099 1659.00 1743.41 40.73
11413 0.6100 1644.00 1738.36 40.55
11414 0.6100 1639.00 1732.72 40.48
11415 0.6101 1614.00 1726.51 40.17
11416 0.6101 1603.00 1719.80 40.04
11417 0.6102 1617.00 1712.63 40.21
11418 0.6102 1589.00 1705.06 39.86
11419 0.6103 1594.00 1697.17 39.92
11420 0.6103 1676.00 1689.02 40.94
11421 0.6104 1579.00 1680.72 39.74
11422 0.6104 1589.00 1672.32 39.86
11423 0.6105 1610.00 1663.97 40.12
11424 0.6106 1525.00 1655.15 39.05
11425 0.6106 1586.00 1647.17 39.82
11426 0.6107 1626.00 1639.52 40.32
11427 0.6107 1581.00 1632.32 39.76
11428 0.6108 1494.00 1625.51 38.65
11429 0.6108 1538.00 1619.16 39.22
11430 0.6109 1508.00 1613.27 38.83
11431 0.6109 1529.00 1607.88 39.10
11432 0.6110 1522.00 1602.94 39.01
11433 0.6110 1552.00 1598.45 39.40
11434 0.6111 1577.00 1594.37 39.71
11435 0.6111 1488.00 1590.70 38.57
11436 0.6112 1588.00 1587.39 39.85
11437 0.6112 1553.00 1584.44 39.41
11438 0.6113 1438.00 1581.83 37.92
11439 0.6113 1470.00 1580.90 38.34
11440 0.6114 1548.00 1578.94 39.34
11441 0.6114 1565.00 1577.26 39.56
11442 0.6115 1641.00 1575.86 40.51
11443 0.6115 1575.00 1574.73 39.69
11444 0.6116 1581.00 1573.86 39.76
11445 0.6117 1548.00 1573.24 39.34
11446 0.6117 1523.00 1572.53 39.03
11447 0.6118 1496.00 1572.40 38.68
11448 0.6118 1530.00 1572.47 39.12
11449 0.6119 1503.00 1572.80 38.77
11450 0.6119 1482.00 1573.37 38.50
11451 0.6120 1497.00 1574.17 38.69
11452 0.6120 1512.00 1575.20 38.88
11453 0.6121 1544.00 1576.46 39.29
11454 0.6121 1461.00 1577.85 38.22
11455 0.6122 1611.00 1580.78 40.14
11456 0.6122 1546.00 1582.75 39.32
11457 0.6123 1615.00 1584.94 40.19
11458 0.6123 1527.00 1587.32 39.08
11459 0.6124 1572.00 1589.92 39.65
11460 0.6124 1490.00 1592.69 38.60
11461 0.6125 1509.00 1595.62 38.85
11462 0.6125 1638.00 1598.65 40.47
11463 0.6126 1619.00 1601.82 40.24
11464 0.6126 1519.00 1605.07 38.97
11465 0.6127 1544.00 1608.37 39.29
11466 0.6127 1534.00 1611.71 39.17
11467 0.6128 1568.00 1615.06 39.60
11468 0.6129 1575.00 1618.37 39.69
11469 0.6129 1644.00 1621.60 40.55
11470 0.6130 1644.00 1624.68 40.55
11471 0.6130 1630.00 1627.54 40.37
11472 0.6131 1583.00 1630.06 39.79
11473 0.6131 1655.00 1632.18 40.68
11474 0.6132 1667.00 1634.02 40.83
11475 0.6132 1644.00 1635.11 40.55
11476 0.6133 1661.00 1635.63 40.76
11477 0.6133 1600.00 1635.59 40.00
11478 0.6134 1684.00 1635.05 41.04
11479 0.6134 1637.00 1634.12 40.46
11480 0.6135 1641.00 1632.93 40.51
11481 0.6135 1668.00 1631.64 40.84
11482 0.6136 1554.00 1630.52 39.42
11483 0.6136 1561.00 1629.47 39.51
11484 0.6137 1568.00 1628.93 39.60
11485 0.6137 1596.00 1628.65 39.95
11486 0.6138 1555.00 1628.89 39.43
11487 0.6138 1601.00 1628.68 40.01
11488 0.6139 1615.00 1630.09 40.19
11489 0.6140 1621.00 1632.11 40.26
11490 0.6140 1557.00 1634.70 39.46
11491 0.6141 1626.00 1637.82 40.32
11492 0.6141 1637.00 1641.39 40.46
11493 0.6142 1571.00 1645.35 39.64
11494 0.6142 1572.00 1649.58 39.65
11495 0.6143 1523.00 1653.93 39.03
11496 0.6143 1565.00 1658.25 39.56
11497 0.6144 1583.00 1662.37 39.79
11498 0.6144 1575.00 1666.15 39.69
11499 0.6145 1554.00 1669.44 39.42
11500 0.6145 1516.00 1672.11 38.94
11501 0.6146 1554.00 1674.39 39.42
11502 0.6146 1572.00 1675.70 39.65
11503 0.6147 1630.00 1676.35 40.37
11504 0.6147 1575.00 1676.30 39.69
11505 0.6148 1559.00 1675.95 39.48
11506 0.6148 1471.00 1675.33 38.35
11507 0.6149 1663.00 1674.60 40.78
11508 0.6149 1634.00 1673.90 40.42
11509 0.6150 1654.00 1673.34 40.67
11510 0.6151 1562.00 1672.76 39.52
11511 0.6151 1559.00 1672.57 39.48
11512 0.6152 1624.00 1672.49 40.30
11513 0.6152 1602.00 1672.34 40.03
11514 0.6153 1506.00 1672.09 38.81
11515 0.6153 1589.00 1671.01 39.86
11516 0.6154 1560.00 1669.91 39.50
11517 0.6154 1597.00 1668.20 39.96
11518 0.6155 1628.00 1665.70 40.35
11519 0.6155 1601.00 1662.43 40.01
11520 0.6156 1560.00 1658.43 39.50
11521 0.6156 1575.00 1653.82 39.69
11522 0.6157 1593.00 1648.73 39.91
11523 0.6157 1591.00 1643.36 39.89
11524 0.6158 1492.00 1637.86 38.63
11525 0.6158 1544.00 1632.41 39.29
11526 0.6159 1574.00 1627.13 39.67
11527 0.6159 1557.00 1622.16 39.46
11528 0.6160 1554.00 1617.56 39.42
11529 0.6160 1506.00 1613.38 38.81
11530 0.6161 1536.00 1609.64 39.19
11531 0.6162 1593.00 1606.34 39.91
11532 0.6162 1522.00 1603.46 39.01
11533 0.6163 1529.00 1600.96 39.10
11534 0.6163 1592.00 1598.82 39.90
11535 0.6164 1589.00 1597.00 39.86
11536 0.6164 1520.00 1595.45 38.99
11537 0.6165 1531.00 1594.14 39.13
11538 0.6165 1562.00 1593.04 39.52
11539 0.6166 1596.00 1592.12 39.95
11540 0.6166 1579.00 1591.35 39.74
11541 0.6167 1589.00 1590.69 39.86
11542 0.6167 1501.00 1590.10 38.74
11543 0.6168 1579.00 1589.55 39.74
11544 0.6168 1594.00 1589.12 39.92
11545 0.6169 1535.00 1588.54 39.18
11546 0.6169 1578.00 1587.87 39.72
11547 0.6170 1513.00 1587.10 38.90
11548 0.6170 1482.00 1586.21 38.50
11549 0.6171 1524.00 1585.19 39.04
11550 0.6171 1588.00 1585.27 39.85
11551 0.6172 1572.00 1583.89 39.65
11552 0.6173 1552.00 1582.65 39.40
11553 0.6173 1585.00 1581.41 39.81
11554 0.6174 1616.00 1580.21 40.20
11555 0.6174 1556.00 1579.12 39.45
11556 0.6175 1558.00 1578.17 39.47
11557 0.6175 1593.00 1577.40 39.91
11558 0.6176 1489.00 1576.84 38.59
11559 0.6176 1595.00 1576.54 39.94
11560 0.6177 1536.00 1576.50 39.19
11561 0.6177 1596.00 1576.74 39.95
11562 0.6178 1545.00 1577.30 39.31
11563 0.6178 1544.00 1578.16 39.29
11564 0.6179 1586.00 1579.36 39.82
11565 0.6179 1556.00 1580.88 39.45
11566 0.6180 1601.00 1582.76 40.01
11567 0.6180 1513.00 1584.98 38.90
11568 0.6181 1600.00 1587.56 40.00
11569 0.6181 1575.00 1590.56 39.69
11570 0.6182 1515.00 1593.49 38.92
11571 0.6182 1575.00 1597.17 39.69
11572 0.6183 1598.00 1600.88 39.97
11573 0.6184 1593.00 1605.32 39.91
11574 0.6184 1530.00 1609.60 39.12
11575 0.6185 1642.00 1615.38 40.52
11576 0.6185 1592.00 1620.75 39.90
11577 0.6186 1578.00 1626.61 39.72
11578 0.6186 1675.00 1632.79 40.93
11579 0.6187 1624.00 1639.28 40.30
11580 0.6187 1640.00 1645.79 40.50
11581 0.6188 1619.00 1652.89 40.24
11582 0.6188 1607.00 1660.58 40.09
11583 0.6189 1659.00 1668.28 40.73
11584 0.6189 1647.00 1676.23 40.58
11585 0.6190 1705.00 1684.45 41.29
11586 0.6190 1739.00 1692.80 41.70
11587 0.6191 1706.00 1701.38 41.30
11588 0.6191 1756.00 1710.02 41.90
11589 0.6192 1732.00 1718.67 41.62
11590 0.6192 1723.00 1727.12 41.51
11591 0.6193 1781.00 1735.29 42.20
11592 0.6193 1737.00 1743.02 41.68
11593 0.6194 1734.00 1750.17 41.64
11594 0.6195 1695.00 1756.62 41.17
11595 0.6195 1679.00 1762.26 40.98
11596 0.6196 1684.00 1768.70 41.04
11597 0.6196 1749.00 1772.61 41.82
11598 0.6197 1725.00 1775.63 41.53
11599 0.6197 1581.00 1777.77 39.76
11600 0.6198 1703.00 1779.07 41.27
11601 0.6198 1687.00 1779.53 41.07
11602 0.6199 1774.00 1779.19 42.12
11603 0.6199 1677.00 1778.07 40.95
11604 0.6200 1738.00 1776.19 41.69
11605 0.6200 1721.00 1773.59 41.48
11606 0.6201 1711.00 1770.33 41.36
11607 0.6201 1693.00 1766.48 41.15
11608 0.6202 1708.00 1762.13 41.33
11609 0.6202 1745.00 1757.33 41.77
11610 0.6203 1585.00 1752.15 39.81
11611 0.6203 1672.00 1746.62 40.89
11612 0.6204 1665.00 1740.73 40.80
11613 0.6204 1586.00 1734.50 39.82
11614 0.6205 1549.00 1727.91 39.36
11615 0.6206 1587.00 1720.97 39.84
11616 0.6206 1654.00 1713.73 40.67
11617 0.6207 1640.00 1706.24 40.50
11618 0.6207 1652.00 1698.61 40.64
11619 0.6208 1612.00 1690.95 40.15
11620 0.6208 1631.00 1683.43 40.39
11621 0.6209 1582.00 1676.02 39.77
11622 0.6209 1678.00 1668.88 40.96
11623 0.6210 1553.00 1662.09 39.41
11624 0.6210 1547.00 1655.70 39.33
11625 0.6211 1628.00 1649.78 40.35
11626 0.6211 1662.00 1644.35 40.77
11627 0.6212 1643.00 1639.37 40.53
11628 0.6212 1568.00 1634.90 39.60
11629 0.6213 1566.00 1631.17 39.57
11630 0.6213 1629.00 1628.50 40.36
11631 0.6214 1577.00 1625.77 39.71
11632 0.6214 1622.00 1623.72 40.27
11633 0.6215 1589.00 1622.16 39.86
11634 0.6215 1636.00 1621.04 40.45
11635 0.6216 1594.00 1620.08 39.92
11636 0.6217 1699.00 1619.66 41.22
11637 0.6217 1718.00 1620.00 41.45
11638 0.6218 1605.00 1620.00 40.06
11639 0.6218 1522.00 1620.10 39.01
11640 0.6219 1638.00 1620.26 40.47
11641 0.6219 1583.00 1620.42 39.79
11642 0.6220 1554.00 1620.54 39.42
11643 0.6220 1592.00 1620.59 39.90
11644 0.6221 1602.00 1620.53 40.03
11645 0.6221 1583.00 1620.32 39.79
11646 0.6222 1541.00 1619.94 39.26
11647 0.6222 1581.00 1619.32 39.76
11648 0.6223 1486.00 1618.43 38.55
11649 0.6223 1569.00 1617.30 39.61
11650 0.6224 1529.00 1615.68 39.10
11651 0.6224 1536.00 1613.64 39.19
11652 0.6225 1535.00 1611.14 39.18
11653 0.6225 1565.00 1607.87 39.56
11654 0.6226 1556.00 1604.51 39.45
11655 0.6226 1582.00 1600.79 39.77
11656 0.6227 1540.00 1596.79 39.24
11657 0.6228 1586.00 1592.63 39.82
11658 0.6228 1443.00 1588.42 37.99
11659 0.6229 1548.00 1584.26 39.34
11660 0.6229 1538.00 1579.91 39.22
11661 0.6230 1646.00 1576.10 40.57
11662 0.6230 1436.00 1572.58 37.89
11663 0.6231 1543.00 1569.37 39.28
11664 0.6231 1554.00 1566.61 39.42
11665 0.6232 1548.00 1564.06 39.34
11666 0.6232 1510.00 1561.84 38.86
11667 0.6233 1501.00 1559.94 38.74
11668 0.6233 1509.00 1558.34 38.85
11669 0.6234 1515.00 1557.05 38.92
11670 0.6234 1507.00 1556.23 38.82
11671 0.6235 1476.00 1555.48 38.42
11672 0.6235 1453.00 1555.05 38.12
11673 0.6236 1506.00 1554.80 38.81
11674 0.6236 1580.00 1554.78 39.75
11675 0.6237 1516.00 1554.94 38.94
11676 0.6237 1525.00 1555.37 39.05
11677 0.6238 1400.00 1556.02 37.42
11678 0.6239 1520.00 1556.88 38.99
11679 0.6239 1574.00 1557.95 39.67
11680 0.6240 1569.00 1558.56 39.61
11681 0.6240 1544.00 1560.04 39.29
11682 0.6241 1516.00 1561.72 38.94
11683 0.6241 1544.00 1563.59 39.29
11684 0.6242 1547.00 1565.66 39.33
11685 0.6242 1459.00 1567.91 38.20
11686 0.6243 1541.00 1570.32 39.26
11687 0.6243 1542.00 1572.94 39.27
11688 0.6244 1589.00 1575.75 39.86
11689 0.6244 1537.00 1578.88 39.20
11690 0.6245 1583.00 1582.16 39.79
11691 0.6245 1574.00 1585.59 39.67
11692 0.6246 1520.00 1589.26 38.99
11693 0.6246 1538.00 1593.21 39.22
11694 0.6247 1510.00 1597.45 38.86
11695 0.6247 1517.00 1602.04 38.95
11696 0.6248 1598.00 1606.99 39.97
11697 0.6248 1502.00 1612.34 38.76
11698 0.6249 1572.00 1618.36 39.65
11699 0.6249 1602.00 1624.56 40.03
11700 0.6250 1515.00 1631.20 38.92
11701 0.6251 1568.00 1638.26 39.60
11702 0.6251 1564.00 1645.60 39.55
11703 0.6252 1487.00 1653.44 38.56
11704 0.6252 1536.00 1661.60 39.19
11705 0.6253 1604.00 1669.93 40.05
11706 0.6253 1612.00 1678.54 40.15
11707 0.6254 1568.00 1687.27 39.60
11708 0.6254 1598.00 1695.96 39.97
11709 0.6255 1534.00 1704.57 39.17
11710 0.6255 1626.00 1712.91 40.32
11711 0.6256 1618.00 1720.88 40.22
11712 0.6256 1637.00 1728.34 40.46
11713 0.6257 1707.00 1735.15 41.32
11714 0.6257 1680.00 1741.22 40.99
11715 0.6258 1648.00 1746.44 40.60
11716 0.6258 1639.00 1750.79 40.48
11717 0.6259 1620.00 1754.27 40.25
11718 0.6259 1678.00 1756.94 40.96
11719 0.6260 1653.00 1758.88 40.66
11720 0.6260 1629.00 1760.29 40.36
11721 0.6261 1725.00 1761.30 41.53
11722 0.6262 1690.00 1762.37 41.11
11723 0.6262 1720.00 1763.11 41.47
11724 0.6263 1707.00 1763.93 41.32
11725 0.6263 1649.00 1764.95 40.61
11726 0.6264 1807.00 1766.24 42.51
11727 0.6264 1738.00 1767.86 41.69
11728 0.6265 1839.00 1769.80 42.88
11729 0.6265 1794.00 1772.09 42.36
11730 0.6266 1871.00 1774.57 43.26
11731 0.6266 1910.00 1777.16 43.70
11732 0.6267 1902.00 1779.88 43.61
11733 0.6267 1959.00 1782.61 44.26
11734 0.6268 1892.00 1785.31 43.50
11735 0.6268 1954.00 1787.93 44.20
11736 0.6269 1890.00 1790.40 43.47
11737 0.6269 1835.00 1792.82 42.84
11738 0.6270 1789.00 1795.03 42.30
11739 0.6270 1763.00 1797.19 41.99
11740 0.6271 1729.00 1799.17 41.58
11741 0.6271 1805.00 1800.92 42.49
11742 0.6272 1765.00 1802.35 42.01
11743 0.6273 1661.00 1803.33 40.76
11744 0.6273 1792.00 1803.71 42.33
11745 0.6274 1732.00 1803.30 41.62
11746 0.6274 1633.00 1801.91 40.41
11747 0.6275 1728.00 1799.33 41.57
11748 0.6275 1634.00 1795.48 40.42
11749 0.6276 1745.00 1790.14 41.77
11750 0.6276 1683.00 1783.39 41.02
11751 0.6277 1705.00 1775.31 41.29
11752 0.6277 1662.00 1766.12 40.77
11753 0.6278 1639.00 1756.07 40.48
11754 0.6278 1725.00 1745.45 41.53
11755 0.6279 1672.00 1734.59 40.89
11756 0.6279 1647.00 1723.73 40.58
11757 0.6280 1649.00 1712.76 40.61
11758 0.6280 1686.00 1702.64 41.06
11759 0.6281 1674.00 1693.14 40.91
11760 0.6281 1673.00 1684.64 40.90
11761 0.6282 1643.00 1676.48 40.53
11762 0.6282 1680.00 1669.02 40.99
11763 0.6283 1658.00 1662.02 40.72
11764 0.6284 1673.00 1656.10 40.90
11765 0.6284 1667.00 1650.45 40.83
11766 0.6285 1619.00 1644.88 40.24
11767 0.6285 1648.00 1640.31 40.60
11768 0.6286 1610.00 1636.27 40.12
11769 0.6286 1682.00 1632.73 41.01
11770 0.6287 1686.00 1629.33 41.06
11771 0.6287 1612.00 1626.82 40.15
11772 0.6288 1703.00 1624.82 41.27
11773 0.6288 1681.00 1623.31 41.00
11774 0.6289 1634.00 1622.16 40.42
11775 0.6289 1613.00 1621.58 40.16
11776 0.6290 1655.00 1621.43 40.68
11777 0.6290 1681.00 1621.67 41.00
11778 0.6291 1543.00 1622.28 39.28
11779 0.6291 1625.00 1623.24 40.31
11780 0.6292 1652.00 1624.51 40.64
11781 0.6292 1663.00 1626.08 40.78
11782 0.6293 1694.00 1627.92 41.16
11783 0.6293 1658.00 1630.02 40.72
11784 0.6294 1723.00 1631.66 41.51
11785 0.6295 1612.00 1634.29 40.15
11786 0.6295 1656.00 1636.98 40.69
11787 0.6296 1719.00 1639.75 41.46
11788 0.6296 1712.00 1642.53 41.38
11789 0.6297 1763.00 1645.24 41.99
11790 0.6297 1729.00 1647.76 41.58
11791 0.6298 1684.00 1649.97 41.04
11792 0.6298 1788.00 1651.74 42.28
11793 0.6299 1743.00 1652.97 41.75
11794 0.6299 1742.00 1653.55 41.74
11795 0.6300 1747.00 1653.39 41.80
11796 0.6300 1738.00 1652.43 41.69
11797 0.6301 1736.00 1650.64 41.67
11798 0.6301 1708.00 1648.07 41.33
11799 0.6302 1632.00 1644.70 40.40
11800 0.6302 1761.00 1640.63 41.96
11801 0.6303 1647.00 1637.26 40.58
11802 0.6303 1698.00 1632.17 41.21
11803 0.6304 1741.00 1626.65 41.73
11804 0.6304 1659.00 1621.07 40.73
11805 0.6305 1679.00 1615.48 40.98
11806 0.6306 1658.00 1609.97 40.72
11807 0.6306 1648.00 1604.31 40.60
11808 0.6307 1668.00 1599.30 40.84
11809 0.6307 1669.00 1594.65 40.85
11810 0.6308 1703.00 1590.42 41.27
11811 0.6308 1715.00 1586.65 41.41
11812 0.6309 1652.00 1583.29 40.64
11813 0.6309 1727.00 1580.34 41.56
11814 0.6310 1594.00 1577.78 39.92
11815 0.6310 1595.00 1575.59 39.94
11816 0.6311 1598.00 1573.69 39.97
11817 0.6311 1669.00 1572.04 40.85
11818 0.6312 1621.00 1570.59 40.26
11819 0.6312 1574.00 1569.29 39.67
11820 0.6313 1632.00 1568.13 40.40
11821 0.6313 1555.00 1567.07 39.43
11822 0.6314 1626.00 1566.11 40.32
11823 0.6314 1622.00 1565.25 40.27
11824 0.6315 1645.00 1564.50 40.56
11825 0.6315 1558.00 1563.87 39.47
11826 0.6316 1559.00 1563.35 39.48
11827 0.6317 1643.00 1562.93 40.53
11828 0.6317 1653.00 1562.59 40.66
11829 0.6318 1599.00 1562.30 39.99
11830 0.6318 1655.00 1562.05 40.68
11831 0.6319 1584.00 1561.79 39.80
11832 0.6319 1601.00 1561.52 40.01
11833 0.6320 1621.00 1561.21 40.26
11834 0.6320 1500.00 1560.86 38.73
11835 0.6321 1540.00 1560.47 39.24
11836 0.6321 1666.00 1560.07 40.82
11837 0.6322 1562.00 1559.67 39.52
11838 0.6322 1596.00 1559.30 39.95
11839 0.6323 1549.00 1559.11 39.36
11840 0.6323 1579.00 1558.86 39.74
11841 0.6324 1581.00 1558.68 39.76
11842 0.6324 1572.00 1558.63 39.65
11843 0.6325 1563.00 1558.60 39.53
11844 0.6325 1582.00 1558.61 39.77
11845 0.6326 1561.00 1558.66 39.51
11846 0.6326 1538.00 1558.74 39.22
11847 0.6327 1606.00 1558.84 40.07
11848 0.6328 1552.00 1558.96 39.40
11849 0.6328 1628.00 1559.09 40.35
11850 0.6329 1537.00 1559.22 39.20
11851 0.6329 1532.00 1559.33 39.14
11852 0.6330 1573.00 1559.39 39.66
11853 0.6330 1587.00 1559.36 39.84
11854 0.6331 1611.00 1559.19 40.14
11855 0.6331 1603.00 1558.81 40.04
11856 0.6332 1575.00 1558.18 39.69
11857 0.6332 1608.00 1557.24 40.10
11858 0.6333 1602.00 1556.00 40.03
11859 0.6333 1512.00 1554.44 38.88
11860 0.6334 1517.00 1552.61 38.95
11861 0.6334 1471.00 1550.56 38.35
11862 0.6335 1491.00 1548.38 38.61
11863 0.6335 1458.00 1546.17 38.18
11864 0.6336 1589.00 1544.00 39.86
11865 0.6336 1570.00 1541.90 39.62
11866 0.6337 1591.00 1540.06 39.89
11867 0.6337 1580.00 1538.54 39.75
11868 0.6338 1482.00 1537.25 38.50
11869 0.6339 1532.00 1536.27 39.14
11870 0.6339 1625.00 1535.62 40.31
11871 0.6340 1611.00 1535.18 40.14
11872 0.6340 1578.00 1535.18 39.72
11873 0.6341 1499.00 1535.48 38.72
11874 0.6341 1559.00 1536.08 39.48
11875 0.6342 1566.00 1536.74 39.57
11876 0.6342 1505.00 1537.76 38.79
11877 0.6343 1472.00 1538.94 38.37
11878 0.6343 1581.00 1540.20 39.76
11879 0.6344 1408.00 1541.47 37.52
11880 0.6344 1526.00 1542.69 39.06
11881 0.6345 1523.00 1543.76 39.03
11882 0.6345 1614.00 1544.65 40.17
11883 0.6346 1514.00 1545.23 38.91
11884 0.6346 1564.00 1545.47 39.55
11885 0.6347 1538.00 1545.37 39.22
11886 0.6347 1523.00 1544.92 39.03
11887 0.6348 1513.00 1544.15 38.90
11888 0.6348 1573.00 1543.13 39.66
11889 0.6349 1592.00 1541.78 39.90
11890 0.6350 1519.00 1539.88 38.97
11891 0.6350 1568.00 1538.43 39.60
11892 0.6351 1637.00 1537.18 40.46
11893 0.6351 1500.00 1536.06 38.73
11894 0.6352 1523.00 1535.13 39.03
11895 0.6352 1509.00 1534.37 38.85
11896 0.6353 1586.00 1533.92 39.82
11897 0.6353 1514.00 1533.52 38.91
11898 0.6354 1565.00 1533.64 39.56
11899 0.6354 1523.00 1534.07 39.03
11900 0.6355 1583.00 1534.82 39.79
11901 0.6355 1534.00 1535.89 39.17
11902 0.6356 1609.00 1537.27 40.11
11903 0.6356 1483.00 1538.78 38.51
11904 0.6357 1523.00 1540.88 39.03
11905 0.6357 1544.00 1543.36 39.29
11906 0.6358 1511.00 1546.16 38.87
11907 0.6358 1577.00 1548.91 39.71
11908 0.6359 1498.00 1552.42 38.70
11909 0.6359 1630.00 1555.95 40.37
11910 0.6360 1604.00 1560.10 40.05
11911 0.6361 1578.00 1564.51 39.72
11912 0.6361 1527.00 1569.15 39.08
11913 0.6362 1592.00 1573.94 39.90
11914 0.6362 1573.00 1579.11 39.66
11915 0.6363 1546.00 1583.84 39.32
11916 0.6363 1613.00 1589.08 40.16
11917 0.6364 1606.00 1593.37 40.07
11918 0.6364 1577.00 1596.23 39.71
11919 0.6365 1585.00 1599.46 39.81
11920 0.6365 1562.00 1601.78 39.52
11921 0.6366 1602.00 1603.18 40.03
11922 0.6366 1653.00 1603.58 40.66
11923 0.6367 1608.00 1602.99 40.10
11924 0.6367 1594.00 1601.47 39.92
11925 0.6368 1556.00 1599.14 39.45
11926 0.6368 1540.00 1596.17 39.24
11927 0.6369 1622.00 1592.76 40.27
11928 0.6369 1593.00 1589.11 39.91
11929 0.6370 1545.00 1585.42 39.31
11930 0.6370 1590.00 1581.87 39.87
11931 0.6371 1655.00 1578.60 40.68
11932 0.6371 1557.00 1575.73 39.46
11933 0.6372 1571.00 1573.33 39.64
11934 0.6373 1602.00 1571.53 40.03
11935 0.6373 1551.00 1570.16 39.38
11936 0.6374 1567.00 1569.58 39.59
11937 0.6374 1590.00 1569.66 39.87
11938 0.6375 1651.00 1570.39 40.63
11939 0.6375 1503.00 1571.74 38.77
11940 0.6376 1542.00 1574.04 39.27
11941 0.6376 1501.00 1576.55 38.74
11942 0.6377 1601.00 1579.66 40.01
11943 0.6377 1587.00 1583.31 39.84
11944 0.6378 1470.00 1587.41 38.34
11945 0.6378 1594.00 1592.37 39.92
11946 0.6379 1571.00 1597.41 39.64
11947 0.6379 1588.00 1602.83 39.85
11948 0.6380 1614.00 1608.62 40.17
11949 0.6380 1553.00 1614.69 39.41
11950 0.6381 1535.00 1620.98 39.18
11951 0.6381 1498.00 1627.37 38.70
11952 0.6382 1613.00 1633.75 40.16
11953 0.6382 1606.00 1639.94 40.07
11954 0.6383 1565.00 1646.05 39.56
11955 0.6384 1562.00 1651.21 39.52
11956 0.6384 1636.00 1655.47 40.45
11957 0.6385 1601.00 1658.62 40.01
11958 0.6385 1618.00 1660.42 40.22
11959 0.6386 1598.00 1661.00 39.97
11960 0.6386 1611.00 1659.65 40.14
11961 0.6387 1538.00 1656.41 39.22
11962 0.6387 1556.00 1652.19 39.45
11963 0.6388 1560.00 1646.73 39.50
11964 0.6388 1540.00 1641.21 39.24
11965 0.6389 1452.00 1633.64 38.11
11966 0.6389 1657.00 1625.89 40.71
11967 0.6390 1514.00 1617.86 38.91
11968 0.6390 1544.00 1609.72 39.29
11969 0.6391 1513.00 1601.60 38.90
11970 0.6391 1527.00 1593.63 39.08
11971 0.6392 1579.00 1585.87 39.74
11972 0.6392 1511.00 1578.38 38.87
11973 0.6393 1574.00 1571.18 39.67
11974 0.6393 1504.00 1564.34 38.78
11975 0.6394 1517.00 1557.88 38.95
11976 0.6395 1480.00 1551.75 38.47
11977 0.6395 1491.00 1546.23 38.61
11978 0.6396 1543.00 1541.08 39.28
11979 0.6396 1536.00 1536.41 39.19
11980 0.6397 1494.00 1532.21 38.65
11981 0.6397 1545.00 1528.47 39.31
11982 0.6398 1499.00 1525.18 38.72
11983 0.6398 1540.00 1522.90 39.24
11984 0.6399 1475.00 1520.40 38.41
11985 0.6399 1540.00 1518.21 39.24
11986 0.6400 1505.00 1516.29 38.79
11987 0.6400 1450.00 1514.58 38.08
11988 0.6401 1590.00 1513.02 39.87
11989 0.6401 1495.00 1511.53 38.67
11990 0.6402 1514.00 1510.07 38.91
11991 0.6402 1487.00 1508.58 38.56
11992 0.6403 1510.00 1507.02 38.86
11993 0.6403 1526.00 1505.37 39.06
11994 0.6404 1513.00 1503.63 38.90
11995 0.6404 1458.00 1501.82 38.18
11996 0.6405 1458.00 1499.94 38.18
11997 0.6406 1515.00 1498.05 38.92
11998 0.6406 1449.00 1496.15 38.07
11999 0.6407 1516.00 1494.26 38.94
12000 0.6407 1478.00 1492.40 38.44
12001 0.6408 1493.00 1490.62 38.64
12002 0.6408 1495.00 1488.83 38.67
12003 0.6409 1498.00 1487.19 38.70
12004 0.6409 1474.00 1485.45 38.39
12005 0.6410 1511.00 1483.96 38.87
12006 0.6410 1426.00 1482.55 37.76
12007 0.6411 1480.00 1481.23 38.47
12008 0.6411 1550.00 1480.00 39.37
12009 0.6412 1462.00 1478.87 38.24
12010 0.6412 1451.00 1477.84 38.09
12011 0.6413 1459.00 1476.92 38.20
12012 0.6413 1522.00 1476.10 39.01
12013 0.6414 1505.00 1475.39 38.79
12014 0.6414 1511.00 1474.74 38.87
12015 0.6415 1487.00 1474.22 38.56
12016 0.6415 1526.00 1473.79 39.06
12017 0.6416 1566.00 1473.45 39.57
12018 0.6417 1477.00 1473.20 38.43
12019 0.6417 1513.00 1473.04 38.90
12020 0.6418 1499.00 1472.70 38.72
12021 0.6418 1500.00 1472.71 38.73
12022 0.6419 1413.00 1472.80 37.59
12023 0.6419 1481.00 1472.97 38.48
12024 0.6420 1524.00 1473.24 39.04
12025 0.6420 1492.00 1473.61 38.63
12026 0.6421 1464.00 1474.06 38.26
12027 0.6421 1542.00 1474.61 39.27
12028 0.6422 1555.00 1475.25 39.43
12029 0.6422 1502.00 1475.97 38.76
12030 0.6423 1558.00 1476.90 39.47
12031 0.6423 1481.00 1477.77 38.48
12032 0.6424 1515.00 1478.63 38.92
12033 0.6424 1471.00 1479.60 38.35
12034 0.6425 1539.00 1480.62 39.23
12035 0.6425 1539.00 1481.66 39.23
12036 0.6426 1479.00 1482.72 38.46
12037 0.6426 1466.00 1483.79 38.29
12038 0.6427 1462.00 1484.86 38.24
12039 0.6428 1518.00 1485.95 38.96
12040 0.6428 1453.00 1487.05 38.12
12041 0.6429 1497.00 1488.13 38.69
12042 0.6429 1493.00 1489.26 38.64
12043 0.6430 1520.00 1490.41 38.99
12044 0.6430 1542.00 1491.57 39.27
12045 0.6431 1460.00 1492.69 38.21
12046 0.6431 1452.00 1493.88 38.11
12047 0.6432 1537.00 1495.09 39.20
12048 0.6432 1495.00 1496.31 38.67
12049 0.6433 1541.00 1497.62 39.26
12050 0.6433 1514.00 1498.90 38.91
12051 0.6434 1496.00 1500.69 38.68
12052 0.6434 1498.00 1502.12 38.70
12053 0.6435 1468.00 1503.68 38.31
12054 0.6435 1507.00 1505.29 38.82
12055 0.6436 1546.00 1507.20 39.32
12056 0.6436 1554.00 1509.35 39.42
12057 0.6437 1557.00 1511.74 39.46
12058 0.6437 1579.00 1514.41 39.74
12059 0.6438 1541.00 1517.37 39.26
12060 0.6439 1575.00 1520.64 39.69
12061 0.6439 1488.00 1524.22 38.57
12062 0.6440 1529.00 1528.13 39.10
12063 0.6440 1473.00 1532.38 38.38
12064 0.6441 1570.00 1536.93 39.62
12065 0.6441 1432.00 1541.82 37.84
12066 0.6442 1610.00 1547.02 40.12
12067 0.6442 1562.00 1552.52 39.52
12068 0.6443 1592.00 1558.33 39.90
12069 0.6443 1586.00 1564.30 39.82
12070 0.6444 1611.00 1570.42 40.14
12071 0.6444 1632.00 1576.62 40.40
12072 0.6445 1514.00 1582.82 38.91
12073 0.6445 1563.00 1588.93 39.53
12074 0.6446 1650.00 1594.87 40.62
12075 0.6446 1566.00 1600.55 39.57
12076 0.6447 1593.00 1605.90 39.91
12077 0.6447 1695.00 1610.86 41.17
12078 0.6448 1601.00 1615.35 40.01
12079 0.6448 1559.00 1619.31 39.48
12080 0.6449 1655.00 1622.68 40.68
12081 0.6450 1539.00 1625.39 39.23
12082 0.6450 1632.00 1627.40 40.40
12083 0.6451 1662.00 1628.62 40.77
12084 0.6451 1656.00 1628.75 40.69
12085 0.6452 1618.00 1628.72 40.22
12086 0.6452 1700.00 1628.15 41.23
12087 0.6453 1629.00 1627.19 40.36
12088 0.6453 1550.00 1626.10 39.37
12089 0.6454 1636.00 1624.97 40.45
12090 0.6454 1562.00 1624.01 39.52
12091 0.6455 1646.00 1623.29 40.57
12092 0.6455 1589.00 1623.40 39.86
12093 0.6456 1584.00 1623.38 39.80
12094 0.6456 1575.00 1623.71 39.69
12095 0.6457 1601.00 1624.32 40.01
12096 0.6457 1554.00 1625.13 39.42
12097 0.6458 1528.00 1626.04 39.09
12098 0.6458 1568.00 1626.93 39.60
12099 0.6459 1526.00 1627.72 39.06
12100 0.6459 1628.00 1628.30 40.35
12101 0.6460 1617.00 1628.63 40.21
12102 0.6461 1637.00 1628.67 40.46
12103 0.6461 1541.00 1628.81 39.26
12104 0.6462 1604.00 1628.33 40.05
12105 0.6462 1555.00 1627.65 39.43
12106 0.6463 1571.00 1626.84 39.64
12107 0.6463 1612.00 1625.94 40.15
12108 0.6464 1534.00 1625.00 39.17
12109 0.6464 1540.00 1623.98 39.24
12110 0.6465 1543.00 1623.07 39.28
12111 0.6465 1559.00 1622.21 39.48
12112 0.6466 1517.00 1621.35 38.95
12113 0.6466 1546.00 1620.60 39.32
12114 0.6467 1533.00 1619.93 39.15
12115 0.6467 1561.00 1619.34 39.51
12116 0.6468 1637.00 1618.85 40.46
12117 0.6468 1656.00 1618.48 40.69
12118 0.6469 1604.00 1617.72 40.05
12119 0.6469 1511.00 1617.67 38.87
12120 0.6470 1556.00 1617.82 39.45
12121 0.6470 1617.00 1618.19 40.21
12122 0.6471 1518.00 1618.88 38.96
12123 0.6472 1528.00 1619.74 39.09
12124 0.6472 1578.00 1620.81 39.72
12125 0.6473 1536.00 1622.10 39.19
12126 0.6473 1574.00 1623.53 39.67
12127 0.6474 1601.00 1625.14 40.01
12128 0.6474 1641.00 1626.53 40.51
12129 0.6475 1595.00 1627.71 39.94
12130 0.6475 1664.00 1629.10 40.79
12131 0.6476 1624.00 1629.31 40.30
12132 0.6476 1670.00 1629.10 40.87
12133 0.6477 1666.00 1628.24 40.82
12134 0.6477 1697.00 1626.93 41.19
12135 0.6478 1673.00 1624.74 40.90
12136 0.6478 1633.00 1621.96 40.41
12137 0.6479 1510.00 1618.06 38.86
12138 0.6479 1579.00 1614.40 39.74
12139 0.6480 1592.00 1610.73 39.90
12140 0.6480 1603.00 1606.77 40.04
12141 0.6481 1548.00 1602.80 39.34
12142 0.6481 1514.00 1598.75 38.91
12143 0.6482 1511.00 1594.80 38.87
12144 0.6482 1533.00 1591.00 39.15
12145 0.6483 1556.00 1587.37 39.45
12146 0.6484 1577.00 1583.95 39.71
12147 0.6484 1655.00 1580.63 40.68
12148 0.6485 1592.00 1577.70 39.90
12149 0.6485 1611.00 1575.05 40.14
12150 0.6486 1519.00 1572.73 38.97
12151 0.6486 1491.00 1570.73 38.61
12152 0.6487 1568.00 1569.09 39.60
12153 0.6487 1541.00 1567.79 39.26
12154 0.6488 1585.00 1566.80 39.81
12155 0.6488 1592.00 1566.07 39.90
12156 0.6489 1606.00 1565.53 40.07
12157 0.6489 1539.00 1565.08 39.23
12158 0.6490 1621.00 1564.62 40.26
12159 0.6490 1590.00 1564.04 39.87
12160 0.6491 1648.00 1563.16 40.60
12161 0.6491 1639.00 1561.87 40.48
12162 0.6492 1689.00 1560.13 41.10
12163 0.6492 1639.00 1557.80 40.48
12164 0.6493 1637.00 1554.96 40.46
12165 0.6493 1550.00 1551.59 39.37
12166 0.6494 1576.00 1547.75 39.70
12167 0.6495 1551.00 1543.54 39.38
12168 0.6495 1586.00 1539.07 39.82
12169 0.6496 1560.00 1534.47 39.50
12170 0.6496 1543.00 1529.85 39.28
12171 0.6497 1555.00 1525.32 39.43
12172 0.6497 1598.00 1520.98 39.97
12173 0.6498 1579.00 1516.89 39.74
12174 0.6498 1524.00 1513.11 39.04
12175 0.6499 1529.00 1509.66 39.10
12176 0.6499 1506.00 1506.57 38.81
12177 0.6500 1540.00 1503.82 39.24
12178 0.6500 1500.00 1501.41 38.73
12179 0.6501 1510.00 1499.32 38.86
12180 0.6501 1546.00 1497.52 39.32
12181 0.6502 1525.00 1496.00 39.05
12182 0.6502 1545.00 1494.71 39.31
12183 0.6503 1525.00 1493.63 39.05
12184 0.6503 1567.00 1492.76 39.59
12185 0.6504 1496.00 1492.00 38.68
12186 0.6504 1561.00 1491.32 39.51
12187 0.6505 1517.00 1490.72 38.95
12188 0.6506 1543.00 1490.16 39.28
12189 0.6506 1549.00 1489.62 39.36
12190 0.6507 1499.00 1489.09 38.72
12191 0.6507 1513.00 1488.56 38.90
12192 0.6508 1529.00 1488.03 39.10
12193 0.6508 1476.00 1487.51 38.42
12194 0.6509 1543.00 1487.04 39.28
12195 0.6509 1528.00 1486.66 39.09
12196 0.6510 1526.00 1486.39 39.06
12197 0.6510 1509.00 1486.28 38.85
12198 0.6511 1545.00 1486.34 39.31
12199 0.6511 1488.00 1486.62 38.57
12200 0.6512 1447.00 1487.11 38.04
12201 0.6512 1506.00 1487.82 38.81
12202 0.6513 1500.00 1488.74 38.73
12203 0.6513 1504.00 1489.83 38.78
12204 0.6514 1529.00 1491.08 39.10
12205 0.6514 1479.00 1492.43 38.46
12206 0.6515 1511.00 1493.83 38.87
12207 0.6515 1514.00 1495.22 38.91
12208 0.6516 1533.00 1496.56 39.15
12209 0.6517 1496.00 1497.79 38.68
12210 0.6517 1526.00 1498.77 39.06
12211 0.6518 1531.00 1499.69 39.13
12212 0.6518 1476.00 1500.44 38.42
12213 0.6519 1550.00 1500.98 39.37
12214 0.6519 1472.00 1501.42 38.37
12215 0.6520 1530.00 1502.48 39.12
12216 0.6520 1551.00 1502.74 39.38
12217 0.6521 1553.00 1502.95 39.41
12218 0.6521 1502.00 1503.12 38.76
12219 0.6522 1509.00 1503.28 38.85
12220 0.6522 1480.00 1503.66 38.47
12221 0.6523 1550.00 1503.73 39.37
12222 0.6523 1512.00 1503.67 38.88
12223 0.6524 1476.00 1503.54 38.42
12224 0.6524 1546.00 1503.26 39.32
12225 0.6525 1477.00 1502.81 38.43
12226 0.6525 1488.00 1502.21 38.57
12227 0.6526 1479.00 1501.48 38.46
12228 0.6526 1492.00 1500.66 38.63
12229 0.6527 1496.00 1499.80 38.68
12230 0.6528 1526.00 1498.98 39.06
12231 0.6528 1471.00 1498.26 38.35
12232 0.6529 1545.00 1497.74 39.31
12233 0.6529 1508.00 1497.47 38.83
12234 0.6530 1468.00 1497.50 38.31
12235 0.6530 1551.00 1497.87 39.38
12236 0.6531 1497.00 1498.48 38.69
12237 0.6531 1521.00 1499.60 39.00
12238 0.6532 1503.00 1501.09 38.77
12239 0.6532 1501.00 1503.99 38.74
12240 0.6533 1499.00 1506.16 38.72
12241 0.6533 1509.00 1508.58 38.85
12242 0.6534 1537.00 1511.18 39.20
12243 0.6534 1534.00 1514.22 39.17
12244 0.6535 1567.00 1516.70 39.59
12245 0.6535 1507.00 1519.20 38.82
12246 0.6536 1492.00 1521.44 38.63
12247 0.6536 1498.00 1523.30 38.70
12248 0.6537 1594.00 1524.69 39.92
12249 0.6537 1548.00 1525.57 39.34
12250 0.6538 1509.00 1526.10 38.85
12251 0.6539 1593.00 1526.01 39.91
12252 0.6539 1448.00 1524.93 38.05
12253 0.6540 1564.00 1524.35 39.55
12254 0.6540 1512.00 1523.41 38.88
12255 0.6541 1558.00 1522.55 39.47
12256 0.6541 1555.00 1521.78 39.43
12257 0.6542 1534.00 1521.19 39.17
12258 0.6542 1545.00 1520.82 39.31
12259 0.6543 1449.00 1520.72 38.07
12260 0.6543 1510.00 1520.64 38.86
12261 0.6544 1524.00 1521.09 39.04
12262 0.6544 1518.00 1521.82 38.96
12263 0.6545 1455.00 1522.82 38.14
12264 0.6545 1481.00 1524.08 38.48
12265 0.6546 1600.00 1525.60 40.00
12266 0.6546 1592.00 1527.39 39.90
12267 0.6547 1561.00 1529.33 39.51
12268 0.6547 1626.00 1531.60 40.32
12269 0.6548 1556.00 1534.08 39.45
12270 0.6548 1523.00 1536.72 39.03
12271 0.6549 1608.00 1539.48 40.10
12272 0.6550 1543.00 1542.30 39.28
12273 0.6550 1569.00 1545.07 39.61
12274 0.6551 1527.00 1547.83 39.08
12275 0.6551 1571.00 1550.28 39.64
12276 0.6552 1576.00 1552.97 39.70
12277 0.6552 1562.00 1555.37 39.52
12278 0.6553 1553.00 1557.65 39.41
12279 0.6553 1552.00 1559.77 39.40
12280 0.6554 1605.00 1562.70 40.06
12281 0.6554 1591.00 1564.89 39.89
12282 0.6555 1564.00 1567.06 39.55
12283 0.6555 1569.00 1569.26 39.61
12284 0.6556 1585.00 1571.51 39.81
12285 0.6556 1561.00 1573.72 39.51
12286 0.6557 1507.00 1575.94 38.82
12287 0.6557 1491.00 1578.03 38.61
12288 0.6558 1572.00 1579.89 39.65
12289 0.6558 1563.00 1581.42 39.53
12290 0.6559 1539.00 1582.28 39.23
12291 0.6559 1491.00 1582.66 38.61
12292 0.6560 1517.00 1582.57 38.95
12293 0.6561 1554.00 1581.80 39.42
12294 0.6561 1584.00 1580.35 39.80
12295 0.6562 1584.00 1578.23 39.80
12296 0.6562 1631.00 1575.48 40.39
12297 0.6563 1522.00 1572.17 39.01
12298 0.6563 1597.00 1568.40 39.96
12299 0.6564 1503.00 1564.26 38.77
12300 0.6564 1585.00 1559.83 39.81
12301 0.6565 1569.00 1555.22 39.61
12302 0.6565 1534.00 1550.54 39.17
12303 0.6566 1575.00 1545.86 39.69
12304 0.6566 1547.00 1541.23 39.33
12305 0.6567 1616.00 1536.73 40.20
12306 0.6567 1541.00 1532.38 39.26
12307 0.6568 1558.00 1528.21 39.47
12308 0.6568 1473.00 1524.19 38.38
12309 0.6569 1626.00 1520.31 40.32
12310 0.6569 1554.00 1516.52 39.42
12311 0.6570 1572.00 1512.76 39.65
12312 0.6570 1522.00 1508.24 39.01
12313 0.6571 1459.00 1504.43 38.20
12314 0.6572 1543.00 1500.53 39.28
12315 0.6572 1485.00 1496.54 38.54
12316 0.6573 1583.00 1492.45 39.79
12317 0.6573 1436.00 1488.26 37.89
12318 0.6574 1614.00 1484.02 40.17
12319 0.6574 1476.00 1479.86 38.42
12320 0.6575 1426.00 1475.77 37.76
12321 0.6575 1497.00 1471.78 38.69
12322 0.6576 1547.00 1467.94 39.33
12323 0.6576 1508.00 1464.24 38.83
12324 0.6577 1441.00 1460.77 37.96
12325 0.6577 1542.00 1457.51 39.27
12326 0.6578 1445.00 1454.47 38.01
12327 0.6578 1452.00 1451.64 38.11
12328 0.6579 1474.00 1449.04 38.39
12329 0.6579 1443.00 1446.65 37.99
12330 0.6580 1449.00 1444.47 38.07
12331 0.6580 1461.00 1442.50 38.22
12332 0.6581 1456.00 1440.75 38.16
12333 0.6581 1430.00 1439.21 37.82
12334 0.6582 1543.00 1437.88 39.28
12335 0.6583 1438.00 1436.75 37.92
12336 0.6583 1483.00 1435.82 38.51
12337 0.6584 1422.00 1435.10 37.71
12338 0.6584 1400.00 1434.56 37.42
12339 0.6585 1524.00 1434.21 39.04
12340 0.6585 1455.00 1434.95 38.14
12341 0.6586 1463.00 1434.98 38.25
12342 0.6586 1450.00 1435.18 38.08
12343 0.6587 1437.00 1435.55 37.91
12344 0.6587 1469.00 1436.08 38.33
12345 0.6588 1540.00 1436.19 39.24
12346 0.6588 1476.00 1437.06 38.42
12347 0.6589 1542.00 1438.07 39.27
12348 0.6589 1444.00 1439.24 38.00
12349 0.6590 1435.00 1440.56 37.88
12350 0.6590 1419.00 1442.48 37.67
12351 0.6591 1489.00 1444.11 38.59
12352 0.6591 1556.00 1445.88 39.45
12353 0.6592 1516.00 1447.84 38.94
12354 0.6592 1380.00 1449.95 37.15
12355 0.6593 1455.00 1452.27 38.14
12356 0.6594 1490.00 1454.77 38.60
12357 0.6594 1439.00 1457.37 37.93
12358 0.6595 1496.00 1460.28 38.68
12359 0.6595 1498.00 1463.40 38.70
12360 0.6596 1555.00 1466.75 39.43
12361 0.6596 1533.00 1470.33 39.15
12362 0.6597 1497.00 1474.09 38.69
12363 0.6597 1451.00 1478.12 38.09
12364 0.6598 1550.00 1482.38 39.37
12365 0.6598 1513.00 1486.81 38.90
12366 0.6599 1509.00 1491.39 38.85
12367 0.6599 1484.00 1496.07 38.52
12368 0.6600 1503.00 1500.76 38.77
12369 0.6600 1504.00 1505.74 38.78
12370 0.6601 1597.00 1510.18 39.96
12371 0.6601 1520.00 1514.27 38.99
12372 0.6602 1514.00 1518.02 38.91
12373 0.6602 1549.00 1521.25 39.36
12374 0.6603 1646.00 1523.94 40.57
12375 0.6603 1516.00 1526.03 38.94
12376 0.6604 1527.00 1527.54 39.08
12377 0.6604 1582.00 1528.51 39.77
12378 0.6605 1465.00 1529.03 38.28
12379 0.6606 1498.00 1529.21 38.70
12380 0.6606 1440.00 1529.18 37.95
12381 0.6607 1540.00 1529.03 39.24
12382 0.6607 1509.00 1528.88 38.85
12383 0.6608 1553.00 1528.78 39.41
12384 0.6608 1462.00 1528.78 38.24
12385 0.6609 1503.00 1528.92 38.77
12386 0.6609 1588.00 1529.19 39.85
12387 0.6610 1470.00 1529.61 38.34
12388 0.6610 1613.00 1530.30 40.16
12389 0.6611 1526.00 1531.05 39.06
12390 0.6611 1531.00 1532.00 39.13
12391 0.6612 1518.00 1533.20 38.96
12392 0.6612 1528.00 1534.71 39.09
12393 0.6613 1569.00 1536.60 39.61
12394 0.6613 1562.00 1538.72 39.52
12395 0.6614 1542.00 1541.52 39.27
12396 0.6614 1510.00 1544.92 38.86
12397 0.6615 1557.00 1548.77 39.46
12398 0.6615 1597.00 1553.01 39.96
12399 0.6616 1511.00 1557.90 38.87
12400 0.6617 1589.00 1563.24 39.86
12401 0.6617 1561.00 1568.96 39.51
12402 0.6618 1670.00 1574.96 40.87
12403 0.6618 1645.00 1581.10 40.56
12404 0.6619 1517.00 1587.26 38.95
12405 0.6619 1627.00 1593.19 40.34
12406 0.6620 1616.00 1598.80 40.20
12407 0.6620 1549.00 1603.84 39.36
12408 0.6621 1599.00 1607.75 39.99
12409 0.6621 1593.00 1611.12 39.91
12410 0.6622 1560.00 1613.44 39.50
12411 0.6622 1545.00 1614.62 39.31
12412 0.6623 1678.00 1614.65 40.96
12413 0.6623 1600.00 1613.56 40.00
12414 0.6624 1571.00 1611.43 39.64
12415 0.6624 1519.00 1608.38 38.97
12416 0.6625 1583.00 1604.58 39.79
12417 0.6625 1582.00 1600.20 39.77
12418 0.6626 1567.00 1595.43 39.59
12419 0.6626 1540.00 1590.41 39.24
12420 0.6627 1597.00 1585.32 39.96
12421 0.6628 1573.00 1580.28 39.66
12422 0.6628 1530.00 1575.48 39.12
12423 0.6629 1661.00 1570.82 40.76
12424 0.6629 1580.00 1566.43 39.75
12425 0.6630 1544.00 1562.31 39.29
12426 0.6630 1614.00 1558.48 40.17
12427 0.6631 1604.00 1554.87 40.05
12428 0.6631 1506.00 1551.59 38.81
12429 0.6632 1482.00 1548.58 38.50
12430 0.6632 1574.00 1545.84 39.67
12431 0.6633 1515.00 1543.39 38.92
12432 0.6633 1551.00 1541.24 39.38
12433 0.6634 1584.00 1540.47 39.80
12434 0.6634 1480.00 1539.02 38.47
12435 0.6635 1610.00 1537.96 40.12
12436 0.6635 1487.00 1537.29 38.56
12437 0.6636 1596.00 1537.02 39.95
12438 0.6636 1547.00 1537.10 39.33
12439 0.6637 1559.00 1537.56 39.48
12440 0.6637 1608.00 1538.29 40.10
12441 0.6638 1528.00 1539.13 39.09
12442 0.6639 1540.00 1540.12 39.24
12443 0.6639 1612.00 1541.05 40.15
12444 0.6640 1536.00 1541.79 39.19
12445 0.6640 1537.00 1542.15 39.20
12446 0.6641 1498.00 1542.00 38.70
12447 0.6641 1545.00 1541.21 39.31
12448 0.6642 1521.00 1539.80 39.00
12449 0.6642 1481.00 1537.44 38.48
12450 0.6643 1453.00 1534.86 38.12
12451 0.6643 1543.00 1530.88 39.28
12452 0.6644 1500.00 1526.16 38.73
12453 0.6644 1468.00 1520.53 38.31
12454 0.6645 1541.00 1514.74 39.26
12455 0.6645 1500.00 1508.58 38.73
12456 0.6646 1516.00 1502.33 38.94
12457 0.6646 1489.00 1496.08 38.59
12458 0.6647 1412.00 1489.80 37.58
12459 0.6647 1434.00 1483.90 37.87
12460 0.6648 1512.00 1478.32 38.88
12461 0.6648 1547.00 1472.85 39.33
12462 0.6649 1501.00 1468.05 38.74
12463 0.6650 1374.00 1463.63 37.07
12464 0.6650 1514.00 1459.72 38.91
12465 0.6651 1513.00 1456.23 38.90
12466 0.6651 1448.00 1453.07 38.05
12467 0.6652 1583.00 1450.40 39.79
12468 0.6652 1486.00 1447.95 38.55
12469 0.6653 1512.00 1446.05 38.88
12470 0.6653 1587.00 1444.51 39.84
12471 0.6654 1633.00 1443.14 40.41
12472 0.6654 1564.00 1442.24 39.55
12473 0.6655 1530.00 1441.63 39.12
12474 0.6655 1530.00 1441.28 39.12
12475 0.6656 1481.00 1441.02 38.48
12476 0.6656 1545.00 1441.13 39.31
12477 0.6657 1559.00 1441.43 39.48
12478 0.6657 1484.00 1441.91 38.52
12479 0.6658 1564.00 1442.51 39.55
12480 0.6658 1537.00 1443.22 39.20
12481 0.6659 1559.00 1444.01 39.48
12482 0.6659 1519.00 1444.92 38.97
12483 0.6660 1504.00 1445.91 38.78
12484 0.6661 1445.00 1446.99 38.01
12485 0.6661 1443.00 1448.18 37.99
12486 0.6662 1506.00 1449.49 38.81
12487 0.6662 1530.00 1450.96 39.12
12488 0.6663 1521.00 1453.71 39.00
12489 0.6663 1438.00 1455.48 37.92
12490 0.6664 1525.00 1457.51 39.05
12491 0.6664 1399.00 1459.94 37.40
12492 0.6665 1471.00 1462.58 38.35
12493 0.6665 1477.00 1465.64 38.43
12494 0.6666 1499.00 1469.03 38.72
12495 0.6666 1520.00 1472.69 38.99
12496 0.6667 1374.00 1476.69 37.07
12497 0.6667 1487.00 1480.93 38.56
12498 0.6668 1582.00 1485.79 39.77
12499 0.6668 1530.00 1490.38 39.12
12500 0.6669 1488.00 1494.99 38.57
12501 0.6669 1535.00 1499.52 39.18
12502 0.6670 1403.00 1503.85 37.46
12503 0.6670 1489.00 1507.86 38.59
12504 0.6671 1533.00 1511.41 39.15
12505 0.6672 1597.00 1514.38 39.96
12506 0.6672 1554.00 1516.96 39.42
12507 0.6673 1503.00 1518.53 38.77
12508 0.6673 1529.00 1519.34 39.10
12509 0.6674 1524.00 1519.39 39.04
12510 0.6674 1608.00 1518.74 40.10
12511 0.6675 1503.00 1517.48 38.77
12512 0.6675 1460.00 1515.74 38.21
12513 0.6676 1516.00 1513.65 38.94
12514 0.6676 1454.00 1511.36 38.13
12515 0.6677 1442.00 1509.07 37.97
12516 0.6677 1405.00 1506.74 37.48
12517 0.6678 1450.00 1504.53 38.08
12518 0.6678 1400.00 1502.49 37.42
12519 0.6679 1497.00 1500.64 38.69
12520 0.6679 1528.00 1498.97 39.09
12521 0.6680 1423.00 1497.45 37.72
12522 0.6680 1503.00 1496.20 38.77
12523 0.6681 1538.00 1494.81 39.22
12524 0.6681 1453.00 1493.38 38.12
12525 0.6682 1452.00 1491.88 38.11
12526 0.6683 1495.00 1490.26 38.67
12527 0.6683 1470.00 1488.53 38.34
12528 0.6684 1468.00 1486.65 38.31
12529 0.6684 1443.00 1484.69 37.99
12530 0.6685 1455.00 1482.67 38.14
12531 0.6685 1382.00 1480.66 37.18
12532 0.6686 1423.00 1478.71 37.72
12533 0.6686 1488.00 1476.86 38.57
12534 0.6687 1462.00 1475.16 38.24
12535 0.6687 1366.00 1473.63 36.96
12536 0.6688 1402.00 1472.08 37.44
12537 0.6688 1478.00 1470.89 38.44
12538 0.6689 1524.00 1469.85 39.04
12539 0.6689 1433.00 1468.87 37.85
12540 0.6690 1474.00 1468.00 38.39
12541 0.6690 1532.00 1467.13 39.14
12542 0.6691 1471.00 1466.21 38.35
12543 0.6691 1438.00 1465.19 37.92
12544 0.6692 1466.00 1464.28 38.29
12545 0.6692 1470.00 1462.98 38.34
12546 0.6693 1547.00 1461.54 39.33
12547 0.6694 1450.00 1459.97 38.08
12548 0.6694 1492.00 1458.30 38.63
12549 0.6695 1447.00 1456.59 38.04
12550 0.6695 1467.00 1454.86 38.30
12551 0.6696 1597.00 1453.17 39.96
12552 0.6696 1469.00 1451.55 38.33
12553 0.6697 1502.00 1450.03 38.76
12554 0.6697 1546.00 1448.62 39.32
12555 0.6698 1478.00 1447.35 38.44
12556 0.6698 1501.00 1446.21 38.74
12557 0.6699 1513.00 1445.20 38.90
12558 0.6699 1480.00 1444.08 38.47
12559 0.6700 1492.00 1442.94 38.63
12560 0.6700 1488.00 1442.33 38.57
12561 0.6701 1583.00 1441.82 39.79
12562 0.6701 1523.00 1441.38 39.03
12563 0.6702 1461.00 1441.00 38.22
12564 0.6702 1583.00 1440.67 39.79
12565 0.6703 1481.00 1440.36 38.48
12566 0.6703 1591.00 1440.07 39.89
12567 0.6704 1457.00 1439.78 38.17
12568 0.6705 1457.00 1439.51 38.17
12569 0.6705 1524.00 1439.26 39.04
12570 0.6706 1515.00 1439.05 38.92
12571 0.6706 1556.00 1438.94 39.45
12572 0.6707 1518.00 1438.92 38.96
12573 0.6707 1585.00 1439.06 39.81
12574 0.6708 1561.00 1439.38 39.51
12575 0.6708 1482.00 1439.97 38.50
12576 0.6709 1514.00 1440.78 38.91
12577 0.6709 1529.00 1441.85 39.10
12578 0.6710 1442.00 1443.19 37.97
12579 0.6710 1529.00 1444.78 39.10
12580 0.6711 1520.00 1446.60 38.99
12581 0.6711 1438.00 1448.62 37.92
12582 0.6712 1456.00 1450.83 38.16
12583 0.6712 1466.00 1453.18 38.29
12584 0.6713 1466.00 1455.67 38.29
12585 0.6713 1488.00 1458.24 38.57
12586 0.6714 1494.00 1461.00 38.65
12587 0.6714 1466.00 1463.93 38.29
12588 0.6715 1440.00 1467.11 37.95
12589 0.6716 1497.00 1470.48 38.69
12590 0.6716 1506.00 1473.78 38.81
12591 0.6717 1451.00 1476.88 38.09
12592 0.6717 1432.00 1481.25 37.84
12593 0.6718 1462.00 1486.16 38.24
12594 0.6718 1483.00 1491.28 38.51
12595 0.6719 1520.00 1496.73 38.99
12596 0.6719 1451.00 1502.49 38.09
12597 0.6720 1435.00 1508.46 37.88
12598 0.6720 1481.00 1514.55 38.48
12599 0.6721 1565.00 1520.64 39.56
12600 0.6721 1498.00 1526.57 38.70
12601 0.6722 1476.00 1532.05 38.42
12602 0.6722 1507.00 1537.20 38.82
12603 0.6723 1471.00 1541.70 38.35
12604 0.6723 1516.00 1545.40 38.94
12605 0.6724 1511.00 1548.18 38.87
12606 0.6724 1626.00 1549.95 40.32
12607 0.6725 1491.00 1550.68 38.61
12608 0.6725 1532.00 1550.38 39.14
12609 0.6726 1577.00 1548.93 39.71
12610 0.6726 1557.00 1546.89 39.46
12611 0.6727 1462.00 1544.24 38.24
12612 0.6728 1471.00 1541.08 38.35
12613 0.6728 1622.00 1537.61 40.27
12614 0.6729 1544.00 1533.99 39.29
12615 0.6729 1607.00 1530.34 40.09
12616 0.6730 1555.00 1526.91 39.43
12617 0.6730 1603.00 1523.33 40.04
12618 0.6731 1558.00 1519.92 39.47
12619 0.6731 1523.00 1516.58 39.03
12620 0.6732 1610.00 1513.28 40.12
12621 0.6732 1514.00 1509.96 38.91
12622 0.6733 1585.00 1506.57 39.81
12623 0.6733 1546.00 1503.07 39.32
12624 0.6734 1610.00 1499.40 40.12
12625 0.6734 1694.00 1495.66 41.16
12626 0.6735 1614.00 1491.84 40.17
12627 0.6735 1582.00 1488.80 39.77
12628 0.6736 1509.00 1485.00 38.85
12629 0.6736 1492.00 1481.30 38.63
12630 0.6737 1493.00 1477.82 38.64
12631 0.6737 1536.00 1474.61 39.19
12632 0.6738 1545.00 1471.75 39.31
12633 0.6739 1505.00 1469.30 38.79
12634 0.6739 1475.00 1467.30 38.41
12635 0.6740 1511.00 1465.17 38.87
12636 0.6740 1564.00 1464.17 39.55
12637 0.6741 1386.00 1463.70 37.23
12638 0.6741 1497.00 1463.75 38.69
12639 0.6742 1473.00 1464.32 38.38
12640 0.6742 1444.00 1465.42 38.00
12641 0.6743 1424.00 1467.02 37.74
12642 0.6743 1457.00 1469.12 38.17
12643 0.6744 1481.00 1472.92 38.48
12644 0.6744 1526.00 1475.95 39.06
12645 0.6745 1495.00 1479.45 38.67
12646 0.6745 1521.00 1483.36 39.00
12647 0.6746 1498.00 1487.72 38.70
12648 0.6746 1457.00 1492.31 38.17
12649 0.6747 1463.00 1497.16 38.25
12650 0.6747 1554.00 1502.19 39.42
12651 0.6748 1485.00 1507.31 38.54
12652 0.6748 1486.00 1512.41 38.55
12653 0.6749 1494.00 1517.39 38.65
12654 0.6750 1516.00 1522.14 38.94
12655 0.6750 1515.00 1526.54 38.92
12656 0.6751 1507.00 1530.48 38.82
12657 0.6751 1527.00 1533.89 39.08
12658 0.6752 1459.00 1536.71 38.20
12659 0.6752 1481.00 1538.90 38.48
12660 0.6753 1405.00 1540.48 37.48
12661 0.6753 1459.00 1541.46 38.20
12662 0.6754 1460.00 1541.91 38.21
12663 0.6754 1516.00 1541.88 38.94
12664 0.6755 1573.00 1541.44 39.66
12665 0.6755 1548.00 1540.63 39.34
12666 0.6756 1522.00 1539.48 39.01
12667 0.6756 1509.00 1538.00 38.85
12668 0.6757 1537.00 1536.11 39.20
12669 0.6757 1504.00 1533.89 38.78
12670 0.6758 1445.00 1531.17 38.01
12671 0.6758 1484.00 1528.14 38.52
12672 0.6759 1562.00 1524.65 39.52
12673 0.6759 1511.00 1520.74 38.87
12674 0.6760 1496.00 1516.42 38.68
12675 0.6761 1554.00 1511.74 39.42
12676 0.6761 1515.00 1506.74 38.92
12677 0.6762 1432.00 1501.46 37.84
12678 0.6762 1508.00 1496.08 38.83
12679 0.6763 1432.00 1490.58 37.84
12680 0.6763 1499.00 1485.00 38.72
12681 0.6764 1403.00 1479.54 37.46
12682 0.6764 1484.00 1474.09 38.52
12683 0.6765 1463.00 1468.75 38.25
12684 0.6765 1464.00 1463.57 38.26
12685 0.6766 1496.00 1458.57 38.68
12686 0.6766 1448.00 1453.80 38.05
12687 0.6767 1439.00 1449.27 37.93
12688 0.6767 1446.00 1445.00 38.03
12689 0.6768 1568.00 1441.02 39.60
12690 0.6768 1507.00 1437.32 38.82
12691 0.6769 1469.00 1433.89 38.33
12692 0.6769 1431.00 1430.73 37.83
12693 0.6770 1465.00 1427.80 38.28
12694 0.6770 1455.00 1425.08 38.14
12695 0.6771 1428.00 1421.92 37.79
12696 0.6772 1526.00 1419.65 39.06
12697 0.6772 1507.00 1417.33 38.82
12698 0.6773 1501.00 1415.10 38.74
12699 0.6773 1411.00 1412.92 37.56
12700 0.6774 1431.00 1410.80 37.83
12701 0.6774 1445.00 1408.69 38.01
12702 0.6775 1419.00 1406.70 37.67
12703 0.6775 1453.00 1404.79 38.12
12704 0.6776 1474.00 1402.97 38.39
12705 0.6776 1471.00 1401.26 38.35
12706 0.6777 1421.00 1399.66 37.70
12707 0.6777 1430.00 1398.15 37.82
12708 0.6778 1391.00 1396.78 37.30
12709 0.6778 1498.00 1395.42 38.70
12710 0.6779 1477.00 1393.69 38.43
12711 0.6779 1469.00 1392.38 38.33
12712 0.6780 1466.00 1391.03 38.29
12713 0.6780 1421.00 1389.63 37.70
12714 0.6781 1454.00 1388.15 38.13
12715 0.6781 1481.00 1386.57 38.48
12716 0.6782 1453.00 1384.89 38.12
12717 0.6783 1526.00 1383.12 39.06
12718 0.6783 1458.00 1381.26 38.18
12719 0.6784 1443.00 1379.34 37.99
12720 0.6784 1429.00 1377.85 37.80
12721 0.6785 1501.00 1375.89 38.74
12722 0.6785 1465.00 1373.64 38.28
12723 0.6786 1451.00 1371.77 38.09
12724 0.6786 1369.00 1369.99 37.00
12725 0.6787 1446.00 1368.32 38.03
12726 0.6787 1383.00 1366.79 37.19
12727 0.6788 1457.00 1365.41 38.17
12728 0.6788 1442.00 1364.19 37.97
12729 0.6789 1434.00 1363.07 37.87
12730 0.6789 1389.00 1362.20 37.27
12731 0.6790 1457.00 1361.51 38.17
12732 0.6790 1483.00 1361.16 38.51
12733 0.6791 1408.00 1360.69 37.52
12734 0.6791 1450.00 1360.48 38.08
12735 0.6792 1374.00 1360.45 37.07
12736 0.6792 1452.00 1360.65 38.11
12737 0.6793 1453.00 1361.00 38.12
12738 0.6794 1465.00 1361.52 38.28
12739 0.6794 1392.00 1362.18 37.31
12740 0.6795 1506.00 1362.99 38.81
12741 0.6795 1433.00 1363.95 37.85
12742 0.6796 1443.00 1365.08 37.99
12743 0.6796 1488.00 1366.29 38.57
12744 0.6797 1445.00 1367.61 38.01
12745 0.6797 1476.00 1369.02 38.42
12746 0.6798 1416.00 1370.51 37.63
12747 0.6798 1399.00 1372.06 37.40
12748 0.6799 1390.00 1373.61 37.28
12749 0.6799 1417.00 1375.20 37.64
12750 0.6800 1439.00 1376.60 37.93
12751 0.6800 1504.00 1378.07 38.78
12752 0.6801 1496.00 1379.45 38.68
12753 0.6801 1450.00 1380.67 38.08
12754 0.6802 1425.00 1381.96 37.75
12755 0.6802 1366.00 1382.84 36.96
12756 0.6803 1529.00 1383.53 39.10
12757 0.6803 1537.00 1384.06 39.20
12758 0.6804 1398.00 1384.47 37.39
12759 0.6805 1448.00 1384.80 38.05
12760 0.6805 1368.00 1385.11 36.99
12761 0.6806 1470.00 1385.47 38.34
12762 0.6806 1408.00 1385.95 37.52
12763 0.6807 1395.00 1386.61 37.35
12764 0.6807 1401.00 1387.49 37.43
12765 0.6808 1402.00 1388.65 37.44
12766 0.6808 1489.00 1390.11 38.59
12767 0.6809 1476.00 1391.92 38.42
12768 0.6809 1472.00 1394.03 38.37
12769 0.6810 1433.00 1396.54 37.85
12770 0.6810 1494.00 1399.43 38.65
12771 0.6811 1443.00 1402.58 37.99
12772 0.6811 1479.00 1406.61 38.46
12773 0.6812 1444.00 1410.58 38.00
12774 0.6812 1492.00 1415.87 38.63
12775 0.6813 1430.00 1420.55 37.82
12776 0.6813 1642.00 1425.56 40.52
12777 0.6814 1390.00 1430.85 37.28
12778 0.6814 1541.00 1436.42 39.26
12779 0.6815 1476.00 1442.24 38.42
12780 0.6816 1487.00 1448.27 38.56
12781 0.6816 1585.00 1454.47 39.81
12782 0.6817 1424.00 1460.80 37.74
12783 0.6817 1506.00 1467.21 38.81
12784 0.6818 1466.00 1473.63 38.29
12785 0.6818 1460.00 1479.97 38.21
12786 0.6819 1467.00 1486.21 38.30
12787 0.6819 1480.00 1492.27 38.47
12788 0.6820 1459.00 1498.15 38.20
12789 0.6820 1546.00 1503.54 39.32
12790 0.6821 1515.00 1508.47 38.92
12791 0.6821 1462.00 1512.83 38.24
12792 0.6822 1557.00 1516.56 39.46
12793 0.6822 1506.00 1519.61 38.81
12794 0.6823 1560.00 1521.10 39.50
12795 0.6823 1475.00 1522.84 38.41
12796 0.6824 1421.00 1523.94 37.70
12797 0.6824 1494.00 1524.53 38.65
12798 0.6825 1449.00 1524.69 38.07
12799 0.6825 1509.00 1524.55 38.85
12800 0.6826 1492.00 1524.20 38.63
12801 0.6827 1509.00 1523.71 38.85
12802 0.6827 1527.00 1523.13 39.08
12803 0.6828 1562.00 1522.48 39.52
12804 0.6828 1524.00 1521.72 39.04
12805 0.6829 1589.00 1520.83 39.86
12806 0.6829 1529.00 1519.74 39.10
12807 0.6830 1539.00 1518.38 39.23
12808 0.6830 1576.00 1516.26 39.70
12809 0.6831 1617.00 1514.19 40.21
12810 0.6831 1589.00 1511.72 39.86
12811 0.6832 1525.00 1508.82 39.05
12812 0.6832 1483.00 1505.48 38.51
12813 0.6833 1459.00 1501.72 38.20
12814 0.6833 1509.00 1497.47 38.85
12815 0.6834 1508.00 1492.90 38.83
12816 0.6834 1461.00 1487.89 38.22
12817 0.6835 1462.00 1482.48 38.24
12818 0.6835 1474.00 1476.74 38.39
12819 0.6836 1502.00 1470.71 38.76
12820 0.6836 1452.00 1464.34 38.11
12821 0.6837 1431.00 1457.71 37.83
12822 0.6837 1468.00 1450.89 38.31
12823 0.6838 1466.00 1443.96 38.29
12824 0.6839 1426.00 1437.00 37.76
12825 0.6839 1448.00 1430.09 38.05
12826 0.6840 1423.00 1423.32 37.72
12827 0.6840 1402.00 1416.73 37.44
12828 0.6841 1417.00 1410.52 37.64
12829 0.6841 1384.00 1404.50 37.20
12830 0.6842 1440.00 1398.82 37.95
12831 0.6842 1390.00 1393.61 37.28
12832 0.6843 1379.00 1388.67 37.13
12833 0.6843 1421.00 1384.13 37.70
12834 0.6844 1407.00 1379.97 37.51
12835 0.6844 1415.00 1376.19 37.62
12836 0.6845 1345.00 1372.78 36.67
12837 0.6845 1402.00 1369.70 37.44
12838 0.6846 1419.00 1366.97 37.67
12839 0.6846 1398.00 1364.53 37.39
12840 0.6847 1390.00 1362.40 37.28
12841 0.6847 1360.00 1360.53 36.88
12842 0.6848 1344.00 1358.57 36.66
12843 0.6848 1384.00 1357.19 37.20
12844 0.6849 1356.00 1356.21 36.82
12845 0.6850 1456.00 1354.83 38.16
12846 0.6850 1430.00 1354.03 37.82
12847 0.6851 1455.00 1352.97 38.14
12848 0.6851 1449.00 1352.45 38.07
12849 0.6852 1346.00 1352.04 36.69
12850 0.6852 1433.00 1351.72 37.85
12851 0.6853 1402.00 1351.30 37.44
12852 0.6853 1403.00 1351.12 37.46
12853 0.6854 1403.00 1351.01 37.46
12854 0.6854 1481.00 1350.81 38.48
12855 0.6855 1400.00 1350.82 37.42
12856 0.6855 1363.00 1350.90 36.92
12857 0.6856 1434.00 1351.04 37.87
12858 0.6856 1408.00 1351.29 37.52
12859 0.6857 1461.00 1351.54 38.22
12860 0.6857 1370.00 1351.97 37.01
12861 0.6858 1497.00 1352.50 38.69
12862 0.6858 1453.00 1353.10 38.12
12863 0.6859 1446.00 1353.78 38.03
12864 0.6859 1405.00 1354.47 37.48
12865 0.6860 1389.00 1355.23 37.27
12866 0.6861 1412.00 1356.00 37.58
12867 0.6861 1391.00 1356.76 37.30
12868 0.6862 1425.00 1357.51 37.75
12869 0.6862 1456.00 1358.24 38.16
12870 0.6863 1434.00 1358.94 37.87
12871 0.6863 1454.00 1359.62 38.13
12872 0.6864 1404.00 1360.31 37.47
12873 0.6864 1458.00 1361.03 38.18
12874 0.6865 1439.00 1361.81 37.93
12875 0.6865 1519.00 1362.57 38.97
12876 0.6866 1512.00 1363.64 38.88
12877 0.6866 1465.00 1364.80 38.28
12878 0.6867 1423.00 1366.12 37.72
12879 0.6867 1420.00 1367.60 37.68
12880 0.6868 1380.00 1369.24 37.15
12881 0.6868 1423.00 1371.11 37.72
12882 0.6869 1411.00 1373.15 37.56
12883 0.6869 1489.00 1375.34 38.59
12884 0.6870 1436.00 1377.64 37.89
12885 0.6870 1502.00 1380.02 38.76
12886 0.6871 1507.00 1382.49 38.82
12887 0.6872 1440.00 1384.81 37.95
12888 0.6872 1438.00 1387.15 37.92
12889 0.6873 1484.00 1389.37 38.52
12890 0.6873 1546.00 1391.41 39.32
12891 0.6874 1523.00 1393.22 39.03
12892 0.6874 1524.00 1394.75 39.04
12893 0.6875 1537.00 1395.99 39.20
12894 0.6875 1475.00 1396.87 38.41
12895 0.6876 1491.00 1397.42 38.61
12896 0.6876 1458.00 1398.04 38.18
12897 0.6877 1479.00 1397.98 38.46
12898 0.6877 1461.00 1397.67 38.22
12899 0.6878 1485.00 1397.16 38.54
12900 0.6878 1416.00 1396.49 37.63
12901 0.6879 1454.00 1395.70 38.13
12902 0.6879 1483.00 1394.84 38.51
12903 0.6880 1437.00 1394.07 37.91
12904 0.6880 1468.00 1393.02 38.31
12905 0.6881 1477.00 1392.10 38.43
12906 0.6881 1446.00 1391.22 38.03
12907 0.6882 1474.00 1390.39 38.39
12908 0.6883 1465.00 1389.64 38.28
12909 0.6883 1385.00 1389.01 37.22
12910 0.6884 1436.00 1388.51 37.89
12911 0.6884 1438.00 1388.19 37.92
12912 0.6885 1487.00 1388.06 38.56
12913 0.6885 1402.00 1388.14 37.44
12914 0.6886 1498.00 1388.46 38.70
12915 0.6886 1438.00 1389.03 37.92
12916 0.6887 1504.00 1389.83 38.78
12917 0.6887 1486.00 1390.88 38.55
12918 0.6888 1431.00 1392.17 37.83
12919 0.6888 1391.00 1393.69 37.30
12920 0.6889 1373.00 1395.43 37.05
12921 0.6889 1409.00 1397.19 37.54
12922 0.6890 1422.00 1399.37 37.71
12923 0.6890 1397.00 1401.76 37.38
12924 0.6891 1385.00 1404.43 37.22
12925 0.6891 1380.00 1407.29 37.15
12926 0.6892 1437.00 1410.40 37.91
12927 0.6892 1511.00 1413.79 38.87
12928 0.6893 1443.00 1417.44 37.99
12929 0.6894 1489.00 1421.37 38.59
12930 0.6894 1542.00 1425.53 39.27
12931 0.6895 1406.00 1429.92 37.50
12932 0.6895 1397.00 1434.39 37.38
12933 0.6896 1475.00 1439.00 38.41
12934 0.6896 1522.00 1443.62 39.01
12935 0.6897 1501.00 1448.14 38.74
12936 0.6897 1526.00 1452.50 39.06
12937 0.6898 1563.00 1456.57 39.53
12938 0.6898 1450.00 1460.63 38.08
12939 0.6899 1519.00 1463.96 38.97
12940 0.6899 1534.00 1466.83 39.17
12941 0.6900 1508.00 1469.22 38.83
12942 0.6900 1507.00 1471.09 38.82
12943 0.6901 1520.00 1472.43 38.99
12944 0.6901 1503.00 1473.22 38.77
12945 0.6902 1418.00 1473.44 37.66
12946 0.6902 1504.00 1473.04 38.78
12947 0.6903 1477.00 1471.99 38.43
12948 0.6903 1442.00 1470.24 37.97
12949 0.6904 1491.00 1467.78 38.61
12950 0.6905 1481.00 1464.54 38.48
12951 0.6905 1496.00 1460.61 38.68
12952 0.6906 1483.00 1455.99 38.51
12953 0.6906 1398.00 1450.78 37.39
12954 0.6907 1542.00 1445.07 39.27
12955 0.6907 1404.00 1438.95 37.47
12956 0.6908 1489.00 1432.59 38.59
12957 0.6908 1466.00 1425.92 38.29
12958 0.6909 1480.00 1419.41 38.47
12959 0.6909 1520.00 1412.95 38.99
12960 0.6910 1485.00 1406.70 38.54
12961 0.6910 1416.00 1400.64 37.63
12962 0.6911 1485.00 1394.82 38.54
12963 0.6911 1352.00 1389.28 36.77
12964 0.6912 1431.00 1383.94 37.83
12965 0.6912 1393.00 1378.97 37.32
12966 0.6913 1468.00 1374.26 38.31
12967 0.6913 1330.00 1369.86 36.47
12968 0.6914 1420.00 1365.73 37.68
12969 0.6914 1362.00 1361.86 36.91
12970 0.6915 1446.00 1357.81 38.03
12971 0.6916 1480.00 1354.46 38.47
12972 0.6916 1374.00 1351.35 37.07
12973 0.6917 1462.00 1348.07 38.24
12974 0.6917 1365.00 1345.44 36.95
12975 0.6918 1413.00 1343.11 37.59
12976 0.6918 1335.00 1340.86 36.54
12977 0.6919 1423.00 1338.91 37.72
12978 0.6919 1428.00 1337.17 37.79
12979 0.6920 1434.00 1335.63 37.87
12980 0.6920 1407.00 1334.29 37.51
12981 0.6921 1373.00 1333.10 37.05
12982 0.6921 1381.00 1332.17 37.16
12983 0.6922 1443.00 1331.35 37.99
12984 0.6922 1411.00 1330.66 37.56
12985 0.6923 1422.00 1330.10 37.71
12986 0.6923 1335.00 1329.65 36.54
12987 0.6924 1436.00 1329.31 37.89
12988 0.6924 1385.00 1329.05 37.22
12989 0.6925 1402.00 1328.89 37.44
12990 0.6925 1356.00 1328.80 36.82
12991 0.6926 1350.00 1328.80 36.74
12992 0.6927 1327.00 1328.86 36.43
12993 0.6927 1360.00 1329.02 36.88
12994 0.6928 1388.00 1329.32 37.26
12995 0.6928 1351.00 1329.70 36.76
12996 0.6929 1383.00 1330.17 37.19
12997 0.6929 1350.00 1330.45 36.74
12998 0.6930 1346.00 1331.12 36.69
12999 0.6930 1394.00 1331.87 37.34
13000 0.6931 1445.00 1332.68 38.01
13001 0.6931 1325.00 1333.54 36.40
13002 0.6932 1340.00 1334.43 36.61
13003 0.6932 1342.00 1335.24 36.63
13004 0.6933 1407.00 1336.13 37.51
13005 0.6933 1399.00 1336.99 37.40
13006 0.6934 1302.00 1337.82 36.08
13007 0.6934 1421.00 1338.62 37.70
13008 0.6935 1363.00 1338.91 36.92
13009 0.6935 1413.00 1339.67 37.59
13010 0.6936 1347.00 1340.49 36.70
13011 0.6936 1407.00 1341.27 37.51
13012 0.6937 1375.00 1342.06 37.08
13013 0.6938 1393.00 1342.89 37.32
13014 0.6938 1482.00 1343.73 38.50
13015 0.6939 1325.00 1344.59 36.40
13016 0.6939 1421.00 1345.43 37.70
13017 0.6940 1420.00 1346.25 37.68
13018 0.6940 1396.00 1347.00 37.36
13019 0.6941 1416.00 1347.66 37.63
13020 0.6941 1390.00 1348.18 37.28
13021 0.6942 1381.00 1348.52 37.16
13022 0.6942 1456.00 1348.66 38.16
13023 0.6943 1425.00 1349.05 37.75
13024 0.6943 1433.00 1348.75 37.85
13025 0.6944 1382.00 1348.15 37.18
13026 0.6944 1356.00 1347.39 36.82
13027 0.6945 1464.00 1346.43 38.26
13028 0.6945 1422.00 1345.30 37.71
13029 0.6946 1406.00 1344.03 37.50
13030 0.6946 1348.00 1342.69 36.72
13031 0.6947 1392.00 1341.30 37.31
13032 0.6947 1397.00 1339.91 37.38
13033 0.6948 1384.00 1338.55 37.20
13034 0.6949 1408.00 1337.27 37.52
13035 0.6949 1420.00 1336.31 37.68
13036 0.6950 1490.00 1335.27 38.60
13037 0.6950 1447.00 1334.37 38.04
13038 0.6951 1458.00 1333.63 38.18
13039 0.6951 1445.00 1333.06 38.01
13040 0.6952 1389.00 1332.67 37.27
13041 0.6952 1413.00 1332.46 37.59
13042 0.6953 1441.00 1332.42 37.96
13043 0.6953 1443.00 1332.49 37.99
13044 0.6954 1340.00 1332.75 36.61
13045 0.6954 1403.00 1333.15 37.46
13046 0.6955 1479.00 1333.67 38.46
13047 0.6955 1464.00 1334.34 38.26
13048 0.6956 1502.00 1335.09 38.76
13049 0.6956 1486.00 1335.94 38.55
13050 0.6957 1497.00 1336.82 38.69
13051 0.6957 1433.00 1337.89 37.85
13052 0.6958 1498.00 1339.09 38.70
13053 0.6958 1446.00 1340.40 38.03
13054 0.6959 1510.00 1341.85 38.86
13055 0.6959 1446.00 1343.41 38.03
13056 0.6960 1398.00 1345.09 37.39
13057 0.6961 1325.00 1346.87 36.40
13058 0.6961 1330.00 1348.72 36.47
13059 0.6962 1437.00 1350.62 37.91
13060 0.6962 1345.00 1352.51 36.67
13061 0.6963 1416.00 1354.37 37.63
13062 0.6963 1407.00 1356.12 37.51
13063 0.6964 1435.00 1357.74 37.88
13064 0.6964 1345.00 1359.16 36.67
13065 0.6965 1390.00 1360.35 37.28
13066 0.6965 1465.00 1361.25 38.28
13067 0.6966 1448.00 1361.78 38.05
13068 0.6966 1450.00 1362.01 38.08
13069 0.6967 1457.00 1361.84 38.17
13070 0.6967 1395.00 1361.29 37.35
13071 0.6968 1446.00 1360.34 38.03
13072 0.6968 1439.00 1359.01 37.93
13073 0.6969 1479.00 1357.33 38.46
13074 0.6969 1400.00 1355.34 37.42
13075 0.6970 1482.00 1353.10 38.50
13076 0.6970 1373.00 1350.67 37.05
13077 0.6971 1397.00 1348.11 37.38
13078 0.6972 1466.00 1345.47 38.29
13079 0.6972 1457.00 1342.81 38.17
13080 0.6973 1510.00 1340.04 38.86
13081 0.6973 1530.00 1337.50 39.12
13082 0.6974 1457.00 1335.08 38.17
13083 0.6974 1440.00 1332.79 37.95
13084 0.6975 1346.00 1330.69 36.69
13085 0.6975 1371.00 1328.39 37.03
13086 0.6976 1402.00 1326.63 37.44
13087 0.6976 1386.00 1325.09 37.23
13088 0.6977 1385.00 1323.72 37.22
13089 0.6977 1418.00 1322.51 37.66
13090 0.6978 1366.00 1321.45 36.96
13091 0.6978 1480.00 1320.51 38.47
13092 0.6979 1364.00 1319.56 36.93
13093 0.6979 1511.00 1318.84 38.87
13094 0.6980 1336.00 1318.21 36.55
13095 0.6980 1326.00 1317.67 36.41
13096 0.6981 1316.00 1317.23 36.28
13097 0.6981 1440.00 1316.88 37.95
13098 0.6982 1428.00 1316.64 37.79
13099 0.6983 1367.00 1316.56 36.97
13100 0.6983 1480.00 1316.55 38.47
13101 0.6984 1387.00 1316.66 37.24
13102 0.6984 1404.00 1316.89 37.47
13103 0.6985 1445.00 1317.25 38.01
13104 0.6985 1395.00 1317.71 37.35
13105 0.6986 1365.00 1318.29 36.95
13106 0.6986 1325.00 1318.95 36.40
13107 0.6987 1372.00 1319.61 37.04
13108 0.6987 1330.00 1320.41 36.47
13109 0.6988 1349.00 1321.33 36.73
13110 0.6988 1360.00 1322.17 36.88
13111 0.6989 1362.00 1322.95 36.91
13112 0.6989 1356.00 1323.69 36.82
13113 0.6990 1425.00 1324.31 37.75
13114 0.6990 1352.00 1324.78 36.77
13115 0.6991 1472.00 1325.08 38.37
13116 0.6991 1367.00 1325.16 36.97
13117 0.6992 1340.00 1325.01 36.61
13118 0.6992 1324.00 1324.61 36.39
13119 0.6993 1434.00 1323.70 37.87
13120 0.6994 1348.00 1322.81 36.72
13121 0.6994 1365.00 1321.71 36.95
13122 0.6995 1336.00 1320.32 36.55
13123 0.6995 1394.00 1318.88 37.34
13124 0.6996 1362.00 1317.32 36.91
13125 0.6996 1374.00 1315.70 37.07
13126 0.6997 1395.00 1314.04 37.35
13127 0.6997 1323.00 1312.40 36.37
13128 0.6998 1422.00 1310.81 37.71
13129 0.6998 1421.00 1309.30 37.70
13130 0.6999 1402.00 1307.88 37.44
13131 0.6999 1419.00 1306.46 37.67
13132 0.7000 1411.00 1305.81 37.56
13133 0.7000 1380.00 1304.75 37.15
13134 0.7001 1330.00 1303.87 36.47
13135 0.7001 1344.00 1303.12 36.66
13136 0.7002 1336.00 1302.51 36.55
13137 0.7002 1405.00 1302.02 37.48
13138 0.7003 1314.00 1301.66 36.25
13139 0.7003 1328.00 1301.42 36.44
13140 0.7004 1376.00 1300.59 37.09
13141 0.7005 1379.00 1300.55 37.13
13142 0.7005 1327.00 1300.60 36.43
13143 0.7006 1393.00 1300.73 37.32
13144 0.7006 1383.00 1300.92 37.19
13145 0.7007 1323.00 1301.18 36.37
13146 0.7007 1330.00 1301.48 36.47
13147 0.7008 1355.00 1301.97 36.81
13148 0.7008 1278.00 1302.33 35.75
13149 0.7009 1333.00 1302.67 36.51
13150 0.7009 1356.00 1303.03 36.82
13151 0.7010 1363.00 1303.38 36.92
13152 0.7010 1343.00 1303.70 36.65
13153 0.7011 1373.00 1304.00 37.05
13154 0.7011 1309.00 1304.24 36.18
13155 0.7012 1405.00 1304.35 37.48
13156 0.7012 1355.00 1304.52 36.81
13157 0.7013 1411.00 1304.67 37.56
13158 0.7013 1387.00 1304.79 37.24
13159 0.7014 1325.00 1304.93 36.40
13160 0.7014 1368.00 1305.07 36.99
13161 0.7015 1410.00 1305.24 37.55
13162 0.7016 1331.00 1305.41 36.48
13163 0.7016 1339.00 1305.63 36.59
13164 0.7017 1421.00 1305.86 37.70
13165 0.7017 1370.00 1306.90 37.01
13166 0.7018 1382.00 1307.15 37.18
13167 0.7018 1337.00 1307.37 36.56
13168 0.7019 1402.00 1308.20 37.44
13169 0.7019 1454.00 1308.38 38.13
13170 0.7020 1397.00 1308.52 37.38
13171 0.7020 1388.00 1308.62 37.26
13172 0.7021 1395.00 1308.70 37.35
13173 0.7021 1405.00 1308.75 37.48
13174 0.7022 1406.00 1308.80 37.50
13175 0.7022 1382.00 1308.87 37.18
13176 0.7023 1386.00 1308.97 37.23
13177 0.7023 1349.00 1309.12 36.73
13178 0.7024 1400.00 1309.33 37.42
13179 0.7024 1397.00 1309.61 37.38
13180 0.7025 1312.00 1309.97 36.22
13181 0.7025 1373.00 1310.41 37.05
13182 0.7026 1399.00 1311.10 37.40
13183 0.7027 1342.00 1311.71 36.63
13184 0.7027 1316.00 1312.41 36.28
13185 0.7028 1399.00 1313.17 37.40
13186 0.7028 1315.00 1314.07 36.26
13187 0.7029 1422.00 1315.07 37.71
13188 0.7029 1339.00 1316.18 36.59
13189 0.7030 1341.00 1317.42 36.62
13190 0.7030 1288.00 1318.78 35.89
13191 0.7031 1347.00 1320.30 36.70
13192 0.7031 1359.00 1321.97 36.86
13193 0.7032 1303.00 1323.80 36.10
13194 0.7032 1345.00 1325.78 36.67
13195 0.7033 1419.00 1327.90 37.67
13196 0.7033 1362.00 1330.18 36.91
13197 0.7034 1350.00 1332.61 36.74
13198 0.7034 1438.00 1335.17 37.92
13199 0.7035 1342.00 1337.81 36.63
13200 0.7035 1269.00 1340.57 35.62
13201 0.7036 1401.00 1343.40 37.43
13202 0.7036 1349.00 1346.30 36.73
13203 0.7037 1470.00 1349.15 38.34
13204 0.7038 1438.00 1351.94 37.92
13205 0.7038 1447.00 1354.61 38.04
13206 0.7039 1406.00 1357.08 37.50
13207 0.7039 1367.00 1359.10 36.97
13208 0.7040 1372.00 1360.98 37.04
13209 0.7040 1369.00 1362.35 37.00
13210 0.7041 1401.00 1363.34 37.43
13211 0.7041 1453.00 1363.79 38.12
13212 0.7042 1414.00 1363.67 37.60
13213 0.7042 1421.00 1362.96 37.70
13214 0.7043 1343.00 1361.93 36.65
13215 0.7043 1397.00 1360.02 37.38
13216 0.7044 1388.00 1357.65 37.26
13217 0.7044 1371.00 1354.79 37.03
13218 0.7045 1301.00 1351.53 36.07
13219 0.7045 1387.00 1347.96 37.24
13220 0.7046 1412.00 1344.16 37.58
13221 0.7046 1404.00 1340.20 37.47
13222 0.7047 1332.00 1336.20 36.50
13223 0.7047 1306.00 1332.22 36.14
13224 0.7048 1233.00 1328.32 35.11
13225 0.7049 1435.00 1324.55 37.88
13226 0.7049 1297.00 1320.99 36.01
13227 0.7050 1365.00 1317.58 36.95
13228 0.7050 1329.00 1314.38 36.46
13229 0.7051 1336.00 1311.42 36.55
13230 0.7051 1292.00 1308.57 35.94
13231 0.7052 1234.00 1306.01 35.13
13232 0.7052 1347.00 1303.64 36.70
13233 0.7053 1275.00 1301.39 35.71
13234 0.7053 1385.00 1299.38 37.22
13235 0.7054 1272.00 1297.50 35.67
13236 0.7054 1354.00 1295.75 36.80
13237 0.7055 1311.00 1294.18 36.21
13238 0.7055 1364.00 1292.74 36.93
13239 0.7056 1313.00 1291.41 36.24
13240 0.7056 1309.00 1290.20 36.18
13241 0.7057 1414.00 1289.09 37.60
13242 0.7057 1271.00 1288.08 35.65
13243 0.7058 1355.00 1287.17 36.81
13244 0.7058 1259.00 1286.35 35.48
13245 0.7059 1319.00 1285.57 36.32
13246 0.7060 1328.00 1284.92 36.44
13247 0.7060 1356.00 1284.34 36.82
13248 0.7061 1378.00 1283.63 37.12
13249 0.7061 1320.00 1283.35 36.33
13250 0.7062 1277.00 1282.99 35.74
13251 0.7062 1307.00 1282.63 36.15
13252 0.7063 1399.00 1282.39 37.40
13253 0.7063 1291.00 1282.21 35.93
13254 0.7064 1395.00 1282.09 37.35
13255 0.7064 1326.00 1282.01 36.41
13256 0.7065 1210.00 1281.94 34.79
13257 0.7065 1266.00 1281.97 35.58
13258 0.7066 1284.00 1282.06 35.83
13259 0.7066 1349.00 1282.33 36.73
13260 0.7067 1250.00 1282.53 35.36
13261 0.7067 1339.00 1283.22 36.59
13262 0.7068 1281.00 1283.53 35.79
13263 0.7068 1406.00 1283.89 37.50
13264 0.7069 1217.00 1284.20 34.89
13265 0.7069 1395.00 1284.68 37.35
13266 0.7070 1323.00 1285.22 36.37
13267 0.7071 1247.00 1285.83 35.31
13268 0.7071 1253.00 1286.50 35.40
13269 0.7072 1258.00 1287.24 35.47
13270 0.7072 1264.00 1288.03 35.55
13271 0.7073 1334.00 1288.92 36.52
13272 0.7073 1318.00 1289.88 36.30
13273 0.7074 1304.00 1290.92 36.11
13274 0.7074 1398.00 1292.03 37.39
13275 0.7075 1303.00 1293.24 36.10
13276 0.7075 1322.00 1294.51 36.36
13277 0.7076 1266.00 1295.87 35.58
13278 0.7076 1251.00 1297.32 35.37
13279 0.7077 1307.00 1298.86 36.15
13280 0.7077 1305.00 1300.47 36.12
13281 0.7078 1343.00 1302.16 36.65
13282 0.7078 1254.00 1303.92 35.41
13283 0.7079 1359.00 1305.76 36.86
13284 0.7079 1314.00 1308.16 36.25
13285 0.7080 1328.00 1310.12 36.44
13286 0.7080 1368.00 1312.18 36.99
13287 0.7081 1380.00 1314.25 37.15
13288 0.7081 1316.00 1316.37 36.28
13289 0.7082 1294.00 1318.56 35.97
13290 0.7083 1342.00 1320.81 36.63
13291 0.7083 1337.00 1323.12 36.56
13292 0.7084 1353.00 1325.50 36.78
13293 0.7084 1307.00 1327.96 36.15
13294 0.7085 1326.00 1330.49 36.41
13295 0.7085 1235.00 1333.08 35.14
13296 0.7086 1368.00 1335.74 36.99
13297 0.7086 1285.00 1338.46 35.85
13298 0.7087 1358.00 1341.23 36.85
13299 0.7087 1293.00 1344.05 35.96
13300 0.7088 1317.00 1346.90 36.29
13301 0.7088 1349.00 1349.80 36.73
13302 0.7089 1326.00 1352.90 36.41
13303 0.7089 1333.00 1355.89 36.51
13304 0.7090 1353.00 1358.91 36.78
13305 0.7090 1392.00 1361.95 37.31
13306 0.7091 1331.00 1365.06 36.48
13307 0.7091 1334.00 1368.21 36.52
13308 0.7092 1292.00 1371.40 35.94
13309 0.7092 1331.00 1374.48 36.48
13310 0.7093 1318.00 1377.69 36.30
13311 0.7094 1299.00 1380.87 36.04
13312 0.7094 1358.00 1383.97 36.85
13313 0.7095 1339.00 1386.95 36.59
13314 0.7095 1346.00 1389.76 36.69
13315 0.7096 1419.00 1392.33 37.67
13316 0.7096 1420.00 1394.65 37.68
13317 0.7097 1401.00 1396.69 37.43
13318 0.7097 1383.00 1398.43 37.19
13319 0.7098 1390.00 1399.90 37.28
13320 0.7098 1368.00 1402.17 36.99
13321 0.7099 1447.00 1403.23 38.04
13322 0.7099 1428.00 1404.19 37.79
13323 0.7100 1414.00 1405.13 37.60
13324 0.7100 1356.00 1406.13 36.82
13325 0.7101 1405.00 1407.28 37.48
13326 0.7101 1383.00 1408.63 37.19
13327 0.7102 1436.00 1410.24 37.89
13328 0.7102 1471.00 1412.15 38.35
13329 0.7103 1442.00 1414.37 37.97
13330 0.7103 1486.00 1416.90 38.55
13331 0.7104 1356.00 1419.70 36.82
13332 0.7105 1383.00 1423.13 37.19
13333 0.7105 1516.00 1426.40 38.94
13334 0.7106 1337.00 1429.76 36.56
13335 0.7106 1504.00 1433.20 38.78
13336 0.7107 1463.00 1436.59 38.25
13337 0.7107 1500.00 1439.85 38.73
13338 0.7108 1487.00 1442.85 38.56
13339 0.7108 1501.00 1445.53 38.74
13340 0.7109 1442.00 1447.80 37.97
13341 0.7109 1429.00 1449.60 37.80
13342 0.7110 1440.00 1450.90 37.95
13343 0.7110 1320.00 1451.65 36.33
13344 0.7111 1465.00 1451.94 38.28
13345 0.7111 1433.00 1451.77 37.85
13346 0.7112 1442.00 1451.15 37.97
13347 0.7112 1400.00 1450.22 37.42
13348 0.7113 1410.00 1448.93 37.55
13349 0.7113 1474.00 1447.42 38.39
13350 0.7114 1471.00 1445.67 38.35
13351 0.7114 1565.00 1443.67 39.56
13352 0.7115 1450.00 1441.49 38.08
13353 0.7116 1457.00 1438.98 38.17
13354 0.7116 1482.00 1436.18 38.50
13355 0.7117 1420.00 1433.07 37.68
13356 0.7117 1411.00 1429.66 37.56
13357 0.7118 1416.00 1425.89 37.63
13358 0.7118 1416.00 1421.91 37.63
13359 0.7119 1402.00 1417.70 37.44
13360 0.7119 1463.00 1413.26 38.25
13361 0.7120 1429.00 1408.73 37.80
13362 0.7120 1331.00 1404.13 36.48
13363 0.7121 1396.00 1399.53 37.36
13364 0.7121 1287.00 1394.97 35.87
13365 0.7122 1444.00 1390.52 38.00
13366 0.7122 1485.00 1386.25 38.54
13367 0.7123 1494.00 1382.15 38.65
13368 0.7123 1321.00 1378.26 36.35
13369 0.7124 1323.00 1374.62 36.37
13370 0.7124 1284.00 1371.25 35.83
13371 0.7125 1349.00 1368.17 36.73
13372 0.7125 1396.00 1365.38 37.36
13373 0.7126 1372.00 1362.87 37.04
13374 0.7127 1347.00 1360.66 36.70
13375 0.7127 1297.00 1358.74 36.01
13376 0.7128 1388.00 1357.06 37.26
13377 0.7128 1411.00 1355.61 37.56
13378 0.7129 1408.00 1354.39 37.52
13379 0.7129 1398.00 1353.35 37.39
13380 0.7130 1353.00 1352.49 36.78
13381 0.7130 1409.00 1351.74 37.54
13382 0.7131 1392.00 1351.15 37.31
13383 0.7131 1449.00 1350.67 38.07
13384 0.7132 1380.00 1350.28 37.15
13385 0.7132 1431.00 1349.97 37.83
13386 0.7133 1340.00 1349.70 36.61
13387 0.7133 1362.00 1349.46 36.91
13388 0.7134 1411.00 1349.21 37.56
13389 0.7134 1369.00 1348.92 37.00
13390 0.7135 1477.00 1348.56 38.43
13391 0.7135 1458.00 1348.10 38.18
13392 0.7136 1453.00 1347.57 38.12
13393 0.7136 1432.00 1346.83 37.84
13394 0.7137 1443.00 1345.97 37.99
13395 0.7138 1375.00 1344.98 37.08
13396 0.7138 1429.00 1344.33 37.80
13397 0.7139 1437.00 1343.14 37.91
13398 0.7139 1401.00 1341.91 37.43
13399 0.7140 1454.00 1340.67 38.13
13400 0.7140 1400.00 1339.23 37.42
13401 0.7141 1460.00 1338.07 38.21
13402 0.7141 1387.00 1336.99 37.24
13403 0.7142 1346.00 1336.01 36.69
13404 0.7142 1378.00 1334.77 37.12
13405 0.7143 1373.00 1334.06 37.05
13406 0.7143 1348.00 1333.49 36.72
13407 0.7144 1372.00 1333.08 37.04
13408 0.7144 1375.00 1332.84 37.08
13409 0.7145 1324.00 1332.74 36.39
13410 0.7145 1359.00 1332.84 36.86
13411 0.7146 1416.00 1333.18 37.63
13412 0.7146 1335.00 1333.66 36.54
13413 0.7147 1347.00 1334.33 36.70
13414 0.7147 1355.00 1335.20 36.81
13415 0.7148 1332.00 1336.26 36.50
13416 0.7149 1318.00 1337.49 36.30
13417 0.7149 1312.00 1338.89 36.22
13418 0.7150 1377.00 1340.45 37.11
13419 0.7150 1343.00 1342.48 36.65
13420 0.7151 1353.00 1344.26 36.78
13421 0.7151 1314.00 1346.12 36.25
13422 0.7152 1375.00 1348.02 37.08
13423 0.7152 1316.00 1349.93 36.28
13424 0.7153 1323.00 1351.85 36.37
13425 0.7153 1350.00 1353.75 36.74
13426 0.7154 1374.00 1355.62 37.07
13427 0.7154 1440.00 1357.49 37.95
13428 0.7155 1303.00 1359.34 36.10
13429 0.7155 1344.00 1361.21 36.66
13430 0.7156 1298.00 1363.11 36.03
13431 0.7156 1342.00 1365.06 36.63
13432 0.7157 1352.00 1367.11 36.77
13433 0.7157 1344.00 1369.30 36.66
13434 0.7158 1411.00 1371.58 37.56
13435 0.7158 1308.00 1374.01 36.17
13436 0.7159 1372.00 1376.62 37.04
13437 0.7160 1383.00 1379.40 37.19
13438 0.7160 1397.00 1382.37 37.38
13439 0.7161 1376.00 1385.53 37.09
13440 0.7161 1424.00 1388.87 37.74
13441 0.7162 1504.00 1392.38 38.78
13442 0.7162 1443.00 1396.02 37.99
13443 0.7163 1392.00 1399.75 37.31
13444 0.7163 1461.00 1403.52 38.22
13445 0.7164 1357.00 1407.27 36.84
13446 0.7164 1381.00 1410.93 37.16
13447 0.7165 1428.00 1414.42 37.79
13448 0.7165 1410.00 1417.69 37.55
13449 0.7166 1385.00 1420.64 37.22
13450 0.7166 1349.00 1423.21 36.73
13451 0.7167 1414.00 1425.74 37.60
13452 0.7167 1374.00 1427.32 37.07
13453 0.7168 1418.00 1428.30 37.66
13454 0.7168 1343.00 1428.64 36.65
13455 0.7169 1360.00 1428.31 36.88
13456 0.7169 1382.00 1427.29 37.18
13457 0.7170 1422.00 1425.61 37.71
13458 0.7171 1393.00 1423.35 37.32
13459 0.7171 1421.00 1420.58 37.70
13460 0.7172 1454.00 1417.45 38.13
13461 0.7172 1435.00 1414.08 37.88
13462 0.7173 1316.00 1410.61 36.28
13463 0.7173 1406.00 1407.19 37.50
13464 0.7174 1345.00 1404.37 36.67
13465 0.7174 1341.00 1401.39 36.62
13466 0.7175 1374.00 1398.76 37.07
13467 0.7175 1392.00 1396.54 37.31
13468 0.7176 1396.00 1394.77 37.36
13469 0.7176 1361.00 1393.46 36.89
13470 0.7177 1362.00 1392.61 36.91
13471 0.7177 1384.00 1392.22 37.20
13472 0.7178 1440.00 1392.27 37.95
13473 0.7178 1443.00 1392.72 37.99
13474 0.7179 1403.00 1393.55 37.46
13475 0.7179 1432.00 1394.72 37.84
13476 0.7180 1316.00 1396.20 36.28
13477 0.7180 1408.00 1398.10 37.52
13478 0.7181 1381.00 1400.14 37.16
13479 0.7182 1318.00 1402.35 36.30
13480 0.7182 1378.00 1404.89 37.12
13481 0.7183 1389.00 1407.65 37.27
13482 0.7183 1450.00 1410.64 38.08
13483 0.7184 1277.00 1413.82 35.74
13484 0.7184 1295.00 1417.19 35.99
13485 0.7185 1370.00 1420.64 37.01
13486 0.7185 1460.00 1424.14 38.21
13487 0.7186 1292.00 1427.62 35.94
13488 0.7186 1442.00 1430.96 37.97
13489 0.7187 1345.00 1434.00 36.67
13490 0.7187 1342.00 1436.78 36.63
13491 0.7188 1373.00 1439.11 37.05
13492 0.7188 1343.00 1440.90 36.65
13493 0.7189 1356.00 1442.06 36.82
13494 0.7189 1328.00 1442.43 36.44
13495 0.7190 1364.00 1442.18 36.93
13496 0.7190 1357.00 1441.19 36.84
13497 0.7191 1382.00 1439.90 37.18
13498 0.7191 1363.00 1437.53 36.92
13499 0.7192 1397.00 1434.54 37.38
13500 0.7192 1360.00 1431.02 36.88
13501 0.7193 1411.00 1427.03 37.56
13502 0.7194 1383.00 1422.66 37.19
13503 0.7194 1283.00 1418.03 35.82
13504 0.7195 1353.00 1413.20 36.78
13505 0.7195 1325.00 1408.25 36.40
13506 0.7196 1369.00 1403.26 37.00
13507 0.7196 1322.00 1398.29 36.36
13508 0.7197 1385.00 1393.57 37.22
13509 0.7197 1280.00 1388.84 35.78
13510 0.7198 1354.00 1384.28 36.80
13511 0.7198 1358.00 1379.94 36.85
13512 0.7199 1386.00 1375.83 37.23
13513 0.7199 1340.00 1371.95 36.61
13514 0.7200 1343.00 1368.38 36.65
13515 0.7200 1373.00 1364.58 37.05
13516 0.7201 1323.00 1361.34 36.37
13517 0.7201 1378.00 1358.21 37.12
13518 0.7202 1332.00 1355.25 36.50
13519 0.7202 1365.00 1352.39 36.95
13520 0.7203 1339.00 1349.58 36.59
13521 0.7203 1348.00 1346.82 36.72
13522 0.7204 1294.00 1344.07 35.97
13523 0.7205 1227.00 1341.32 35.03
13524 0.7205 1302.00 1338.60 36.08
13525 0.7206 1390.00 1336.01 37.28
13526 0.7206 1348.00 1333.38 36.72
13527 0.7207 1240.00 1330.82 35.21
13528 0.7207 1333.00 1328.32 36.51
13529 0.7208 1278.00 1325.92 35.75
13530 0.7208 1365.00 1323.62 36.95
13531 0.7209 1329.00 1321.44 36.46
13532 0.7209 1327.00 1319.40 36.43
13533 0.7210 1338.00 1318.04 36.58
13534 0.7210 1268.00 1316.30 35.61
13535 0.7211 1317.00 1314.72 36.29
13536 0.7211 1300.00 1313.28 36.06
13537 0.7212 1351.00 1312.01 36.76
13538 0.7212 1351.00 1311.04 36.76
13539 0.7213 1405.00 1310.05 37.48
13540 0.7213 1316.00 1308.59 36.28
13541 0.7214 1335.00 1307.88 36.54
13542 0.7214 1294.00 1307.30 35.97
13543 0.7215 1244.00 1306.83 35.27
13544 0.7216 1342.00 1306.49 36.63
13545 0.7216 1302.00 1306.27 36.08
13546 0.7217 1355.00 1306.64 36.81
13547 0.7217 1354.00 1306.67 36.80
13548 0.7218 1422.00 1306.83 37.71
13549 0.7218 1309.00 1307.12 36.18
13550 0.7219 1365.00 1307.55 36.95
13551 0.7219 1474.00 1308.12 38.39
13552 0.7220 1381.00 1308.84 37.16
13553 0.7220 1358.00 1309.59 36.85
13554 0.7221 1328.00 1310.21 36.44
13555 0.7221 1358.00 1311.40 36.85
13556 0.7222 1358.00 1313.46 36.85
13557 0.7222 1376.00 1314.97 37.09
13558 0.7223 1347.00 1316.64 36.70
13559 0.7223 1333.00 1318.44 36.51
13560 0.7224 1363.00 1320.37 36.92
13561 0.7224 1347.00 1322.37 36.70
13562 0.7225 1416.00 1324.50 37.63
13563 0.7225 1353.00 1326.61 36.78
13564 0.7226 1368.00 1328.82 36.99
13565 0.7227 1271.00 1330.99 35.65
13566 0.7227 1341.00 1333.10 36.62
13567 0.7228 1418.00 1335.09 37.66
13568 0.7228 1323.00 1336.90 36.37
13569 0.7229 1383.00 1338.49 37.19
13570 0.7229 1278.00 1339.81 35.75
13571 0.7230 1347.00 1340.82 36.70
13572 0.7230 1374.00 1341.49 37.07
13573 0.7231 1387.00 1341.79 37.24
13574 0.7231 1310.00 1341.73 36.19
13575 0.7232 1370.00 1341.31 37.01
13576 0.7232 1341.00 1340.50 36.62
13577 0.7233 1345.00 1339.43 36.67
13578 0.7233 1360.00 1338.18 36.88
13579 0.7234 1399.00 1336.76 37.40
13580 0.7234 1329.00 1335.23 36.46
13581 0.7235 1430.00 1333.68 37.82
13582 0.7235 1405.00 1331.98 37.48
13583 0.7236 1254.00 1330.53 35.41
13584 0.7236 1302.00 1329.81 36.08
13585 0.7237 1314.00 1328.63 36.25
13586 0.7238 1346.00 1327.62 36.69
13587 0.7238 1334.00 1326.80 36.52
13588 0.7239 1354.00 1326.17 36.80
13589 0.7239 1302.00 1325.74 36.08
13590 0.7240 1336.00 1325.45 36.55
13591 0.7240 1346.00 1325.42 36.69
13592 0.7241 1320.00 1325.58 36.33
13593 0.7241 1371.00 1325.95 37.03
13594 0.7242 1288.00 1326.62 35.89
13595 0.7242 1277.00 1327.34 35.74
13596 0.7243 1313.00 1328.29 36.24
13597 0.7243 1276.00 1329.40 35.72
13598 0.7244 1423.00 1330.66 37.72
13599 0.7244 1303.00 1332.06 36.10
13600 0.7245 1325.00 1333.73 36.40
13601 0.7245 1318.00 1335.33 36.30
13602 0.7246 1379.00 1336.96 37.13
13603 0.7246 1237.00 1338.48 35.17
13604 0.7247 1352.00 1340.11 36.77
13605 0.7247 1302.00 1341.68 36.08
13606 0.7248 1279.00 1343.13 35.76
13607 0.7249 1292.00 1344.49 35.94
13608 0.7249 1350.00 1345.75 36.74
13609 0.7250 1314.00 1346.89 36.25
13610 0.7250 1252.00 1347.92 35.38
13611 0.7251 1256.00 1348.85 35.44
13612 0.7251 1330.00 1349.72 36.47
13613 0.7252 1364.00 1350.55 36.93
13614 0.7252 1297.00 1351.38 36.01
13615 0.7253 1290.00 1352.24 35.92
13616 0.7253 1250.00 1353.17 35.36
13617 0.7254 1237.00 1354.20 35.17
13618 0.7254 1376.00 1355.49 37.09
13619 0.7255 1297.00 1356.79 36.01
13620 0.7255 1322.00 1358.26 36.36
13621 0.7256 1311.00 1359.92 36.21
13622 0.7256 1244.00 1361.78 35.27
13623 0.7257 1304.00 1363.85 36.11
13624 0.7257 1295.00 1366.13 35.99
13625 0.7258 1275.00 1368.61 35.71
13626 0.7258 1248.00 1371.28 35.33
13627 0.7259 1308.00 1374.12 36.17
13628 0.7260 1298.00 1377.09 36.03
13629 0.7260 1276.00 1380.09 35.72
13630 0.7261 1332.00 1383.17 36.50
13631 0.7261 1418.00 1386.24 37.66
13632 0.7262 1336.00 1388.69 36.55
13633 0.7262 1295.00 1391.48 35.99
13634 0.7263 1357.00 1394.01 36.84
13635 0.7263 1317.00 1396.20 36.29
13636 0.7264 1310.00 1398.03 36.19
13637 0.7264 1172.00 1399.43 34.23
13638 0.7265 1293.00 1400.38 35.96
13639 0.7265 1226.00 1400.87 35.01
13640 0.7266 1328.00 1400.91 36.44
13641 0.7266 1249.00 1400.54 35.34
13642 0.7267 1439.00 1399.79 37.93
13643 0.7267 1401.00 1398.48 37.43
13644 0.7268 1176.00 1397.34 34.29
13645 0.7268 1341.00 1395.79 36.62
13646 0.7269 1292.00 1393.99 35.94
13647 0.7269 1305.00 1392.12 36.12
13648 0.7270 1355.00 1390.19 36.81
13649 0.7271 1359.00 1388.18 36.86
13650 0.7271 1304.00 1386.12 36.11
13651 0.7272 1327.00 1384.02 36.43
13652 0.7272 1247.00 1381.80 35.31
13653 0.7273 1329.00 1379.58 36.46
13654 0.7273 1290.00 1377.43 35.92
13655 0.7274 1273.00 1375.31 35.68
13656 0.7274 1261.00 1373.25 35.51
13657 0.7275 1328.00 1371.69 36.44
13658 0.7275 1265.00 1369.89 35.57
13659 0.7276 1384.00 1368.26 37.20
13660 0.7276 1294.00 1366.85 35.97
13661 0.7277 1272.00 1365.68 35.67
13662 0.7277 1272.00 1364.77 35.67
13663 0.7278 1267.00 1364.12 35.59
13664 0.7278 1246.00 1363.76 35.30
13665 0.7279 1355.00 1363.65 36.81
13666 0.7279 1278.00 1363.85 35.75
13667 0.7280 1256.00 1364.31 35.44
13668 0.7280 1236.00 1365.00 35.16
13669 0.7281 1276.00 1365.92 35.72
13670 0.7282 1273.00 1367.01 35.68
13671 0.7282 1331.00 1368.25 36.48
13672 0.7283 1273.00 1369.60 35.68
13673 0.7283 1286.00 1371.02 35.86
13674 0.7284 1317.00 1372.46 36.29
13675 0.7284 1377.00 1373.88 37.11
13676 0.7285 1268.00 1375.70 35.61
13677 0.7285 1347.00 1377.00 36.70
13678 0.7286 1292.00 1377.91 35.94
13679 0.7286 1282.00 1378.95 35.81
13680 0.7287 1370.00 1379.71 37.01
13681 0.7287 1300.00 1380.37 36.06
13682 0.7288 1257.00 1380.83 35.45
13683 0.7288 1329.00 1380.98 36.46
13684 0.7289 1231.00 1381.01 35.09
13685 0.7289 1272.00 1380.83 35.67
13686 0.7290 1264.00 1380.49 35.55
13687 0.7290 1286.00 1380.02 35.86
13688 0.7291 1296.00 1379.42 36.00
13689 0.7291 1289.00 1378.82 35.90
13690 0.7292 1284.00 1378.61 35.83
13691 0.7293 1214.00 1378.09 34.84
13692 0.7293 1315.00 1377.51 36.26
13693 0.7294 1243.00 1377.23 35.26
13694 0.7294 1236.00 1377.14 35.16
13695 0.7295 1266.00 1377.26 35.58
13696 0.7295 1369.00 1377.62 37.00
13697 0.7296 1331.00 1378.26 36.48
13698 0.7296 1273.00 1378.86 35.68
13699 0.7297 1375.00 1380.11 37.08
13700 0.7297 1158.00 1381.66 34.03
13701 0.7298 1357.00 1383.55 36.84
13702 0.7298 1339.00 1385.76 36.59
13703 0.7299 1249.00 1388.25 35.34
13704 0.7299 1273.00 1391.04 35.68
13705 0.7300 1316.00 1394.08 36.28
13706 0.7300 1246.00 1397.31 35.30
13707 0.7301 1276.00 1400.70 35.72
13708 0.7301 1303.00 1404.19 36.10
13709 0.7302 1281.00 1407.71 35.79
13710 0.7302 1307.00 1411.20 36.15
13711 0.7303 1366.00 1414.59 36.96
13712 0.7304 1275.00 1417.84 35.71
13713 0.7304 1391.00 1420.86 37.30
13714 0.7305 1365.00 1423.63 36.95
13715 0.7305 1357.00 1426.10 36.84
13716 0.7306 1344.00 1428.35 36.66
13717 0.7306 1286.00 1430.22 35.86
13718 0.7307 1308.00 1431.82 36.17
13719 0.7307 1346.00 1433.28 36.69
13720 0.7308 1381.00 1434.46 37.16
13721 0.7308 1393.00 1435.48 37.32
13722 0.7309 1340.00 1436.47 36.61
13723 0.7309 1345.00 1437.45 36.67
13724 0.7310 1433.00 1438.43 37.85
13725 0.7310 1314.00 1439.51 36.25
13726 0.7311 1342.00 1440.67 36.63
13727 0.7311 1306.00 1441.90 36.14
13728 0.7312 1366.00 1443.17 36.96
13729 0.7312 1328.00 1444.45 36.44
13730 0.7313 1451.00 1445.71 38.09
13731 0.7313 1254.00 1446.90 35.41
13732 0.7314 1423.00 1448.00 37.72
13733 0.7314 1398.00 1448.99 37.39
13734 0.7315 1411.00 1449.85 37.56
13735 0.7316 1389.00 1450.60 37.27
13736 0.7316 1431.00 1451.24 37.83
13737 0.7317 1330.00 1451.78 36.47
13738 0.7317 1364.00 1452.24 36.93
13739 0.7318 1380.00 1452.62 37.15
13740 0.7318 1368.00 1453.03 36.99
13741 0.7319 1387.00 1453.26 37.24
13742 0.7319 1437.00 1453.41 37.91
13743 0.7320 1312.00 1453.41 36.22
13744 0.7320 1332.00 1453.33 36.50
13745 0.7321 1324.00 1453.13 36.39
13746 0.7321 1391.00 1452.77 37.30
13747 0.7322 1373.00 1452.23 37.05
13748 0.7322 1376.00 1451.54 37.09
13749 0.7323 1335.00 1450.69 36.54
13750 0.7323 1380.00 1449.67 37.15
13751 0.7324 1377.00 1448.48 37.11
13752 0.7324 1338.00 1447.18 36.58
13753 0.7325 1371.00 1445.67 37.03
13754 0.7325 1373.00 1443.99 37.05
13755 0.7326 1448.00 1442.11 38.05
13756 0.7327 1378.00 1440.73 37.12
13757 0.7327 1290.00 1438.34 35.92
13758 0.7328 1396.00 1435.59 37.36
13759 0.7328 1367.00 1432.45 36.97
13760 0.7329 1360.00 1429.02 36.88
13761 0.7329 1388.00 1424.97 37.26
13762 0.7330 1376.00 1420.38 37.09
13763 0.7330 1464.00 1415.44 38.26
13764 0.7331 1332.00 1410.14 36.50
13765 0.7331 1371.00 1404.56 37.03
13766 0.7332 1386.00 1398.84 37.23
13767 0.7332 1444.00 1393.03 38.00
13768 0.7333 1391.00 1387.24 37.30
13769 0.7333 1334.00 1381.62 36.52
13770 0.7334 1342.00 1376.21 36.63
13771 0.7334 1348.00 1371.08 36.72
13772 0.7335 1401.00 1365.97 37.43
13773 0.7335 1371.00 1361.46 37.03
13774 0.7336 1417.00 1357.28 37.64
13775 0.7336 1382.00 1353.40 37.18
13776 0.7337 1295.00 1349.84 35.99
13777 0.7338 1380.00 1346.58 37.15
13778 0.7338 1359.00 1343.57 36.86
13779 0.7339 1356.00 1340.85 36.82
13780 0.7339 1371.00 1338.32 37.03
13781 0.7340 1296.00 1336.00 36.00
13782 0.7340 1323.00 1333.89 36.37
13783 0.7341 1335.00 1331.97 36.54
13784 0.7341 1306.00 1330.25 36.14
13785 0.7342 1357.00 1328.72 36.84
13786 0.7342 1292.00 1327.38 35.94
13787 0.7343 1321.00 1326.22 36.35
13788 0.7343 1291.00 1325.23 35.93
13789 0.7344 1286.00 1324.40 35.86
13790 0.7344 1258.00 1323.70 35.47
13791 0.7345 1227.00 1323.14 35.03
13792 0.7345 1346.00 1322.69 36.69
13793 0.7346 1313.00 1322.31 36.24
13794 0.7346 1267.00 1321.97 35.59
13795 0.7347 1228.00 1321.71 35.04
13796 0.7347 1274.00 1321.41 35.69
13797 0.7348 1213.00 1321.24 34.83
13798 0.7349 1306.00 1320.93 36.14
13799 0.7349 1253.00 1320.61 35.40
13800 0.7350 1341.00 1320.29 36.62
13801 0.7350 1239.00 1319.76 35.20
13802 0.7351 1193.00 1319.48 34.54
13803 0.7351 1217.00 1319.23 34.89
13804 0.7352 1186.00 1319.05 34.44
13805 0.7352 1300.00 1319.24 36.06
13806 0.7353 1219.00 1319.20 34.91
13807 0.7353 1356.00 1319.39 36.82
13808 0.7354 1210.00 1319.50 34.79
13809 0.7354 1312.00 1319.68 36.22
13810 0.7355 1215.00 1319.91 34.86
13811 0.7355 1223.00 1320.19 34.97
13812 0.7356 1192.00 1320.50 34.53
13813 0.7356 1220.00 1320.85 34.93
13814 0.7357 1284.00 1321.19 35.83
13815 0.7357 1357.00 1321.56 36.84
13816 0.7358 1281.00 1321.86 35.79
13817 0.7358 1313.00 1322.67 36.24
13818 0.7359 1266.00 1323.08 35.58
13819 0.7360 1259.00 1323.44 35.48
13820 0.7360 1311.00 1323.86 36.21
13821 0.7361 1314.00 1324.27 36.25
13822 0.7361 1179.00 1324.50 34.34
13823 0.7362 1271.00 1324.94 35.65
13824 0.7362 1287.00 1325.33 35.87
13825 0.7363 1295.00 1325.72 35.99
13826 0.7363 1235.00 1326.11 35.14
13827 0.7364 1266.00 1326.51 35.58
13828 0.7364 1288.00 1326.94 35.89
13829 0.7365 1191.00 1327.36 34.51
13830 0.7365 1308.00 1327.94 36.17
13831 0.7366 1262.00 1328.64 35.52
13832 0.7366 1202.00 1329.49 34.67
13833 0.7367 1349.00 1330.33 36.73
13834 0.7367 1331.00 1331.54 36.48
13835 0.7368 1246.00 1332.96 35.30
13836 0.7368 1246.00 1334.54 35.30
13837 0.7369 1214.00 1336.42 34.84
13838 0.7369 1344.00 1338.53 36.66
13839 0.7370 1270.00 1340.67 35.64
13840 0.7371 1281.00 1343.25 35.79
13841 0.7371 1204.00 1346.06 34.70
13842 0.7372 1289.00 1349.07 35.90
13843 0.7372 1383.00 1352.31 37.19
13844 0.7373 1375.00 1355.67 37.08
13845 0.7373 1288.00 1359.15 35.89
13846 0.7374 1356.00 1362.58 36.82
13847 0.7374 1280.00 1366.20 35.78
13848 0.7375 1349.00 1369.82 36.73
13849 0.7375 1352.00 1373.39 36.77
13850 0.7376 1194.00 1376.80 34.55
13851 0.7376 1426.00 1380.07 37.76
13852 0.7377 1381.00 1383.04 37.16
13853 0.7377 1284.00 1385.62 35.83
13854 0.7378 1230.00 1387.95 35.07
13855 0.7378 1332.00 1389.88 36.50
13856 0.7379 1325.00 1391.99 36.40
13857 0.7379 1391.00 1392.97 37.30
13858 0.7380 1356.00 1393.45 36.82
13859 0.7380 1365.00 1393.42 36.95
13860 0.7381 1297.00 1392.89 36.01
13861 0.7382 1233.00 1391.90 35.11
13862 0.7382 1322.00 1390.47 36.36
13863 0.7383 1283.00 1388.56 35.82
13864 0.7383 1376.00 1386.41 37.09
13865 0.7384 1360.00 1383.98 36.88
13866 0.7384 1312.00 1381.65 36.22
13867 0.7385 1313.00 1378.84 36.24
13868 0.7385 1258.00 1375.90 35.47
13869 0.7386 1321.00 1372.83 36.35
13870 0.7386 1263.00 1369.76 35.54
13871 0.7387 1218.00 1366.64 34.90
13872 0.7387 1329.00 1363.52 36.46
13873 0.7388 1256.00 1360.40 35.44
13874 0.7388 1312.00 1357.25 36.22
13875 0.7389 1274.00 1354.21 35.69
13876 0.7389 1210.00 1351.26 34.79
13877 0.7390 1259.00 1348.41 35.48
13878 0.7390 1231.00 1345.47 35.09
13879 0.7391 1255.00 1343.12 35.43
13880 0.7391 1308.00 1340.73 36.17
13881 0.7392 1279.00 1338.51 35.76
13882 0.7393 1216.00 1336.50 34.87
13883 0.7393 1192.00 1334.69 34.53
13884 0.7394 1209.00 1333.10 34.77
13885 0.7394 1250.00 1331.80 35.36
13886 0.7395 1245.00 1330.58 35.28
13887 0.7395 1258.00 1329.60 35.47
13888 0.7396 1217.00 1328.81 34.89
13889 0.7396 1354.00 1328.20 36.80
13890 0.7397 1283.00 1327.73 35.82
13891 0.7397 1297.00 1327.41 36.01
13892 0.7398 1313.00 1327.19 36.24
13893 0.7398 1213.00 1327.09 34.83
13894 0.7399 1258.00 1327.04 35.47
13895 0.7399 1205.00 1327.06 34.71
13896 0.7400 1283.00 1327.03 35.82
13897 0.7400 1280.00 1326.96 35.78
13898 0.7401 1248.00 1326.84 35.33
13899 0.7401 1276.00 1326.60 35.72
13900 0.7402 1249.00 1326.25 35.34
13901 0.7402 1217.00 1325.76 34.89
13902 0.7403 1193.00 1325.11 34.54
13903 0.7404 1299.00 1324.27 36.04
13904 0.7404 1371.00 1323.31 37.03
13905 0.7405 1169.00 1322.22 34.19
13906 0.7405 1309.00 1321.02 36.18
13907 0.7406 1199.00 1319.75 34.63
13908 0.7406 1270.00 1318.43 35.64
13909 0.7407 1283.00 1317.16 35.82
13910 0.7407 1281.00 1315.83 35.79
13911 0.7408 1299.00 1314.75 36.04
13912 0.7408 1255.00 1313.84 35.43
13913 0.7409 1247.00 1313.12 35.31
13914 0.7409 1359.00 1312.63 36.86
13915 0.7410 1238.00 1312.32 35.19
13916 0.7410 1288.00 1312.34 35.89
13917 0.7411 1298.00 1312.64 36.03
13918 0.7411 1254.00 1312.82 35.41
13919 0.7412 1382.00 1313.74 37.18
13920 0.7412 1272.00 1314.88 35.67
13921 0.7413 1261.00 1316.00 35.51
13922 0.7413 1352.00 1317.67 36.77
13923 0.7414 1233.00 1319.57 35.11
13924 0.7415 1289.00 1321.70 35.90
13925 0.7415 1317.00 1324.04 36.29
13926 0.7416 1351.00 1326.56 36.76
13927 0.7416 1356.00 1329.26 36.82
13928 0.7417 1303.00 1331.93 36.10
13929 0.7417 1374.00 1334.88 37.07
13930 0.7418 1268.00 1337.96 35.61
13931 0.7418 1322.00 1341.03 36.36
13932 0.7419 1315.00 1344.40 36.26
13933 0.7419 1323.00 1347.61 36.37
13934 0.7420 1234.00 1350.77 35.13
13935 0.7420 1374.00 1353.86 37.07
13936 0.7421 1338.00 1356.86 36.58
13937 0.7421 1330.00 1359.46 36.47
13938 0.7422 1271.00 1361.91 35.65
13939 0.7422 1327.00 1364.01 36.43
13940 0.7423 1254.00 1365.24 35.41
13941 0.7423 1324.00 1366.48 36.39
13942 0.7424 1291.00 1367.23 35.93
13943 0.7424 1298.00 1367.45 36.03
13944 0.7425 1315.00 1367.14 36.26
13945 0.7426 1156.00 1366.31 34.00
13946 0.7426 1410.00 1365.48 37.55
13947 0.7427 1211.00 1363.73 34.80
13948 0.7427 1246.00 1361.24 35.30
13949 0.7428 1217.00 1358.81 34.89
13950 0.7428 1164.00 1356.13 34.12
13951 0.7429 1223.00 1353.28 34.97
13952 0.7429 1272.00 1350.30 35.67
13953 0.7430 1253.00 1347.28 35.40
13954 0.7430 1260.00 1344.24 35.50
13955 0.7431 1407.00 1341.23 37.51
13956 0.7431 1217.00 1338.23 34.89
13957 0.7432 1335.00 1335.38 36.54
13958 0.7432 1297.00 1332.67 36.01
13959 0.7433 1306.00 1330.02 36.14
13960 0.7433 1330.00 1327.63 36.47
13961 0.7434 1291.00 1325.44 35.93
13962 0.7434 1233.00 1323.46 35.11
13963 0.7435 1240.00 1321.72 35.21
13964 0.7435 1358.00 1320.24 36.85
13965 0.7436 1290.00 1319.04 35.92
13966 0.7436 1361.00 1318.10 36.89
13967 0.7437 1304.00 1317.41 36.11
13968 0.7438 1268.00 1317.03 35.61
13969 0.7438 1245.00 1316.90 35.28
13970 0.7439 1263.00 1316.93 35.54
13971 0.7439 1383.00 1317.27 37.19
13972 0.7440 1289.00 1317.82 35.90
13973 0.7440 1290.00 1318.54 35.92
13974 0.7441 1283.00 1319.41 35.82
13975 0.7441 1311.00 1320.41 36.21
13976 0.7442 1202.00 1321.50 34.67
13977 0.7442 1320.00 1322.67 36.33
13978 0.7443 1242.00 1324.02 35.24
13979 0.7443 1315.00 1325.30 36.26
13980 0.7444 1166.00 1326.63 34.15
13981 0.7444 1290.00 1328.00 35.92
13982 0.7445 1315.00 1329.44 36.26
13983 0.7445 1321.00 1330.94 36.35
13984 0.7446 1229.00 1332.51 35.06
13985 0.7446 1248.00 1334.18 35.33
13986 0.7447 1219.00 1336.12 34.91
13987 0.7447 1310.00 1337.98 36.19
13988 0.7448 1300.00 1339.92 36.06
13989 0.7449 1197.00 1341.93 34.60
13990 0.7449 1250.00 1343.98 35.36
13991 0.7450 1322.00 1346.04 36.36
13992 0.7450 1261.00 1348.06 35.51
13993 0.7451 1253.00 1350.01 35.40
13994 0.7451 1303.00 1352.02 36.10
13995 0.7452 1311.00 1353.52 36.21
13996 0.7452 1289.00 1354.97 35.90
13997 0.7453 1355.00 1356.17 36.81
13998 0.7453 1282.00 1357.11 35.81
13999 0.7454 1260.00 1357.79 35.50
14000 0.7454 1269.00 1358.24 35.62
14001 0.7455 1280.00 1358.48 35.78
14002 0.7455 1337.00 1358.53 36.56
14003 0.7456 1230.00 1358.44 35.07
14004 0.7456 1325.00 1358.25 36.40
14005 0.7457 1355.00 1357.98 36.81
14006 0.7457 1261.00 1357.70 35.51
14007 0.7458 1321.00 1357.41 36.35
14008 0.7458 1317.00 1357.20 36.29
14009 0.7459 1310.00 1356.88 36.19
14010 0.7460 1275.00 1356.51 35.71
14011 0.7460 1162.00 1356.06 34.09
14012 0.7461 1400.00 1355.53 37.42
14013 0.7461 1262.00 1354.80 35.52
14014 0.7462 1279.00 1354.05 35.76
14015 0.7462 1334.00 1353.19 36.52
14016 0.7463 1295.00 1352.25 35.99
14017 0.7463 1319.00 1351.24 36.32
14018 0.7464 1159.00 1350.23 34.04
14019 0.7464 1269.00 1349.24 35.62
14020 0.7465 1340.00 1348.48 36.61
14021 0.7465 1218.00 1347.74 34.90
14022 0.7466 1264.00 1347.20 35.55
14023 0.7466 1284.00 1346.77 35.83
14024 0.7467 1287.00 1346.71 35.87
14025 0.7467 1355.00 1346.89 36.81
14026 0.7468 1226.00 1347.39 35.01
14027 0.7468 1206.00 1348.15 34.73
14028 0.7469 1326.00 1349.16 36.41
14029 0.7469 1367.00 1350.38 36.97
14030 0.7470 1198.00 1351.76 34.61
14031 0.7471 1314.00 1353.25 36.25
14032 0.7471 1322.00 1354.78 36.36
14033 0.7472 1274.00 1356.29 35.69
14034 0.7472 1227.00 1357.76 35.03
14035 0.7473 1358.00 1359.02 36.85
14036 0.7473 1327.00 1360.09 36.43
14037 0.7474 1317.00 1360.90 36.29
14038 0.7474 1241.00 1361.42 35.23
14039 0.7475 1258.00 1361.61 35.47
14040 0.7475 1325.00 1361.49 36.40
14041 0.7476 1293.00 1361.05 35.96
14042 0.7476 1304.00 1360.27 36.11
14043 0.7477 1327.00 1359.33 36.43
14044 0.7477 1267.00 1357.82 35.59
14045 0.7478 1324.00 1356.15 36.39
14046 0.7478 1234.00 1354.19 35.13
14047 0.7479 1268.00 1351.95 35.61
14048 0.7479 1297.00 1349.45 36.01
14049 0.7480 1227.00 1346.71 35.03
14050 0.7480 1301.00 1343.77 36.07
14051 0.7481 1307.00 1340.38 36.15
14052 0.7482 1191.00 1336.84 34.51
14053 0.7482 1338.00 1333.53 36.58
14054 0.7483 1249.00 1330.18 35.34
14055 0.7483 1260.00 1326.85 35.50
14056 0.7484 1219.00 1323.58 34.91
14057 0.7484 1310.00 1320.39 36.19
14058 0.7485 1187.00 1317.32 34.45
14059 0.7485 1237.00 1314.35 35.17
14060 0.7486 1334.00 1311.47 36.52
14061 0.7486 1294.00 1308.71 35.97
14062 0.7487 1216.00 1306.04 34.87
14063 0.7487 1251.00 1303.42 35.37
14064 0.7488 1255.00 1300.86 35.43
14065 0.7488 1223.00 1298.32 34.97
14066 0.7489 1202.00 1295.79 34.67
14067 0.7489 1280.00 1293.27 35.78
14068 0.7490 1282.00 1290.64 35.81
14069 0.7490 1107.00 1288.17 33.27
14070 0.7491 1157.00 1285.73 34.01
14071 0.7491 1200.00 1283.35 34.64
14072 0.7492 1272.00 1281.05 35.67
14073 0.7493 1212.00 1278.69 34.81
14074 0.7493 1252.00 1276.61 35.38
14075 0.7494 1212.00 1274.68 34.81
14076 0.7494 1233.00 1272.82 35.11
14077 0.7495 1185.00 1271.19 34.42
14078 0.7495 1150.00 1269.73 33.91
14079 0.7496 1240.00 1268.76 35.21
14080 0.7496 1270.00 1267.62 35.64
14081 0.7497 1244.00 1266.53 35.27
14082 0.7497 1271.00 1265.66 35.65
14083 0.7498 1194.00 1264.89 34.55
14084 0.7498 1287.00 1264.22 35.87
14085 0.7499 1219.00 1263.63 34.91
14086 0.7499 1311.00 1263.09 36.21
14087 0.7500 1267.00 1262.60 35.59
14088 0.7500 1237.00 1262.13 35.17
14089 0.7501 1207.00 1261.69 34.74
14090 0.7501 1276.00 1261.40 35.72
14091 0.7502 1216.00 1260.89 34.87
14092 0.7502 1203.00 1260.51 34.68
14093 0.7503 1152.00 1260.17 33.94
14094 0.7504 1125.00 1259.87 33.54
14095 0.7504 1255.00 1259.63 35.43
14096 0.7505 1187.00 1259.47 34.45
14097 0.7505 1251.00 1259.40 35.37
14098 0.7506 1239.00 1259.43 35.20
14099 0.7506 1239.00 1259.69 35.20
14100 0.7507 1176.00 1259.98 34.29
14101 0.7507 1292.00 1260.41 35.94
14102 0.7508 1217.00 1260.98 34.89
14103 0.7508 1131.00 1261.69 33.63
14104 0.7509 1229.00 1262.54 35.06
14105 0.7509 1263.00 1263.52 35.54
14106 0.7510 1235.00 1264.61 35.14
14107 0.7510 1136.00 1265.63 33.70
14108 0.7511 1226.00 1266.90 35.01
14109 0.7511 1213.00 1268.46 34.83
14110 0.7512 1294.00 1269.81 35.97
14111 0.7512 1229.00 1271.16 35.06
14112 0.7513 1185.00 1272.50 34.42
14113 0.7513 1227.00 1273.79 35.03
14114 0.7514 1193.00 1275.04 34.54
14115 0.7515 1263.00 1276.22 35.54
14116 0.7515 1273.00 1277.36 35.68
14117 0.7516 1215.00 1278.47 34.86
14118 0.7516 1219.00 1279.55 34.91
14119 0.7517 1189.00 1280.57 34.48
14120 0.7517 1229.00 1281.65 35.06
14121 0.7518 1208.00 1282.74 34.76
14122 0.7518 1211.00 1283.85 34.80
14123 0.7519 1306.00 1284.93 36.14
14124 0.7519 1348.00 1286.03 36.72
14125 0.7520 1234.00 1287.10 35.13
14126 0.7520 1340.00 1288.09 36.61
14127 0.7521 1217.00 1289.09 34.89
14128 0.7521 1246.00 1289.83 35.30
14129 0.7522 1249.00 1290.36 35.34
14130 0.7522 1232.00 1290.68 35.10
14131 0.7523 1313.00 1290.72 36.24
14132 0.7523 1226.00 1290.50 35.01
14133 0.7524 1234.00 1289.99 35.13
14134 0.7524 1239.00 1289.17 35.20
14135 0.7525 1284.00 1287.92 35.83
14136 0.7526 1196.00 1286.50 34.58
14137 0.7526 1279.00 1284.80 35.76
14138 0.7527 1290.00 1282.87 35.92
14139 0.7527 1269.00 1280.73 35.62
14140 0.7528 1335.00 1278.62 36.54
14141 0.7528 1243.00 1276.00 35.26
14142 0.7529 1277.00 1273.54 35.74
14143 0.7529 1277.00 1271.08 35.74
14144 0.7530 1292.00 1268.69 35.94
14145 0.7530 1174.00 1266.40 34.26
14146 0.7531 1249.00 1264.14 35.34
14147 0.7531 1201.00 1262.18 34.66
14148 0.7532 1221.00 1260.42 34.94
14149 0.7532 1268.00 1258.90 35.61
14150 0.7533 1274.00 1258.06 35.69
14151 0.7533 1284.00 1256.84 35.83
14152 0.7534 1247.00 1256.56 35.31
14153 0.7534 1264.00 1256.04 35.55
14154 0.7535 1187.00 1255.76 34.45
14155 0.7535 1338.00 1255.57 36.58
14156 0.7536 1161.00 1255.76 34.07
14157 0.7537 1250.00 1256.17 35.36
14158 0.7537 1267.00 1256.77 35.59
14159 0.7538 1169.00 1257.55 34.19
14160 0.7538 1333.00 1258.47 36.51
14161 0.7539 1282.00 1259.51 35.81
14162 0.7539 1264.00 1260.61 35.55
14163 0.7540 1265.00 1261.78 35.57
14164 0.7540 1192.00 1262.91 34.53
14165 0.7541 1266.00 1264.08 35.58
14166 0.7541 1265.00 1265.12 35.57
14167 0.7542 1287.00 1266.02 35.87
14168 0.7542 1170.00 1266.76 34.21
14169 0.7543 1294.00 1267.31 35.97
14170 0.7543 1227.00 1267.63 35.03
14171 0.7544 1294.00 1267.72 35.97
14172 0.7544 1219.00 1267.60 34.91
14173 0.7545 1177.00 1267.26 34.31
14174 0.7545 1232.00 1266.72 35.10
14175 0.7546 1230.00 1266.02 35.07
14176 0.7546 1236.00 1265.19 35.16
14177 0.7547 1226.00 1264.25 35.01
14178 0.7547 1229.00 1263.20 35.06
14179 0.7548 1284.00 1262.14 35.83
14180 0.7549 1325.00 1261.51 36.40
14181 0.7549 1314.00 1260.42 36.25
14182 0.7550 1243.00 1259.35 35.26
14183 0.7550 1206.00 1258.29 34.73
14184 0.7551 1228.00 1257.27 35.04
14185 0.7551 1268.00 1256.26 35.61
14186 0.7552 1236.00 1255.32 35.16
14187 0.7552 1216.00 1254.41 34.87
14188 0.7553 1220.00 1253.57 34.93
14189 0.7553 1271.00 1252.74 35.65
14190 0.7554 1182.00 1252.03 34.38
14191 0.7554 1233.00 1251.40 35.11
14192 0.7555 1212.00 1250.84 34.81
14193 0.7555 1190.00 1250.08 34.50
14194 0.7556 1189.00 1249.69 34.48
14195 0.7556 1151.00 1249.21 33.93
14196 0.7557 1278.00 1248.94 35.75
14197 0.7557 1080.00 1248.71 32.86
14198 0.7558 1175.00 1248.49 34.28
14199 0.7558 1161.00 1248.26 34.07
14200 0.7559 1254.00 1247.98 35.41
14201 0.7560 1172.00 1247.63 34.23
14202 0.7560 1273.00 1247.19 35.68
14203 0.7561 1304.00 1246.62 36.11
14204 0.7561 1188.00 1246.20 34.47
14205 0.7562 1151.00 1245.34 33.93
14206 0.7562 1236.00 1244.32 35.16
14207 0.7563 1210.00 1243.15 34.79
14208 0.7563 1238.00 1241.83 35.19
14209 0.7564 1284.00 1240.45 35.83
14210 0.7564 1256.00 1238.92 35.44
14211 0.7565 1313.00 1237.33 36.24
14212 0.7565 1295.00 1235.70 35.99
14213 0.7566 1302.00 1234.05 36.08
14214 0.7566 1303.00 1232.44 36.10
14215 0.7567 1331.00 1230.89 36.48
14216 0.7567 1216.00 1229.42 34.87
14217 0.7568 1205.00 1228.06 34.71
14218 0.7568 1220.00 1227.11 34.93
14219 0.7569 1251.00 1225.74 35.37
14220 0.7569 1281.00 1224.42 35.79
14221 0.7570 1195.00 1223.58 34.57
14222 0.7571 1219.00 1222.88 34.91
14223 0.7571 1253.00 1222.30 35.40
14224 0.7572 1242.00 1221.89 35.24
14225 0.7572 1169.00 1221.56 34.19
14226 0.7573 1205.00 1221.33 34.71
14227 0.7573 1198.00 1221.20 34.61
14228 0.7574 1260.00 1221.14 35.50
14229 0.7574 1250.00 1221.16 35.36
14230 0.7575 1152.00 1221.28 33.94
14231 0.7575 1176.00 1221.42 34.29
14232 0.7576 1316.00 1221.60 36.28
14233 0.7576 1324.00 1221.76 36.39
14234 0.7577 1171.00 1222.12 34.22
14235 0.7577 1171.00 1222.42 34.22
14236 0.7578 1185.00 1222.74 34.42
14237 0.7578 1216.00 1223.08 34.87
14238 0.7579 1225.00 1223.67 35.00
14239 0.7579 1262.00 1224.08 35.52
14240 0.7580 1257.00 1224.31 35.45
14241 0.7580 1227.00 1224.72 35.03
14242 0.7581 1161.00 1225.13 34.07
14243 0.7582 1214.00 1226.09 34.84
14244 0.7582 1207.00 1226.44 34.74
14245 0.7583 1204.00 1226.74 34.70
14246 0.7583 1210.00 1226.98 34.79
14247 0.7584 1297.00 1227.17 36.01
14248 0.7584 1215.00 1227.30 34.86
14249 0.7585 1305.00 1227.39 36.12
14250 0.7585 1190.00 1227.11 34.50
14251 0.7586 1175.00 1227.17 34.28
14252 0.7586 1193.00 1227.25 34.54
14253 0.7587 1260.00 1227.37 35.50
14254 0.7587 1202.00 1227.49 34.67
14255 0.7588 1143.00 1227.76 33.81
14256 0.7588 1243.00 1228.15 35.26
14257 0.7589 1210.00 1228.67 34.79
14258 0.7589 1248.00 1229.33 35.33
14259 0.7590 1193.00 1230.11 34.54
14260 0.7590 1185.00 1231.09 34.42
14261 0.7591 1228.00 1232.25 35.04
14262 0.7591 1173.00 1233.57 34.25
14263 0.7592 1221.00 1235.06 34.94
14264 0.7593 1175.00 1236.71 34.28
14265 0.7593 1283.00 1238.41 35.82
14266 0.7594 1285.00 1240.32 35.85
14267 0.7594 1219.00 1242.34 34.91
14268 0.7595 1276.00 1244.44 35.72
14269 0.7595 1177.00 1246.55 34.31
14270 0.7596 1237.00 1248.69 35.17
14271 0.7596 1293.00 1250.79 35.96
14272 0.7597 1329.00 1252.81 36.46
14273 0.7597 1260.00 1254.70 35.50
14274 0.7598 1306.00 1256.42 36.14
14275 0.7598 1153.00 1257.93 33.96
14276 0.7599 1289.00 1259.21 35.90
14277 0.7599 1202.00 1260.21 34.67
14278 0.7600 1321.00 1260.92 36.35
14279 0.7600 1271.00 1261.36 35.65
14280 0.7601 1251.00 1261.51 35.37
14281 0.7601 1286.00 1261.41 35.86
14282 0.7602 1272.00 1261.44 35.67
14283 0.7602 1222.00 1260.92 34.96
14284 0.7603 1263.00 1260.24 35.54
14285 0.7604 1256.00 1259.45 35.44
14286 0.7604 1242.00 1258.58 35.24
14287 0.7605 1254.00 1257.68 35.41
14288 0.7605 1179.00 1256.76 34.34
14289 0.7606 1198.00 1255.87 34.61
14290 0.7606 1291.00 1255.03 35.93
14291 0.7607 1198.00 1254.25 34.61
14292 0.7607 1279.00 1253.56 35.76
14293 0.7608 1308.00 1253.24 36.17
14294 0.7608 1222.00 1253.16 34.96
14295 0.7609 1274.00 1252.78 35.69
14296 0.7609 1226.00 1252.48 35.01
14297 0.7610 1264.00 1252.31 35.55
14298 0.7610 1247.00 1252.24 35.31
14299 0.7611 1185.00 1252.25 34.42
14300 0.7611 1173.00 1252.18 34.25
14301 0.7612 1230.00 1252.28 35.07
14302 0.7612 1221.00 1252.38 34.94
14303 0.7613 1184.00 1252.47 34.41
14304 0.7613 1202.00 1252.54 34.67
14305 0.7614 1218.00 1252.58 34.90
14306 0.7615 1255.00 1252.55 35.43
14307 0.7615 1255.00 1252.48 35.43
14308 0.7616 1250.00 1252.39 35.36
14309 0.7616 1238.00 1252.28 35.19
14310 0.7617 1233.00 1252.18 35.11
14311 0.7617 1193.00 1252.08 34.54
14312 0.7618 1247.00 1252.09 35.31
14313 0.7618 1188.00 1252.17 34.47
14314 0.7619 1297.00 1252.30 36.01
14315 0.7619 1310.00 1252.65 36.19
14316 0.7620 1332.00 1253.14 36.50
14317 0.7620 1259.00 1253.80 35.48
14318 0.7621 1309.00 1254.63 36.18
14319 0.7621 1320.00 1255.64 36.33
14320 0.7622 1280.00 1256.82 35.78
14321 0.7622 1311.00 1258.19 36.21
14322 0.7623 1187.00 1259.68 34.45
14323 0.7623 1272.00 1261.40 35.67
14324 0.7624 1206.00 1263.32 34.73
14325 0.7624 1328.00 1265.40 36.44
14326 0.7625 1279.00 1267.64 35.76
14327 0.7626 1278.00 1270.03 35.75
14328 0.7626 1198.00 1272.53 34.61
14329 0.7627 1254.00 1275.12 35.41
14330 0.7627 1201.00 1277.89 34.66
14331 0.7628 1240.00 1280.47 35.21
14332 0.7628 1251.00 1283.19 35.37
14333 0.7629 1141.00 1285.87 33.78
14334 0.7629 1233.00 1288.56 35.11
14335 0.7630 1268.00 1291.14 35.61
14336 0.7630 1165.00 1293.76 34.13
14337 0.7631 1209.00 1296.35 34.77
14338 0.7631 1228.00 1298.93 35.04
14339 0.7632 1125.00 1301.51 33.54
14340 0.7632 1211.00 1304.09 34.80
14341 0.7633 1212.00 1306.67 34.81
14342 0.7633 1080.00 1309.26 32.86
14343 0.7634 1210.00 1312.01 34.79
14344 0.7634 1194.00 1314.39 34.55
14345 0.7635 1297.00 1316.81 36.01
14346 0.7635 1218.00 1319.09 34.90
14347 0.7636 1187.00 1321.24 34.45
14348 0.7637 1317.00 1323.01 36.29
14349 0.7637 1248.00 1324.41 35.33
14350 0.7638 1185.00 1325.37 34.42
14351 0.7638 1249.00 1325.84 35.34
14352 0.7639 1294.00 1325.76 35.97
14353 0.7639 1197.00 1325.08 34.60
14354 0.7640 1196.00 1323.82 34.58
14355 0.7640 1164.00 1321.98 34.12
14356 0.7641 1131.00 1319.59 33.63
14357 0.7641 1394.00 1316.60 37.34
14358 0.7642 1194.00 1313.36 34.55
14359 0.7642 1271.00 1309.82 35.65
14360 0.7643 1157.00 1306.09 34.01
14361 0.7643 1187.00 1302.31 34.45
14362 0.7644 1302.00 1298.49 36.08
14363 0.7644 1286.00 1294.87 35.86
14364 0.7645 1206.00 1291.40 34.73
14365 0.7645 1239.00 1288.31 35.20
14366 0.7646 1271.00 1285.60 35.65
14367 0.7646 1305.00 1283.29 36.12
14368 0.7647 1192.00 1281.44 34.53
14369 0.7648 1214.00 1280.04 34.84
14370 0.7648 1125.00 1279.12 33.54
14371 0.7649 1264.00 1278.72 35.55
14372 0.7649 1178.00 1278.80 34.32
14373 0.7650 1210.00 1279.35 34.79
14374 0.7650 1215.00 1280.37 34.86
14375 0.7651 1295.00 1281.82 35.99
14376 0.7651 1262.00 1283.67 35.52
14377 0.7652 1238.00 1285.88 35.19
14378 0.7652 1227.00 1288.42 35.03
14379 0.7653 1235.00 1291.19 35.14
14380 0.7653 1293.00 1294.18 35.96
14381 0.7654 1245.00 1297.42 35.28
14382 0.7654 1315.00 1300.57 36.26
14383 0.7655 1348.00 1303.64 36.72
14384 0.7655 1212.00 1306.58 34.81
14385 0.7656 1283.00 1309.29 35.82
14386 0.7656 1220.00 1311.66 34.93
14387 0.7657 1297.00 1313.62 36.01
14388 0.7657 1413.00 1315.10 37.59
14389 0.7658 1362.00 1315.96 36.91
14390 0.7659 1384.00 1316.38 37.20
14391 0.7659 1365.00 1316.26 36.95
14392 0.7660 1336.00 1315.64 36.55
14393 0.7660 1390.00 1315.36 37.28
14394 0.7661 1308.00 1313.89 36.17
14395 0.7661 1282.00 1312.12 35.81
14396 0.7662 1195.00 1310.11 34.57
14397 0.7662 1216.00 1307.94 34.87
14398 0.7663 1215.00 1305.66 34.86
14399 0.7663 1331.00 1303.32 36.48
14400 0.7664 1300.00 1300.97 36.06
14401 0.7664 1368.00 1298.56 36.99
14402 0.7665 1242.00 1296.23 35.24
14403 0.7665 1269.00 1293.98 35.62
14404 0.7666 1129.00 1291.81 33.60
14405 0.7666 1283.00 1290.24 35.82
14406 0.7667 1243.00 1288.17 35.26
14407 0.7667 1328.00 1286.23 36.44
14408 0.7668 1250.00 1284.44 35.36
14409 0.7668 1207.00 1282.80 34.74
14410 0.7669 1270.00 1281.35 35.64
14411 0.7669 1163.00 1280.10 34.10
14412 0.7670 1244.00 1279.06 35.27
14413 0.7671 1261.00 1278.25 35.51
14414 0.7671 1301.00 1277.67 36.07
14415 0.7672 1126.00 1277.30 33.56
14416 0.7672 1332.00 1277.15 36.50
14417 0.7673 1298.00 1277.19 36.03
14418 0.7673 1253.00 1277.38 35.40
14419 0.7674 1304.00 1277.70 36.11
14420 0.7674 1335.00 1278.11 36.54
14421 0.7675 1282.00 1278.59 35.81
14422 0.7675 1200.00 1279.09 34.64
14423 0.7676 1229.00 1279.59 35.06
14424 0.7676 1234.00 1280.03 35.13
14425 0.7677 1335.00 1280.37 36.54
14426 0.7677 1228.00 1280.63 35.04
14427 0.7678 1210.00 1280.71 34.79
14428 0.7678 1372.00 1280.61 37.04
14429 0.7679 1279.00 1280.29 35.76
14430 0.7679 1202.00 1279.75 34.67
14431 0.7680 1201.00 1278.97 34.66
14432 0.7680 1250.00 1277.93 35.36
14433 0.7681 1304.00 1276.60 36.11
14434 0.7682 1230.00 1275.06 35.07
14435 0.7682 1249.00 1273.28 35.34
14436 0.7683 1291.00 1271.25 35.93
14437 0.7683 1196.00 1269.04 34.58
14438 0.7684 1232.00 1266.57 35.10
14439 0.7684 1303.00 1263.91 36.10
14440 0.7685 1240.00 1261.08 35.21
14441 0.7685 1107.00 1258.11 33.27
14442 0.7686 1192.00 1255.05 34.53
14443 0.7686 1246.00 1252.31 35.30
14444 0.7687 1293.00 1249.18 35.96
14445 0.7687 1157.00 1246.09 34.01
14446 0.7688 1147.00 1243.08 33.87
14447 0.7688 1250.00 1240.96 35.36
14448 0.7689 1267.00 1238.26 35.59
14449 0.7689 1176.00 1235.78 34.29
14450 0.7690 1149.00 1233.53 33.90
14451 0.7690 1238.00 1231.56 35.19
14452 0.7691 1105.00 1229.86 33.24
14453 0.7691 1104.00 1228.64 33.23
14454 0.7692 1153.00 1227.55 33.96
14455 0.7693 1189.00 1226.76 34.48
14456 0.7693 1245.00 1226.13 35.28
14457 0.7694 1134.00 1225.96 33.67
14458 0.7694 1100.00 1226.07 33.17
14459 0.7695 1110.00 1226.44 33.32
14460 0.7695 1303.00 1227.06 36.10
14461 0.7696 1222.00 1227.90 34.96
14462 0.7696 1226.00 1228.92 35.01
14463 0.7697 1213.00 1230.08 34.83
14464 0.7697 1238.00 1231.35 35.19
14465 0.7698 1183.00 1232.67 34.39
14466 0.7698 1261.00 1234.02 35.51
14467 0.7699 1284.00 1235.36 35.83
14468 0.7699 1287.00 1236.61 35.87
14469 0.7700 1197.00 1237.77 34.60
14470 0.7700 1190.00 1238.81 34.50
14471 0.7701 1157.00 1239.73 34.01
14472 0.7701 1189.00 1240.53 34.48
14473 0.7702 1150.00 1241.22 33.91
14474 0.7702 1154.00 1241.83 33.97
14475 0.7703 1123.00 1242.38 33.51
14476 0.7704 1292.00 1242.90 35.94
14477 0.7704 1218.00 1243.41 34.90
14478 0.7705 1193.00 1243.93 34.54
14479 0.7705 1185.00 1244.38 34.42
14480 0.7706 1255.00 1244.95 35.43
14481 0.7706 1250.00 1245.55 35.36
14482 0.7707 1316.00 1246.15 36.28
14483 0.7707 1278.00 1246.75 35.75
14484 0.7708 1213.00 1247.31 34.83
14485 0.7708 1084.00 1247.79 32.92
14486 0.7709 1219.00 1248.28 34.91
14487 0.7709 1144.00 1248.69 33.82
14488 0.7710 1134.00 1248.83 33.67
14489 0.7710 1212.00 1249.08 34.81
14490 0.7711 1249.00 1249.24 35.34
14491 0.7711 1200.00 1249.32 34.64
14492 0.7712 1233.00 1249.27 35.11
14493 0.7712 1206.00 1249.13 34.73
14494 0.7713 1286.00 1248.83 35.86
14495 0.7713 1225.00 1248.41 35.00
14496 0.7714 1325.00 1247.80 36.40
14497 0.7715 1261.00 1246.98 35.51
14498 0.7715 1324.00 1245.91 36.39
14499 0.7716 1156.00 1244.56 34.00
14500 0.7716 1302.00 1242.91 36.08
14501 0.7717 1299.00 1240.98 36.04
14502 0.7717 1320.00 1238.77 36.33
14503 0.7718 1301.00 1236.19 36.07
14504 0.7718 1273.00 1233.76 35.68
14505 0.7719 1225.00 1230.90 35.00
14506 0.7719 1244.00 1228.05 35.27
14507 0.7720 1170.00 1225.01 34.21
14508 0.7720 1204.00 1221.95 34.70
14509 0.7721 1162.00 1218.91 34.09
14510 0.7721 1115.00 1215.84 33.39
14511 0.7722 1172.00 1212.97 34.23
14512 0.7722 1271.00 1210.22 35.65
14513 0.7723 1193.00 1207.60 34.54
14514 0.7723 1249.00 1205.11 35.34
14515 0.7724 1197.00 1202.73 34.60
14516 0.7724 1267.00 1200.51 35.59
14517 0.7725 1218.00 1198.49 34.90
14518 0.7726 1260.00 1196.53 35.50
14519 0.7726 1224.00 1194.71 34.99
14520 0.7727 1296.00 1193.02 36.00
14521 0.7727 1145.00 1191.48 33.84
14522 0.7728 1148.00 1190.08 33.88
14523 0.7728 1222.00 1188.84 34.96
14524 0.7729 1195.00 1187.76 34.57
14525 0.7729 1283.00 1186.77 35.82
14526 0.7730 1154.00 1186.10 33.97
14527 0.7730 1201.00 1185.48 34.66
14528 0.7731 1176.00 1185.02 34.29
14529 0.7731 1228.00 1184.69 35.04
14530 0.7732 1228.00 1184.50 35.04
14531 0.7732 1197.00 1184.37 34.60
14532 0.7733 1193.00 1184.32 34.54
14533 0.7733 1127.00 1184.07 33.57
14534 0.7734 1223.00 1184.29 34.97
14535 0.7734 1222.00 1184.32 34.96
14536 0.7735 1171.00 1184.34 34.22
14537 0.7735 1175.00 1184.36 34.28
14538 0.7736 1208.00 1184.33 34.76
14539 0.7737 1241.00 1184.25 35.23
14540 0.7737 1275.00 1184.14 35.71
14541 0.7738 1147.00 1184.00 33.87
14542 0.7738 1224.00 1183.82 34.99
14543 0.7739 1167.00 1183.63 34.16
14544 0.7739 1257.00 1183.43 35.45
14545 0.7740 1227.00 1183.23 35.03
14546 0.7740 1185.00 1183.03 34.42
14547 0.7741 1185.00 1182.86 34.42
14548 0.7741 1101.00 1182.71 33.18
14549 0.7742 1146.00 1182.59 33.85
14550 0.7742 1156.00 1182.49 34.00
14551 0.7743 1182.00 1182.85 34.38
14552 0.7743 1291.00 1182.92 35.93
14553 0.7744 1104.00 1183.09 33.23
14554 0.7744 1239.00 1183.35 35.20
14555 0.7745 1217.00 1183.74 34.89
14556 0.7745 1168.00 1184.18 34.18
14557 0.7746 1202.00 1184.82 34.67
14558 0.7746 1151.00 1185.72 33.93
14559 0.7747 1195.00 1186.73 34.57
14560 0.7748 1212.00 1187.83 34.81
14561 0.7748 1229.00 1189.39 35.06
14562 0.7749 1185.00 1191.18 34.42
14563 0.7749 1036.00 1193.21 32.19
14564 0.7750 1239.00 1195.09 35.20
14565 0.7750 1280.00 1197.78 35.78
14566 0.7751 1186.00 1200.56 34.44
14567 0.7751 1232.00 1203.58 35.10
14568 0.7752 1288.00 1206.83 35.89
14569 0.7752 1195.00 1210.29 34.57
14570 0.7753 1219.00 1213.96 34.91
14571 0.7753 1193.00 1217.80 34.54
14572 0.7754 1170.00 1221.78 34.21
14573 0.7754 1248.00 1225.89 35.33
14574 0.7755 1304.00 1230.09 36.11
14575 0.7755 1296.00 1234.34 36.00
14576 0.7756 1197.00 1238.61 34.60
14577 0.7756 1129.00 1242.85 33.60
14578 0.7757 1229.00 1247.02 35.06
14579 0.7757 1259.00 1251.14 35.48
14580 0.7758 1128.00 1255.02 33.59
14581 0.7759 1213.00 1258.66 34.83
14582 0.7759 1238.00 1262.01 35.19
14583 0.7760 1233.00 1265.01 35.11
14584 0.7760 1243.00 1267.54 35.26
14585 0.7761 1304.00 1269.67 36.11
14586 0.7761 1277.00 1271.30 35.74
14587 0.7762 1215.00 1272.40 34.86
14588 0.7762 1279.00 1272.97 35.76
14589 0.7763 1149.00 1273.07 33.90
14590 0.7763 1255.00 1272.74 35.43
14591 0.7764 1263.00 1272.00 35.54
14592 0.7764 1259.00 1270.70 35.48
14593 0.7765 1353.00 1269.39 36.78
14594 0.7765 1290.00 1267.90 35.92
14595 0.7766 1315.00 1266.28 36.26
14596 0.7766 1208.00 1264.58 34.76
14597 0.7767 1344.00 1262.83 36.66
14598 0.7767 1276.00 1261.05 35.72
14599 0.7768 1214.00 1259.38 34.84
14600 0.7768 1252.00 1257.08 35.38
14601 0.7769 1256.00 1255.18 35.44
14602 0.7770 1278.00 1253.19 35.75
14603 0.7770 1276.00 1250.85 35.72
14604 0.7771 1218.00 1248.60 34.90
14605 0.7771 1255.00 1246.20 35.43
14606 0.7772 1265.00 1243.64 35.57
14607 0.7772 1225.00 1240.91 35.00
14608 0.7773 1194.00 1237.97 34.55
14609 0.7773 1282.00 1234.98 35.81
14610 0.7774 1188.00 1231.91 34.47
14611 0.7774 1286.00 1228.82 35.86
14612 0.7775 1275.00 1225.90 35.71
14613 0.7775 1211.00 1222.92 34.80
14614 0.7776 1166.00 1220.07 34.15
14615 0.7776 1148.00 1217.40 33.88
14616 0.7777 1266.00 1214.95 35.58
14617 0.7777 1204.00 1212.57 34.70
14618 0.7778 1162.00 1210.66 34.09
14619 0.7778 1291.00 1209.07 35.93
14620 0.7779 1171.00 1207.82 34.22
14621 0.7779 1272.00 1206.89 35.67
14622 0.7780 1126.00 1206.33 33.56
14623 0.7781 1235.00 1206.12 35.14
14624 0.7781 1277.00 1206.45 35.74
14625 0.7782 1308.00 1206.95 36.17
14626 0.7782 1200.00 1207.81 34.64
14627 0.7783 1238.00 1209.02 35.19
14628 0.7783 1217.00 1210.57 34.89
14629 0.7784 1181.00 1212.47 34.37
14630 0.7784 1272.00 1214.72 35.67
14631 0.7785 1151.00 1217.30 33.93
14632 0.7785 1128.00 1220.22 33.59
14633 0.7786 1214.00 1223.47 34.84
14634 0.7786 1211.00 1227.03 34.80
14635 0.7787 1179.00 1230.89 34.34
14636 0.7787 1217.00 1235.03 34.89
14637 0.7788 1208.00 1239.38 34.76
14638 0.7788 1161.00 1243.76 34.07
14639 0.7789 1270.00 1248.49 35.64
14640 0.7789 1205.00 1253.20 34.71
14641 0.7790 1267.00 1257.87 35.59
14642 0.7790 1185.00 1262.41 34.42
14643 0.7791 1250.00 1266.71 35.36
14644 0.7791 1335.00 1270.61 36.54
14645 0.7792 1273.00 1274.07 35.68
14646 0.7793 1187.00 1276.97 34.45
14647 0.7793 1158.00 1279.99 34.03
14648 0.7794 1306.00 1281.43 36.14
14649 0.7794 1209.00 1282.02 34.77
14650 0.7795 1306.00 1281.46 36.14
14651 0.7795 1252.00 1280.30 35.38
14652 0.7796 1217.00 1278.31 34.89
14653 0.7796 1361.00 1275.52 36.89
14654 0.7797 1201.00 1272.03 34.66
14655 0.7797 1166.00 1267.96 34.15
14656 0.7798 1180.00 1263.41 34.35
14657 0.7798 1212.00 1258.54 34.81
14658 0.7799 1216.00 1253.43 34.87
14659 0.7799 1275.00 1248.21 35.71
14660 0.7800 1114.00 1243.00 33.38
14661 0.7800 1171.00 1237.84 34.22
14662 0.7801 1271.00 1232.82 35.65
14663 0.7801 1268.00 1227.96 35.61
14664 0.7802 1317.00 1223.32 36.29
14665 0.7802 1204.00 1218.90 34.70
14666 0.7803 1148.00 1214.74 33.88
14667 0.7804 1251.00 1210.85 35.37
14668 0.7804 1138.00 1207.22 33.73
14669 0.7805 1219.00 1203.73 34.91
14670 0.7805 1190.00 1200.67 34.50
14671 0.7806 1151.00 1197.90 33.93
14672 0.7806 1129.00 1195.40 33.60
14673 0.7807 1197.00 1193.21 34.60
14674 0.7807 1106.00 1191.30 33.26
14675 0.7808 1322.00 1189.67 36.36
14676 0.7808 1279.00 1188.31 35.76
14677 0.7809 1299.00 1187.20 36.04
14678 0.7809 1109.00 1186.34 33.30
14679 0.7810 1151.00 1185.69 33.93
14680 0.7810 1333.00 1185.25 36.51
14681 0.7811 1141.00 1184.83 33.78
14682 0.7811 1227.00 1184.73 35.03
14683 0.7812 1107.00 1184.61 33.27
14684 0.7812 1131.00 1184.77 33.63
14685 0.7813 1214.00 1185.02 34.84
14686 0.7813 1228.00 1185.34 35.04
14687 0.7814 1114.00 1185.69 33.38
14688 0.7815 1277.00 1186.05 35.74
14689 0.7815 1308.00 1186.38 36.17
14690 0.7816 1252.00 1186.65 35.38
14691 0.7816 1268.00 1186.79 35.61
14692 0.7817 1131.00 1186.72 33.63
14693 0.7817 1196.00 1186.92 34.58
14694 0.7818 1199.00 1186.56 34.63
14695 0.7818 1140.00 1185.94 33.76
14696 0.7819 1155.00 1185.02 33.99
14697 0.7819 1128.00 1183.91 33.59
14698 0.7820 1139.00 1182.61 33.75
14699 0.7820 1067.00 1181.10 32.67
14700 0.7821 1202.00 1179.43 34.67
14701 0.7821 1215.00 1177.68 34.86
14702 0.7822 1193.00 1175.85 34.54
14703 0.7822 1187.00 1174.02 34.45
14704 0.7823 1196.00 1172.21 34.58
14705 0.7823 1204.00 1170.45 34.70
14706 0.7824 1202.00 1168.79 34.67
14707 0.7824 1177.00 1167.20 34.31
14708 0.7825 1143.00 1165.75 33.81
14709 0.7826 1218.00 1163.96 34.90
14710 0.7826 1236.00 1162.76 35.16
14711 0.7827 1169.00 1161.67 34.19
14712 0.7827 1214.00 1160.68 34.84
14713 0.7828 1197.00 1159.81 34.60
14714 0.7828 1182.00 1159.17 34.38
14715 0.7829 1175.00 1158.50 34.28
14716 0.7829 1216.00 1157.92 34.87
14717 0.7830 1292.00 1157.44 35.94
14718 0.7830 1146.00 1157.09 33.85
14719 0.7831 1166.00 1156.76 34.15
14720 0.7831 1200.00 1156.57 34.64
14721 0.7832 1091.00 1156.51 33.03
14722 0.7832 1047.00 1156.54 32.36
14723 0.7833 1285.00 1156.69 35.85
14724 0.7833 1262.00 1156.93 35.52
14725 0.7834 1253.00 1157.25 35.40
14726 0.7834 1229.00 1157.66 35.06
14727 0.7835 1156.00 1158.11 34.00
14728 0.7835 1281.00 1158.62 35.79
14729 0.7836 1168.00 1159.40 34.18
14730 0.7837 1136.00 1159.94 33.70
14731 0.7837 1141.00 1160.47 33.78
14732 0.7838 1169.00 1160.99 34.19
14733 0.7838 1097.00 1161.48 33.12
14734 0.7839 1210.00 1161.96 34.79
14735 0.7839 1166.00 1162.40 34.15
14736 0.7840 1089.00 1162.87 33.00
14737 0.7840 1186.00 1163.34 34.44
14738 0.7841 1150.00 1163.84 33.91
14739 0.7841 1250.00 1164.36 35.36
14740 0.7842 1180.00 1164.91 34.35
14741 0.7842 1178.00 1165.40 34.32
14742 0.7843 1173.00 1166.00 34.25
14743 0.7843 1228.00 1166.60 35.04
14744 0.7844 1192.00 1167.20 34.53
14745 0.7844 1203.00 1167.74 34.68
14746 0.7845 1234.00 1168.18 35.13
14747 0.7845 1298.00 1168.57 36.03
14748 0.7846 1238.00 1168.82 35.19
14749 0.7846 1117.00 1168.91 33.42
14750 0.7847 1333.00 1168.82 36.51
14751 0.7848 1162.00 1168.52 34.09
14752 0.7848 1210.00 1168.01 34.79
14753 0.7849 1273.00 1167.20 35.68
14754 0.7849 1167.00 1166.27 34.16
14755 0.7850 1199.00 1165.14 34.63
14756 0.7850 1124.00 1163.85 33.53
14757 0.7851 1190.00 1162.38 34.50
14758 0.7851 1082.00 1160.76 32.89
14759 0.7852 1158.00 1159.02 34.03
14760 0.7852 1155.00 1157.16 33.99
14761 0.7853 1102.00 1155.23 33.20
14762 0.7853 1121.00 1153.22 33.48
14763 0.7854 1204.00 1151.15 34.70
14764 0.7854 1168.00 1149.06 34.18
14765 0.7855 1189.00 1146.94 34.48
14766 0.7855 1215.00 1144.82 34.86
14767 0.7856 1209.00 1142.73 34.77
14768 0.7856 1149.00 1140.67 33.90
14769 0.7857 1132.00 1138.68 33.65
14770 0.7857 1106.00 1136.75 33.26
14771 0.7858 1198.00 1134.93 34.61
14772 0.7859 1128.00 1133.21 33.59
14773 0.7859 1110.00 1131.61 33.32
14774 0.7860 1204.00 1130.15 34.70
14775 0.7860 1253.00 1128.71 35.40
14776 0.7861 1178.00 1127.64 34.32
14777 0.7861 1339.00 1126.63 36.59
14778 0.7862 1173.00 1125.78 34.25
14779 0.7862 1207.00 1125.07 34.74
14780 0.7863 1260.00 1124.54 35.50
14781 0.7863 1157.00 1124.16 34.01
14782 0.7864 1114.00 1123.92 33.38
14783 0.7864 1114.00 1123.82 33.38
14784 0.7865 1175.00 1123.84 34.28
14785 0.7865 1121.00 1123.95 33.48
14786 0.7866 1196.00 1124.15 34.58
14787 0.7866 1143.00 1124.41 33.81
14788 0.7867 1117.00 1124.71 33.42
14789 0.7867 1053.00 1125.03 32.45
14790 0.7868 1166.00 1125.35 34.15
14791 0.7868 1151.00 1125.67 33.93
14792 0.7869 1129.00 1125.97 33.60
14793 0.7870 1246.00 1126.26 35.30
14794 0.7870 1184.00 1126.50 34.41
14795 0.7871 1148.00 1126.83 33.88
14796 0.7871 1122.00 1127.13 33.50
14797 0.7872 1134.00 1127.47 33.67
14798 0.7872 1090.00 1127.85 33.02
14799 0.7873 1089.00 1127.68 33.00
14800 0.7873 1233.00 1128.21 35.11
14801 0.7874 1284.00 1128.83 35.83
14802 0.7874 1148.00 1129.61 33.88
14803 0.7875 1121.00 1130.42 33.48
14804 0.7875 1170.00 1131.33 34.21
14805 0.7876 1079.00 1132.32 32.85
14806 0.7876 1274.00 1133.38 35.69
14807 0.7877 1117.00 1134.51 33.42
14808 0.7877 1171.00 1135.70 34.22
14809 0.7878 1208.00 1136.93 34.76
14810 0.7878 1196.00 1138.12 34.58
14811 0.7879 1246.00 1139.39 35.30
14812 0.7879 1103.00 1140.66 33.21
14813 0.7880 1116.00 1141.95 33.41
14814 0.7881 1202.00 1143.24 34.67
14815 0.7881 1175.00 1144.49 34.28
14816 0.7882 1149.00 1145.81 33.90
14817 0.7882 1234.00 1147.15 35.13
14818 0.7883 1154.00 1148.10 33.97
14819 0.7883 1202.00 1149.53 34.67
14820 0.7884 1179.00 1150.99 34.34
14821 0.7884 1161.00 1152.45 34.07
14822 0.7885 1079.00 1154.02 32.85
14823 0.7885 1081.00 1155.67 32.88
14824 0.7886 1288.00 1157.37 35.89
14825 0.7886 1084.00 1159.23 32.92
14826 0.7887 1216.00 1161.07 34.87
14827 0.7887 1146.00 1162.99 33.85
14828 0.7888 1197.00 1164.99 34.60
14829 0.7888 1180.00 1167.05 34.35
14830 0.7889 1129.00 1169.19 33.60
14831 0.7889 1209.00 1171.39 34.77
14832 0.7890 1171.00 1173.64 34.22
14833 0.7890 1188.00 1175.91 34.47
14834 0.7891 1246.00 1178.22 35.30
14835 0.7892 1156.00 1180.47 34.00
14836 0.7892 1164.00 1182.68 34.12
14837 0.7893 1305.00 1184.80 36.12
14838 0.7893 1261.00 1186.79 35.51
14839 0.7894 1189.00 1188.61 34.48
14840 0.7894 1248.00 1190.20 35.33
14841 0.7895 1244.00 1191.54 35.27
14842 0.7895 1194.00 1192.60 34.55
14843 0.7896 1199.00 1193.27 34.63
14844 0.7896 1269.00 1193.53 35.62
14845 0.7897 1147.00 1193.35 33.87
14846 0.7897 1181.00 1192.68 34.37
14847 0.7898 1235.00 1191.51 35.14
14848 0.7898 1277.00 1189.84 35.74
14849 0.7899 1180.00 1187.66 34.35
14850 0.7899 1263.00 1185.00 35.54
14851 0.7900 1233.00 1181.90 35.11
14852 0.7900 1165.00 1178.42 34.13
14853 0.7901 1130.00 1174.61 33.62
14854 0.7901 1075.00 1170.56 32.79
14855 0.7902 1187.00 1166.32 34.45
14856 0.7903 1153.00 1161.83 33.96
14857 0.7903 1201.00 1157.14 34.66
14858 0.7904 1182.00 1152.86 34.38
14859 0.7904 1189.00 1148.69 34.48
14860 0.7905 1186.00 1144.92 34.44
14861 0.7905 1202.00 1141.13 34.67
14862 0.7906 1269.00 1137.56 35.62
14863 0.7906 1165.00 1133.83 34.13
14864 0.7907 1087.00 1130.81 32.97
14865 0.7907 1263.00 1128.08 35.54
14866 0.7908 1143.00 1125.63 33.81
14867 0.7908 1084.00 1123.62 32.92
14868 0.7909 1156.00 1121.75 34.00
14869 0.7909 1142.00 1120.16 33.79
14870 0.7910 1221.00 1118.85 34.94
14871 0.7910 1109.00 1117.87 33.30
14872 0.7911 1155.00 1117.08 33.99
14873 0.7911 1216.00 1116.55 34.87
14874 0.7912 1087.00 1116.25 32.97
14875 0.7912 1265.00 1116.19 35.57
14876 0.7913 1107.00 1116.35 33.27
14877 0.7913 1120.00 1116.73 33.47
14878 0.7914 1188.00 1117.30 34.47
14879 0.7915 1207.00 1117.92 34.74
14880 0.7915 1217.00 1118.90 34.89
14881 0.7916 1115.00 1120.06 33.39
14882 0.7916 1200.00 1121.38 34.64
14883 0.7917 1232.00 1122.84 35.10
14884 0.7917 1123.00 1124.43 33.51
14885 0.7918 1125.00 1126.13 33.54
14886 0.7918 1112.00 1127.90 33.35
14887 0.7919 1189.00 1129.47 34.48
14888 0.7919 1190.00 1131.44 34.50
14889 0.7920 1150.00 1133.20 33.91
14890 0.7920 1141.00 1134.93 33.78
14891 0.7921 1185.00 1136.54 34.42
14892 0.7921 1203.00 1138.00 34.68
14893 0.7922 1181.00 1139.26 34.37
14894 0.7922 1159.00 1140.18 34.04
14895 0.7923 1209.00 1140.97 34.77
14896 0.7923 1116.00 1141.48 33.41
14897 0.7924 1214.00 1141.70 34.84
14898 0.7924 1178.00 1141.68 34.32
14899 0.7925 1291.00 1141.41 35.93
14900 0.7926 1163.00 1140.92 34.10
14901 0.7926 1127.00 1140.17 33.57
14902 0.7927 1182.00 1139.37 34.38
14903 0.7927 1169.00 1138.44 34.19
14904 0.7928 1111.00 1137.48 33.33
14905 0.7928 1173.00 1136.51 34.25
14906 0.7929 1205.00 1135.53 34.71
14907 0.7929 1260.00 1134.61 35.50
14908 0.7930 1237.00 1133.73 35.17
14909 0.7930 1186.00 1132.90 34.44
14910 0.7931 1179.00 1132.10 34.34
14911 0.7931 1145.00 1131.36 33.84
14912 0.7932 1233.00 1130.61 35.11
14913 0.7932 1146.00 1129.89 33.85
14914 0.7933 1135.00 1129.13 33.69
14915 0.7933 1208.00 1128.34 34.76
14916 0.7934 1177.00 1127.48 34.31
14917 0.7934 1252.00 1126.54 35.38
14918 0.7935 1230.00 1125.51 35.07
14919 0.7935 1185.00 1124.38 34.42
14920 0.7936 1057.00 1123.15 32.51
14921 0.7937 1109.00 1121.82 33.30
14922 0.7937 1156.00 1120.39 34.00
14923 0.7938 1192.00 1118.88 34.53
14924 0.7938 1069.00 1117.30 32.70
14925 0.7939 1212.00 1115.65 34.81
14926 0.7939 1216.00 1113.91 34.87
14927 0.7940 1165.00 1112.16 34.13
14928 0.7940 1140.00 1110.37 33.76
14929 0.7941 1150.00 1108.72 33.91
14930 0.7941 1162.00 1106.84 34.09
14931 0.7942 1124.00 1104.99 33.53
14932 0.7942 1056.00 1103.11 32.50
14933 0.7943 1209.00 1101.27 34.77
14934 0.7943 1171.00 1099.43 34.22
14935 0.7944 1152.00 1097.61 33.94
14936 0.7944 1061.00 1095.83 32.57
14937 0.7945 1261.00 1094.10 35.51
14938 0.7945 1117.00 1092.43 33.42
14939 0.7946 1096.00 1090.83 33.11
14940 0.7946 1194.00 1089.30 34.55
14941 0.7947 1065.00 1087.71 32.63
14942 0.7948 1139.00 1086.34 33.75
14943 0.7948 1157.00 1085.15 34.01
14944 0.7949 1132.00 1083.94 33.65
14945 0.7949 1054.00 1082.83 32.47
14946 0.7950 1151.00 1081.80 33.93
14947 0.7950 1123.00 1080.85 33.51
14948 0.7951 1212.00 1080.16 34.81
14949 0.7951 1103.00 1079.37 33.21
14950 0.7952 1051.00 1078.64 32.42
14951 0.7952 1102.00 1077.97 33.20
14952 0.7953 1115.00 1077.39 33.39
14953 0.7953 1234.00 1076.89 35.13
14954 0.7954 1139.00 1076.45 33.75
14955 0.7954 1195.00 1076.08 34.57
14956 0.7955 1120.00 1075.79 33.47
14957 0.7955 1186.00 1075.56 34.44
14958 0.7956 1224.00 1075.40 34.99
14959 0.7956 1062.00 1075.33 32.59
14960 0.7957 1156.00 1075.22 34.00
14961 0.7957 1159.00 1075.11 34.04
14962 0.7958 1126.00 1075.19 33.56
14963 0.7959 1125.00 1075.25 33.54
14964 0.7959 1140.00 1075.46 33.76
14965 0.7960 1154.00 1075.72 33.97
14966 0.7960 1067.00 1076.05 32.67
14967 0.7961 1242.00 1076.29 35.24
14968 0.7961 1038.00 1076.63 32.22
14969 0.7962 1081.00 1076.90 32.88
14970 0.7962 1132.00 1077.24 33.65
14971 0.7963 1151.00 1077.57 33.93
14972 0.7963 1061.00 1077.85 32.57
14973 0.7964 1057.00 1078.09 32.51
14974 0.7964 1153.00 1078.28 33.96
14975 0.7965 1103.00 1078.40 33.21
14976 0.7965 1036.00 1078.46 32.19
14977 0.7966 1073.00 1078.49 32.76
14978 0.7966 1125.00 1078.48 33.54
14979 0.7967 1127.00 1078.37 33.57
14980 0.7967 1146.00 1078.20 33.85
14981 0.7968 1184.00 1078.00 34.41
14982 0.7968 1056.00 1077.79 32.50
14983 0.7969 1171.00 1077.54 34.22
14984 0.7970 1243.00 1077.32 35.26
14985 0.7970 1081.00 1077.11 32.88
14986 0.7971 1077.00 1076.81 32.82
14987 0.7971 1055.00 1076.66 32.48
14988 0.7972 1100.00 1076.58 33.17
14989 0.7972 1212.00 1076.50 34.81
14990 0.7973 1238.00 1076.46 35.19
14991 0.7973 1122.00 1076.46 33.50
14992 0.7974 1187.00 1076.50 34.45
14993 0.7974 1175.00 1076.55 34.28
14994 0.7975 1120.00 1076.67 33.47
14995 0.7975 1017.00 1076.81 31.89
14996 0.7976 960.00 1076.99 30.98
14997 0.7976 1017.00 1077.20 31.89
14998 0.7977 1101.00 1077.46 33.18
14999 0.7977 1100.00 1077.74 33.17
15000 0.7978 1124.00 1078.07 33.53
15001 0.7978 1066.00 1078.44 32.65
15002 0.7979 1080.00 1078.83 32.86
15003 0.7979 965.00 1079.25 31.06
15004 0.7980 1077.00 1079.71 32.82
15005 0.7981 1086.00 1080.20 32.95
15006 0.7981 1087.00 1080.72 32.97
15007 0.7982 1053.00 1081.27 32.45
15008 0.7982 1138.00 1081.86 33.73
15009 0.7983 1117.00 1082.43 33.42
15010 0.7983 1160.00 1083.02 34.06
15011 0.7984 1168.00 1083.55 34.18
15012 0.7984 1223.00 1084.14 34.97
15013 0.7985 1095.00 1084.73 33.09
15014 0.7985 1157.00 1085.30 34.01
15015 0.7986 1123.00 1085.84 33.51
15016 0.7986 1169.00 1086.47 34.19
15017 0.7987 951.00 1086.97 30.84
15018 0.7987 1086.00 1087.46 32.95
15019 0.7988 1297.00 1087.91 36.01
15020 0.7988 1112.00 1088.37 33.35
15021 0.7989 1239.00 1088.82 35.20
15022 0.7989 1109.00 1089.27 33.30
15023 0.7990 988.00 1089.73 31.43
15024 0.7990 1122.00 1090.22 33.50
15025 0.7991 1032.00 1090.71 32.12
15026 0.7992 1085.00 1091.26 32.94
15027 0.7992 1127.00 1091.77 33.57
15028 0.7993 1244.00 1092.29 35.27
15029 0.7993 1146.00 1092.80 33.85
15030 0.7994 1156.00 1093.31 34.00
15031 0.7994 1111.00 1093.81 33.33
15032 0.7995 1009.00 1094.28 31.76
15033 0.7995 1127.00 1094.73 33.57
15034 0.7996 1034.00 1095.17 32.16
15035 0.7996 1029.00 1095.57 32.08
15036 0.7997 1110.00 1095.97 33.32
15037 0.7997 1239.00 1096.39 35.20
15038 0.7998 1032.00 1096.85 32.12
15039 0.7998 1164.00 1097.25 34.12
15040 0.7999 1204.00 1097.81 34.70
15041 0.7999 998.00 1098.44 31.59
15042 0.8000 1083.00 1099.16 32.91
15043 0.8000 1173.00 1099.98 34.25
15044 0.8001 1068.00 1100.88 32.68
15045 0.8001 1177.00 1101.89 34.31
15046 0.8002 1264.00 1103.18 35.55
15047 0.8003 1085.00 1104.42 32.94
15048 0.8003 1177.00 1105.76 34.31
15049 0.8004 1176.00 1107.21 34.29
15050 0.8004 1162.00 1108.74 34.09
15051 0.8005 1205.00 1110.37 34.71
15052 0.8005 1177.00 1112.11 34.31
15053 0.8006 1077.00 1113.84 32.82
15054 0.8006 982.00 1115.62 31.34
15055 0.8007 1212.00 1117.43 34.81
15056 0.8007 1182.00 1119.19 34.38
15057 0.8008 1149.00 1121.03 33.90
15058 0.8008 956.00 1122.57 30.92
15059 0.8009 1178.00 1124.24 34.32
15060 0.8009 1068.00 1125.81 32.68
15061 0.8010 1008.00 1127.27 31.75
15062 0.8010 1146.00 1128.59 33.85
15063 0.8011 1112.00 1129.76 33.35
15064 0.8011 1223.00 1130.80 34.97
15065 0.8012 1088.00 1131.48 32.98
15066 0.8012 1093.00 1132.24 33.06
15067 0.8013 1194.00 1132.89 34.55
15068 0.8014 1187.00 1133.17 34.45
15069 0.8014 969.00 1133.61 31.13
15070 0.8015 1099.00 1133.95 33.15
15071 0.8015 1118.00 1134.23 33.44
15072 0.8016 1218.00 1134.40 34.90
15073 0.8016 1117.00 1134.48 33.42
15074 0.8017 1246.00 1134.47 35.30
15075 0.8017 1086.00 1134.36 32.95
15076 0.8018 1189.00 1134.14 34.48
15077 0.8018 1192.00 1133.78 34.53
15078 0.8019 1146.00 1133.28 33.85
15079 0.8019 1095.00 1132.64 33.09
15080 0.8020 1023.00 1131.85 31.98
15081 0.8020 1072.00 1131.08 32.74
15082 0.8021 1098.00 1130.03 33.14
15083 0.8021 1200.00 1128.94 34.64
15084 0.8022 1038.00 1127.68 32.22
15085 0.8022 1109.00 1126.33 33.30
15086 0.8023 1144.00 1124.91 33.82
15087 0.8023 1101.00 1123.45 33.18
15088 0.8024 1208.00 1121.95 34.76
15089 0.8024 1113.00 1120.44 33.36
15090 0.8025 903.00 1118.93 30.05
15091 0.8026 1144.00 1117.42 33.82
15092 0.8026 1217.00 1115.94 34.89
15093 0.8027 1128.00 1114.48 33.59
15094 0.8027 1197.00 1113.05 34.60
15095 0.8028 1087.00 1111.67 32.97
15096 0.8028 1169.00 1110.34 34.19
15097 0.8029 1051.00 1109.07 32.42
15098 0.8029 1005.00 1107.86 31.70
15099 0.8030 971.00 1106.71 31.16
15100 0.8030 1282.00 1105.67 35.81
15101 0.8031 1262.00 1104.71 35.52
15102 0.8031 1076.00 1103.85 32.80
15103 0.8032 1198.00 1103.60 34.61
15104 0.8032 1029.00 1102.96 32.08
15105 0.8033 1133.00 1102.43 33.66
15106 0.8033 1200.00 1102.03 34.64
15107 0.8034 1148.00 1101.74 33.88
15108 0.8034 1132.00 1101.54 33.65
15109 0.8035 1196.00 1101.50 34.58
15110 0.8035 1044.00 1101.57 32.31
15111 0.8036 1054.00 1101.69 32.47
15112 0.8037 976.00 1102.08 31.24
15113 0.8037 968.00 1102.51 31.11
15114 0.8038 999.00 1103.06 31.61
15115 0.8038 1019.00 1103.73 31.92
15116 0.8039 1201.00 1104.48 34.66
15117 0.8039 1143.00 1105.35 33.81
15118 0.8040 1178.00 1106.34 34.32
15119 0.8040 1129.00 1107.43 33.60
15120 0.8041 1056.00 1108.50 32.50
15121 0.8041 1231.00 1109.78 35.09
15122 0.8042 1002.00 1111.16 31.65
15123 0.8042 1023.00 1112.67 31.98
15124 0.8043 1212.00 1114.19 34.81
15125 0.8043 1030.00 1115.76 32.09
15126 0.8044 1202.00 1117.37 34.67
15127 0.8044 1037.00 1119.00 32.20
15128 0.8045 1041.00 1120.63 32.26
15129 0.8045 1143.00 1122.66 33.81
15130 0.8046 1335.00 1124.38 36.54
15131 0.8046 1149.00 1125.89 33.90
15132 0.8047 1108.00 1127.32 33.29
15133 0.8048 1213.00 1128.64 34.83
15134 0.8048 1076.00 1129.85 32.80
15135 0.8049 978.00 1130.93 31.27
15136 0.8049 947.00 1131.82 30.77
15137 0.8050 1199.00 1132.62 34.63
15138 0.8050 877.00 1133.26 29.61
15139 0.8051 1105.00 1133.74 33.24
15140 0.8051 1128.00 1134.07 33.59
15141 0.8052 1055.00 1134.26 32.48
15142 0.8052 1150.00 1134.19 33.91
15143 0.8053 1153.00 1134.09 33.96
15144 0.8053 1386.00 1133.85 37.23
15145 0.8054 1157.00 1133.47 34.01
15146 0.8054 978.00 1132.99 31.27
15147 0.8055 1082.00 1132.46 32.89
15148 0.8055 1131.00 1131.78 33.63
15149 0.8056 1287.00 1131.01 35.87
15150 0.8056 1067.00 1130.16 32.67
15151 0.8057 1152.00 1129.26 33.94
15152 0.8057 1048.00 1128.30 32.37
15153 0.8058 1186.00 1127.29 34.44
15154 0.8059 1303.00 1126.32 36.10
15155 0.8059 1143.00 1125.65 33.81
15156 0.8060 1306.00 1124.72 36.14
15157 0.8060 997.00 1123.83 31.58
15158 0.8061 1082.00 1123.00 32.89
15159 0.8061 1095.00 1122.23 33.09
15160 0.8062 1118.00 1121.54 33.44
15161 0.8062 979.00 1120.96 31.29
15162 0.8063 1167.00 1120.43 34.16
15163 0.8063 1298.00 1119.97 36.03
15164 0.8064 1063.00 1119.59 32.60
15165 0.8064 1156.00 1119.27 34.00
15166 0.8065 1104.00 1119.02 33.23
15167 0.8065 987.00 1118.82 31.42
15168 0.8066 936.00 1118.65 30.59
15169 0.8066 1081.00 1118.52 32.88
15170 0.8067 1114.00 1118.40 33.38
15171 0.8067 1070.00 1118.29 32.71
15172 0.8068 1084.00 1118.17 32.92
15173 0.8068 1133.00 1118.05 33.66
15174 0.8069 1115.00 1117.92 33.39
15175 0.8070 1156.00 1117.78 34.00
15176 0.8070 1175.00 1117.62 34.28
15177 0.8071 1183.00 1117.41 34.39
15178 0.8071 1189.00 1117.23 34.48
15179 0.8072 1112.00 1117.04 33.35
15180 0.8072 1183.00 1116.85 34.39
15181 0.8073 1270.00 1116.61 35.64
15182 0.8073 1047.00 1116.42 32.36
15183 0.8074 1041.00 1116.24 32.26
15184 0.8074 1132.00 1116.06 33.65
15185 0.8075 1125.00 1115.91 33.54
15186 0.8075 1184.00 1115.77 34.41
15187 0.8076 1037.00 1115.65 32.20
15188 0.8076 1167.00 1115.56 34.16
15189 0.8077 993.00 1115.49 31.51
15190 0.8077 1069.00 1115.47 32.70
15191 0.8078 1113.00 1115.48 33.36
15192 0.8078 1037.00 1115.52 32.20
15193 0.8079 1219.00 1115.60 34.91
15194 0.8079 1091.00 1115.73 33.03
15195 0.8080 1147.00 1115.91 33.87
15196 0.8081 1121.00 1116.15 33.48
15197 0.8081 1088.00 1116.45 32.98
15198 0.8082 1061.00 1116.83 32.57
15199 0.8082 1001.00 1117.27 31.64
15200 0.8083 1275.00 1117.80 35.71
15201 0.8083 1047.00 1118.40 32.36
15202 0.8084 1159.00 1119.08 34.04
15203 0.8084 1187.00 1119.83 34.45
15204 0.8085 1259.00 1120.67 35.48
15205 0.8085 1160.00 1121.57 34.06
15206 0.8086 1085.00 1122.55 32.94
15207 0.8086 1068.00 1123.59 32.68
15208 0.8087 1014.00 1124.68 31.84
15209 0.8087 1158.00 1125.82 34.03
15210 0.8088 1057.00 1126.99 32.51
15211 0.8088 1069.00 1128.19 32.70
15212 0.8089 1063.00 1129.40 32.60
15213 0.8089 1362.00 1130.62 36.91
15214 0.8090 1192.00 1131.81 34.53
15215 0.8090 1176.00 1133.05 34.29
15216 0.8091 1085.00 1134.20 32.94
15217 0.8092 1116.00 1135.29 33.41
15218 0.8092 1066.00 1136.31 32.65
15219 0.8093 1228.00 1137.23 35.04
15220 0.8093 1168.00 1138.09 34.18
15221 0.8094 999.00 1138.85 31.61
15222 0.8094 940.00 1139.52 30.66
15223 0.8095 1024.00 1140.08 32.00
15224 0.8095 998.00 1140.60 31.59
15225 0.8096 1322.00 1141.00 36.36
15226 0.8096 1154.00 1141.33 33.97
15227 0.8097 1102.00 1141.63 33.20
15228 0.8097 1167.00 1141.92 34.16
15229 0.8098 1242.00 1142.22 35.24
15230 0.8098 1039.00 1142.54 32.23
15231 0.8099 1122.00 1142.92 33.50
15232 0.8099 1305.00 1143.44 36.12
15233 0.8100 1145.00 1143.97 33.84
15234 0.8100 1127.00 1144.59 33.57
15235 0.8101 1010.00 1145.31 31.78
15236 0.8101 1172.00 1146.12 34.23
15237 0.8102 1111.00 1147.01 33.33
15238 0.8103 1110.00 1147.98 33.32
15239 0.8103 1053.00 1149.03 32.45
15240 0.8104 1137.00 1150.12 33.72
15241 0.8104 1173.00 1151.26 34.25
15242 0.8105 1255.00 1152.42 35.43
15243 0.8105 1088.00 1153.47 32.98
15244 0.8106 1167.00 1154.63 34.16
15245 0.8106 1196.00 1155.77 34.58
15246 0.8107 1206.00 1156.86 34.73
15247 0.8107 1214.00 1157.90 34.84
15248 0.8108 887.00 1158.88 29.78
15249 0.8108 1135.00 1159.80 33.69
15250 0.8109 1104.00 1160.64 33.23
15251 0.8109 1202.00 1161.42 34.67
15252 0.8110 1188.00 1162.12 34.47
15253 0.8110 1124.00 1162.98 33.53
15254 0.8111 1129.00 1163.56 33.60
15255 0.8111 1120.00 1164.09 33.47
15256 0.8112 1074.00 1164.57 32.77
15257 0.8112 1040.00 1165.00 32.25
15258 0.8113 1115.00 1165.41 33.39
15259 0.8114 1144.00 1165.78 33.82
15260 0.8114 1012.00 1166.12 31.81
15261 0.8115 1128.00 1166.93 33.59
15262 0.8115 1059.00 1167.25 32.54
15263 0.8116 1270.00 1167.56 35.64
15264 0.8116 1180.00 1167.88 34.35
15265 0.8117 1016.00 1168.20 31.87
15266 0.8117 1058.00 1168.55 32.53
15267 0.8118 1102.00 1168.93 33.20
15268 0.8118 1140.00 1169.36 33.76
15269 0.8119 1235.00 1169.87 35.14
15270 0.8119 1138.00 1170.44 33.73
15271 0.8120 1192.00 1171.02 34.53
15272 0.8120 1101.00 1171.78 33.18
15273 0.8121 1124.00 1172.63 33.53
15274 0.8121 1130.00 1173.59 33.62
15275 0.8122 1016.00 1174.64 31.87
15276 0.8122 1015.00 1175.77 31.86
15277 0.8123 1049.00 1177.02 32.39
15278 0.8123 1326.00 1178.25 36.41
15279 0.8124 1176.00 1179.68 34.29
15280 0.8125 1113.00 1181.21 33.36
15281 0.8125 1053.00 1182.82 32.45
15282 0.8126 988.00 1184.52 31.43
15283 0.8126 1107.00 1186.29 33.27
15284 0.8127 1125.00 1188.15 33.54
15285 0.8127 1130.00 1190.05 33.62
15286 0.8128 1131.00 1192.06 33.63
15287 0.8128 1220.00 1194.10 34.93
15288 0.8129 1085.00 1196.36 32.94
15289 0.8129 1059.00 1198.58 32.54
15290 0.8130 1173.00 1200.87 34.25
15291 0.8130 1154.00 1203.19 33.97
15292 0.8131 1098.00 1205.62 33.14
15293 0.8131 1174.00 1208.12 34.26
15294 0.8132 1145.00 1210.69 33.84
15295 0.8132 1207.00 1213.32 34.74
15296 0.8133 945.00 1216.01 30.74
15297 0.8133 1049.00 1218.76 32.39
15298 0.8134 1136.00 1221.35 33.70
15299 0.8134 1066.00 1224.23 32.65
15300 0.8135 1217.00 1227.02 34.89
15301 0.8136 874.00 1229.73 29.56
15302 0.8136 1150.00 1232.39 33.91
15303 0.8137 1257.00 1234.91 35.45
15304 0.8137 1152.00 1237.26 33.94
15305 0.8138 1116.00 1239.37 33.41
15306 0.8138 1231.00 1241.20 35.09
15307 0.8139 1222.00 1242.72 34.96
15308 0.8139 1096.00 1243.88 33.11
15309 0.8140 1204.00 1244.67 34.70
15310 0.8140 1290.00 1245.23 35.92
15311 0.8141 1398.00 1245.25 37.39
15312 0.8141 1148.00 1244.90 33.88
15313 0.8142 1147.00 1244.22 33.87
15314 0.8142 1065.00 1243.22 32.63
15315 0.8143 1095.00 1241.89 33.09
15316 0.8143 1091.00 1240.40 33.03
15317 0.8144 1278.00 1238.74 35.75
15318 0.8144 1070.00 1236.96 32.71
15319 0.8145 1135.00 1235.12 33.69
15320 0.8145 1140.00 1233.27 33.76
15321 0.8146 1079.00 1231.44 32.85
15322 0.8146 1059.00 1229.82 32.54
15323 0.8147 1087.00 1228.20 32.97
15324 0.8148 1192.00 1226.73 34.53
15325 0.8148 1209.00 1225.45 34.77
15326 0.8149 1014.00 1224.37 31.84
15327 0.8149 1162.00 1223.52 34.09
15328 0.8150 1176.00 1222.91 34.29
15329 0.8150 1030.00 1222.54 32.09
15330 0.8151 987.00 1222.41 31.42
15331 0.8151 1059.00 1222.53 32.54
15332 0.8152 1158.00 1222.87 34.03
15333 0.8152 1097.00 1223.43 33.12
15334 0.8153 1083.00 1224.17 32.91
15335 0.8153 1161.00 1225.08 34.07
15336 0.8154 1221.00 1226.12 34.94
15337 0.8154 1206.00 1227.23 34.73
15338 0.8155 1321.00 1228.49 36.35
15339 0.8155 1188.00 1229.68 34.47
15340 0.8156 1331.00 1230.88 36.48
15341 0.8156 1068.00 1231.94 32.68
15342 0.8157 1100.00 1232.87 33.17
15343 0.8157 1097.00 1233.64 33.12
15344 0.8158 1125.00 1234.17 33.54
15345 0.8159 1231.00 1234.53 35.09
15346 0.8159 1181.00 1234.63 34.37
15347 0.8160 1170.00 1234.66 34.21
15348 0.8160 1049.00 1234.40 32.39
15349 0.8161 1098.00 1233.76 33.14
15350 0.8161 1150.00 1232.78 33.91
15351 0.8162 1145.00 1231.62 33.84
15352 0.8162 1222.00 1230.31 34.96
15353 0.8163 1018.00 1228.82 31.91
15354 0.8163 1268.00 1227.20 35.61
15355 0.8164 1071.00 1225.36 32.73
15356 0.8164 1046.00 1223.44 32.34
15357 0.8165 1323.00 1221.42 36.37
15358 0.8165 1178.00 1219.31 34.32
15359 0.8166 1145.00 1217.11 33.84
15360 0.8166 1119.00 1214.82 33.45
15361 0.8167 1119.00 1212.44 33.45
15362 0.8167 1152.00 1209.97 33.94
15363 0.8168 1039.00 1207.40 32.23
15364 0.8168 1132.00 1204.74 33.65
15365 0.8169 1175.00 1201.97 34.28
15366 0.8170 1226.00 1199.03 35.01
15367 0.8170 1166.00 1196.31 34.15
15368 0.8171 1159.00 1193.34 34.04
15369 0.8171 1031.00 1190.31 32.11
15370 0.8172 1249.00 1187.27 35.34
15371 0.8172 1357.00 1184.23 36.84
15372 0.8173 1055.00 1181.25 32.48
15373 0.8173 1058.00 1178.30 32.53
15374 0.8174 1014.00 1175.43 31.84
15375 0.8174 1172.00 1172.67 34.23
15376 0.8175 1200.00 1170.02 34.64
15377 0.8175 1239.00 1167.52 35.20
15378 0.8176 1154.00 1165.16 33.97
15379 0.8176 1042.00 1162.96 32.28
15380 0.8177 940.00 1160.92 30.66
15381 0.8177 1063.00 1159.03 32.60
15382 0.8178 1082.00 1157.31 32.89
15383 0.8178 1083.00 1155.73 32.91
15384 0.8179 1150.00 1154.28 33.91
15385 0.8179 1043.00 1152.97 32.30
15386 0.8180 1207.00 1151.82 34.74
15387 0.8181 1030.00 1150.79 32.09
15388 0.8181 1122.00 1149.86 33.50
15389 0.8182 1078.00 1149.05 32.83
15390 0.8182 1232.00 1148.34 35.10
15391 0.8183 1005.00 1147.73 31.70
15392 0.8183 958.00 1147.20 30.95
15393 0.8184 1159.00 1146.74 34.04
15394 0.8184 1127.00 1146.35 33.57
15395 0.8185 1231.00 1146.02 35.09
15396 0.8185 1137.00 1146.12 33.72
15397 0.8186 1046.00 1145.84 32.34
15398 0.8186 1078.00 1145.66 32.83
15399 0.8187 1153.00 1145.52 33.96
15400 0.8187 1240.00 1145.40 35.21
15401 0.8188 1037.00 1145.33 32.20
15402 0.8188 932.00 1145.28 30.53
15403 0.8189 1128.00 1145.26 33.59
15404 0.8189 1005.00 1145.27 31.70
15405 0.8190 1236.00 1145.30 35.16
15406 0.8190 1223.00 1145.36 34.97
15407 0.8191 1039.00 1145.46 32.23
15408 0.8192 1057.00 1145.58 32.51
15409 0.8192 1167.00 1145.74 34.16
15410 0.8193 1033.00 1145.94 32.14
15411 0.8193 1184.00 1146.20 34.41
15412 0.8194 1247.00 1146.48 35.31
15413 0.8194 1136.00 1147.14 33.70
15414 0.8195 1110.00 1147.52 33.32
15415 0.8195 1010.00 1147.96 31.78
15416 0.8196 1114.00 1148.44 33.38
15417 0.8196 1008.00 1148.96 31.75
15418 0.8197 1153.00 1149.53 33.96
15419 0.8197 1214.00 1150.13 34.84
15420 0.8198 1298.00 1150.78 36.03
15421 0.8198 1052.00 1151.46 32.43
15422 0.8199 1202.00 1152.18 34.67
15423 0.8199 1119.00 1152.93 33.45
15424 0.8200 940.00 1153.70 30.66
15425 0.8200 1119.00 1154.54 33.45
15426 0.8201 1072.00 1155.44 32.74
15427 0.8201 1097.00 1156.40 33.12
15428 0.8202 983.00 1157.41 31.35
15429 0.8203 1138.00 1158.52 33.73
15430 0.8203 1025.00 1159.72 32.02
15431 0.8204 1216.00 1161.01 34.87
15432 0.8204 1052.00 1162.25 32.43
15433 0.8205 1111.00 1163.77 33.33
15434 0.8205 1061.00 1165.40 32.57
15435 0.8206 1157.00 1167.15 34.01
15436 0.8206 1038.00 1169.02 32.22
15437 0.8207 1062.00 1171.01 32.59
15438 0.8207 1155.00 1173.17 33.99
15439 0.8208 1057.00 1175.38 32.51
15440 0.8208 1243.00 1177.68 35.26
15441 0.8209 1107.00 1180.07 33.27
15442 0.8209 1132.00 1182.53 33.65
15443 0.8210 1298.00 1185.04 36.03
15444 0.8210 1085.00 1187.58 32.94
15445 0.8211 1178.00 1190.14 34.32
15446 0.8211 1059.00 1192.68 32.54
15447 0.8212 1179.00 1195.23 34.34
15448 0.8212 1097.00 1197.66 33.12
15449 0.8213 1127.00 1199.99 33.57
15450 0.8214 1011.00 1202.20 31.80
15451 0.8214 1189.00 1204.25 34.48
15452 0.8215 1247.00 1206.12 35.31
15453 0.8215 1305.00 1207.78 36.12
15454 0.8216 1039.00 1209.21 32.23
15455 0.8216 973.00 1210.38 31.19
15456 0.8217 1147.00 1211.29 33.87
15457 0.8217 1106.00 1211.94 33.26
15458 0.8218 1155.00 1212.31 33.99
15459 0.8218 1140.00 1212.40 33.76
15460 0.8219 1209.00 1212.15 34.77
15461 0.8219 1119.00 1211.64 33.45
15462 0.8220 1218.00 1210.86 34.90
15463 0.8220 1064.00 1209.82 32.62
15464 0.8221 1027.00 1208.47 32.05
15465 0.8221 1090.00 1206.85 33.02
15466 0.8222 974.00 1204.97 31.21
15467 0.8222 1107.00 1202.85 33.27
15468 0.8223 996.00 1200.44 31.56
15469 0.8223 1128.00 1197.91 33.59
15470 0.8224 1059.00 1195.19 32.54
15471 0.8225 1114.00 1192.41 33.38
15472 0.8225 976.00 1189.52 31.24
15473 0.8226 1269.00 1186.60 35.62
15474 0.8226 1259.00 1183.76 35.48
15475 0.8227 1091.00 1180.95 33.03
15476 0.8227 1002.00 1178.28 31.65
15477 0.8228 1017.00 1175.68 31.89
15478 0.8228 1098.00 1173.18 33.14
15479 0.8229 969.00 1171.09 31.13
15480 0.8229 1126.00 1168.90 33.56
15481 0.8230 1129.00 1166.86 33.60
15482 0.8230 1191.00 1164.98 34.51
15483 0.8231 1004.00 1163.25 31.69
15484 0.8231 1115.00 1161.67 33.39
15485 0.8232 1061.00 1160.18 32.57
15486 0.8232 1217.00 1158.85 34.89
15487 0.8233 1148.00 1157.62 33.88
15488 0.8233 1067.00 1156.50 32.67
15489 0.8234 1094.00 1155.47 33.08
15490 0.8234 1113.00 1154.51 33.36
15491 0.8235 1037.00 1153.64 32.20
15492 0.8236 1156.00 1153.19 34.00
15493 0.8236 1170.00 1152.47 34.21
15494 0.8237 1029.00 1151.77 32.08
15495 0.8237 917.00 1151.20 30.28
15496 0.8238 980.00 1150.71 31.31
15497 0.8238 965.00 1150.31 31.06
15498 0.8239 1103.00 1150.00 33.21
15499 0.8239 1109.00 1149.78 33.30
15500 0.8240 1045.00 1149.64 32.33
15501 0.8240 1214.00 1149.60 34.84
15502 0.8241 1055.00 1149.63 32.48
15503 0.8241 1113.00 1149.73 33.36
15504 0.8242 1040.00 1149.87 32.25
15505 0.8242 1258.00 1150.26 35.47
15506 0.8243 1112.00 1150.49 33.35
15507 0.8243 1001.00 1150.69 31.64
15508 0.8244 961.00 1150.93 31.00
15509 0.8244 1170.00 1151.14 34.21
15510 0.8245 1115.00 1151.31 33.39
15511 0.8245 1059.00 1151.42 32.54
15512 0.8246 1161.00 1151.46 34.07
15513 0.8247 1142.00 1151.41 33.79
15514 0.8247 1219.00 1151.38 34.91
15515 0.8248 1163.00 1151.49 34.10
15516 0.8248 1146.00 1151.27 33.85
15517 0.8249 1119.00 1151.13 33.45
15518 0.8249 1048.00 1150.99 32.37
15519 0.8250 1152.00 1150.83 33.94
15520 0.8250 972.00 1150.68 31.18
15521 0.8251 1075.00 1150.54 32.79
15522 0.8251 1196.00 1150.33 34.58
15523 0.8252 1070.00 1150.24 32.71
15524 0.8252 1063.00 1150.20 32.60
15525 0.8253 1111.00 1150.20 33.33
15526 0.8253 968.00 1150.25 31.11
15527 0.8254 1161.00 1150.34 34.07
15528 0.8254 977.00 1150.46 31.26
15529 0.8255 1025.00 1150.48 32.02
15530 0.8255 1034.00 1150.68 32.16
15531 0.8256 1130.00 1150.89 33.62
15532 0.8256 1009.00 1150.91 31.76
15533 0.8257 1154.00 1151.14 33.97
15534 0.8258 1132.00 1151.35 33.65
15535 0.8258 1113.00 1151.53 33.36
15536 0.8259 1052.00 1151.68 32.43
15537 0.8259 1097.00 1151.78 33.12
15538 0.8260 1045.00 1151.87 32.33
15539 0.8260 1073.00 1151.84 32.76
15540 0.8261 1258.00 1151.74 35.47
15541 0.8261 1029.00 1151.58 32.08
15542 0.8262 1209.00 1151.34 34.77
15543 0.8262 1120.00 1150.88 33.47
15544 0.8263 1003.00 1150.45 31.67
15545 0.8263 1179.00 1149.92 34.34
15546 0.8264 1313.00 1149.28 36.24
15547 0.8264 1085.00 1148.52 32.94
15548 0.8265 1122.00 1147.63 33.50
15549 0.8265 939.00 1146.62 30.64
15550 0.8266 1099.00 1145.48 33.15
15551 0.8266 1053.00 1144.20 32.45
15552 0.8267 1046.00 1142.80 32.34
15553 0.8267 1183.00 1141.28 34.39
15554 0.8268 1152.00 1139.64 33.94
15555 0.8268 1163.00 1138.04 34.10
15556 0.8269 1106.00 1136.20 33.26
15557 0.8270 1049.00 1134.28 32.39
15558 0.8270 1108.00 1132.30 33.29
15559 0.8271 1029.00 1130.27 32.08
15560 0.8271 1029.00 1128.20 32.08
15561 0.8272 1224.00 1125.98 34.99
15562 0.8272 1148.00 1123.90 33.88
15563 0.8273 1025.00 1121.83 32.02
15564 0.8273 1232.00 1119.82 35.10
15565 0.8274 1111.00 1117.84 33.33
15566 0.8274 1070.00 1115.92 32.71
15567 0.8275 1096.00 1114.10 33.11
15568 0.8275 1145.00 1112.37 33.84
15569 0.8276 1057.00 1110.75 32.51
15570 0.8276 1252.00 1109.25 35.38
15571 0.8277 972.00 1107.88 31.18
15572 0.8277 1287.00 1106.63 35.87
15573 0.8278 991.00 1105.36 31.48
15574 0.8278 1125.00 1104.22 33.54
15575 0.8279 1041.00 1103.36 32.26
15576 0.8279 1233.00 1102.57 35.11
15577 0.8280 1142.00 1101.91 33.79
15578 0.8281 1251.00 1101.36 35.37
15579 0.8281 983.00 1100.89 31.35
15580 0.8282 1147.00 1100.44 33.87
15581 0.8282 1027.00 1100.07 32.05
15582 0.8283 1196.00 1099.69 34.58
15583 0.8283 1074.00 1099.35 32.77
15584 0.8284 1129.00 1098.99 33.60
15585 0.8284 1046.00 1098.62 32.34
15586 0.8285 1183.00 1098.20 34.39
15587 0.8285 977.00 1097.72 31.26
15588 0.8286 1155.00 1097.19 33.99
15589 0.8286 1022.00 1096.63 31.97
15590 0.8287 1107.00 1096.03 33.27
15591 0.8287 1028.00 1095.37 32.06
15592 0.8288 1113.00 1094.72 33.36
15593 0.8288 1062.00 1093.94 32.59
15594 0.8289 1151.00 1093.32 33.93
15595 0.8289 1109.00 1092.76 33.30
15596 0.8290 1085.00 1092.28 32.94
15597 0.8290 1162.00 1091.84 34.09
15598 0.8291 1122.00 1091.49 33.50
15599 0.8292 1105.00 1091.30 33.24
15600 0.8292 1031.00 1091.15 32.11
15601 0.8293 1058.00 1091.09 32.53
15602 0.8293 1065.00 1091.13 32.63
15603 0.8294 1048.00 1091.25 32.37
15604 0.8294 1266.00 1091.43 35.58
15605 0.8295 1124.00 1091.66 33.53
15606 0.8295 997.00 1091.91 31.58
15607 0.8296 1084.00 1092.14 32.92
15608 0.8296 1272.00 1092.34 35.67
15609 0.8297 1106.00 1092.48 33.26
15610 0.8297 982.00 1092.50 31.34
15611 0.8298 1010.00 1092.38 31.78
15612 0.8298 1119.00 1092.15 33.45
15613 0.8299 1112.00 1091.68 33.35
15614 0.8299 1206.00 1091.01 34.73
15615 0.8300 968.00 1090.13 31.11
15616 0.8300 1012.00 1089.05 31.81
15617 0.8301 1165.00 1087.76 34.13
15618 0.8301 1134.00 1086.41 33.67
15619 0.8302 1074.00 1084.75 32.77
15620 0.8303 1065.00 1082.92 32.63
15621 0.8303 1175.00 1080.95 34.28
15622 0.8304 980.00 1078.86 31.31
15623 0.8304 1118.00 1076.65 33.44
15624 0.8305 1095.00 1074.34 33.09
15625 0.8305 876.00 1071.93 29.60
15626 0.8306 1027.00 1069.43 32.05
15627 0.8306 1071.00 1066.84 32.73
15628 0.8307 1035.00 1064.16 32.17
15629 0.8307 1118.00 1061.40 33.44
15630 0.8308 1154.00 1058.56 33.97
15631 0.8308 1175.00 1055.64 34.28
15632 0.8309 1128.00 1052.64 33.59
15633 0.8309 1114.00 1049.54 33.38
15634 0.8310 991.00 1046.39 31.48
15635 0.8310 989.00 1043.16 31.45
15636 0.8311 1094.00 1039.91 33.08
15637 0.8311 1105.00 1036.63 33.24
15638 0.8312 1051.00 1033.32 32.42
15639 0.8312 1117.00 1030.02 33.42
15640 0.8313 1042.00 1026.73 32.28
15641 0.8314 1023.00 1023.47 31.98
15642 0.8314 995.00 1020.27 31.54
15643 0.8315 994.00 1017.13 31.53
15644 0.8315 1181.00 1014.08 34.37
15645 0.8316 1205.00 1011.10 34.71
15646 0.8316 1199.00 1008.22 34.63
15647 0.8317 1112.00 1005.42 33.35
15648 0.8317 1174.00 1002.73 34.26
15649 0.8318 1119.00 1000.12 33.45
15650 0.8318 1015.00 997.61 31.86
15651 0.8319 1038.00 995.18 32.22
15652 0.8319 1268.00 992.86 35.61
15653 0.8320 1113.00 990.60 33.36
15654 0.8320 1118.00 988.42 33.44
15655 0.8321 942.00 986.32 30.69
15656 0.8321 1057.00 984.30 32.51
15657 0.8322 1237.00 982.36 35.17
15658 0.8322 1201.00 980.50 34.66
loop_
_pd_proc_info_excluded_regions
'from -206 to -206.500'
loop_
_cod_related_entry_id
_cod_related_entry_database
_cod_related_entry_code
1 ChemSpider 8961043
