#------------------------------------------------------------------------------
#$Date: 2017-08-06 01:39:33 +0300 (Sun, 06 Aug 2017) $
#$Revision: 199600 $
#$URL: file:///home/coder/svn-repositories/cod/cif/2/30/06/2300629.cif $
#------------------------------------------------------------------------------
#
# This file is available in the Crystallography Open Database (COD),
# http://www.crystallography.net/. The original data for this entry
# were provided by IUCr Journals, http://journals.iucr.org/.
#
# The file may be used within the scientific community so long as
# proper attribution is given to the journal article from which the
# data were obtained.
#
data_2300629
loop_
_publ_author_name
'Martin, Alexander T.'
'Nichols, Shane M.'
'Li, Sichao'
'Tan, Melissa'
'Kahr, Bart'
_publ_section_title
;
 Double cone of eigendirections in optically active ethylenediammonium
 selenate crystals
;
_journal_coeditor_code           TO5159
_journal_issue                   4
_journal_name_full               'Journal of Applied Crystallography'
_journal_page_first              1117
_journal_page_last               1124
_journal_paper_doi               10.1107/S1600576717007865
_journal_volume                  50
_journal_year                    2017
_chemical_formula_sum            'C2 H10 N2 O4 Se'
_chemical_formula_weight         205.08
_space_group_crystal_system      tetragonal
_space_group_IT_number           96
_space_group_name_Hall           'P 4nw 2abw'
_space_group_name_H-M_alt        'P 43 21 2'
_symmetry_space_group_name_Hall  'P 4nw 2abw'
_symmetry_space_group_name_H-M   'P 43 21 2'
_atom_sites_solution_hydrogens   geom
_audit_creation_method           SHELXL-2014/7
_cell_angle_alpha                90
_cell_angle_beta                 90
_cell_angle_gamma                90
_cell_formula_units_Z            4
_cell_length_a                   6.1352(4)
_cell_length_b                   6.1352(4)
_cell_length_c                   18.1726(12)
_cell_measurement_temperature    300(2)
_cell_volume                     684.03(8)
_computing_structure_refinement  'SHELXL-2014/7 (Sheldrick, 2014)'
_diffrn_ambient_temperature      300(2)
_diffrn_measured_fraction_theta_full 1.000
_diffrn_measured_fraction_theta_max 0.977
_diffrn_radiation_type           MoK\a
_diffrn_radiation_wavelength     0.71073
_diffrn_reflns_av_R_equivalents  0.0239
_diffrn_reflns_limit_h_max       8
_diffrn_reflns_limit_h_min       -8
_diffrn_reflns_limit_k_max       8
_diffrn_reflns_limit_k_min       -8
_diffrn_reflns_limit_l_max       24
_diffrn_reflns_limit_l_min       -25
_diffrn_reflns_number            11625
_diffrn_reflns_theta_full        25.242
_diffrn_reflns_theta_max         30.940
_diffrn_reflns_theta_min         3.505
_exptl_absorpt_coefficient_mu    5.443
_exptl_crystal_density_diffrn    1.991
_exptl_crystal_F_000             408
_refine_diff_density_max         0.299
_refine_diff_density_min         -0.919
_refine_ls_abs_structure_details
;
 Flack x determined using 320 quotients [(I+)-(I-)]/[(I+)+(I-)]
 (Parsons, Flack and Wagner, Acta Cryst. B69 (2013) 249-259).
;
_refine_ls_abs_structure_Flack   0.024(7)
_refine_ls_extinction_method     none
_refine_ls_goodness_of_fit_ref   1.202
_refine_ls_hydrogen_treatment    constr
_refine_ls_matrix_type           full
_refine_ls_number_parameters     42
_refine_ls_number_reflns         1050
_refine_ls_number_restraints     0
_refine_ls_restrained_S_all      1.202
_refine_ls_R_factor_all          0.0243
_refine_ls_R_factor_gt           0.0208
_refine_ls_shift/su_max          0.000
_refine_ls_shift/su_mean         0.000
_refine_ls_structure_factor_coef Fsqd
_refine_ls_weighting_details
'w=1/[\s^2^(Fo^2^)+(0.0310P)^2^+0.0547P] where P=(Fo^2^+2Fc^2^)/3'
_refine_ls_weighting_scheme      calc
_refine_ls_wR_factor_gt          0.0549
_refine_ls_wR_factor_ref         0.0557
_reflns_number_gt                961
_reflns_number_total             1050
_reflns_threshold_expression     'I > 2\s(I)'
_cod_data_source_file            to5159sup1.cif
_cod_data_source_block           I
_cod_depositor_comments          'Adding full bibliography for 2300629.cif.'
_cod_original_cell_volume        684.03(10)
_cod_database_code               2300629
_cod_database_fobs_code          2300629
_shelx_space_group_comment
;
The symmetry employed for this shelxl refinement is uniquely defined
by the following loop, which should always be used as a source of
symmetry information in preference to the above space-group names.
They are only intended as comments.
;
_shelx_hkl_file
;
  -1   0   0   -6.80    0.70
   0  -1   0   -3.80    0.60
   0  -1   0   -3.80    0.60
   0  -1   0   -5.60    0.80
   0   1   0   -4.60    0.90
   0   1   0   -3.90    0.90
   0   1   0   -3.90    0.60
   1   0   0   -5.00    0.90
  -1  -1   0   39.30    1.60
  -1  -1   0   36.90    2.30
  -1   1   0   35.50    1.90
  -1   1   0   39.00    2.20
  -1   1   0   37.00    2.10
  -1   1   0   39.60    2.20
   1  -1   0   36.10    2.20
   1   1   0   34.80    2.00
   1   1   0   39.10    2.50
  -1   2   0   80.29    4.00
   2   1   0   77.49    3.20
   2   1   0   78.99    4.50
  -1   2   0   78.99    3.70
  -1   2   0   72.49    3.90
  -1   2   0   90.59    4.20
  -2  -1   0   73.09    3.60
  -2  -1   0   82.79    4.10
   0   2   0 7543.75  203.58
   2   0   0 7835.62  204.18
   0  -2   0 8498.45  205.38
   0   2   0 7680.63  204.08
  -2   0   0 7621.64  203.98
   0  -2   0 8152.58  202.68
  -2   0   0 7866.61  202.98
   1   2   0   78.59    2.50
   2  -1   0   76.29    2.90
   1   2   0   72.69    3.90
   2  -1   0   79.59    4.10
   1   2   0   80.59    4.30
  -2   1   0   74.89    4.10
  -2   1   0   75.49    3.70
  -1  -2   0   80.69    2.40
  -1  -2   0   80.19    4.10
  -2   1   0   75.09    2.90
  -2  -2   0  514.95   16.10
  -2  -2   0  509.25   14.40
  -2   2   0  523.85   15.90
  -2   2   0  501.05   15.80
  -2   2   0  516.45   15.20
   2   2   0  528.85   16.90
  -2   2   0  506.35   15.80
   2   2   0  517.75   15.40
   2  -2   0  527.35   15.90
  -3  -2   0   17.40    2.30
   3   2   0   12.10    3.20
  -2   3   0   12.30    2.70
   3   2   0   18.90    2.30
  -2   3   0   15.60    2.70
  -2   3   0   13.00    2.60
  -2   3   0   10.40    2.30
  -3  -2   0   16.10    3.10
  -3  -1   0    9.50    2.10
  -1   3   0   11.40    2.40
  -1   3   0   16.00    2.70
   3   1   0   10.00    2.80
  -1   3   0   14.20    2.60
  -1   3   0   12.30    1.90
   1  -3   0   10.70    2.40
   1  -3   0   12.10    2.10
  -3  -1   0   13.80    2.50
   3   1   0   12.40    1.40
   0   3   0   -0.50    1.60
   3   0   0    0.50    1.80
   0  -3   0   -0.50    0.90
  -3   0   0   -3.10    1.40
  -3   0   0    2.10    1.70
   0  -3   0    0.30    1.60
   0   3   0   -0.80    1.70
   3  -1   0    9.30    2.50
  -3   1   0   14.60    2.40
   3  -1   0   11.40    1.20
   1   3   0   11.70    2.50
  -3   1   0   11.20    2.60
   1   3   0   10.90    2.70
  -1  -3   0   16.20    2.80
  -3   2   0   15.50    2.70
   2   3   0   13.50    3.30
   2   3   0   18.00    2.80
  -3   2   0   16.80    2.10
  -2  -3   0   14.20    1.30
   3  -2   0   14.40    2.80
   3  -2   0   17.70    2.00
  -2  -3   0   15.30    2.90
  -3   2   0   14.10    2.80
  -3   3   0    7.40    2.40
   3  -3   0   11.20    2.90
  -3  -3   0   13.20    3.40
  -3   3   0    7.80    2.70
  -3  -3   0   17.00    2.00
  -3   3   0   23.70    3.60
   3   3   0   12.10    2.50
   3  -3   0   11.00    2.30
   3   3   0   14.70    3.90
  -3   3   0   13.00    2.50
  -3   4   0  487.35   16.90
   4   3   0  497.55   19.30
  -3   4   0  495.75   17.30
   4   3   0  517.65   16.20
   3  -4   0  506.55   17.60
  -3   4   0  505.15   17.50
   3  -4   0  523.55   18.00
  -3   4   0  507.35   17.70
  -4  -3   0  515.35   15.80
  -4  -3   0  522.15   18.30
   4   2   0 2190.98   63.09
  -2   4   0 2233.18   61.49
  -2   4   0 2198.58   60.19
  -4  -2   0 2280.87   60.19
  -4  -2   0 2203.08   61.59
  -2   4   0 2268.07   61.39
   2  -4   0 2271.07   60.79
   4   2   0 2225.88   58.89
   2  -4   0 2287.67   61.59
  -2   4   0 2228.48   61.29
  -1   4   0  364.86   11.90
  -4  -1   0  377.16   10.40
  -1   4   0  393.86   13.80
   1  -4   0  392.46   13.80
  -4  -1   0  378.16   13.30
   4   1   0  375.26   10.50
  -1   4   0  387.76   13.80
   4   1   0  366.06   14.60
   1  -4   0  382.86   12.30
  -1   4   0  380.56   13.90
  -4  -1   0  387.56   13.60
   0   4   0 6510.65  170.78
   4   0   0 6732.93  171.48
   0  -4   0 6577.24  170.48
   0  -4   0 6514.55  167.78
   0   4   0 6506.35  170.68
  -4   0   0 6373.76  169.98
  -4   0   0 6661.23  170.58
   4  -1   0  378.76   14.00
  -1  -4   0  385.16   13.80
   1   4   0  354.26   13.70
  -4   1   0  376.86   13.20
   1   4   0  389.36   14.00
  -4   1   0  368.26   13.80
   4  -2   0 2216.98   61.09
   2   4   0 2269.57   60.79
   4  -2   0 2207.38   57.49
  -4   2   0 2143.69   60.49
  -4   2   0 2200.88   61.19
   2   4   0 2209.48   61.79
  -2  -4   0 2223.98   61.29
  -3  -4   0  484.85   17.90
   3   4   0  501.45   17.20
  -4   3   0  478.05   17.40
  -4   3   0  512.55   18.00
   3   4   0  496.75   19.00
   4  -3   0  526.15   18.00
  -4   3   0  484.75   15.40
   4  -3   0  515.25   15.30
  -4   4   0 2307.17   63.69
   4  -4   0 2332.67   65.49
  -4   4   0 2284.17   65.39
   4  -4   0 2430.36   66.49
   4  -4   0 2353.36   63.39
  -4   4   0 2349.76   65.69
  -4  -4   0 2295.17   66.09
   4   4   0 2457.45   64.39
   4   4   0 2369.46   67.89
  -4   5   0   96.39    8.00
   4  -5   0  112.39    7.20
   4  -5   0   92.79    8.10
   4  -5   0  122.79    8.70
  -4   5   0  102.89    7.60
  -5  -4   0  116.39    9.30
  -4   5   0  108.99    7.50
  -4   5   0  102.89    7.90
   5   4   0  101.19    9.30
   4  -5   0  114.89    8.70
   3  -5   0    6.10    3.50
   3  -5   0    1.70    3.10
  -5  -3   0    2.20    3.90
  -5  -3   0    0.40    4.10
  -3   5   0   -2.60    2.60
  -3   5   0    0.50    3.00
  -3   5   0    3.00    3.30
   3  -5   0    2.30    3.10
  -3   5   0    0.60    2.80
   5   3   0    4.60    4.20
   3  -5   0   -0.30    2.60
  -2   5   0   -0.60    2.70
  -2   5   0    1.70    3.00
   2  -5   0    2.20    2.70
   5   2   0    4.40    4.00
  -2   5   0    1.40    2.50
  -5  -2   0    1.00    3.00
   2  -5   0    3.60    3.20
  -5  -2   0    4.40    2.90
  -2   5   0    5.20    3.20
  -1   5   0    4.30    3.10
   1  -5   0    7.80    3.30
   5   1   0    2.80    3.80
  -1   5   0    0.40    2.90
   1  -5   0    4.40    2.20
  -5  -1   0    1.10    2.60
  -5  -1   0    2.70    2.90
   0  -5   0    2.30    3.00
   0   5   0   -1.80    2.80
   5   0   0    0.90    3.20
  -5   0   0    0.00    2.50
  -5   0   0    2.70    2.80
   0   5   0    0.40    2.50
   5  -1   0    6.40    3.80
  -5   1   0    2.60    3.30
   1   5   0    1.90    3.20
  -5   1   0    3.20    2.90
   1   5   0    2.70    3.10
  -1  -5   0    1.70    2.90
  -2  -5   0    0.20    3.10
   2   5   0    4.10    3.40
  -5   2   0    4.90    3.20
  -5   2   0    6.80    3.50
   5  -2   0    4.60    3.70
   2   5   0    5.40    3.90
  -3  -5   0    0.40    3.20
   5  -3   0   -0.40    3.60
  -5   3   0    3.50    3.40
   3   5   0    2.80    3.40
   3   5   0    5.20    4.40
  -5   3   0    7.50    4.00
  -5   4   0  108.99    8.40
   5  -4   0  122.79    8.80
   5  -4   0   99.99    8.60
  -4  -5   0  100.79    8.30
   4   5   0  104.99   10.00
   4   5   0  105.69    7.80
  -5   4   0  116.59    8.40
  -5  -5   0   14.00    5.50
   5  -5   0   11.30    5.40
  -5   5   0   13.00    5.00
   5   5   0   11.20    5.60
  -5   5   0   20.50    5.40
   5  -5   0   13.10    4.80
   5  -6   0   32.60    6.80
   6   5   0   28.80    8.10
  -6  -5   0   30.10    7.30
  -5   6   0   25.90    6.00
   5  -6   0   26.20    6.50
   4  -6   0  688.43   24.80
  -6  -4   0  671.53   25.30
   4  -6   0  689.43   24.50
  -4   6   0  685.43   24.00
  -4   6   0  674.93   24.80
   6   4   0  698.73   27.60
  -4   6   0  670.13   23.60
   4  -6   0  688.83   23.40
  -3   6   0  116.99    8.70
   6   3   0  129.29   11.50
  -6  -3   0  129.09    9.50
  -3   6   0  129.79    9.50
   3  -6   0  140.29    9.50
  -3   6   0  132.59    9.50
   3  -6   0  128.69    9.00
   3  -6   0  127.49    9.10
   3  -6   0  129.29    9.00
  -2   6   0  638.04   22.70
   2  -6   0  650.63   23.10
  -2   6   0  648.24   23.30
   6   2   0  646.04   25.10
  -6  -2   0  644.54   21.80
  -6  -2   0  640.14   23.20
  -6  -1   0   67.69    7.00
   1  -6   0   68.29    6.60
  -1   6   0   68.29    7.50
  -1   6   0   68.39    7.10
  -6  -1   0   58.09    6.40
   6   1   0   66.59    8.30
   0   6   0 1382.36   43.50
   6   0   0 1439.16   44.70
  -6   0   0 1486.55   43.30
  -6   0   0 1456.85   42.80
   0   6   0 1429.66   43.70
   0  -6   0 1462.65   43.30
  -1  -6   0   62.19    6.70
   1   6   0   57.59    6.80
  -6   1   0   57.09    6.90
   1   6   0   63.59    6.80
   6  -1   0   57.29    7.30
  -6   1   0   62.89    6.20
  -6   2   0  605.74   22.60
  -6   2   0  626.64   22.30
  -2  -6   0  622.64   22.90
   2   6   0  610.54   23.20
   2   6   0  646.44   22.70
   6  -2   0  629.24   23.50
   6  -3   0  119.79    9.80
   6  -3   0  129.59   10.10
   3   6   0  124.59   10.60
  -6   3   0  127.39    9.40
  -3  -6   0  109.89    9.00
  -6   3   0  133.09    9.70
   3   6   0  126.19    8.90
   4   6   0  688.73   23.90
   6  -4   0  647.94   25.50
   4   6   0  685.53   26.80
  -4  -6   0  662.83   25.10
  -6   4   0  675.73   24.50
   6  -4   0  666.63   25.00
  -6   4   0  660.83   24.90
  -5  -6   0   29.10    6.60
   6  -5   0   35.00    7.70
   6  -5   0   27.00   10.50
   5   6   0   28.10    8.20
  -6   5   0   27.30    6.70
   6  -6   0  194.08   14.10
  -6   6   0  180.18   13.00
   6   6   0  211.78   17.30
  -7  -4   0   44.10    8.00
   4  -7   0   37.70    6.70
   4  -7   0   43.80    7.60
   7   4   0   26.50    8.40
  -7  -3   0    2.30    4.50
   3  -7   0    5.30    4.90
   7   3   0    3.70    6.00
   3  -7   0    1.50    4.70
  -3   7   0   -1.80    4.90
  -7  -2   0    5.20    5.00
   7   2   0    7.70    5.90
   2  -7   0    6.20    4.90
  -2   7   0    1.90    5.00
  -7  -2   0    5.90    4.30
   2  -7   0    7.80    5.00
  -7  -1   0    0.80    3.90
   1  -7   0    2.60    4.70
   7   1   0    6.80    4.90
  -7  -1   0    8.70    4.80
   7   1   0    4.00    5.40
  -1   7   0    5.60    4.50
   0  -7   0    0.20    4.50
   0   7   0    3.90    4.80
   7   0   0   -1.70    5.40
  -7   0   0    0.70    3.90
   0   7   0    1.70    4.20
  -7   0   0    0.80    4.10
   7   0   0    5.70    4.70
   7  -1   0   10.40    5.70
   7  -1   0    9.00    6.10
  -1  -7   0    5.50    4.80
   1   7   0    7.10    4.70
  -7   1   0    6.40    4.50
   1   7   0    6.70    5.00
  -7   1   0    3.00    4.70
  -7   2   0    8.80    5.00
   2   7   0    5.10    5.00
   7  -2   0    6.80    5.60
   2   7   0    1.90    4.90
   7  -2   0    8.20    5.20
  -2  -7   0    8.30    4.90
  -7   2   0    2.50    5.10
   7  -3   0    2.30    5.30
  -7   3   0    2.50    4.90
  -7   3   0    0.30    4.70
  -3  -7   0    2.00    5.00
   3   7   0    3.50    5.60
   7  -3   0    3.30    5.50
   3   7   0    9.30    5.40
  -7   4   0   46.70    8.20
   4   7   0   27.50    6.30
  -4  -7   0   36.70    7.60
   7  -4   0   50.19    9.00
   4   7   0   31.00    8.40
   7  -4   0   24.50    6.90
  -4  -7   0   30.60    6.10
   5   7   0    3.70    7.60
   3  -8   0  131.69   16.20
   3  -8   0  112.39   11.00
  -3   8   0  111.29   11.80
  -2   8   0  337.77   17.40
  -8  -2   0  320.87   17.10
   8   2   0  332.37   20.00
   2  -8   0  322.97   17.00
   2  -8   0  320.27   16.40
  -1   8   0   78.09    9.70
   1  -8   0   98.99   10.90
   1  -8   0   99.79    9.90
  -8  -1   0  100.19   10.50
   8   1   0  111.59   12.30
   8   1   0  101.39   10.70
  -8  -1   0  105.39   10.20
   8   0   0  538.35   24.80
  -8   0   0  538.25   22.30
   0  -8   0  547.85   23.00
  -8   0   0  525.55   21.80
   0   8   0  539.85   23.40
   8   0   0  525.25   23.00
   0  -8   0  568.04   22.80
  -8   1   0  100.89   10.40
  -1  -8   0   89.59   10.00
  -1  -8   0   99.79   11.20
  -8   1   0  100.79   10.80
   8  -1   0  100.39   12.40
   1   8   0   99.39   10.90
   8  -1   0   88.29   10.60
  -2  -8   0  339.27   17.10
   2   8   0  343.37   18.10
   8  -2   0  332.17   18.60
   8  -2   0  331.87   18.70
  -2  -8   0  350.56   18.30
  -8   2   0  308.77   17.10
  -8   2   0  338.87   18.00
   3   8   0  131.19   12.50
   8  -3   0  122.19   13.20
  -3  -8   0  116.69   11.30
   0   1  -1 2652.63   67.19
   0  -1  -1 2611.64   67.29
   0   1  -1 2645.24   67.39
   0   1  -1 2639.74   67.19
  -1   0  -1 2639.94   67.09
   1   0  -1 2695.23   67.29
  -1   0  -1 2500.05   66.99
  -1   0  -1 2557.14   67.09
   0  -1  -1 2634.64   67.19
   1   0  -1 2745.83   66.49
  -1   0   1 2533.95   66.49
  -1   0   1 2573.04   67.09
   0   1   1 2536.75   66.79
   0  -1   1 2625.14   66.89
   0  -1   1 2610.94   67.19
   0   1   1 2545.25   67.09
   1   0   1 2577.44   66.79
  -1   0   1 2523.85   67.09
   1   0   1 2565.24   67.29
   1  -1  -1  729.53   19.30
  -1   1  -1  701.33   19.30
  -1  -1  -1  715.93   19.70
   1   1  -1  679.73   20.00
  -1   1  -1  708.43   19.50
   1  -1  -1  713.93   19.70
  -1  -1  -1  726.73   18.90
  -1   1  -1  717.13   19.20
  -1   1  -1  697.93   19.80
   1   1  -1  720.13   19.20
   1   1  -1  736.83   18.80
   1   1  -1  732.03   18.90
  -1   1   1  705.83   19.20
   1   1   1  723.53   19.30
   1   1   1  707.93   19.80
  -1  -1   1  722.73   18.70
  -1   1   1  677.53   19.50
   1  -1   1  721.53   19.10
  -1  -1   1  721.83   19.60
  -1   1   1  710.13   19.20
  -1   2  -1 1155.08   31.20
  -1   2  -1 1138.89   31.40
  -1   2  -1 1146.29   31.60
   1  -2  -1 1165.18   31.50
   2   1  -1 1164.28   32.50
  -1   2  -1 1158.48   32.00
   2   1  -1 1171.48   30.60
  -2  -1  -1 1132.69   31.60
  -2  -1  -1 1141.69   31.10
  -1   2   1 1207.88   31.50
  -2  -1   1 1189.98   31.80
   2   1   1 1139.29   30.70
   1  -2   1 1207.48   31.60
   2   1   1 1157.78   32.30
  -1   2   1 1138.09   31.60
  -2  -1   1 1130.59   31.10
  -1   2   1 1180.28   31.30
  -1   2   1 1182.48   31.90
   0   2  -1  119.29    5.20
   0   2  -1  124.99    3.90
   0   2  -1  121.99    5.10
  -2   0  -1  121.89    5.00
   2   0  -1  120.19    5.10
  -2   0  -1  125.79    3.60
   0  -2  -1  124.79    5.10
  -2   0  -1  126.69    4.80
   0  -2  -1  122.89    4.20
   0  -2   1  121.29    4.80
   2   0   1  123.99    3.60
   2   0   1  127.89    5.30
  -2   0   1  120.89    5.00
   0   2   1  123.99    5.10
   0   2   1  125.99    4.80
  -2   0   1  122.89    4.90
   2  -1  -1 1171.68   31.50
  -2   1  -1 1176.98   31.20
  -2   1  -1 1163.78   31.80
  -1  -2  -1 1197.08   30.10
   1   2  -1 1175.38   32.20
  -1  -2  -1 1153.48   31.70
   2  -1   1 1139.59   31.80
   2  -1   1 1156.48   30.20
   1   2   1 1112.09   31.90
  -1  -2   1 1155.78   31.80
   1   2   1 1133.29   31.50
  -2   1   1 1140.69   31.60
  -2   1   1 1155.58   30.30
  -2   1   1 1153.28   31.80
   2   2  -1    3.10    2.00
   2  -2  -1    2.60    1.40
  -2  -2  -1    6.80    1.30
  -2   2  -1    6.30    1.70
  -2   2  -1    5.40    1.70
  -2  -2  -1    4.90    1.90
  -2   2  -1    3.90    1.40
   2   2  -1    4.00    1.50
  -2   2  -1    3.60    1.70
  -2   2   1    7.10    1.90
  -2   2   1    5.70    1.70
   2  -2   1    4.80    1.40
   2   2   1    4.30    2.20
   2   2   1    3.00    1.40
  -2  -2   1    7.80    2.10
  -2  -2   1    6.70    1.10
  -2   2   1    5.10    1.40
   2  -2   1    4.50    1.80
  -2   2   1    4.20    1.50
  -2   3  -1  648.34   20.40
  -3  -2  -1  719.43   19.20
  -2   3  -1  697.53   20.00
  -2   3  -1  702.43   20.20
   2  -3  -1  758.32   20.60
  -2   3  -1  686.23   19.90
  -3  -2  -1  676.93   20.50
   3   2  -1  716.93   19.00
   3   2  -1  696.23   21.60
  -3  -2   1  603.24   20.10
  -3  -2   1  630.34   18.90
  -2   3   1  596.14   20.10
  -2   3   1  603.74   19.70
   3   2   1  615.04   21.20
  -2   3   1  606.54   19.60
  -2   3   1  618.94   19.70
   3   2   1  611.44   18.90
   1  -3  -1  316.37   11.80
  -1   3  -1  325.57   10.70
  -3  -1  -1  330.87   11.60
   1  -3  -1  330.17   11.10
   3   1  -1  330.87   12.60
  -1   3  -1  328.67   11.60
  -3  -1  -1  322.57   11.30
   3   1  -1  331.07    9.80
  -1   3   1  361.46   11.00
  -1   3   1  352.56   12.00
  -3  -1   1  367.06    9.80
  -3  -1   1  372.36   11.50
   3   1   1  357.26   12.60
  -1   3   1  364.16   11.60
   1  -3   1  373.66   11.80
  -1   3   1  370.96   12.30
   3   1   1  350.16   10.10
  -3  -1   1  368.56   12.00
   0   3  -1 1032.70   27.40
   0  -3  -1 1027.60   29.50
   0   3  -1 1028.60   29.70
  -3   0  -1 1000.90   28.90
   3   0  -1 1061.49   30.00
  -3   0  -1 1029.70   29.50
  -3   0  -1 1043.90   26.80
   0   3  -1 1053.79   29.80
   0  -3  -1 1079.29   27.90
   3   0   1 1036.10   26.80
   0  -3   1 1052.29   29.30
   3   0   1 1047.90   30.00
   0   3   1 1063.09   29.80
   0  -3   1 1047.20   27.60
  -3   0   1 1014.60   29.40
   0   3   1 1034.60   29.30
  -3   0   1 1046.90   29.30
  -1  -3  -1  359.46   11.90
  -1  -3  -1  362.16    9.40
  -3   1  -1  356.56   11.30
   3  -1  -1  356.06   11.90
   1   3  -1  370.36   12.00
  -3   1  -1  360.86   12.20
   3  -1  -1  364.56    9.30
   1   3  -1  356.66   12.30
   1   3   1  318.97   11.70
   1   3   1  317.67   11.80
  -1  -3   1  318.47   11.60
  -3   1   1  315.67   11.90
  -3   1   1  334.47   11.60
  -3   1   1  317.37    9.30
   3  -1   1  329.07   11.90
   3  -1   1  327.97    9.50
  -2  -3  -1  603.64   17.80
  -2  -3  -1  627.44   20.70
  -3   2  -1  615.54   20.50
  -3   2  -1  612.04   20.00
   3  -2  -1  621.54   20.20
   2   3  -1  621.34   20.00
   2   3  -1  609.04   21.10
  -3   2  -1  576.54   18.50
   3  -2   1  713.73   20.90
   3  -2   1  689.33   18.60
  -3   2   1  708.13   20.80
  -3   2   1  720.33   20.90
   2   3   1  737.83   20.50
   2   3   1  739.03   21.70
  -2  -3   1  730.83   21.10
  -3   2   1  714.33   18.90
  -3   3  -1   32.30    3.90
  -3   3  -1   35.20    4.20
  -3  -3  -1   34.00    2.80
   3   3  -1   33.80    2.80
   3   3  -1   33.50    4.80
  -3  -3  -1   35.10    4.60
   3  -3  -1   39.00    4.20
  -3   3  -1   29.70    3.40
   3  -3  -1   40.10    4.90
   3   3  -1   37.50    3.70
  -3   3  -1   32.20    4.00
   3   3   1   36.70    5.10
  -3   3   1   39.40    4.40
  -3   3   1   36.50    4.40
   3   3   1   34.10    3.60
  -3   3   1   39.10    4.00
   3  -3   1   41.90    4.30
  -3  -3   1   38.60    4.60
   3  -3   1   31.60    3.30
  -3  -3   1   36.60    2.60
  -3   3   1   29.30    3.30
  -3   4  -1  607.14   20.30
   4   3  -1  635.44   19.20
   4   3  -1  640.44   19.20
   3  -4  -1  638.14   20.40
  -3   4  -1  617.94   20.10
  -3   4  -1  598.74   20.80
  -4  -3  -1  636.34   21.30
  -4  -3  -1  631.34   19.00
   4   3  -1  619.04   22.50
  -3   4  -1  587.04   20.40
   3  -4  -1  655.43   21.20
  -3   4   1  629.24   20.50
  -4  -3   1  639.34   18.60
   4   3   1  631.74   22.60
   4   3   1  646.74   19.40
  -3   4   1  617.94   20.30
   3  -4   1  621.94   20.90
  -3   4   1  629.14   21.00
  -3   4   1  612.74   20.10
   3  -4   1  664.13   20.00
  -4  -3   1  628.84   21.30
   2  -4  -1  111.99    6.50
   2  -4  -1  117.59    7.10
  -2   4  -1  109.49    6.00
  -2   4  -1  110.39    6.70
   4   2  -1  106.69    4.90
  -2   4  -1  116.09    7.10
   4   2  -1  109.89    7.80
  -4  -2  -1   98.09    6.60
  -4  -2  -1  116.99    6.20
  -2   4  -1  117.79    7.00
  -4  -2   1  120.69    4.90
  -2   4   1  133.99    7.00
   4   2   1  122.79    5.20
  -4  -2   1  117.69    6.10
  -2   4   1  123.19    7.20
  -2   4   1  113.19    6.50
  -2   4   1  122.79    6.30
   2  -4   1  141.99    6.80
   2  -4   1  126.09    7.00
  -4  -2   1  111.09    6.80
   4   2   1  122.99    8.40
  -4  -1  -1  934.41   27.60
  -4  -1  -1  951.60   28.00
   1  -4  -1  957.10   26.80
  -1   4  -1  917.11   28.30
   1  -4  -1  966.70   28.30
  -1   4  -1  924.41   26.20
  -1   4  -1  949.11   28.30
   4   1  -1  933.91   29.30
  -1   4   1  945.11   28.40
   1  -4   1  937.31   26.50
   1  -4   1  959.70   27.90
  -4  -1   1  931.51   27.60
   4   1   1  927.31   29.10
  -4  -1   1  928.61   24.40
  -4  -1   1  934.41   28.10
   4   1   1  944.21   24.90
  -1   4   1  935.31   27.70
  -1   4   1  952.50   28.40
  -4   0  -1    0.10    2.50
   0   4  -1    3.50    2.50
  -4   0  -1    6.20    2.10
   0   4  -1    3.20    2.30
   0  -4  -1    6.50    2.60
   4   0  -1    8.40    3.20
   0  -4  -1    6.40    1.60
  -4   0   1    9.80    2.60
   0  -4   1    6.20    2.50
  -4   0   1    1.30    2.40
   4   0   1    4.60    3.10
   0   4   1    0.60    2.70
   0   4   1    5.40    2.30
   4  -1  -1  951.40   28.50
  -4   1  -1  909.51   28.20
   1   4  -1  916.31   28.10
   1   4  -1  928.71   28.50
  -4   1  -1  933.11   27.40
  -1  -4  -1  927.71   28.10
  -1  -4  -1  914.31   24.30
   4  -1   1  939.71   28.60
  -1  -4   1  940.61   28.10
   1   4   1  978.60   28.40
   4  -1   1  948.11   24.30
   1   4   1  941.71   28.30
  -4   1   1  941.61   27.80
  -4   1   1  923.91   28.20
   4  -2  -1  112.49    4.40
   2   4  -1  119.69    7.90
  -2  -4  -1  115.19    7.40
  -4   2  -1  121.89    6.70
   4  -2  -1  122.99    6.90
  -4   2  -1  115.69    7.00
   2   4  -1  123.39    6.80
   4  -2   1  115.09    7.10
   2   4   1  119.39    7.60
   2   4   1  120.39    6.90
  -4   2   1  106.09    6.80
  -4   2   1  102.49    4.50
  -4   2   1  104.69    6.90
  -2  -4   1  111.39    7.20
   4  -2   1  111.89    4.50
   4  -3  -1  623.54   20.50
   4  -3  -1  628.14   21.60
  -4   3  -1  615.04   20.90
  -3  -4  -1  607.44   21.00
  -4   3  -1  651.23   20.50
  -4   3  -1  595.24   18.50
   3   4  -1  653.63   20.30
   3   4  -1  648.94   22.40
   4  -3  -1  626.24   18.20
   4  -3   1  612.24   21.00
   4  -3   1  616.04   18.20
  -4   3   1  575.44   18.30
  -4   3   1  595.04   20.60
  -3  -4   1  605.24   21.00
  -4   3   1  613.04   20.90
   3   4   1  630.84   22.10
   3   4   1  598.44   20.10
   4  -4  -1   70.69    5.30
  -4   4  -1   73.49    6.30
  -4   4  -1   71.89    5.80
  -4   4  -1   79.59    7.00
   4  -4  -1   77.39    6.50
  -4  -4  -1   76.19    7.20
  -4   4  -1   81.79    6.60
   4  -4  -1   84.29    7.60
   4   4  -1   76.49    5.80
   4   4  -1   89.49    8.60
   4   4   1   67.49    6.20
   4  -4   1   74.09    5.50
   4   4   1   77.99    7.50
  -4   4   1   81.49    7.10
  -4   4   1   77.09    6.90
  -4  -4   1   75.89    6.90
   4  -4   1   73.39    6.80
  -4   4   1   70.19    5.50
   5   4  -1  255.07   14.60
   4  -5  -1  269.77   13.20
  -5  -4  -1  250.27   13.10
  -4   5  -1  248.78   12.20
   4  -5  -1  262.07   11.50
  -4   5  -1  259.57   12.30
   4  -5  -1  249.78   12.00
  -4   5  -1  244.98   12.30
  -4   5  -1  249.38   11.90
  -4   5   1  277.57   12.20
  -4   5   1  269.27   12.00
  -4   5   1  262.47   12.90
   4  -5   1  262.87   11.30
  -4   5   1  282.47   12.70
   5   4   1  252.37   14.10
   4  -5   1  279.77   12.80
   4  -5   1  278.27   13.10
   4  -5   1  276.37   12.90
  -5  -4   1  270.07   13.60
   3  -5  -1  197.08   10.50
   5   3  -1  195.58   12.20
   3  -5  -1  196.88   10.30
  -5  -3  -1  201.28    8.80
  -3   5  -1  202.98   10.20
  -3   5  -1  206.08    9.50
   3  -5  -1  215.48    9.90
  -5  -3  -1  210.58   11.20
  -3   5  -1  214.18   10.60
  -3   5  -1  210.98   10.40
   3  -5   1  184.58   10.00
  -3   5   1  179.28    9.40
   5   3   1  162.38   11.50
  -5  -3   1  174.68   10.20
  -3   5   1  179.38    9.80
  -3   5   1  171.28    9.90
  -3   5   1  175.48    9.40
   3  -5   1  185.98    9.70
   3  -5   1  195.68    9.70
   3  -5   1  176.18   10.00
  -2   5  -1  382.96   14.80
   2  -5  -1  402.76   15.30
   5   2  -1  380.56   16.80
  -5  -2  -1  386.56   14.00
  -2   5  -1  369.96   13.10
  -5  -2  -1  368.86   14.80
   2  -5  -1  404.46   14.00
  -2   5  -1  386.16   15.00
  -2   5  -1  371.16   14.90
  -5  -2   1  377.36   15.20
   2  -5   1  366.76   13.60
  -5  -2   1  379.56   13.70
  -2   5   1  365.56   14.30
   2  -5   1  362.36   14.40
   5   2   1  350.46   16.00
  -2   5   1  375.36   15.00
  -2   5   1  363.16   15.10
  -5  -1  -1  353.86   13.70
  -1   5  -1  333.97   13.90
  -1   5  -1  343.67   14.10
   1  -5  -1  340.57   14.00
   5   1  -1  326.87   14.90
  -5  -1  -1  352.16   13.50
   1  -5  -1  332.67   11.90
   1  -5   1  335.67   11.60
   5   1   1  355.96   15.20
  -5  -1   1  345.17   13.70
  -1   5   1  358.66   14.40
  -1   5   1  359.86   13.60
  -5  -1   1  345.17   13.40
   1  -5   1  340.77   13.50
   0   5  -1  534.85   19.20
   0   5  -1  505.55   18.70
  -5   0  -1  539.65   18.70
  -5   0  -1  541.45   18.10
   0  -5  -1  519.45   18.60
   5   0  -1  522.25   19.50
  -5   0   1  526.65   18.20
  -5   0   1  534.45   18.60
   0   5   1  540.05   18.60
   0   5   1  541.85   19.00
   5   0   1  533.35   19.80
   0  -5   1  546.15   18.40
  -1  -5  -1  348.47   14.20
   1   5  -1  355.36   14.40
  -5   1  -1  349.57   14.10
  -5   1  -1  351.26   13.30
   1   5  -1  356.46   14.80
   5  -1   1  359.36   15.00
   1   5   1  340.97   14.10
   1   5   1  335.27   14.00
  -5   1   1  331.57   13.50
  -1  -5   1  351.36   14.10
  -5   1   1  336.57   14.20
   2   5  -1  392.26   16.10
  -5   2  -1  353.76   14.90
   5  -2  -1  376.46   15.30
  -2  -5  -1  369.26   15.50
  -5   2  -1  360.86   14.30
   5  -2  -1  349.37   15.50
   2   5  -1  336.37   14.40
   2   5   1  384.36   15.50
   5  -2   1  395.36   15.90
  -5   2   1  390.96   15.10
  -2  -5   1  380.56   15.10
  -5   2   1  392.96   15.30
   2   5   1  373.46   15.00
   5  -3  -1  184.98   10.80
  -5   3  -1  190.18   10.10
   5  -3  -1  172.78   10.20
  -5   3  -1  166.38   10.00
   3   5  -1  166.88   11.30
  -3  -5  -1  184.08   10.70
   3   5  -1  161.08    9.60
   5  -3   1  201.18   10.60
   3   5   1  213.18   11.80
  -3  -5   1  210.18   10.70
   3   5   1  193.58    9.90
  -5   3   1  208.28   10.70
  -4  -5  -1  265.57   13.40
   4   5  -1  271.67   14.50
   5  -4  -1  257.07   12.60
   4   5  -1  273.97   12.10
  -5   4  -1  271.77   12.90
  -5   4  -1  269.57   12.40
   5  -4  -1  285.17   13.80
   4   5   1  253.27   13.80
  -5   4   1  256.97   12.70
   5  -4   1  264.47   13.40
   5  -4   1  262.77   13.10
  -4  -5   1  252.07   13.10
  -5   4   1  236.48   12.50
   4   5   1  242.48   11.80
  -5  -5  -1  131.79   10.50
  -5   5  -1  130.59    9.80
   5   5  -1  123.09   10.80
  -5   5  -1  122.59    9.50
   5  -5  -1  125.19   10.40
   5  -5  -1  120.09    9.10
  -5  -5   1  113.99    9.90
   5  -5   1  121.89    9.60
  -5   5   1  134.49    9.90
   5  -5   1  129.49    9.70
  -5   5   1  120.99    9.70
   5   5   1  111.79   11.00
   6   5  -1  119.79   12.30
  -6  -5  -1  116.69   10.40
  -5   6  -1  138.79   10.30
   5  -6  -1  122.69   10.30
   5  -6  -1  115.99   10.40
  -6  -5   1  100.09    9.80
  -5   6   1  105.79   10.00
  -5   6   1  105.79    9.50
   6   5   1  106.59   11.20
   5  -6   1  112.49   10.40
  -6  -4  -1   34.80    6.90
   4  -6  -1   31.90    6.30
  -4   6  -1   26.70    5.30
  -4   6  -1   28.10    5.80
   6   4  -1   20.80    6.30
  -4   6  -1   29.10    5.80
  -4   6  -1   19.30    5.30
   4  -6  -1   34.90    5.70
   4  -6  -1   34.60    6.40
   4  -6   1   22.80    5.50
  -6  -4   1   34.70    6.70
  -4   6   1   23.40    6.30
   4  -6   1   33.40    6.10
   6   4   1   28.40    7.30
   4  -6   1   28.50    5.40
  -4   6   1   40.50    6.80
   4  -6   1   20.20    5.30
  -3   6  -1  265.57   13.30
   3  -6  -1  277.07   13.80
   3  -6  -1  267.47   12.80
  -3   6  -1  300.87   14.00
   6   3  -1  273.77   15.30
  -6  -3  -1  287.97   14.40
  -3   6  -1  273.07   13.50
   3  -6   1  284.77   13.50
  -3   6   1  280.57   13.50
   3  -6   1  300.17   13.30
  -3   6   1  283.27   14.00
   6   3   1  299.47   15.70
  -6  -3   1  277.57   14.30
   3  -6   1  285.17   13.50
  -6  -2  -1   37.00    5.70
   2  -6  -1   40.70    6.20
  -6  -2  -1   43.60    5.60
   6   2  -1   42.20    5.90
   6   2  -1   37.30    7.10
  -2   6  -1   48.20    6.70
  -2   6  -1   34.90    5.90
   2  -6   1   44.80    6.20
   2  -6   1   45.70    6.30
  -2   6   1   46.40    6.00
  -6  -2   1   48.20    5.80
  -2   6   1   53.99    6.40
  -6  -2   1   42.70    5.90
   6   2   1   49.10    7.60
  -6  -1  -1  323.67   14.20
   6   1  -1  358.56   15.20
  -6  -1  -1  348.07   14.40
  -1   6  -1  367.96   15.50
   1  -6  -1  347.87   15.10
   6   1  -1  322.17   15.90
  -1   6  -1  339.87   15.00
  -6  -1   1  340.67   14.70
   6   1   1  329.57   16.20
  -6  -1   1  346.07   14.30
  -1   6   1  342.17   14.70
  -1   6   1  352.16   15.20
   1  -6   1  329.87   14.40
  -6   0  -1    9.40    4.10
  -6   0  -1    9.80    3.90
   0   6  -1   10.70    4.60
   0  -6  -1    6.10    3.60
   0   6  -1    6.80    4.30
   6   0  -1    7.10    5.10
   6   0   1    6.90    5.00
   0   6   1    8.30    4.20
  -6   0   1   11.00    4.10
  -6   0   1   10.40    4.40
   0  -6   1    7.20    3.60
   0   6   1    9.40    4.80
   6  -1  -1  343.77   15.60
   6  -1  -1  334.77   15.90
  -1  -6  -1  340.37   15.20
  -6   1  -1  344.97   15.00
   1   6  -1  329.47   15.50
   1   6  -1  338.17   15.30
  -6   1  -1  346.17   14.40
   6  -1   1  346.47   16.20
  -1  -6   1  323.57   14.70
   1   6   1  345.47   15.50
   1   6   1  350.86   15.30
  -6   1   1  348.07   14.70
  -6   1   1  359.16   15.00
   2   6  -1   59.39    7.50
  -6   2  -1   50.99    7.00
   6  -2  -1   44.80    7.20
  -6   2  -1   47.10    6.20
  -2  -6  -1   50.59    7.10
   2   6  -1   47.90    6.60
   6  -2  -1   37.80    6.40
   6  -2   1   43.40    6.60
  -6   2   1   49.40    6.90
  -2  -6   1   40.60    6.40
   2   6   1   40.70    6.70
  -6   2   1   49.80    6.60
   2   6   1   36.70    5.90
  -3  -6  -1  284.27   14.10
   6  -3  -1  298.07   15.30
  -6   3  -1  288.47   13.70
  -6   3  -1  282.67   14.40
   6  -3  -1  289.37   14.40
   3   6  -1  275.87   13.60
   3   6  -1  281.37   15.30
   3   6   1  282.57   14.70
   3   6   1  283.67   13.80
  -3  -6   1  268.87   14.00
  -6   3   1  270.27   14.40
   6  -3   1  272.77   14.50
   4   6  -1   35.10    6.40
   4   6  -1   26.50    6.80
  -6   4  -1   33.20    6.30
  -6   4  -1   29.20    5.90
   6  -4  -1   31.50    6.50
  -4  -6  -1   31.70    6.50
   6  -4  -1   39.30    7.50
  -6   4   1   34.60    6.80
  -6   4   1   37.00    6.70
  -4  -6   1   36.10    6.80
   6  -4   1   25.80    6.40
   4   6   1   37.70    7.80
   4   6   1   26.70    5.70
  -4  -6   1   32.80    5.80
   6  -4   1   35.90    7.20
   6  -5  -1  133.49   11.80
  -6   5  -1  120.29   10.80
  -5  -6  -1  117.19   10.90
   5   6  -1  118.59   11.90
  -6   5   1  119.59   10.50
  -6   5   1  131.09   11.10
   5   6   1  122.09   11.80
   6  -5   1  125.99   11.50
   6  -5   1  112.59   10.50
  -5  -6   1  127.39   10.50
  -6   6  -1    4.10    5.60
   6  -6  -1    4.80    5.90
  -6   6   1    4.20    5.60
   6  -6   1    8.80    6.30
   6   6   1    8.80    7.00
   4  -7  -1  166.98   11.40
   7   4  -1  171.98   14.30
   4  -7  -1  177.68   12.40
  -7  -4  -1  164.28   12.70
  -7  -4   1  178.38   13.10
  -4   7   1  164.98   12.30
   4  -7   1  158.68   10.90
   7   4   1  145.89   13.20
   3  -7  -1   12.80    5.70
  -7  -3  -1   10.90    5.30
   3  -7  -1   10.50    5.30
   7   3  -1    3.10    5.50
  -3   7  -1   10.90    5.70
  -3   7   1    2.60    5.20
   3  -7   1    8.10    5.00
  -7  -3   1   -1.00    4.70
   7   3   1    8.10    6.10
   3  -7   1    0.70    4.60
  -2   7  -1  296.47   15.10
   2  -7  -1  304.07   15.20
  -7  -2  -1  300.37   15.10
   7   2  -1  288.57   16.60
  -7  -2  -1  302.27   14.00
   7   2   1  285.97   16.80
   2  -7   1  281.97   14.60
  -7  -2   1  292.47   13.90
  -2   7   1  284.77   14.70
  -7  -2   1  311.37   15.50
   2  -7   1  272.47   14.10
  -7  -1  -1    8.70    4.20
  -1   7  -1    5.80    5.40
   1  -7  -1    4.30    4.70
   7   1  -1   10.30    5.20
  -1   7  -1    9.60    5.30
   7   1  -1    7.50    5.60
  -7  -1  -1    4.50    4.50
   1  -7   1   19.80    5.40
  -1   7   1   19.20    5.50
   7   1   1   25.30    7.40
   1  -7   1   21.70    5.80
  -7  -1   1   23.60    5.70
  -7  -1   1   23.20    5.70
   0   7  -1  347.57   16.60
   0  -7  -1  334.37   16.10
  -7   0  -1  325.17   15.10
  -7   0  -1  337.67   15.80
   7   0  -1  334.47   16.40
   0   7  -1  337.47   16.50
   7   0  -1  323.27   17.60
  -7   0   1  330.97   15.50
   0   7   1  359.76   16.30
   0  -7   1  356.96   16.10
   7   0   1  332.07   17.80
  -7   0   1  339.07   15.70
  -1  -7  -1   17.20    5.10
  -7   1  -1   20.70    5.70
   1   7  -1   21.40    5.80
   7  -1  -1   19.40    6.60
  -7   1  -1   19.20    5.30
   7  -1  -1   17.20    5.50
   1   7  -1   16.40    6.00
  -7   1   1    5.80    4.20
   1   7   1    3.90    4.40
   7  -1   1    7.50    6.20
   1   7   1    6.50    5.20
  -1  -7   1   10.90    5.20
  -7   1   1    7.80    4.60
   7  -2  -1  287.27   15.50
  -7   2  -1  280.17   15.10
  -2  -7  -1  270.67   15.40
   2   7  -1  272.97   15.70
  -7   2  -1  273.37   14.20
   2   7  -1  271.07   14.50
   7  -2  -1  262.27   15.70
  -7   2   1  289.67   15.10
  -7   2   1  317.17   15.30
   7  -2   1  280.67   15.60
   2   7   1  299.67   15.70
  -2  -7   1  299.57   15.40
   2   7   1  309.27   15.00
  -2  -7   1  313.27   14.60
   3   7  -1    4.30    4.90
   7  -3  -1    3.90    5.70
   7  -3  -1   11.90    6.10
   3   7  -1    6.00    6.20
  -3  -7  -1    3.50    5.10
  -7   3  -1    2.10    5.20
  -3  -7   1    4.50    4.40
   7  -3   1   11.00    6.10
   3   7   1    8.90    4.80
  -7   3   1    5.30    5.30
   7  -3   1    1.80    5.40
   3   7   1   11.00    6.50
  -7   3   1    6.50    5.00
  -3  -7   1   10.70    5.80
  -7   4  -1  173.08   13.20
  -4  -7  -1  183.48   13.00
   4   7  -1  172.18   14.40
   7  -4  -1  160.28   12.90
   4   7  -1  161.98   12.10
  -7   4   1  186.88   12.60
  -4  -7   1  171.88   11.60
   7  -4   1  175.78   13.10
   7  -4   1  166.28   13.60
  -4  -7   1  171.98   12.70
  -7   4   1  184.58   12.60
   4   7   1  162.18   12.90
   4   7   1  156.18   11.80
   5   7   1   16.00    8.10
  -3   8  -1  107.09   11.40
   3  -8  -1  106.29   11.20
   3  -8  -1  123.09   11.10
  -8  -3  -1  151.58   21.00
   3  -8   1  124.39   11.20
  -3   8   1  104.99   11.30
  -8  -2  -1   17.10    6.60
  -2   8  -1   11.50    6.90
   2  -8  -1   23.20    7.10
   8   2  -1   19.20    7.80
   2  -8  -1   19.70    6.20
   2  -8   1   21.40    6.60
   2  -8   1   19.70    6.80
   8   2   1   34.70    9.60
  -8  -2   1   17.50    6.80
  -2   8   1   20.10    6.70
  -1   8  -1  121.79   11.30
  -8  -1  -1  125.89   11.30
  -8  -1  -1  105.49   10.20
   8   1  -1  120.99   11.30
   1  -8  -1  129.19   11.70
   8   1  -1  118.89   13.50
  -8  -1   1  123.39   10.90
  -8  -1   1  116.19   10.40
   8   1   1  126.19   11.30
   1  -8   1  127.59   11.60
  -1   8   1  136.19   12.00
   1  -8   1  139.59   11.00
   8   1   1  129.09   13.90
   0  -8  -1   20.70    6.80
   0   8  -1   16.00    6.80
   8   0  -1   16.90    7.90
  -8   0  -1   13.80    5.90
   8   0  -1   25.60    7.30
  -8   0  -1   13.90    5.90
   0   8   1   16.10    6.20
   8   0   1    9.20    7.60
  -8   0   1   16.40    6.20
   0  -8   1   11.20    5.70
  -8   0   1   18.30    6.40
   8   0   1   18.30    6.20
   0  -8   1   18.20    6.40
   1   8  -1  127.69   12.10
  -8   1  -1  129.99   11.10
  -8   1  -1  123.19   10.70
  -1  -8  -1  114.99   11.90
   8  -1  -1  136.29   11.70
   8  -1  -1  122.89   13.60
  -1  -8   1  141.19   12.10
  -8   1   1  125.89   11.40
  -1  -8   1  134.99   11.60
  -8   1   1  110.89   10.80
   1   8   1  126.59   11.10
   8  -1   1  123.69   11.30
   8  -1   1  111.99   12.80
   8  -2  -1   20.90    7.10
   8  -2  -1   18.30    7.70
  -2  -8  -1   16.60    7.10
  -8   2  -1   20.80    7.10
   2   8  -1   30.80    7.90
   2   8  -1   15.50    7.00
  -8   2   1   23.00    6.80
   2   8   1   22.40    6.60
  -2  -8   1   20.80    7.20
  -2  -8   1   20.30    6.70
   8  -2   1   13.60    7.50
  -8   2   1   23.50    7.10
   8  -2   1   17.50    7.40
   8  -3  -1  101.99   11.90
   3   8  -1  119.29   13.00
   3   8  -1  129.69   12.40
  -3  -8   1  108.19   11.20
   3   8   1   84.79   10.30
   8  -3   1  114.49   12.80
   0   0  -2   -1.40    0.70
   0   0  -2   -0.60    0.90
   0   0  -2    0.60    0.70
   0   0   2   -1.60    0.80
  -1   0  -2   24.30    1.90
   1   0  -2   25.90    1.90
  -1   0  -2   24.90    1.50
   0   1  -2   26.30    2.10
   0  -1  -2   24.50    1.90
   0  -1  -2   25.00    1.80
   0   1  -2   24.40    1.40
   0  -1  -2   24.00    1.40
   1   0  -2   28.20    1.50
   0   1   2   26.00    1.40
  -1   0   2   21.90    1.70
   0  -1   2   25.50    1.60
   0   1   2   25.60    2.00
   0   1   2   25.70    1.80
   1   0   2   25.60    1.90
   1   0   2   32.10    1.60
  -1   0   2   26.20    1.40
  -1   1  -2 9682.63  245.68
   1   1  -2 9803.42  243.78
  -1  -1  -2 9453.95  245.08
   1  -1  -2 9999.00  243.08
   1   1  -2 9970.10  242.88
  -1  -1  -2 9701.93  243.28
   1  -1  -2 9582.24  243.08
  -1   1  -2 9069.89  242.98
  -1   1   2 9078.99  243.08
   1  -1   2 9581.04  243.08
  -1  -1   2 9200.78  243.38
   1   1   2 9127.59  243.08
  -1   1   2 9082.19  244.18
  -1   1   2 9207.68  243.48
  -1  -1   2 9521.45  243.68
   1   1   2 9246.08  242.68
   2   1  -2  134.89    6.40
   2   1  -2  140.69    5.50
  -1   2  -2  140.79    5.40
  -1   2  -2  133.79    5.70
  -2  -1  -2  138.39    5.80
  -1   2  -2  144.09    6.30
   1  -2  -2  141.49    5.70
   2   1  -2  138.69    4.80
  -2  -1  -2  141.49    5.50
  -1   2  -2  139.59    5.40
  -2  -1   2  144.59    4.80
  -1   2   2  164.38    6.40
   1  -2   2  153.68    5.70
   2   1   2  151.38    5.10
   2   1   2  144.09    6.20
  -1   2   2  152.28    5.40
  -1   2   2  147.29    5.50
   1  -2   2  158.18    5.50
  -2  -1   2  148.99    5.90
  -2  -1   2  150.28    5.40
  -2   0  -2 2181.88   56.39
   0   2  -2 2175.08   56.99
   0  -2  -2 2192.48   57.09
   0  -2  -2 2137.19   56.09
  -2   0  -2 2172.08   56.99
   2   0  -2 2171.98   57.19
   2   0  -2 2094.29   57.09
   0   2  -2 2122.59   57.29
   2   0  -2 2199.18   55.09
   0   2  -2 2249.57   55.59
   0   2   2 2078.29   56.29
   0   2   2 2143.09   57.09
  -2   0   2 2125.79   56.89
   2   0   2 2134.89   57.19
  -2   0   2 2178.38   55.19
   0   2   2 2103.89   56.89
   0  -2   2 2156.48   56.49
  -2   0   2 2147.49   56.79
   2   0   2 2164.18   55.49
   1   2  -2  147.39    6.40
   2  -1  -2  147.29    5.60
  -2   1  -2  144.79    5.90
   1   2  -2  148.89    5.80
   2  -1  -2  148.29    6.30
  -1  -2  -2  151.08    6.00
  -2   1  -2  147.89    6.00
  -1  -2  -2  150.48    4.80
  -2   1  -2  141.59    5.20
   1   2   2  132.89    5.80
  -2   1   2  142.89    6.00
  -2   1   2  138.79    4.80
  -1  -2   2  138.19    5.80
   1   2   2  139.69    5.70
  -2   1   2  136.79    5.80
   2  -1   2  132.79    4.70
   2  -1   2  140.39    6.10
  -2   2  -2   56.99    3.50
  -2   2  -2   60.29    3.80
   2  -2  -2   59.29    4.20
   2   2  -2   57.49    4.40
   2   2  -2   55.09    3.30
   2   2  -2   56.89    2.80
   2  -2  -2   62.79    3.50
  -2  -2  -2   59.59    3.10
  -2   2  -2   52.49    3.30
  -2   2  -2   56.49    4.00
  -2  -2  -2   55.49    4.00
   2   2   2   61.09    3.60
   2  -2   2   54.69    3.20
   2  -2   2   60.69    4.10
  -2   2   2   49.99    3.40
  -2   2   2   50.19    3.30
  -2   2   2   54.59    3.80
   2   2   2   50.39    4.10
  -2  -2   2   51.89    3.90
  -2  -2   2   55.09    2.60
  -2   2   2   59.79    4.00
  -2   3  -2  286.57   11.20
  -2   3  -2  303.87   10.70
  -2   3  -2  302.27   10.60
   2  -3  -2  328.37   10.50
   2  -3  -2  319.07   11.20
  -3  -2  -2  319.37   10.00
   3   2  -2  309.77   12.10
   3   2  -2  314.47   10.10
   3   2  -2  317.67    9.70
  -3  -2  -2  315.97   11.20
  -2   3  -2  295.77   10.50
  -3  -2   2  273.77    9.50
  -2   3   2  265.37   10.30
   2  -3   2  276.97   10.20
  -3  -2   2  287.17    9.40
   3   2   2  286.17   11.90
  -2   3   2  279.87   11.20
  -2   3   2  288.37   10.20
   3   2   2  277.57    9.80
  -3  -2   2  265.87   10.80
  -2   3   2  272.17   10.50
  -3  -1  -2 4080.09  104.89
   1  -3  -2 4049.40  105.49
  -3  -1  -2 4044.80  104.69
   1  -3  -2 4093.09  104.49
  -1   3  -2 4053.69  105.69
  -1   3  -2 4053.59  105.19
   3   1  -2 4089.19  106.29
  -1   3  -2 4054.79  104.59
   3   1  -2 3874.71  104.79
  -1   3  -2 4086.69  103.99
  -3  -1   2 4013.30  102.69
  -1   3   2 4041.00  104.39
  -1   3   2 3972.00  105.19
   3   1   2 3968.00  105.89
  -3  -1   2 3806.42  104.39
   3   1   2 3871.51  103.19
   1  -3   2 4090.39  104.59
  -1   3   2 3957.30  105.49
  -3  -1   2 4009.00  105.19
  -3   0  -2   -0.20    1.60
   0   3  -2    4.30    1.00
   0  -3  -2    4.60    2.20
   0   3  -2    5.00    2.30
  -3   0  -2    2.50    1.60
   3   0  -2    2.20    1.90
   0   3  -2    2.80    1.90
   0  -3  -2    3.30    1.30
   3   0   2    3.50    0.90
  -3   0   2    0.50    1.60
   0   3   2    2.80    1.60
   3   0   2    3.70    2.10
   0  -3   2    4.40    1.80
  -3   0   2    2.00    1.70
   0   3   2    2.50    2.00
  -3   1  -2 3846.02  102.79
  -1  -3  -2 4005.90  101.49
   1   3  -2 3970.30  104.49
  -1  -3  -2 3819.12  103.69
  -3   1  -2 3853.21  103.79
   1   3  -2 3729.63  103.49
   3  -1  -2 4010.90  103.59
  -3   1   2 3969.50  103.79
   3  -1   2 4037.50  104.19
  -3   1   2 3965.80  103.59
   3  -1   2 4064.59  101.39
  -3   1   2 4067.09  101.09
  -1  -3   2 4159.08  103.89
   1   3   2 3812.42  103.59
  -2  -3  -2  270.27   11.10
  -3   2  -2  269.57   10.90
  -2  -3  -2  280.07    8.80
   2   3  -2  279.57   11.90
   2   3  -2  291.47   10.60
   3  -2  -2  284.87   10.50
  -3   2  -2  274.37   11.00
   3  -2  -2  284.47   11.50
  -3   2  -2  276.27   10.40
  -3   2   2  309.17    9.50
   2   3   2  300.67   11.50
  -2  -3   2  305.67   11.20
   2   3   2  313.17   10.90
  -3   2   2  310.57   11.30
   3  -2   2  320.07   11.60
  -3   2   2  314.67   11.30
   3  -2   2  312.17    9.40
  -3  -3  -2 2138.89   55.79
   3  -3  -2 2132.29   58.59
  -3   3  -2 2049.70   56.69
  -3   3  -2 2070.99   58.29
  -3   3  -2 2068.19   57.89
  -3  -3  -2 2043.70   58.29
   3   3  -2 2179.58   55.39
  -3   3  -2 2133.59   57.39
   3   3  -2 2088.59   59.69
   3  -3  -2 2148.19   57.39
   3   3  -2 2164.38   56.99
   3   3   2 2159.18   57.29
   3   3   2 2085.29   59.19
   3  -3   2 2154.68   58.59
  -3   3   2 2047.60   58.29
  -3  -3   2 2142.19   55.09
   3  -3   2 2144.89   56.49
  -3   3   2 2134.69   56.79
  -3   3   2 2084.89   57.79
  -3  -3   2 2072.39   58.29
   3  -4  -2   30.00    4.50
  -4  -3  -2   28.10    4.50
  -3   4  -2   30.20    4.50
   3  -4  -2   33.20    4.20
  -3   4  -2   30.50    4.20
  -3   4  -2   31.40    4.20
   4   3  -2   31.30    5.80
  -4  -3  -2   37.70    3.70
  -3   4  -2   28.30    4.10
   4   3  -2   29.30    3.60
   3  -4   2   29.60    4.20
  -4  -3   2   34.90    3.40
   4   3   2   30.50    3.70
  -4  -3   2   28.30    3.30
  -3   4   2   32.90    4.60
   4   3   2   26.20    5.30
   3  -4   2   32.10    4.90
  -4  -3   2   35.10    5.00
  -3   4   2   31.10    4.20
  -3   4   2   33.40    4.20
   3  -4   2   36.10    4.20
  -3   4   2   31.20    4.10
  -4  -2  -2   91.19    5.40
   2  -4  -2   87.09    6.50
  -4  -2  -2   94.59    6.30
  -2   4  -2   95.19    6.10
  -2   4  -2   98.49    5.60
  -2   4  -2   98.59    6.50
   4   2  -2   87.69    5.70
   4   2  -2   89.09    7.20
  -2   4  -2   92.69    5.90
   2  -4  -2  101.69    6.10
   4   2  -2   96.09    4.50
   2  -4   2   94.99    5.90
  -4  -2   2  100.99    5.40
  -4  -2   2   96.09    4.30
  -2   4   2   93.79    5.70
  -2   4   2  100.49    6.50
   2  -4   2   99.19    5.90
   4   2   2  101.49    7.70
   4   2   2   99.39    4.90
  -2   4   2  102.19    6.50
  -2   4   2   92.49    5.60
  -4  -2   2  105.59    6.80
   4   1  -2   78.49    6.30
   1  -4  -2   71.19    4.50
   1  -4  -2   83.19    5.90
  -4  -1  -2   85.89    5.30
   4   1  -2   79.99    5.50
  -1   4  -2   80.19    5.80
  -1   4  -2   75.69    5.80
  -1   4  -2   75.09    4.00
  -4  -1  -2   73.69    5.20
  -1   4   2   65.79    4.70
  -4  -1   2   67.09    4.90
  -1   4   2   74.79    5.80
   1  -4   2   66.89    4.30
   4   1   2   64.79    5.80
  -4  -1   2   62.19    2.60
  -4  -1   2   64.89    5.10
  -1   4   2   69.39    5.50
   1  -4   2   69.09    4.90
   4   1   2   66.79    3.20
  -4   0  -2   35.40    4.30
   0   4  -2   29.00    4.30
   0  -4  -2   33.50    4.20
   4   0  -2   37.00    4.70
   0   4  -2   29.20    4.20
   0  -4  -2   27.80    2.70
  -4   0  -2   24.40    3.20
   4   0   2   29.40    1.50
   0  -4   2   32.10    3.70
   0   4   2   33.60    4.40
   0  -4   2   30.70    2.20
  -4   0   2   40.20    4.00
   0   4   2   34.60    4.00
  -4   0   2   35.60    4.30
   4   0   2   37.10    4.60
   4  -1  -2   71.19    5.50
  -1  -4  -2   76.39    5.60
  -4   1  -2   72.89    5.80
  -4   1  -2   62.39    4.70
   1   4  -2   71.79    6.10
   1   4  -2   65.49    5.30
  -1  -4  -2   68.09    3.10
   4  -1  -2   77.49    6.20
   1   4   2   75.89    5.50
   4  -1   2   74.69    3.00
  -1  -4   2   82.59    5.80
  -4   1   2   78.49    5.60
  -4   1   2   83.19    5.90
   1   4   2   86.39    5.90
   4  -1   2   78.79    6.30
  -2  -4  -2   91.29    6.60
  -4   2  -2  100.39    5.90
   2   4  -2   94.99    6.10
   4  -2  -2   98.19    7.30
  -4   2  -2   97.49    6.90
   4  -2  -2   92.69    4.00
  -2  -4  -2   91.39    3.90
   4  -2  -2   96.99    6.40
   2   4  -2  102.39    7.10
   4  -2   2   98.59    4.30
  -4   2   2   90.29    4.10
   4  -2   2   93.39    6.60
   2   4   2   89.19    6.10
  -2  -4   2   96.09    6.40
  -4   2   2  103.59    6.90
  -4   2   2  100.39    6.70
   2   4   2   97.19    6.60
   4  -3  -2   27.80    4.30
  -4   3  -2   26.80    4.00
   3   4  -2   25.50    3.90
   4  -3  -2   29.90    5.10
  -4   3  -2   31.90    4.80
  -3  -4  -2   29.40    4.70
   3   4  -2   27.50    5.20
  -4   3   2   32.90    3.30
   4  -3   2   33.60    3.30
   4  -3   2   33.60    4.90
   3   4   2   26.00    4.00
  -4   3   2   24.00    4.50
   3   4   2   27.80    4.80
  -3  -4   2   34.90    4.90
  -4   3   2   31.40    4.80
  -4   4  -2   19.10    4.60
   4   4  -2   12.30    3.60
   4   4  -2   22.50    5.60
  -4   4  -2   20.50    4.00
  -4   4  -2   18.60    3.80
   4  -4  -2   17.00    4.50
   4  -4  -2   17.50    4.00
  -4   4  -2   21.70    4.60
  -4  -4  -2   22.90    4.80
  -4   4   2   14.80    4.20
   4   4   2   20.50    5.50
  -4  -4   2   19.40    3.60
  -4   4   2   18.90    4.10
   4  -4   2   18.80    4.50
   4  -4   2   19.10    3.40
  -4  -4   2   22.30    4.70
   4   4   2   18.90    3.90
  -4   4   2   20.00    3.60
   4  -5  -2  100.59    7.90
   5   4  -2  111.09    9.80
  -4   5  -2  107.89    8.40
  -4   5  -2   88.79    7.70
  -4   5  -2  106.49    8.10
   4  -5  -2  106.19    8.30
  -5  -4  -2   95.79    8.90
  -4   5  -2  107.79    7.80
  -4   5   2  119.69    8.00
   5   4   2  103.39   10.10
  -5  -4   2  106.19    8.70
   4  -5   2  127.09    8.50
  -4   5   2  103.19    7.40
   4  -5   2  119.69    7.40
   4  -5   2  124.09    8.50
   4  -5   2  123.29    8.80
  -4   5   2  114.19    8.90
  -3   5  -2 1328.17   38.80
  -3   5  -2 1321.77   39.60
  -3   5  -2 1286.47   37.90
   3  -5  -2 1336.47   38.90
  -3   5  -2 1274.27   38.50
   5   3  -2 1290.67   41.40
  -5  -3  -2 1297.07   37.30
   3  -5  -2 1287.27   38.00
  -5  -3  -2 1350.96   39.90
   3  -5  -2 1323.87   39.80
   3  -5   2 1325.07   39.60
  -3   5   2 1300.57   39.70
   3  -5   2 1289.67   38.60
  -3   5   2 1283.97   37.90
   3  -5   2 1318.67   38.30
   5   3   2 1293.97   41.30
   3  -5   2 1286.67   38.40
  -5  -3   2 1286.77   39.70
  -3   5   2 1247.08   38.50
  -5  -2  -2  436.46   16.70
  -2   5  -2  452.95   17.10
   2  -5  -2  454.45   16.00
   2  -5  -2  460.65   17.30
  -2   5  -2  464.15   17.50
  -5  -2  -2  471.45   16.10
   5   2  -2  456.85   18.50
   5   2  -2  466.35   16.40
  -2   5  -2  455.85   15.20
   2  -5   2  447.06   16.60
  -5  -2   2  444.66   17.00
   2  -5   2  451.05   15.50
  -5  -2   2  468.35   15.80
  -2   5   2  461.35   16.00
   2  -5   2  440.46   16.40
   5   2   2  436.56   18.20
  -2   5   2  442.06   17.40
  -2   5   2  434.56   16.70
  -5  -1  -2 2098.59   57.39
   5   1  -2 2029.40   57.59
   5   1  -2 2021.40   59.09
  -1   5  -2 2145.39   58.29
   1  -5  -2 2083.39   55.59
   1  -5  -2 2167.18   58.39
  -5  -1  -2 2081.59   57.19
  -1   5   2 2020.40   56.79
  -1   5   2 1978.60   57.79
  -5  -1   2 2013.70   57.49
  -5  -1   2 2095.19   57.09
   1  -5   2 2011.90   54.99
   1  -5   2 2046.80   57.09
   5   1   2 1962.10   58.89
   5   0  -2  144.39    8.70
  -5   0  -2  146.39    7.80
   0   5  -2  150.58    9.00
   5   0  -2  142.39    9.00
   0   5  -2  140.39    8.60
  -5   0  -2  151.18    8.60
   0  -5  -2  154.18    8.60
   5   0   2  154.78    9.30
   0   5   2  150.48    8.10
  -5   0   2  146.69    8.40
  -5   0   2  147.29    8.40
   0   5   2  150.48    8.70
   0  -5   2  139.19    8.10
   5  -1  -2 2029.90   57.89
   1   5  -2 2085.49   58.59
   5  -1  -2 1989.90   58.19
  -5   1  -2 1979.10   56.19
  -5   1  -2 2017.20   57.59
  -1  -5  -2 2009.50   57.49
   1   5  -2 2034.50   57.59
  -5   1   2 2083.09   57.19
   5  -1   2 2030.30   58.19
   1   5   2 2110.29   57.79
  -1  -5   2 2023.00   57.19
   1   5   2 2074.39   57.39
  -5   1   2 2009.70   57.39
  -2  -5  -2  452.25   17.50
  -5   2  -2  451.65   16.30
   5  -2  -2  435.46   17.70
  -5   2  -2  435.06   17.10
   2   5  -2  442.76   16.80
   2   5  -2  449.26   18.20
   5  -2  -2  470.25   17.40
   2   5   2  457.25   17.10
  -5   2   2  459.65   17.00
   5  -2   2  445.76   17.50
  -5   2   2  451.95   17.20
  -2  -5   2  448.36   17.00
   2   5   2  471.05   17.60
  -5   3  -2 1268.37   37.90
   5  -3  -2 1270.77   38.50
   3   5  -2 1284.67   40.50
   5  -3  -2 1268.97   39.70
  -5   3  -2 1205.68   38.70
   3   5  -2 1272.57   38.10
  -3  -5  -2 1241.38   39.10
  -5   3   2 1238.68   38.80
  -5   3   2 1308.27   39.00
  -3  -5   2 1235.38   37.50
  -3  -5   2 1287.57   39.00
   3   5   2 1348.77   40.20
   5  -3   2 1274.67   39.20
   3   5   2 1367.16   38.70
   5  -4  -2  115.89    8.40
  -5   4  -2  112.79    8.50
  -5   4  -2  114.69    8.20
   5  -4  -2  122.29    9.80
   4   5  -2  129.89    8.30
   4   5  -2  118.99   10.00
  -4  -5  -2  130.09    9.60
  -5   4   2  103.39    8.80
  -5   4   2  108.19    8.30
  -4  -5   2  100.89    7.40
   4   5   2  110.49    9.30
   4   5   2  104.09    8.00
  -4  -5   2  114.29    8.70
   5  -4   2  111.69    9.00
   5  -5  -2  700.33   26.10
  -5  -5  -2  694.13   25.70
  -5   5  -2  719.63   25.20
   5   5  -2  692.13   27.40
  -5  -5   2  667.63   25.60
   5  -5   2  685.13   25.70
   5  -5   2  688.53   25.40
  -5   5   2  712.83   25.20
  -5   5   2  701.83   25.40
   5   5   2  735.73   27.70
   5  -6  -2   55.89    8.00
  -6  -5  -2   56.29    8.60
   6   5  -2   53.99    9.20
   5  -6  -2   51.59    8.00
  -5   6  -2   55.39    7.60
  -5   6   2   59.09    8.30
   6   5   2   56.09    9.60
  -6  -5   2   59.39    8.10
   5  -6   2   67.59    8.70
   5  -6   2   61.69    8.30
   4  -6  -2    5.20    4.10
  -4   6  -2   -1.00    3.80
   4  -6  -2    3.30    4.30
   6   4  -2    4.10    4.90
  -4   6  -2    7.50    4.70
  -6  -4  -2    6.90    4.80
   4  -6  -2    7.70    4.80
  -4   6  -2    7.00    4.60
   4  -6   2    3.30    4.30
   4  -6   2    4.50    4.40
  -6  -4   2    7.70    5.20
   6   4   2    3.30    5.70
   4  -6   2    6.20    4.10
   4  -6   2    8.40    4.50
  -4   6   2    4.50    4.50
   6   3  -2   37.20    7.10
  -3   6  -2   52.59    7.20
   3  -6  -2   59.19    6.70
  -6  -3  -2   47.70    6.60
   3  -6  -2   53.99    7.10
  -3   6  -2   57.09    7.30
  -3   6   2   55.39    6.90
   3  -6   2   68.59    7.30
  -3   6   2   70.59    8.10
  -6  -3   2   71.99    8.40
   3  -6   2   68.59    7.30
   6   3   2   63.89    8.60
  -6  -2  -2   16.60    4.90
  -2   6  -2    8.90    4.30
  -6  -2  -2   14.70    4.20
  -2   6  -2   12.50    4.40
   2  -6  -2   15.70    5.00
   6   2  -2    7.50    3.90
   6   2  -2   15.80    6.10
  -6  -2   2   12.10    4.00
   2  -6   2   15.90    4.30
  -2   6   2   11.20    4.10
   6   2   2   12.90    5.40
   2  -6   2   15.70    4.50
  -6  -2   2   10.20    4.50
   6   1  -2    1.40    4.30
   6   1  -2    7.00    4.10
  -1   6  -2    7.20    4.30
  -6  -1  -2    5.30    3.80
  -1   6  -2    1.40    4.10
   1  -6  -2    6.80    4.10
  -6  -1  -2    1.60    3.40
  -6  -1   2    1.80    3.40
  -6  -1   2    7.70    3.80
  -1   6   2    1.90    3.70
   1  -6   2   12.10    4.50
   6   1   2    8.50    4.80
  -1   6   2    8.30    4.00
   1  -6   2    9.30    4.00
  -6   0  -2   14.40    4.20
   6   0  -2   14.20    5.50
  -6   0  -2   16.80    4.30
   0  -6  -2   15.50    4.80
   0   6  -2   10.10    4.80
   6   0  -2   13.50    4.80
   0   6  -2   12.10    4.30
   0   6   2    6.30    4.50
   0  -6   2   10.60    4.10
   0  -6   2   11.50    4.20
   0   6   2   20.40    4.80
   6   0   2   14.70    5.70
  -6   0   2   18.40    4.80
  -6   0   2   12.00    4.20
  -6   1  -2    5.30    4.20
   6  -1  -2    5.70    4.30
   1   6  -2    5.40    3.90
   6  -1  -2    3.30    4.40
  -6   1  -2    6.70    3.70
   1   6  -2    6.00    4.60
  -1  -6  -2    6.70    3.90
  -6   1   2    4.50    4.10
   6  -1   2    6.50    4.80
   1   6   2    3.70    3.90
  -6   1   2   11.50    4.10
  -1  -6   2    9.50    4.30
   1   6   2   11.60    4.50
   6  -2  -2   15.90    5.50
  -6   2  -2   17.40    4.40
  -6   2  -2   11.10    4.80
   6  -2  -2   14.40    5.10
   2   6  -2   11.90    4.90
  -2  -6  -2   10.00    4.40
   2   6  -2   11.60    4.40
   6  -2   2    8.70    4.50
  -6   2   2   16.50    4.90
   2   6   2   13.60    5.10
   2   6   2   15.20    5.10
  -2  -6   2   14.50    4.60
  -6   2   2   14.50    5.00
  -2  -6   2   11.20    4.00
   6  -3  -2   64.99    8.40
  -6   3  -2   64.89    7.60
   6  -3  -2   67.49    8.00
   3   6  -2   71.99    7.60
  -6   3  -2   50.19    6.60
  -3  -6  -2   59.09    7.50
   3   6  -2   59.49    8.20
  -6   3   2   59.79    7.70
   3   6   2   47.10    7.30
   6  -3   2   57.09    8.10
  -3  -6   2   54.59    7.30
  -3  -6   2   50.09    6.30
   3   6   2   54.99    7.10
  -6   4  -2    6.40    5.00
   6  -4  -2    0.20    4.50
   4   6  -2    7.80    6.00
  -4  -6  -2    4.30    5.00
   6  -4  -2   -1.90    4.20
   4   6  -2    6.40    4.50
  -6   4   2    3.60    4.50
   6  -4   2    5.00    5.10
  -6   4   2    5.70    4.80
   4   6   2   -1.80    3.90
   6  -4   2    2.70    5.20
   4   6   2    6.10    5.70
  -4  -6   2    3.10    3.90
  -4  -6   2    4.30    4.30
   5   6  -2   59.69    9.90
   6  -5  -2   56.89    8.90
  -5  -6  -2   48.50    7.70
  -6   5  -2   52.99    8.10
  -5  -6   2   60.79    8.40
   5   6   2   58.39    9.20
  -6   5   2   61.79    8.60
   6  -5   2   58.49    8.70
  -6   5   2   48.40    7.90
   6  -5   2   46.90    7.60
   6  -6  -2   -0.30    5.30
  -6   6  -2    7.00    5.70
   6  -6  -2    2.70    5.60
   6   6   2    1.50    7.20
   6  -6   2    4.60    6.10
   5  -7  -2  224.48   14.90
   4  -7  -2   31.40    7.20
   7   4  -2   37.30    8.80
  -7  -4  -2   38.70    7.80
   4  -7   2   35.00    6.50
  -4   7   2   30.70    7.10
  -7  -4   2   34.90    7.30
   7   4   2   27.30    7.80
   3  -7  -2  504.85   21.30
  -3   7  -2  497.55   20.90
  -7  -3  -2  486.15   20.70
   7   3  -2  516.55   23.40
   3  -7   2  501.65   23.10
  -7  -3   2  506.05   21.30
   3  -7   2  479.35   19.80
  -3   7   2  467.45   20.00
   3  -7   2  495.65   20.50
   7   3   2  460.35   22.40
  -2   7  -2  137.69   11.40
   7   2  -2  132.69   12.50
  -7  -2  -2  133.69    9.50
   2  -7  -2  140.59   10.90
  -2   7  -2  128.19   11.00
  -7  -2  -2  147.09   10.50
  -7  -2   2  129.89   10.60
  -2   7   2  129.89   10.70
   2  -7   2  131.69   10.20
   2  -7   2  126.99   10.30
   7   2   2  125.69   12.50
   7   1  -2  709.53   25.80
  -1   7  -2  766.82   27.10
   1  -7  -2  685.13   25.90
  -7  -1  -2  719.13   25.30
  -7  -1  -2  730.23   25.40
   7   1  -2  718.13   28.10
  -1   7  -2  707.43   26.40
  -7  -1   2  712.93   25.70
   7   1   2  706.83   27.90
   1  -7   2  678.73   25.00
   1  -7   2  680.93   25.30
  -7  -1   2  695.63   24.70
  -1   7   2  688.63   26.10
  -7   0  -2   26.80    6.10
   7   0  -2   24.60    7.30
   0   7  -2   28.00    6.80
  -7   0  -2   27.90    5.50
   0   7  -2   26.20    6.10
   0  -7  -2   32.50    6.60
   7   0  -2   23.50    6.20
   0  -7   2   21.00    5.40
   7   0   2   23.10    6.50
   0   7   2   28.40    6.20
  -7   0   2   18.00    5.60
   0  -7   2   28.60    6.10
  -7   0   2   26.90    6.00
  -1  -7  -2  678.53   25.90
   1   7  -2  692.03   26.20
  -7   1  -2  735.33   26.30
   7  -1  -2  681.13   27.10
   1   7  -2  726.83   27.30
  -7   1  -2  699.83   24.80
   7  -1  -2  668.63   26.20
  -1  -7   2  708.93   25.90
  -7   1   2  698.03   25.40
  -1  -7   2  746.73   26.00
  -7   1   2  709.63   25.60
   1   7   2  738.73   26.40
   7  -1   2  683.73   27.20
   2   7  -2  140.79   11.20
   7  -2  -2  106.09   10.20
   7  -2  -2  136.19   11.60
   2   7  -2  123.49   11.50
  -2  -7  -2  130.29   11.10
  -7   2  -2  129.99    9.90
  -7   2  -2  115.09   10.00
  -2  -7   2  138.09   10.50
  -7   2   2  145.09   10.80
   2   7   2  120.59   10.50
  -2  -7   2  140.89   10.40
   2   7   2  136.09   10.80
  -7   2   2  140.79   11.10
   7  -2   2  126.29   11.70
   3   7  -2  508.15   22.90
   7  -3  -2  499.25   22.50
   3   7  -2  533.15   21.30
  -3  -7  -2  492.95   21.60
  -7   3  -2  482.55   21.30
   7  -3  -2  499.95   21.40
  -7   3   2  507.95   21.50
  -3  -7   2  478.35   20.00
   3   7   2  503.25   20.90
   7  -3   2  490.75   22.10
  -3  -7   2  475.75   20.40
   3   7   2  491.05   21.70
   7  -4  -2   26.20    7.30
  -7   4  -2   32.60    7.30
   4   7  -2   39.90    9.20
  -4  -7  -2   33.30    7.00
   4   7  -2   31.70    6.90
  -7   4   2   34.10    7.10
   4   7   2   36.90    7.00
  -7   4   2   37.20    7.30
   7  -4   2   28.00    7.70
   4   7   2   32.20    8.10
   7  -4   2   30.30    7.80
  -4  -7   2   30.30    6.50
  -4  -7   2   39.60    7.70
   5   7   2  280.57   17.70
   7  -5   2  231.08   15.70
   3  -8  -2    7.90    6.00
  -8  -3  -2    1.80    6.60
   3  -8  -2   10.20    6.00
  -3   8  -2    2.30    6.50
   3  -8   2    8.40    5.80
  -3   8   2    2.60    6.10
   8   2  -2   13.20    7.30
  -8  -2  -2    7.00    5.50
  -2   8  -2    5.10    6.20
   2  -8  -2    7.00    6.20
  -8  -2   2    6.50    6.00
   2  -8   2    6.00    5.80
  -2   8   2    1.80    5.90
   8   2   2    4.60    7.50
  -8  -1  -2    1.30    5.30
   8   1  -2    5.10    6.60
   1  -8  -2    1.10    5.60
   8   1  -2   -0.20    5.40
  -8  -1  -2   -0.40    4.90
  -1   8  -2   -2.00    5.10
  -8  -1   2   -0.30    4.70
   8   1   2    3.50    7.10
  -8  -1   2   -2.90    5.00
  -1   8   2    1.00    5.00
   1  -8   2    5.50    5.20
   1  -8   2    0.00    5.10
   8   0  -2    0.70    5.50
  -8   0  -2    1.70    5.00
  -8   0  -2   -1.40    4.80
   8   0  -2   -2.70    6.60
   0   8  -2    1.60    5.30
   0  -8  -2   -2.60    5.40
   0  -8   2    0.80    5.10
   0  -8   2    0.00    4.70
  -8   0   2   -0.50    5.10
   0   8   2    0.40    5.00
   8   0   2   -3.20    6.90
  -8   0   2    1.70    5.10
   1   8  -2   -6.00    6.10
   1   8  -2    1.10    6.00
   8  -1  -2    6.70    5.80
   8  -1  -2    4.30    7.00
  -1  -8  -2    4.20    6.00
  -8   1  -2    4.40    5.10
   1   8   2    1.80    5.20
   8  -1   2    1.00    6.00
  -8   1   2    4.40    5.20
  -1  -8   2   -2.10    5.40
  -8   1   2    0.30    5.50
  -1  -8   2    1.70    5.40
   8  -2  -2    5.00    5.80
   2   8  -2    5.50    6.50
   8  -2  -2   10.50    6.70
   2   8  -2    5.10    6.50
  -8   2  -2    4.50    5.40
  -2  -8  -2    0.10    6.20
  -2  -8   2    1.60    5.80
  -8   2   2    7.90    5.60
   8  -2   2   -0.30    6.10
  -8   2   2    4.20    6.00
  -2  -8   2    6.60    5.80
   8  -2   2    5.00    5.70
   2   8   2    6.70    6.00
   8  -3  -2   13.10   10.30
   3   8  -2    3.10    6.30
   3   8  -2    7.80    7.30
   8  -3   2    5.60    7.20
  -3  -8   2   10.00    6.80
  -8   3   2    7.30    5.90
   3   8   2    8.60    5.90
   0   0  -3    0.50    0.60
   0   0  -3    1.10    0.50
   0   0  -3    0.50    0.40
   0   0   3   -0.20    0.50
   0   0   3    0.10    0.40
  -1   0  -3 2894.71   74.09
   1   0  -3 2909.41   74.09
   0  -1  -3 2829.32   73.99
  -1   0  -3 2940.41   74.09
   0  -1  -3 3015.40   74.19
   0  -1  -3 2956.50   73.49
   0   1  -3 2895.01   73.59
   0   1  -3 2808.32   74.29
  -1   0  -3 2760.42   73.79
   1   0  -3 2911.01   73.89
   0  -1   3 2775.12   73.79
  -1   0   3 2923.81   73.89
   1   0   3 2872.71   74.09
   0   1   3 2774.22   73.79
   0   1   3 2839.62   73.39
   1   0   3 2767.12   73.59
   0   1   3 2876.11   74.09
   0  -1   3 2813.92   73.69
  -1   0   3 2732.43   73.39
  -1   1  -3    4.80    1.40
   1   1  -3    3.90    0.90
   1   1  -3    5.60    1.50
   1  -1  -3    4.60    0.80
  -1   1  -3    6.20    0.80
  -1  -1  -3    3.90    1.00
  -1  -1  -3    5.80    1.20
  -1   1  -3    4.80    1.10
   1  -1  -3    6.50    1.40
   1   1   3    6.60    1.30
   1  -1   3    7.50    1.10
  -1  -1   3    4.50    1.20
  -1   1   3    3.70    0.90
  -1  -1   3    4.70    1.00
   1   1   3    4.00    1.00
  -1   2  -3  705.03   21.20
  -1   2  -3  690.63   20.00
  -2  -1  -3  673.73   20.30
   2   1  -3  703.23   20.10
  -1   2  -3  693.23   19.70
  -2  -1  -3  682.03   20.10
  -1   2  -3  695.53   20.30
   2   1   3  721.33   20.90
  -1   2   3  732.93   19.50
   1  -2   3  708.53   19.70
   1  -2   3  738.93   20.30
  -1   2   3  743.23   20.40
  -1   2   3  736.73   21.10
  -2  -1   3  739.73   19.90
  -2  -1   3  728.43   20.50
   2   1   3  716.13   19.60
  -2  -1   3  749.42   19.30
   0  -2  -3   53.79    2.90
   0   2  -3   49.40    3.10
   2   0  -3   58.89    3.60
  -2   0  -3   59.19    3.40
   0   2  -3   55.79    2.40
   2   0  -3   55.79    3.40
   0  -2  -3   52.39    3.30
   0   2  -3   52.59    3.50
  -2   0  -3   54.59    2.70
  -2   0   3   54.99    2.10
   0   2   3   49.30    2.50
  -2   0   3   50.49    3.20
   2   0   3   54.69    2.40
   0  -2   3   55.29    3.10
   0   2   3   55.09    3.20
   2   0   3   55.79    3.50
   0   2   3   51.29    3.30
  -2   0   3   54.39    3.20
   0  -2   3   53.09    2.80
  -2   1  -3  705.73   19.30
   2  -1  -3  740.13   21.00
   1   2  -3  728.83   18.60
  -1  -2  -3  724.13   19.40
  -2   1  -3  708.33   20.70
  -2   1  -3  701.63   20.40
   1   2  -3  729.73   21.10
  -1  -2  -3  721.83   20.50
   1   2  -3  751.22   20.30
   2  -1  -3  723.13   19.90
  -1  -2   3  699.83   20.20
   1   2   3  665.83   20.20
  -2   1   3  674.33   20.40
  -2   1   3  668.63   20.30
   2  -1   3  705.93   19.20
  -1  -2   3  675.93   19.90
   2  -1   3  679.83   20.70
  -2   1   3  691.93   19.10
   2   2  -3    4.00    2.30
  -2  -2  -3    9.50    1.60
   2  -2  -3    6.80    1.50
   2   2  -3    5.60    1.20
   2   2  -3    7.50    1.70
  -2   2  -3    5.30    2.00
   2  -2  -3    4.00    2.00
  -2   2  -3    6.70    1.80
  -2  -2  -3    7.90    2.20
  -2   2  -3    8.00    1.60
  -2   2   3    5.00    2.00
  -2   2   3    7.20    1.70
   2   2   3    4.80    1.70
  -2  -2   3    6.30    1.60
  -2   2   3    7.80    1.90
  -2  -2   3    7.00    2.20
   2  -2   3    7.40    1.60
   2   2   3    6.60    2.20
  -2   3  -3  883.01   26.70
   3   2  -3  941.21   26.60
  -2   3  -3  930.41   27.20
   3   2  -3  919.51   29.00
   2  -3  -3  941.61   26.60
  -2   3  -3  906.01   28.30
  -3  -2  -3  930.01   26.60
  -3  -2  -3  911.81   27.60
   3   2  -3  953.40   26.20
  -2   3  -3  899.71   27.20
   2  -3  -3  914.11   27.70
  -3  -2   3  967.90   28.00
  -3  -2   3  959.70   26.00
   3   2   3  968.30   26.60
  -2   3   3  954.60   27.40
  -3  -2   3  996.50   26.30
  -2   3   3  964.30   27.30
   3   2   3  953.90   28.70
   2  -3   3  972.80   27.00
   2  -3   3  975.20   27.00
  -2   3   3  972.00   26.60
  -2   3   3  960.30   28.30
  -1   3  -3   40.70    4.10
   3   1  -3   40.50    3.60
   1  -3  -3   38.20    3.30
  -1   3  -3   39.00    3.60
   3   1  -3   44.00    4.60
  -3  -1  -3   52.29    3.70
  -3  -1  -3   44.20    3.60
  -1   3  -3   43.00    3.10
  -1   3   3   46.80    3.10
   3   1   3   38.20    4.00
  -3  -1   3   41.60    2.20
   1  -3   3   40.80    3.20
  -3  -1   3   40.70    3.30
  -1   3   3   39.70    3.60
  -1   3   3   40.40    3.80
   3   1   3   44.30    2.70
   1  -3   3   39.50    3.70
  -3  -1   3   43.70    3.60
   3   0  -3 2264.67   63.29
   0   3  -3 2379.46   60.99
   0  -3  -3 2476.05   63.59
  -3   0  -3 2414.56   63.19
   0   3  -3 2437.16   63.39
   0   3  -3 2368.06   63.79
   3   0  -3 2436.06   63.69
  -3   0  -3 2348.27   62.29
   0  -3  -3 2348.86   61.89
   3   0   3 2324.57   60.89
   3   0   3 2284.57   63.59
   0  -3   3 2373.86   62.49
  -3   0   3 2399.56   63.09
  -3   0   3 2298.97   62.89
   0  -3   3 2381.96   62.99
  -3   0   3 2390.66   60.19
   0   3   3 2330.87   63.29
   0   3   3 2308.47   62.19
  -3   0   3 2253.17   60.19
   3  -1  -3   40.40    4.00
  -1  -3  -3   37.70    3.60
  -1  -3  -3   39.70    2.60
   3  -1  -3   36.00    3.60
  -3   1  -3   38.50    3.90
   1   3  -3   41.10    3.70
   1   3  -3   44.70    4.10
  -3   1  -3   40.90    3.00
  -3   1   3   45.60    3.70
  -1  -3   3   44.00    3.80
   3  -1   3   47.50    2.50
   1   3   3   44.10    3.70
   1   3   3   41.60    3.70
  -3   1   3   47.00    3.90
  -1  -3   3   41.20    3.70
   3  -1   3   55.19    4.30
  -3   1   3   41.30    2.20
   3  -2  -3  985.50   27.00
  -2  -3  -3  945.51   28.10
  -3   2  -3  968.60   28.10
   3  -2  -3  939.71   28.30
  -3   2  -3  973.60   26.80
   2   3  -3  962.40   27.20
  -3   2  -3  910.61   27.60
  -2  -3  -3  936.11   25.40
   2   3  -3  962.20   28.90
  -3   2   3  900.01   27.60
   2   3   3  926.01   28.00
  -3   2   3  934.11   26.00
  -3   2   3  920.91   28.00
   3  -2   3  939.21   28.30
  -2  -3   3  887.41   26.70
   3  -2   3  922.21   25.70
   2   3   3  956.60   27.40
  -2  -3   3  905.41   27.50
   3   3  -3  102.99    5.70
  -3  -3  -3  105.29    6.60
   3   3  -3  107.89    7.70
   3  -3  -3   99.19    6.70
  -3  -3  -3  107.99    5.10
  -3   3  -3  107.39    6.30
  -3   3  -3  117.19    7.20
  -3   3  -3  111.99    5.90
   3   3  -3  101.79    4.50
   3  -3  -3  111.79    5.90
   3  -3   3  116.49    5.50
   3   3   3  112.69    7.50
  -3  -3   3  100.89    5.50
  -3  -3   3   96.99    6.70
  -3   3   3  110.79    6.90
  -3   3   3  102.39    5.70
   3  -3   3  112.29    7.20
  -3   3   3  103.39    6.30
   3   3   3  120.79    6.20
  -4  -3  -3  584.54   20.30
   4   3  -3  757.32   20.80
  -3   4  -3  701.93   23.20
  -4  -3  -3  720.73   23.00
   3  -4  -3  750.72   21.60
   3  -4  -3  737.23   22.90
  -3   4  -3  726.53   21.90
  -3   4  -3  709.73   21.70
  -3   4  -3  702.73   22.00
   4   3  -3  703.63   24.50
  -4  -3   3  651.63   22.70
   3  -4   3  667.03   23.00
  -4  -3   3  670.33   20.20
  -3   4   3  654.93   21.60
  -3   4   3  635.64   20.90
   3  -4   3  650.83   21.10
  -3   4   3  669.53   22.90
   3  -4   3  676.03   21.60
   4   3   3  654.13   20.90
   4   3   3  676.63   23.80
  -3   4   3  645.94   21.80
  -2   4  -3  125.49    6.70
  -4  -2  -3  126.39    7.40
   4   2  -3  125.99    8.40
  -2   4  -3  131.79    8.00
  -4  -2  -3  128.89    6.50
  -2   4  -3  138.79    7.20
   2  -4  -3  137.19    7.20
   2  -4  -3  128.49    7.80
   4   2  -3  131.39    6.70
  -2   4  -3  123.99    6.40
  -4  -2   3  122.39    7.40
  -2   4   3  116.39    7.50
  -4  -2   3  110.59    4.90
  -2   4   3  116.59    6.10
   2  -4   3  115.29    6.50
   4   2   3  106.09    5.50
  -2   4   3  112.99    7.20
   2  -4   3  122.99    6.60
  -4  -2   3  121.99    6.10
   4   2   3  119.79    8.00
  -1   4  -3  742.43   21.30
   4   1  -3  723.73   23.00
  -4  -1  -3  747.93   22.80
   4   1  -3  735.43   24.40
  -1   4  -3  733.63   23.90
  -4  -1  -3  738.63   22.70
  -1   4  -3  732.93   23.30
   1  -4  -3  772.42   22.20
   1  -4  -3  739.43   23.60
  -1   4   3  756.62   23.50
   4   1   3  746.93   24.30
   4   1   3  726.73   20.50
  -4  -1   3  726.83   20.00
   1  -4   3  748.53   22.40
  -4  -1   3  767.92   22.70
   1  -4   3  746.33   23.00
  -1   4   3  779.42   24.10
  -4  -1   3  740.13   23.20
  -1   4   3  746.63   22.10
   0   4  -3  156.78    8.10
   0  -4  -3  176.28    8.50
   4   0  -3  153.38    8.10
   0  -4  -3  170.48    6.60
   4   0  -3  154.88    8.60
  -4   0  -3  161.88    7.30
   0   4  -3  161.18    5.40
  -4   0  -3  170.18    8.20
   0   4  -3  169.28    8.80
   0  -4   3  162.58    5.50
   0   4   3  163.78    8.20
   4   0   3  166.88    8.80
   0   4   3  165.88    7.40
   0  -4   3  164.28    7.50
  -4   0   3  163.58    7.90
  -4   0   3  171.28    8.00
   4   0   3  159.18    5.20
   0  -4   3  157.08    7.80
   4  -1  -3  725.33   23.70
  -1  -4  -3  727.83   23.20
  -4   1  -3  738.93   22.10
  -4   1  -3  723.43   23.10
   4  -1  -3  762.52   23.30
  -1  -4  -3  736.13   20.40
   1   4  -3  736.73   23.10
   1   4  -3  736.03   23.90
   1   4   3  753.22   22.90
  -4   1   3  727.73   22.90
   1   4   3  715.53   23.10
  -1  -4   3  763.62   23.10
   4  -1   3  746.53   20.00
   4  -1   3  750.12   23.90
  -1  -4   3  721.23   22.70
  -4   1   3  700.53   23.10
   4  -2  -3  107.09    7.50
  -4   2  -3  108.69    6.30
   2   4  -3  114.49    7.10
  -4   2  -3   98.99    6.90
  -2  -4  -3  119.79    7.40
   4  -2  -3  113.59    6.90
   2   4  -3  122.49    7.90
  -2  -4  -3  113.59    4.60
  -4   2   3  136.49    7.90
  -4   2   3  122.69    5.20
   2   4   3  136.89    7.60
   4  -2   3  128.39    7.70
   4  -2   3  129.19    5.10
   2   4   3  131.19    7.60
  -4   2   3  125.49    7.40
  -2  -4   3  131.49    7.10
  -2  -4   3  129.09    7.20
   4  -3  -3  653.73   23.40
   4  -3  -3  654.53   22.00
  -4   3  -3  666.43   21.70
  -4   3  -3  648.54   22.80
   3   4  -3  658.33   24.10
  -3  -4  -3  670.33   23.30
   3   4  -3  700.73   22.20
   3   4   3  736.03   22.70
   4  -3   3  742.73   23.90
  -4   3   3  708.03   20.70
  -4   3   3  704.63   22.90
   3   4   3  731.73   24.10
  -3  -4   3  723.53   23.20
  -3  -4   3  722.53   21.90
   4  -3   3  710.53   20.40
   4   4  -3   52.59    5.20
   4  -4  -3   51.29    6.30
   4  -4  -3   57.59    5.80
   4   4  -3   58.69    7.80
  -4  -4  -3   56.59    6.20
  -4   4  -3   51.89    6.10
  -4   4  -3   60.39    5.50
  -4   4  -3   59.39    6.20
  -4   4   3   54.89    5.20
   4  -4   3   46.40    4.70
  -4  -4   3   59.29    6.70
   4  -4   3   64.09    6.50
   4   4   3   53.49    5.50
  -4   4   3   45.20    5.70
  -4  -4   3   58.09    5.10
  -4   4   3   62.29    6.60
   4   4   3   61.89    6.90
   5   4  -3  334.27   16.40
   4  -5  -3  355.36   15.20
  -4   5  -3  343.77   15.20
  -4   5  -3  337.17   15.00
  -4   5  -3  334.67   14.10
  -5  -4  -3  353.26   15.10
   5   4   3  316.37   16.20
  -4   5   3  302.77   14.80
   4  -5   3  310.97   12.80
  -5  -4   3  307.07   15.00
   4  -5   3  306.77   14.70
  -4   5   3  299.07   13.10
   4  -5   3  308.17   13.60
  -5  -3  -3   41.90    4.70
  -5  -3  -3   41.20    5.80
  -3   5  -3   35.60    5.00
   5   3  -3   30.40    6.00
   3  -5  -3   39.50    5.40
  -3   5  -3   34.40    5.20
  -3   5  -3   36.40    4.80
  -3   5  -3   39.50    6.20
   3  -5  -3   42.80    6.10
   3  -5  -3   43.00    4.90
  -3   5   3   35.20    5.40
  -5  -3   3   29.90    5.10
   3  -5   3   36.10    5.00
   3  -5   3   36.10    4.90
   5   3   3   28.70    5.90
  -3   5   3   31.20    5.60
   2  -5  -3  526.35   19.10
   5   2  -3  571.34   18.30
  -2   5  -3  541.15   16.90
  -5  -2  -3  537.65   18.80
  -2   5  -3  537.65   18.70
  -2   5  -3  518.75   19.30
   5   2  -3  523.85   20.40
   2  -5  -3  542.75   17.90
  -5  -2  -3  549.54   17.90
   2  -5   3  509.55   17.30
   2  -5   3  500.55   17.70
  -2   5   3  502.75   17.30
  -2   5   3  490.65   19.00
   2  -5   3  491.55   17.90
  -5  -2   3  496.55   17.20
  -5  -2   3  499.15   18.90
   5   2   3  474.15   19.80
  -2   5   3  494.15   18.60
  -1   5  -3    3.40    3.70
   5   1  -3    2.50    3.20
  -1   5  -3    1.90    3.10
   5   1  -3    5.10    3.90
   1  -5  -3    4.90    2.40
  -5  -1  -3    6.30    3.00
   1  -5  -3    8.90    3.90
  -5  -1  -3    6.30    2.90
   5   1   3    0.60    3.40
   1  -5   3    3.30    2.80
  -1   5   3    4.70    3.10
  -1   5   3    2.50    2.60
  -5  -1   3    1.60    2.90
   1  -5   3    4.20    2.20
   1  -5   3    3.80    3.40
  -5  -1   3    3.80    3.00
  -5   0  -3  722.83   23.90
  -5   0  -3  736.73   23.00
   0   5  -3  727.83   24.40
   5   0  -3  713.93   24.30
   5   0  -3  749.03   25.10
   0  -5  -3  727.03   24.20
   0   5  -3  740.03   25.00
   0  -5  -3  705.93   22.20
  -5   0   3  749.33   24.00
   0  -5   3  716.03   23.20
   0   5   3  747.83   24.40
   5   0   3  748.73   25.30
   0   5   3  724.03   23.10
   0  -5   3  686.73   23.60
  -5   0   3  765.32   24.00
  -5   1  -3    4.90    3.20
   5  -1  -3    3.70    3.40
  -5   1  -3    3.60    2.70
   5  -1  -3    1.70    3.30
   1   5  -3   -0.20    3.00
   1   5  -3    7.90    3.70
  -1  -5  -3    4.90    3.60
   5  -1   3    4.20    3.60
  -1  -5   3    0.00    2.80
  -1  -5   3    6.40    3.50
   1   5   3    6.40    3.30
  -5   1   3    8.50    3.50
  -5   1   3    2.70    3.20
   1   5   3    3.10    3.20
   5  -2  -3  482.35   19.50
   2   5  -3  491.45   18.40
   2   5  -3  495.85   19.80
  -2  -5  -3  494.95   19.10
  -5   2  -3  483.45   18.90
   5  -2  -3  484.55   18.50
  -5   2  -3  474.95   17.50
  -2  -5   3  516.65   18.50
   5  -2   3  529.75   19.60
   2   5   3  560.54   19.20
   2   5   3  522.85   19.00
  -2  -5   3  542.05   18.50
  -5   2   3  566.04   19.20
  -5   2   3  551.94   19.30
  -5   3  -3   35.90    5.00
   5  -3  -3   39.60    5.40
   3   5  -3   33.20    6.20
  -5   3  -3   40.80    6.10
   3   5  -3   31.80    4.90
   5  -3  -3   51.09    7.00
  -3  -5  -3   33.70    5.60
  -3  -5   3   40.00    5.80
  -5   3   3   45.60    6.30
   3   5   3   40.90    5.70
   5  -3   3   44.20    6.50
  -5   3   3   42.60    5.90
   3   5   3   39.80    6.30
  -3  -5   3   41.40    5.10
   4   5  -3  301.57   16.10
   5  -4  -3  321.97   15.80
  -4  -5  -3  316.97   15.20
  -5   4  -3  291.07   14.50
   5  -4  -3  312.67   14.00
   4   5  -3  319.07   13.60
  -5   4   3  348.47   15.30
  -4  -5   3  332.77   14.80
   4   5   3  334.07   14.20
  -4  -5   3  342.57   13.40
   4   5   3  356.36   16.40
   5  -4   3  345.47   15.70
  -5   4   3  340.27   15.30
   5   5  -3   16.70    6.80
   5  -5  -3   20.60    5.90
  -5   5  -3   18.70    5.30
  -5  -5  -3   23.90    6.10
   5  -5   3   18.50    6.00
  -5   5   3   26.70    6.20
  -5  -5   3   20.40    5.70
   5   5   3   11.90    5.50
  -5   5   3   21.60    5.20
   5  -5   3   21.90    5.80
  -5   6  -3  129.49   10.40
   5  -6  -3  133.29   11.50
   6   5  -3  148.09   12.80
   5  -6  -3  143.29   11.60
  -6  -5  -3  164.38   12.40
   5  -6   3  147.39   11.50
  -6  -5   3  155.68   11.50
   5  -6   3  160.78   11.60
  -5   6   3  161.48   11.90
   6   5   3  142.49   12.40
  -6  -4  -3   37.30    7.20
   4  -6  -3   38.70    6.70
   6   4  -3   28.60    7.10
  -4   6  -3   50.69    7.60
  -4   6  -3   43.60    6.70
   4  -6  -3   42.60    7.10
  -6  -4   3   50.89    7.80
   4  -6   3   54.29    6.60
   4  -6   3   53.99    7.70
   4  -6   3   42.90    6.60
   6   4   3   47.60    8.20
  -4   6   3   44.10    7.20
   3  -6  -3  329.37   15.10
  -3   6  -3  317.37   14.80
   6   3  -3  335.57   16.50
  -3   6  -3  319.37   14.30
  -6  -3  -3  324.87   14.70
   3  -6  -3  309.17   13.80
  -3   6   3  285.77   14.00
  -6  -3   3  274.37   14.60
  -3   6   3  271.87   14.60
   3  -6   3  272.67   13.40
   6   3   3  291.67   16.40
   3  -6   3  270.57   13.00
   6   2  -3   65.79    8.50
  -2   6  -3   78.89    8.30
   6   2  -3   77.89    7.50
  -2   6  -3   85.39    8.30
  -6  -2  -3   72.49    7.60
   2  -6  -3   76.89    8.30
  -6  -2  -3   80.99    7.40
  -6  -2   3   75.49    7.80
  -2   6   3   86.39    8.40
   6   2   3   77.39    8.70
  -6  -2   3   71.59    6.50
  -2   6   3   67.39    7.70
   2  -6   3   80.79    7.70
   2  -6   3   71.99    6.90
   1  -6  -3  382.06   16.50
  -6  -1  -3  372.96   15.50
  -6  -1  -3  392.56   15.50
   6   1  -3  364.26   17.30
  -1   6  -3  391.36   16.40
  -1   6  -3  377.46   16.50
   6   1  -3  362.56   15.80
  -6  -1   3  384.36   15.10
   1  -6   3  367.46   15.60
   6   1   3  377.46   17.40
   1  -6   3  364.86   15.00
  -6  -1   3  396.46   16.10
  -1   6   3  397.26   16.30
   0  -6  -3   71.79    7.80
   6   0  -3   66.49    8.00
   6   0  -3   78.99    7.50
   0   6  -3   78.79    8.50
   0   6  -3   83.79    8.40
  -6   0  -3   72.49    7.50
  -6   0  -3   74.59    6.60
   0   6   3   83.69    8.20
   6   0   3   78.39    8.30
   0  -6   3   79.19    7.80
  -6   0   3   73.49    7.30
   0  -6   3   78.89    7.10
   0   6   3   83.89    8.60
  -6   0   3   78.89    7.40
  -1  -6  -3  373.36   16.30
   6  -1  -3  382.36   17.10
   1   6  -3  394.56   16.80
  -6   1  -3  391.86   15.30
   6  -1  -3  412.86   17.40
   1   6  -3  400.26   17.60
  -6   1  -3  394.86   16.40
  -1  -6   3  370.16   16.00
   1   6   3  404.76   16.80
  -6   1   3  385.86   16.30
   6  -1   3  367.76   16.90
   1   6   3  366.66   15.60
  -1  -6   3  383.46   16.00
  -6   1   3  362.96   15.60
  -6   2  -3   76.49    7.70
   2   6  -3   78.49    7.70
   6  -2  -3   66.59    7.80
  -2  -6  -3   78.19    8.00
   6  -2  -3   77.39    8.20
  -6   2  -3   78.09    7.30
   2   6  -3   83.79    8.60
  -2  -6   3   82.79    8.00
  -2  -6   3   78.69    7.20
   6  -2   3   83.29    9.10
  -6   2   3   75.49    8.00
   2   6   3   66.49    7.50
   2   6   3   68.79    7.50
  -6   2   3   86.19    7.90
   3   6  -3  284.07   16.00
  -3  -6  -3  268.27   14.40
   3   6  -3  280.37   14.20
   6  -3  -3  276.17   15.40
   6  -3  -3  277.47   14.20
  -6   3  -3  290.27   14.90
  -6   3   3  322.47   15.20
   6  -3   3  327.27   15.90
  -3  -6   3  326.57   14.90
  -3  -6   3  327.77   14.10
   3   6   3  305.67   15.20
   3   6   3  319.87   14.70
   4   6  -3   47.10    6.90
  -6   4  -3   52.59    7.70
  -4  -6  -3   43.70    6.80
   4   6  -3   40.60    8.00
   6  -4  -3   40.90    7.80
   4   6   3   43.00    7.90
   4   6   3   44.50    6.90
  -4  -6   3   46.80    6.50
  -4  -6   3   40.90    6.90
   6  -4   3   51.49    8.00
  -6   4   3   49.90    7.70
  -6   4   3   35.60    6.60
  -6   5  -3  161.18   11.90
  -5  -6  -3  176.78   12.50
   6  -5  -3  152.08   12.50
   5   6  -3  169.48   13.30
  -6   5   3  131.89   11.40
   5   6   3  131.99   12.20
   6  -5   3  129.49   11.10
   6  -5   3  152.68   11.30
  -5  -6   3  157.38   11.40
  -6   5   3  161.78   11.80
  -6   6  -3   39.00    7.70
   6  -6  -3   43.20    8.70
   6  -6  -3   32.00    8.00
   6  -6   3   35.70   12.40
  -6   6   3   49.20    8.90
   6  -6   3   38.80    8.20
   6   6   3   33.40    9.10
   5  -7  -3    8.70    6.20
  -5   7   3   14.80    6.70
   4  -7  -3  118.19   11.30
   7   4  -3  102.99   11.70
  -7  -4  -3  124.29   11.60
  -4   7   3  126.49   11.40
  -7  -4   3  133.29   11.90
   4  -7   3  133.09   10.20
   7   4   3  127.09   13.20
  -3   7  -3   26.00    6.70
  -3   7  -3   28.00    6.80
   7   3  -3   23.50    7.00
  -7  -3  -3   23.20    6.40
   3  -7  -3   44.10    7.50
  -7  -3   3   26.10    6.10
   3  -7   3   33.70    6.40
   7   3   3   39.10    8.30
  -3   7   3   28.80    6.10
   7   2  -3  176.38   14.00
  -7  -2  -3  172.88   11.40
  -2   7  -3  188.28   12.00
   2  -7  -3  174.28   11.80
  -7  -2  -3  193.68   11.40
  -2   7  -3  188.88   12.70
  -7  -2   3  183.68   11.80
   7   2   3  195.88   14.50
  -2   7   3  186.28   12.30
   2  -7   3  189.38   11.40
   2  -7   3  192.88   11.50
  -7  -1  -3   21.40    5.40
  -1   7  -3   19.80    5.90
   7   1  -3   15.30    5.40
  -7  -1  -3   26.60    5.80
   7   1  -3   17.80    6.50
  -1   7  -3   24.40    6.70
   1  -7  -3   16.50    5.80
   7   1   3   32.90    7.40
  -7  -1   3   21.00    5.30
  -7  -1   3   29.40    6.40
  -1   7   3   23.70    5.60
   1  -7   3   29.00    5.90
   1  -7   3   18.80    5.50
   0   7  -3  193.38   13.20
   7   0  -3  175.88   12.30
  -7   0  -3  194.48   11.50
   7   0  -3  184.28   13.30
  -7   0  -3  204.68   11.30
   0   7  -3  200.68   12.40
   0  -7  -3  196.68   12.60
   0  -7   3  181.98   11.40
  -7   0   3  203.78   11.80
  -7   0   3  196.88   11.90
   0   7   3  197.78   12.20
   7   0   3  177.48   13.50
   0  -7   3  177.88   11.40
   1   7  -3   26.20    6.20
   7  -1  -3   25.50    6.50
  -7   1  -3   30.80    5.70
   7  -1  -3   31.70    7.10
  -1  -7  -3   18.40    5.50
   1   7  -3   11.60    6.10
  -7   1  -3   19.50    5.60
  -1  -7   3   17.70    5.10
  -7   1   3   15.80    5.50
  -7   1   3   21.90    6.10
   1   7   3   26.60    6.50
   7  -1   3   22.80    7.00
  -1  -7   3   16.40    5.40
   7  -2  -3  179.88   12.80
  -2  -7  -3  202.38   13.00
   2   7  -3  201.98   13.10
  -7   2  -3  201.38   13.00
   2   7  -3  207.18   14.10
   7  -2  -3  207.68   13.30
  -7   2   3  193.88   12.20
   2   7   3  198.28   12.90
  -7   2   3  195.48   12.80
  -2  -7   3  196.98   11.70
  -2  -7   3  178.98   11.90
   7  -3  -3   25.10    7.00
  -7   3  -3   29.30    6.60
   3   7  -3   33.90    7.20
  -3  -7  -3   38.50    7.30
   3   7  -3   30.80    8.30
   7  -3  -3   31.50    7.70
  -3  -7   3   30.30    6.70
  -3  -7   3   29.10    6.40
  -7   3   3   21.60    6.20
   3   7   3   24.90    6.30
  -7   3   3   30.20    7.00
   7  -3   3   34.00    7.90
  -4  -7  -3  149.99   12.20
   4   7  -3  139.59   11.10
   7  -4  -3  127.49   11.80
  -7   4  -3  115.99   11.40
   4   7  -3  143.99   13.60
  -4  -7   3  108.89    9.70
  -7   4   3  116.29   10.80
  -7   4   3  112.19   11.10
   7  -4   3  108.19   12.00
   7  -4   3  106.79   11.80
  -4  -7   3  104.09   10.80
   4   7   3  119.79   12.00
   4   7   3  110.39    9.80
  -7   5   3   11.20    6.70
   5   7   3   10.70    7.50
   7  -5   3   10.40    7.20
  -8  -3  -3   98.29   10.90
  -3   8  -3   72.49    9.60
   3  -8  -3   85.99   10.00
   3  -8  -3   91.99   11.10
  -3   8   3   80.09   10.40
   3  -8   3   80.19    9.20
   2  -8  -3   21.00    7.10
  -2   8  -3   21.60    7.50
   8   2  -3   33.40    9.60
  -8  -2  -3   24.40    6.70
   8   2   3   26.10    8.60
  -2   8   3   28.20    6.90
   2  -8   3   39.30    7.80
  -8  -2   3   36.30    7.80
  -1   8  -3  118.79   11.20
   8   1  -3  120.09   11.50
  -8  -1  -3  119.69   10.80
   8   1  -3  121.09   12.50
  -8  -1  -3  128.69   11.00
   1  -8  -3  112.29   11.40
   8   1   3  132.29   13.20
  -1   8   3  134.69   12.00
   1  -8   3  139.39   11.00
  -8  -1   3  145.29   11.80
   1  -8   3  129.09   11.30
  -8  -1   3  126.69   10.70
   0  -8  -3   23.60    7.10
   0   8  -3   27.00    7.80
   8   0  -3   20.90    8.30
   8   0  -3   20.10    7.00
  -8   0  -3   20.10    6.90
  -8   0  -3   26.00    6.40
   0   8  -3   16.20    6.80
   0  -8   3   21.40    6.50
   0  -8   3   29.60    6.70
   0   8   3   27.30    7.30
   8   0   3   28.70    9.00
  -8   0   3   37.90    7.50
  -8   0   3   25.90    6.90
   1   8  -3  133.29   12.40
  -8   1  -3  135.79   12.00
   1   8  -3  125.89   13.10
  -1  -8  -3  100.09   10.90
   8  -1  -3  140.29   12.80
   8  -1  -3  133.99   12.50
  -8   1   3  128.29   11.60
  -1  -8   3  140.49   11.60
   1   8   3  117.49   10.80
   8  -1   3  116.89   12.50
  -1  -8   3  148.59   11.90
  -8   1   3  131.19   11.80
   2   8  -3   29.00    8.00
  -8   2  -3   28.30    7.50
   8  -2  -3   30.90    8.70
   2   8  -3   20.10    7.40
  -2  -8  -3   34.70    8.10
   8  -2  -3   22.50    7.30
   8  -2   3   28.00    8.00
   2   8   3   29.60    7.50
  -2  -8   3   43.80    8.00
  -8   2   3   19.20    7.00
  -8   2   3   20.90    7.20
  -2  -8   3   28.50    7.40
   3   8  -3   65.19   10.70
   3   8  -3   77.49   11.50
  -3  -8   3  103.39   17.70
  -3  -8   3   96.39   11.80
   3   8   3   93.19   16.20
   8  -3   3   80.09   12.30
   0   0  -4 8128.29  207.78
   0   0  -4 8656.03  209.38
   0   0   4 7386.16  206.68
   0  -1  -4  180.48    6.30
   1   0  -4  166.58    5.80
   0   1  -4  163.68    6.30
  -1   0  -4  171.08    5.20
  -1   0  -4  174.08    6.10
  -1   0  -4  166.98    6.00
   1   0  -4  170.58    6.20
   0  -1  -4  176.08    4.90
   0   1  -4  179.48    5.80
   0   1   4  175.98    5.90
  -1   0   4  174.68    5.60
   0  -1   4  174.78    5.20
   0   1   4  177.18    4.90
   1   0   4  166.98    5.70
  -1   0   4  168.18    5.80
   0   1   4  169.38    4.80
   1   0   4  168.98    6.00
   0  -1   4  171.18    5.80
   0   1   4  160.98    6.00
   1   1  -4   22.40    2.00
   1  -1  -4   16.10    2.20
  -1  -1  -4   14.60    1.80
  -1  -1  -4   16.50    2.00
  -1   1  -4   17.70    2.00
  -1   1  -4   17.40    2.30
   1  -1  -4   17.00    1.40
   1   1  -4   17.80    2.40
  -1   1  -4   15.20    1.00
   1  -1   4   16.20    1.00
   1   1   4   14.40    1.90
   1   1   4   15.70    1.90
  -1  -1   4   13.30    1.80
   1  -1   4   15.60    1.90
  -1  -1   4   13.90    1.60
  -1   1   4   14.10    1.30
   1  -1   4   16.00    1.00
  -1   1   4   14.70    2.30
  -1   1   4   15.10    1.60
   1  -2  -4  465.35   14.10
   2   1  -4  456.25   14.70
  -1   2  -4  475.35   13.70
   1  -2  -4  486.85   12.60
   2   1  -4  466.85   13.70
  -2  -1  -4  461.85   13.70
  -2  -1  -4  480.45   13.90
  -1   2  -4  464.25   14.90
  -2  -1   4  434.46   13.90
  -1   2   4  419.06   12.40
   1  -2   4  449.95   13.60
   1  -2   4  431.96   12.80
   2   1   4  423.06   13.00
  -1   2   4  421.06   14.30
  -2  -1   4  439.96   12.80
   0   2  -4 4990.50  130.79
   2   0  -4 5044.90  130.39
  -2   0  -4 5086.59  130.09
  -2   0  -4 4907.81  129.89
   0  -2  -4 5260.97  130.49
   0   2  -4 5104.99  130.09
   0  -2  -4 4993.30  129.69
   2   0  -4 5198.78  130.39
   0   2  -4 5080.29  128.99
   0   2   4 4898.51  129.29
   2   0   4 5076.59  130.49
   0  -2   4 4914.01  129.79
   0  -2   4 5026.40  129.99
   0   2   4 5233.58  130.49
  -2   0   4 4957.70  129.99
   0   2   4 5090.39  129.89
  -2   0   4 4890.61  128.59
   2   0   4 4773.12  128.99
  -1  -2  -4  432.56   13.90
   1   2  -4  426.06   12.40
  -2   1  -4  423.76   13.90
   2  -1  -4  438.56   14.30
  -2   1  -4  424.66   12.60
   1   2  -4  422.66   14.40
   2  -1  -4  435.96   13.20
  -2   1  -4  418.36   14.20
  -1  -2  -4  419.16   13.10
  -1  -2   4  461.35   13.60
   2  -1   4  480.95   13.00
   2  -1   4  465.55   14.50
   1   2   4  469.45   13.70
  -2   1   4  466.85   14.30
   1   2   4  475.25   13.80
  -2   1   4  463.25   12.70
   2  -2  -4 2589.84   72.49
   2   2  -4 2685.53   73.29
   2  -2  -4 2702.03   70.89
  -2   2  -4 2689.83   72.09
  -2  -2  -4 2675.13   72.49
  -2   2  -4 2715.63   73.09
  -2  -2  -4 2773.32   71.29
   2   2  -4 2738.33   70.79
  -2   2  -4 2713.53   70.89
   2   2  -4 2904.41   71.59
  -2  -2   4 2768.42   71.29
   2   2   4 2689.83   71.49
   2   2   4 2701.93   72.59
  -2   2   4 2714.53   72.79
  -2   2   4 2729.63   71.39
  -2  -2   4 2729.93   72.19
   2  -2   4 2744.33   71.29
  -2   3  -4  103.19    6.50
  -2   3  -4   96.49    5.00
   3   2  -4   96.29    5.10
   2  -3  -4   97.29    4.80
  -2   3  -4   88.79    5.40
  -3  -2  -4   98.99    5.20
   2  -3  -4  101.29    5.90
   3   2  -4   91.29    6.70
  -2   3  -4   97.09    5.50
  -3  -2  -4   95.89    5.90
   3   2   4  111.99    6.90
   3   2   4  122.89    5.30
  -3  -2   4  118.09    4.80
  -2   3   4  111.29    4.80
  -3  -2   4  115.39    6.20
  -2   3   4  117.29    6.70
   2  -3   4  118.29    5.30
   2  -3   4  115.99    5.50
  -2   3   4  114.79    6.00
  -1   3  -4  193.08    8.10
   1  -3  -4  205.48    8.80
   3   1  -4  189.38    8.70
  -3  -1  -4  197.48    7.90
   3   1  -4  204.98    8.10
  -1   3  -4  196.58    8.80
  -1   3  -4  192.58    7.20
  -3  -1  -4  198.78    7.70
   1  -3  -4  189.68    7.70
   1  -3   4  185.58    7.70
  -3  -1   4  188.48    8.00
  -1   3   4  196.58    6.80
  -1   3   4  192.88    8.10
  -3  -1   4  195.28    6.20
  -3  -1   4  203.88    7.70
  -1   3   4  197.58    8.60
   3   1   4  198.58    8.60
   1  -3   4  187.08    7.10
   3   1   4  192.68    6.70
  -3   0  -4  127.39    6.20
   0   3  -4  127.69    6.90
   3   0  -4  123.89    6.40
   0  -3  -4  126.89    6.40
   0   3  -4  134.09    4.70
   0   3  -4  129.99    6.40
  -3   0  -4  129.19    5.50
   0  -3  -4  133.29    5.60
   3   0  -4  130.29    6.60
   0   3   4  124.49    6.40
   0  -3   4  126.19    6.20
   0   3   4  127.89    5.40
   3   0   4  127.89    4.70
  -3   0   4  131.69    4.10
   0   3   4  132.59    6.30
   0  -3   4  131.79    5.70
   3   0   4  129.89    6.60
  -3   0   4  131.59    6.20
  -3   0   4  133.09    6.30
  -3   1  -4  193.18    7.00
   1   3  -4  206.38    8.20
  -1  -3  -4  186.38    8.30
  -3   1  -4  196.88    8.20
   1   3  -4  198.68    8.80
   3  -1  -4  195.48    8.00
   1   3  -4  199.18    5.50
   3  -1  -4  195.38    8.70
  -1  -3  -4  190.28    6.90
  -1  -3   4  198.68    8.00
   1   3   4  176.28    7.90
  -3   1   4  185.88    8.10
  -3   1   4  187.98    6.20
  -1  -3   4  206.28    5.70
  -1  -3   4  199.78    7.90
   3  -1   4  195.38    8.70
  -3   1   4  202.68    8.40
   3  -1   4  198.28    6.70
   1   3   4  185.98    7.70
  -2  -3  -4  109.99    6.30
  -3   2  -4  118.29    6.30
   2   3  -4  109.89    3.70
  -3   2  -4  120.89    5.30
  -3   2  -4  118.49    6.60
   3  -2  -4  111.09    5.50
   2   3  -4  114.99    5.70
   3  -2  -4  125.59    7.20
  -2  -3  -4  115.69    4.80
   2   3  -4  108.79    6.90
  -2  -3   4  101.49    5.40
   3  -2   4   99.39    4.70
  -2  -3   4   99.69    6.00
  -3   2   4  100.09    4.80
  -3   2   4   96.29    6.20
  -3   2   4   99.29    6.40
   2   3   4  101.99    6.20
   3  -2   4   97.29    6.30
   2   3   4  103.59    5.80
  -3  -3  -4   13.50    2.40
   3   3  -4   17.80    4.20
  -3   3  -4   18.40    2.80
  -3   3  -4   11.00    3.30
   3   3  -4   11.30    2.60
   3  -3  -4   14.20    3.40
  -3  -3  -4   12.00    3.20
   3   3  -4   17.00    2.20
   3  -3  -4   22.80    3.10
  -3   3  -4   13.40    3.30
  -3  -3   4   17.60    2.70
   3  -3   4   20.00    2.90
  -3   3   4   16.30    3.40
   3   3   4   10.30    2.80
  -3  -3   4   20.70    3.80
   3   3   4   15.80    3.70
  -3   3   4   14.20    3.30
  -3   3   4   15.00    2.80
   3  -3   4   13.90    3.60
  -3   4  -4  101.49    6.90
  -3   4  -4  112.79    7.70
   4   3  -4  102.79    5.90
  -3   4  -4  112.79    7.00
  -4  -3  -4  104.29    5.90
  -3   4  -4  105.29    6.40
  -4  -3  -4  111.59    7.70
   3  -4  -4  107.49    7.50
   3  -4  -4  106.79    6.10
   4   3  -4  107.09    8.70
   4   3   4  104.19    8.50
   3  -4   4  111.79    6.50
   3  -4   4  107.59    7.60
  -3   4   4  102.39    7.40
  -4  -3   4  104.49    7.30
   4   3   4  110.89    6.40
  -4  -3   4   99.89    5.50
  -3   4   4  103.19    6.60
   3  -4   4  106.79    6.40
   4   2  -4 2393.76   66.79
  -2   4  -4 2452.75   63.89
  -2   4  -4 2455.65   66.29
  -4  -2  -4 2446.46   63.99
  -2   4  -4 2413.56   64.89
  -4  -2  -4 2355.16   64.69
   2  -4  -4 2507.45   63.29
   4   2  -4 2439.16   63.99
   2  -4  -4 2412.06   64.69
  -2   4  -4 2379.06   63.79
   2  -4  -4 2414.96   66.09
   4   2   4 2316.37   66.29
   2  -4   4 2355.36   64.29
   2  -4   4 2339.57   63.69
  -4  -2   4 2255.77   65.09
  -4  -2   4 2378.66   63.39
   4   2   4 2293.87   62.79
  -2   4   4 2301.37   63.09
  -2   4   4 2293.37   65.69
  -4  -2   4 2320.07   61.99
  -2   4   4 2223.98   64.59
  -1   4  -4  217.98    7.70
  -1   4  -4  202.08    9.80
  -4  -1  -4  211.68    8.90
   4   1  -4  210.58    9.20
  -1   4  -4  204.08    9.40
   1  -4  -4  204.38    9.70
   1  -4  -4  213.88    8.40
   4   1  -4  230.18   10.50
  -4  -1  -4  215.08    8.80
  -4  -1   4  190.08    8.90
  -1   4   4  174.98    8.80
  -1   4   4  189.08    9.60
  -4  -1   4  182.78    6.30
  -1   4   4  184.98    7.70
   1  -4   4  193.08    8.80
   4   1   4  190.58    6.90
  -4  -1   4  199.68    8.60
   4   1   4  191.38    9.70
   1  -4   4  189.28    8.10
   0   4  -4 3579.64   93.89
  -4   0  -4 3432.16   92.19
   0  -4  -4 3386.16   93.79
   4   0  -4 3389.26   93.89
  -4   0  -4 3540.15   93.49
   4   0  -4 3668.13   94.39
   0  -4  -4 3556.54   91.79
   0   4  -4 3503.85   90.29
   0   4  -4 3413.06   94.39
   0   4   4 3466.35   92.19
   4   0   4 3475.55   94.29
   0  -4   4 3527.85   92.59
  -4   0   4 3494.05   93.29
   0  -4   4 3484.45   93.29
   4   0   4 3553.24   90.39
  -4   0   4 3531.15   93.39
   0   4   4 3594.34   93.89
   4  -1  -4  188.68    9.80
  -1  -4  -4  182.68    9.10
   1   4  -4  182.48    9.10
  -4   1  -4  189.68    9.20
  -1  -4  -4  191.68    7.20
   4  -1  -4  194.48    9.20
   1   4  -4  219.08   10.50
  -4   1  -4  182.78    7.90
   1   4   4  194.58    9.20
  -4   1   4  220.58    9.70
   4  -1   4  212.68    6.90
   1   4   4  216.58    9.00
  -1  -4   4  214.98    9.10
   4  -1   4  216.98   10.20
  -4   1   4  214.18    9.50
  -1  -4   4  216.58    9.20
  -4   2  -4 2259.97   65.19
   4  -2  -4 2304.97   66.09
   2   4  -4 2358.06   66.69
  -4   2  -4 2328.57   63.69
   2   4  -4 2319.57   64.69
   4  -2  -4 2275.87   64.29
  -2  -4  -4 2295.07   65.49
  -2  -4  -4 2292.87   61.99
  -4   2   4 2504.65   65.59
   2   4   4 2413.56   65.39
  -2  -4   4 2289.87   64.29
   4  -2   4 2461.55   66.29
  -4   2   4 2442.16   65.79
  -2  -4   4 2392.86   64.99
   4  -2   4 2536.25   62.49
  -4   2   4 2435.76   63.09
   2   4   4 2367.16   64.99
   3   4  -4  111.69    6.90
   4  -3  -4  106.99    7.90
   4  -3  -4   97.69    6.40
   3   4  -4   90.19    8.00
  -4   3  -4  102.69    6.20
  -3  -4  -4  111.39    7.70
  -4   3  -4  111.29    7.90
  -4   3  -4   97.29    7.00
  -4   3   4  109.89    5.60
  -4   3   4  111.49    7.50
   4  -3   4  105.89    5.40
  -3  -4   4  100.49    7.50
   3   4   4  102.69    7.70
   4  -3   4  104.69    8.00
   3   4   4  100.69    6.90
  -3  -4   4  109.49    6.60
  -4   4  -4 1548.25   44.90
  -4   4  -4 1593.24   47.20
   4   4  -4 1645.54   49.10
  -4   4  -4 1546.55   46.30
   4  -4  -4 1601.44   47.30
   4   4  -4 1624.64   45.00
  -4  -4  -4 1590.44   47.00
   4  -4  -4 1602.74   45.20
  -4   4   4 1595.54   44.80
   4  -4   4 1550.44   44.20
   4  -4   4 1710.13   48.00
   4   4   4 1592.24   45.50
  -4   4   4 1520.55   47.00
   4   4   4 1602.24   48.00
  -4   4   4 1544.25   46.20
  -4  -4   4 1626.84   47.10
  -4  -4   4 1575.44   44.50
  -5  -4  -4   69.09    7.90
   5   4  -4   54.99    7.90
  -4   5  -4   66.89    7.20
   4  -5  -4   63.29    7.50
  -4   5  -4   66.99    7.00
  -4   5   4   50.29    6.70
   5   4   4   59.39    8.40
   4  -5   4   65.59    6.20
   4  -5   4   45.20    6.60
  -4   5   4   60.69    7.60
  -5  -4   4   53.89    6.80
  -3   5  -4   20.20    5.20
  -3   5  -4   22.80    4.20
  -3   5  -4   17.40    4.00
  -5  -3  -4   18.70    4.80
  -3   5  -4   12.00    3.90
  -5  -3  -4   22.20    3.90
   3  -5  -4   16.50    4.10
   3  -5  -4   14.20    4.30
   5   3  -4   13.90    5.10
  -5  -3   4   14.40    4.30
  -3   5   4   21.00    4.80
   3  -5   4   20.70    4.00
  -3   5   4   20.70    4.50
   3  -5   4   22.70    4.20
   5   3   4   12.00    5.00
  -2   5  -4   28.90    5.00
  -2   5  -4   24.00    3.60
  -5  -2  -4   24.90    4.60
   5   2  -4   31.20    5.90
   2  -5  -4   24.60    4.20
   2  -5  -4   34.40    5.30
   5   2  -4   32.50    4.70
  -5  -2  -4   35.10    4.80
  -2   5  -4   27.20    5.50
  -5  -2   4   32.50    5.10
  -5  -2   4   37.30    4.60
   5   2   4   27.30    5.90
   2  -5   4   36.90    4.60
  -2   5   4   29.60    5.20
   2  -5   4   43.50    5.40
  -2   5   4   30.10    5.10
  -1   5  -4    2.00    3.20
   5   1  -4    7.10    3.50
   1  -5  -4    9.40    3.80
  -5  -1  -4    8.20    3.20
   1  -5  -4   11.30    2.90
  -5  -1  -4    9.90    3.60
   5   1  -4    4.30    3.80
  -1   5  -4   14.30    4.40
  -1   5   4    7.70    3.60
   1  -5   4    9.40    3.50
  -1   5   4   10.30    2.90
   1  -5   4   12.10    3.30
   5   1   4    9.70    4.10
  -5  -1   4    7.40    3.10
  -5  -1   4    7.50    3.40
  -1   5   4    5.50    3.40
  -5   0  -4  111.79    7.30
   0   5  -4   99.19    7.50
   5   0  -4  112.89    8.10
   0  -5  -4  108.09    7.60
  -5   0  -4  117.99    6.80
   5   0  -4  101.19    7.50
   0  -5  -4  113.19    5.90
   0   5  -4  105.79    7.90
   0   5   4  119.29    7.80
   5   0   4  105.79    8.00
  -5   0   4  101.29    7.00
   0   5   4  118.99    6.80
   0  -5   4  110.69    7.30
   0  -5   4  110.09    6.90
  -5   0   4  105.19    7.40
  -5   1  -4   10.70    3.10
  -5   1  -4    4.50    3.20
   1   5  -4    8.30    4.10
   5  -1  -4    6.30    3.70
   1   5  -4    9.30    3.70
   5  -1  -4   11.10    3.70
  -1  -5  -4   10.10    3.90
  -5   1   4    6.80    3.40
  -5   1   4    9.60    3.70
  -1  -5   4    5.00    3.20
  -1  -5   4    8.20    3.50
   1   5   4    5.30    3.20
   5  -1   4    6.80    3.80
   1   5   4    9.80    3.60
  -5   2  -4   39.90    4.70
   5  -2  -4   42.30    6.40
   2   5  -4   43.50    5.80
   2   5  -4   32.20    5.90
  -2  -5  -4   32.70    5.50
  -5   2  -4   26.50    4.80
   5  -2  -4   39.70    5.50
   2   5   4   27.80    5.10
   5  -2   4   28.20    5.70
  -5   2   4   28.60    5.10
  -2  -5   4   26.50    4.90
  -2  -5   4   35.60    5.10
  -5   2   4   25.30    5.10
   2   5   4   26.90    4.80
   5  -3  -4   24.00    4.60
  -5   3  -4   24.00    4.20
  -5   3  -4   17.70    5.00
  -3  -5  -4   16.10    4.60
   3   5  -4   20.60    4.30
   3   5  -4   18.70    5.30
   5  -3  -4   27.50    5.80
   3   5   4   17.80    4.50
  -5   3   4   15.60    4.60
   5  -3   4   14.20    4.60
  -3  -5   4   13.90    3.70
   3   5   4   17.50    5.00
  -3  -5   4   18.70    4.70
  -5   3   4   16.50    4.80
   5  -4  -4   69.99    8.30
   4   5  -4   70.39    9.10
  -5   4  -4   62.89    7.40
   4   5  -4   61.59    6.40
  -4  -5  -4   56.69    7.10
  -4  -5   4   62.49    6.20
  -5   4   4   62.69    7.50
  -5   4   4   72.79    7.80
   4   5   4   58.39    7.50
   5  -4   4   73.39    8.40
   4   5   4   61.99    6.90
  -4  -5   4   59.69    7.10
  -5   5  -4    1.20    3.90
   5  -5  -4   -2.80    4.40
  -5  -5  -4   -2.90    3.80
   5   5  -4    2.40    5.80
   5  -5   4    0.60    4.20
   5   5   4    0.80    4.50
  -5  -5   4    0.00    4.80
  -5   5   4    1.30    4.60
  -5   6  -4   54.99    8.30
   6   5  -4   53.69    9.90
  -6  -5  -4   54.79    8.40
  -5   6  -4   55.09    7.80
   5  -6  -4   49.20    7.70
   5  -6  -4   56.69    8.60
  -5   6   4   55.99    8.50
  -6  -5   4   45.60    7.50
   5  -6   4   37.30    7.10
   5  -6   4   57.29    8.30
   6   5   4   40.30    8.00
   4  -6  -4  494.35   21.50
  -6  -4  -4  529.25   21.50
   6   4  -4  511.65   23.20
   4  -6  -4  513.15   20.70
  -4   6  -4  487.85   21.10
  -6  -4   4  544.05   21.90
  -4   6   4  530.85   21.80
   6   4   4  553.34   23.60
   4  -6   4  544.85   20.50
   4  -6   4  515.45   21.40
   4  -6   4  519.35   19.20
   3  -6  -4   79.89    8.70
   6   3  -4   55.99    8.40
  -3   6  -4   71.89    7.90
  -6  -3  -4   74.19    8.10
  -3   6  -4   66.89    8.50
   3  -6  -4   71.29    7.40
   3  -6   4   73.99    7.40
  -3   6   4   78.19    8.90
  -3   6   4   77.59    8.10
  -6  -3   4   84.69    8.70
   6   3   4   70.49    9.30
  -6  -2  -4  732.63   24.20
   6   2  -4  737.63   27.40
  -2   6  -4  745.03   25.50
   6   2  -4  713.53   24.30
  -2   6  -4  721.03   26.10
  -6  -2  -4  734.33   25.00
   2  -6  -4  754.62   26.10
   6   2   4  712.13   27.00
   2  -6   4  688.93   23.80
  -2   6   4  702.93   25.90
   2  -6   4  682.33   24.30
  -6  -2   4  704.53   25.30
  -2   6   4  692.93   24.90
  -6  -2   4  718.63   23.50
   6   1  -4  130.39   10.10
   6   1  -4  136.59    9.20
  -6  -1  -4  129.19    8.40
   1  -6  -4  120.09    9.00
  -1   6  -4  126.49    9.50
  -1   6  -4  129.79    9.60
  -6  -1  -4  132.09    8.40
   1  -6   4  115.69    8.90
  -6  -1   4  122.79    9.00
   6   1   4  121.39    9.90
  -1   6   4  103.69    8.60
  -6  -1   4  110.49    8.10
   1  -6   4  112.49    8.00
   6   0  -4  959.90   31.60
   0   6  -4  967.60   31.50
   6   0  -4  974.90   32.50
  -6   0  -4  981.60   31.10
   0  -6  -4  932.71   31.40
  -6   0  -4  956.10   29.70
   0   6  -4  978.60   32.70
   0  -6   4  932.01   30.70
   0   6   4  971.50   31.40
  -6   0   4  970.10   30.70
  -6   0   4  945.81   30.80
   0  -6   4  950.50   30.40
   6   0   4  936.91   32.60
   1   6  -4  120.29    9.10
  -1  -6  -4  115.89    8.90
   6  -1  -4   96.99    8.70
   6  -1  -4  118.39    9.70
  -6   1  -4  105.89    7.70
   1   6  -4  121.69   10.10
  -6   1  -4  105.69    8.50
  -1  -6   4  132.49    8.80
   6  -1   4  124.79   10.30
  -1  -6   4  131.39    9.00
  -6   1   4  120.49    8.70
  -6   1   4  133.99    8.90
   1   6   4  126.09    8.90
  -2  -6  -4  726.03   26.00
   6  -2  -4  647.24   24.90
  -6   2  -4  686.53   25.40
   2   6  -4  727.63   25.30
   6  -2  -4  670.83   25.80
  -6   2  -4  692.63   24.90
   2   6  -4  683.93   26.70
   2   6   4  672.63   24.60
   2   6   4  724.53   25.20
  -2  -6   4  762.62   24.90
   6  -2   4  725.13   26.30
  -2  -6   4  729.53   24.80
  -6   2   4  739.23   25.40
  -6   2   4  756.62   25.80
   6  -3  -4   69.89    8.20
   3   6  -4   94.99    8.60
  -3  -6  -4   75.89    9.10
  -6   3  -4   75.69    8.60
   3   6  -4   57.69    8.20
   6  -3  -4   79.89    9.20
  -3  -6   4   64.89    7.30
  -6   3   4   69.29    8.00
   6  -3   4   66.09    8.70
  -6   3   4   79.49    8.90
   3   6   4   73.99    8.20
   3   6   4   82.39    9.00
  -3  -6   4   78.09    8.20
   4   6  -4  555.74   20.40
  -4  -6  -4  523.55   21.30
   4   6  -4  545.65   23.30
  -6   4  -4  540.25   21.30
   6  -4  -4  560.74   22.30
   4   6   4  503.05   21.80
   4   6   4  501.25   20.10
  -6   4   4  451.15   20.70
   6  -4   4  508.05   21.80
  -6   4   4  489.55   20.60
  -4  -6   4  505.75   20.80
  -4  -6   4  495.25   19.20
  -5  -6  -4   50.29    8.20
   5   6  -4   52.89    9.30
  -6   5  -4   52.19    8.10
   6  -5  -4   45.90    7.80
  -6   5   4   58.49    8.60
   5   6   4   42.90    8.70
   6  -5   4   50.79    8.50
   6  -5   4   47.60    8.40
  -5  -6   4   46.00    8.10
   6  -6  -4  233.88   15.20
  -6   6  -4  206.28   13.90
   6  -6   4  197.38   14.20
  -6   6   4  199.18   14.40
   6   6   4  174.08   14.40
   6  -6   4  186.68   13.90
   5  -7  -4   -3.50    6.00
  -5   7   4    0.40    6.90
   7   4  -4   20.60    7.40
   4  -7  -4   20.00    6.70
  -7  -4  -4   26.20    6.90
  -4   7  -4   17.60    6.80
  -7  -4   4   15.30    6.50
   4  -7   4   20.90    5.80
   7   4   4   24.20    8.30
  -4   7   4   26.80    7.20
   4  -7   4   25.40    7.10
   3  -7  -4    4.70    5.10
  -3   7  -4    3.60    5.50
   7   3  -4    4.70    5.80
  -7  -3  -4    6.80    5.20
  -3   7  -4    4.10    5.60
  -7  -3   4    5.00    5.30
  -3   7   4    4.40    4.60
  -3   7   4    3.30    4.80
   7   3   4    8.70    7.00
   3  -7   4    7.00    5.10
  -2   7  -4   37.40    7.20
  -7  -2  -4   33.40    6.30
  -7  -2  -4   36.40    6.10
   2  -7  -4   30.40    6.80
  -2   7  -4   32.90    7.00
   7   2  -4   22.10    7.20
  -7  -2   4   50.69    7.80
   7   2   4   51.29    8.80
   2  -7   4   41.40    6.80
  -2   7   4   42.80    7.10
   1  -7  -4    2.10    5.10
  -7  -1  -4    1.70    4.10
  -1   7  -4   -1.60    4.80
   7   1  -4    1.70    5.60
  -1   7  -4    0.80    5.40
  -7  -1  -4    4.40    4.30
   7   1  -4    1.40    4.70
   1  -7   4   -0.30    4.20
  -7  -1   4   -1.10    4.20
  -1   7   4   -2.40    4.70
   1  -7   4    1.10    4.60
   7   1   4    3.70    5.50
  -7  -1   4   -1.70    4.00
  -7   0  -4    4.00    4.00
   7   0  -4    3.10    5.10
  -7   0  -4    3.80    4.80
   7   0  -4    2.80    4.50
   0   7  -4    1.60    4.40
   0   7  -4    1.40    5.40
   0  -7  -4    0.30    4.20
   0  -7   4    0.50    4.20
   0   7   4    3.60    4.70
  -7   0   4    1.60    4.20
  -7   0   4   -0.20    3.90
   7   0   4    5.40    5.90
   0  -7   4   -0.60    4.10
  -7   1  -4   -0.60    4.50
   7  -1  -4    2.00    5.10
   1   7  -4   -0.30    4.80
   7  -1  -4    3.90    5.50
   1   7  -4   -0.80    4.30
  -1  -7  -4    2.80    5.00
  -1  -7   4   -2.20    4.00
   1   7   4   -0.80    4.70
  -7   1   4    1.20    4.70
  -7   1   4    1.00    4.70
   7  -1   4    0.00    5.50
  -1  -7   4    0.30    4.30
   7  -2  -4   53.49    8.50
  -7   2  -4   51.49    7.80
   2   7  -4   44.30    8.20
  -2  -7  -4   45.00    7.80
   7  -2  -4   37.20    8.00
   2   7  -4   41.20    7.00
  -7   2   4   45.90    7.80
  -2  -7   4   43.20    6.80
  -7   2   4   49.00    7.80
   7  -2   4   33.50    7.70
  -2  -7   4   44.20    7.20
   2   7   4   42.30    7.30
   7  -3  -4    0.80    5.10
  -3  -7  -4    6.40    5.80
   3   7  -4   11.00    7.20
  -7   3  -4    7.70    5.70
   3   7  -4    5.80    5.40
  -3  -7   4    1.10    4.60
  -7   3   4    3.00    4.90
  -7   3   4    8.90    5.80
   7  -3   4    3.90    6.30
   3   7   4    5.00    5.70
  -3  -7   4    6.80    5.40
   7  -4  -4   13.60    6.50
  -4  -7  -4   25.50    7.40
  -7   4  -4   24.40    7.10
   4   7  -4   14.20    7.20
   4   7  -4   24.40    6.50
   4   7   4   15.40    5.50
  -7   4   4   16.10    6.10
   7  -4   4   22.60    7.70
  -7   4   4   20.60    7.00
  -4  -7   4   15.80    5.60
  -4  -7   4   22.40    6.90
   7  -5   4    2.50    6.50
  -7   5   4    0.10    5.60
  -8  -3  -4   65.29    9.60
   3  -8  -4   66.89   10.10
  -3   8  -4   52.29   10.10
   3  -8   4   65.29    8.90
  -3   8   4   55.39    9.10
  -2   8  -4  306.67   17.30
   8   2  -4  281.57   18.70
   2  -8  -4  296.77   16.90
  -8  -2  -4  286.97   15.80
  -2   8   4  303.87   16.80
   2  -8   4  266.77   15.60
   8   2   4  281.57   21.40
  -8  -2   4  277.67   16.50
  -8  -1  -4  111.79   10.50
  -1   8  -4   86.09   10.30
  -8  -1  -4  106.49   10.20
  -1   8  -4   98.59   11.90
   8   1  -4   97.09   12.10
   1  -8  -4  110.99   10.80
   8   1  -4   94.09   10.40
  -8  -1   4  103.19   10.80
  -8  -1   4   94.69    9.70
   1  -8   4   99.69    9.90
   8   1   4  115.59   12.70
  -1   8   4   77.39    9.50
   0   8  -4  406.26   20.60
  -8   0  -4  378.06   18.30
   0   8  -4  370.06   19.30
   8   0  -4  374.26   20.70
   0  -8  -4  379.56   18.80
   8   0  -4  363.86   18.50
   0   8   4  376.06   18.40
   8   0   4  380.06   21.20
  -8   0   4  380.96   18.70
   0  -8   4  375.16   18.10
   0  -8   4  390.26   18.60
  -8   0   4  354.26   17.40
  -1  -8  -4   98.39   11.30
   8  -1  -4   90.79   11.30
   1   8  -4  101.49   11.20
   8  -1  -4  100.19   12.20
  -8   1  -4  107.49   10.40
   1   8  -4   88.69   11.40
  -8   1   4  108.59   11.20
  -8   1   4   94.39   10.50
  -1  -8   4  103.39   10.70
  -1  -8   4   99.09   10.50
   1   8   4   78.69    9.90
   8  -1   4   84.09   11.80
   2   8  -4  283.37   17.00
  -8   2  -4  296.67   18.90
  -2  -8  -4  282.17   17.10
   8  -2  -4  302.97   17.60
   2   8  -4  279.77   18.30
   8  -2  -4  283.87   17.60
  -8   2   4  311.27   17.50
  -2  -8   4  308.27   16.50
   2   8   4  301.57   16.90
  -8   2   4  307.77   16.60
  -2  -8   4  306.77   16.40
   3   8  -4   64.59   15.20
  -3  -8   4   65.19   14.20
   0   0  -5    0.80    1.10
   0   0  -5    0.50    0.80
   0   0   5   -0.10    0.70
   0   0   5    1.10    1.00
   1   0  -5 1997.90   52.59
  -1   0  -5 2002.40   53.19
  -1   0  -5 1990.30   52.99
  -1   0  -5 2057.69   51.89
   1   0  -5 2087.29   53.29
   0   1  -5 1982.30   53.39
   0  -1  -5 1994.40   53.29
   0   1  -5 2035.60   52.79
   0   1   5 2055.79   51.59
   1   0   5 1953.00   52.59
   0  -1   5 2030.50   51.79
  -1   0   5 1969.50   52.49
   0   1   5 2038.50   51.59
   0   1   5 2014.20   52.69
   0   1   5 2006.20   52.99
   0  -1   5 1985.20   52.69
   1   0   5 2004.60   53.09
  -1   0   5 2007.40   52.79
  -1   1  -5  867.91   25.10
   1  -1  -5  891.31   23.00
   1  -1  -5  879.51   24.80
  -1  -1  -5  874.91   24.10
  -1  -1  -5  886.91   24.50
   1   1  -5  856.51   24.70
   1   1  -5  899.91   24.30
  -1   1  -5  865.11   24.40
  -1   1   5  884.01   24.00
  -1  -1   5  902.01   24.00
   1   1   5  875.01   24.10
  -1  -1   5  880.21   23.90
   1   1   5  862.61   24.00
  -1   1   5  908.81   22.90
   1  -1   5  862.41   24.00
  -2  -1  -5 1504.55   41.60
   1  -2  -5 1561.84   39.70
   2   1  -5 1537.45   41.60
   1  -2  -5 1716.53   40.40
  -1   2  -5 1528.55   41.40
   1  -2  -5 1567.94   42.10
  -1   2  -5 1535.45   42.90
  -2  -1  -5 1567.44   41.60
   2   1  -5 1551.84   42.70
   1  -2   5 1521.65   40.30
  -1   2   5 1525.55   41.50
  -1   2   5 1462.85   42.40
  -2  -1   5 1527.65   40.60
  -2  -1   5 1523.95   41.70
   2   1   5 1525.35   41.00
   2   1   5 1517.35   42.00
   1  -2   5 1528.35   41.40
   0  -2  -5   68.09    4.10
  -2   0  -5   68.79    3.00
   0  -2  -5   73.69    4.00
   0   2  -5   68.89    4.30
   2   0  -5   66.29    3.90
   2   0  -5   69.79    4.10
  -2   0  -5   71.79    4.10
   0   2  -5   70.69    3.30
   2   0   5   66.09    3.30
  -2   0   5   75.39    4.00
  -2   0   5   68.29    3.00
   2   0   5   67.59    4.20
   0  -2   5   65.39    3.70
   0   2   5   68.39    2.70
   0   2   5   67.89    3.80
   0  -2   5   67.59    3.20
   2  -1  -5 1533.45   42.30
  -2   1  -5 1559.34   42.00
  -2   1  -5 1510.55   40.00
   1   2  -5 1468.35   40.40
  -1  -2  -5 1539.85   41.80
   2  -1  -5 1538.45   41.00
   1   2  -5 1509.65   42.50
  -2   1  -5 1532.35   42.40
  -1  -2  -5 1507.35   41.20
   2  -1   5 1565.04   42.50
   1   2   5 1593.74   41.40
  -1  -2   5 1535.75   41.20
   1   2   5 1468.05   41.30
  -1  -2   5 1573.84   41.30
   2  -1   5 1561.94   40.80
  -2   1   5 1563.74   40.50
  -2   1   5 1534.45   42.10
  -2  -2  -5  245.88    9.70
  -2  -2  -5  270.97    9.20
   2   2  -5  274.07    8.80
  -2   2  -5  262.67   10.60
  -2   2  -5  265.97    9.80
   2  -2  -5  270.57   10.30
  -2   2  -5  255.37    8.20
   2  -2  -5  259.27    8.40
   2   2  -5  259.77   10.60
   2  -2   5  278.87    9.10
  -2   2   5  265.57   10.30
  -2  -2   5  272.37    9.00
  -2   2   5  266.27    9.00
   2   2   5  261.67    9.90
   2   2   5  271.97    9.30
  -2  -2   5  283.17    9.90
   3   2  -5  979.50   30.20
   2  -3  -5  924.51   28.80
  -3  -2  -5  971.30   28.70
  -2   3  -5  959.30   27.10
   3   2  -5  994.00   27.60
   2  -3  -5  954.30   26.70
  -3  -2  -5  987.90   27.90
  -2   3  -5  959.30   28.20
  -2   3  -5  932.71   29.70
  -3  -2   5 1013.30   28.90
   2  -3   5 1009.00   28.00
  -2   3   5  939.21   29.40
  -2   3   5  990.10   28.30
   2  -3   5  989.60   27.10
   3   2   5  971.80   29.40
  -3  -2   5 1005.90   27.00
   3   2   5  996.80   27.60
  -1   3  -5   77.79    5.10
   1  -3  -5   76.39    5.60
  -3  -1  -5   76.99    4.70
  -3  -1  -5   75.19    5.00
   3   1  -5   75.19    5.60
   3   1  -5   77.29    5.00
  -1   3  -5   79.49    4.40
  -1   3  -5   74.39    5.60
   1  -3  -5   84.49    5.00
  -1   3   5  101.99    5.40
  -3  -1   5  105.59    3.90
  -1   3   5  102.99    6.10
  -1   3   5  101.09    3.90
   3   1   5  101.19    4.30
   1  -3   5  101.29    5.20
  -3  -1   5  102.09    5.40
   3   1   5  106.59    6.10
   0  -3  -5 1119.89   32.90
   3   0  -5 1136.09   33.00
   0   3  -5 1143.49   33.70
  -3   0  -5 1126.69   32.60
   0  -3  -5 1177.88   32.00
   0   3  -5 1155.48   32.70
   3   0  -5 1175.78   33.20
  -3   0  -5 1161.08   31.40
   0   3  -5 1167.38   30.80
   0   3   5 1172.28   32.70
   0  -3   5 1168.38   31.80
   3   0   5 1102.09   33.00
   0   3   5 1130.69   31.00
   3   0   5 1147.39   30.90
  -3   0   5 1166.68   30.30
   0   3   5 1124.59   33.00
   0  -3   5 1145.89   32.40
  -3   0   5 1147.29   32.60
   1   3  -5  104.69    6.20
  -3   1  -5  101.09    4.30
   1   3  -5  103.79    5.50
  -1  -3  -5  112.19    6.00
  -1  -3  -5  103.29    4.70
   3  -1  -5   92.09    5.80
   1   3  -5   99.49    3.30
   3  -1  -5   97.59    5.20
  -1  -3   5   77.19    4.70
  -3   1   5   75.19    5.00
   3  -1   5   70.59    5.30
  -3   1   5   76.89    5.40
   3  -1   5   75.59    4.00
   1   3   5   69.49    4.50
  -3   1   5   78.89    3.60
  -1  -3   5   75.79    4.80
   1   3   5   74.29    4.90
   3  -2  -5  993.80   27.60
   2   3  -5  987.30   30.10
  -3   2  -5  955.40   28.70
   2   3  -5  957.00   25.90
  -3   2  -5  983.10   27.10
  -2  -3  -5 1010.40   27.20
  -3   2  -5  962.80   29.30
   2   3  -5 1015.70   28.30
   3  -2  -5  962.00   29.40
  -2  -3  -5  955.70   28.90
  -2  -3   5  974.40   27.90
   3  -2   5  957.60   29.50
  -3   2   5  973.90   29.50
   3  -2   5  962.10   27.10
   2   3   5  967.40   28.80
  -2  -3   5  953.90   28.40
   2   3   5  984.60   28.40
  -3   2   5  933.81   27.00
   3  -3  -5    7.10    3.00
  -3  -3  -5    9.20    3.30
   3  -3  -5    9.10    2.40
   3   3  -5    8.00    2.50
   3   3  -5    8.20    3.80
  -3   3  -5    7.30    3.20
  -3   3  -5    6.40    2.90
  -3   3  -5    7.30    2.20
  -3  -3  -5    7.50    2.20
   3   3  -5    7.60    1.90
   3  -3   5    9.90    2.40
  -3   3   5    6.30    2.50
  -3  -3   5    8.10    2.40
  -3   3   5    9.50    3.10
   3  -3   5    9.80    3.40
   3   3   5    6.30    2.40
  -3  -3   5    6.90    3.10
   3   3   5    4.10    2.90
   4   3  -5  957.90   31.30
  -4  -3  -5  959.90   27.60
  -3   4  -5  933.71   27.60
   3  -4  -5  944.01   29.50
  -4  -3  -5  981.30   29.70
   3  -4  -5  958.90   27.30
  -3   4  -5  939.71   28.60
  -3   4  -5  944.41   30.50
   4   3   5  938.91   27.90
  -3   4   5  906.41   28.40
  -4  -3   5  892.21   29.20
  -3   4   5  934.11   30.10
   3  -4   5  943.41   27.90
  -4  -3   5  915.91   26.80
   4   3   5  892.01   30.30
   3  -4   5  942.71   27.60
   3  -4   5  956.50   30.50
   2  -4  -5   49.60    3.80
   4   2  -5   51.99    4.80
  -2   4  -5   44.30    4.90
  -4  -2  -5   51.99    4.70
   2  -4  -5   46.90    5.90
  -2   4  -5   56.69    5.90
  -2   4  -5   48.60    4.60
   2  -4  -5   44.70    4.90
   4   2  -5   38.50    5.60
  -4  -2  -5   58.79    5.40
   2  -4   5   52.09    4.70
   2  -4   5   51.49    4.30
  -2   4   5   54.49    5.90
  -2   4   5   50.79    3.80
  -4  -2   5   54.19    5.20
  -4  -2   5   46.20    3.30
  -2   4   5   51.79    4.90
   4   2   5   54.19    4.10
   4   2   5   58.19    6.50
   1  -4  -5 1445.56   40.60
   4   1  -5 1423.26   41.30
  -4  -1  -5 1421.16   40.90
  -1   4  -5 1493.55   39.60
  -1   4  -5 1418.96   42.50
   1  -4  -5 1476.15   42.30
   4   1  -5 1511.55   42.80
  -1   4  -5 1475.75   41.70
  -4  -1  -5 1445.06   40.70
  -4  -1   5 1485.25   41.60
   4   1   5 1444.96   38.90
  -4  -1   5 1416.06   38.20
   4   1   5 1416.86   42.30
   1  -4   5 1445.86   41.10
  -1   4   5 1429.06   41.50
  -1   4   5 1471.95   42.40
   1  -4   5 1439.56   40.00
  -1   4   5 1433.66   39.30
  -4  -1   5 1465.25   40.70
   0   4  -5    2.00    1.30
   0  -4  -5    1.80    2.00
   0   4  -5    1.30    2.70
   0  -4  -5    1.50    2.90
   4   0  -5   -0.20    2.90
   4   0  -5    1.50    2.70
  -4   0  -5    0.00    2.50
  -4   0  -5    3.10    1.90
   0   4  -5    0.70    2.40
   0  -4   5    1.40    2.10
   0   4   5   -0.10    1.70
  -4   0   5    2.30    2.60
  -4   0   5    0.70    2.30
   0  -4   5    1.70    2.30
   4   0   5    1.10    2.70
   0   4   5    0.30    2.30
   4   0   5    0.10    1.30
  -4   1  -5 1422.36   39.60
   1   4  -5 1452.55   41.50
   1   4  -5 1468.65   42.80
  -1  -4  -5 1431.76   41.70
  -4   1  -5 1445.76   41.60
  -1  -4  -5 1434.26   39.20
   4  -1  -5 1417.36   42.20
   4  -1  -5 1456.95   41.30
  -1  -4   5 1446.36   41.10
   1   4   5 1460.65   41.50
   4  -1   5 1445.06   38.70
   1   4   5 1428.46   40.40
   4  -1   5 1453.65   42.30
  -4   1   5 1414.26   41.40
  -1  -4   5 1469.45   40.90
  -4   1   5 1451.95   41.50
   2   4  -5   48.40    6.00
  -2  -4  -5   51.99    3.60
   4  -2  -5   55.99    5.90
  -4   2  -5   55.99    5.90
  -2  -4  -5   60.49    5.90
  -4   2  -5   53.69    4.30
   2   4  -5   48.50    5.20
   4  -2  -5   48.60    4.80
  -4   2   5   50.29    5.70
  -4   2   5   43.60    5.10
  -2  -4   5   54.49    5.30
   4  -2   5   48.00    3.70
  -2  -4   5   45.80    4.90
   2   4   5   50.49    5.00
   2   4   5   49.99    5.10
   4  -2   5   46.60    5.80
  -4   3  -5  904.01   29.70
   4  -3  -5  900.71   27.80
   3   4  -5  894.61   30.80
   3   4  -5  946.01   28.40
  -3  -4  -5  905.71   29.50
  -3  -4  -5  915.21   27.30
  -4   3  -5  902.31   27.30
  -4   3  -5  915.81   29.40
   4  -3  -5  912.01   30.10
   3   4   5  970.10   28.90
  -3  -4   5  938.11   28.00
  -3  -4   5  957.20   29.20
  -4   3   5  971.30   29.60
   4  -3   5  962.90   27.00
  -4   3   5  936.91   27.20
   3   4   5  978.40   30.10
  -4   3   5  940.41   30.00
   4  -3   5  961.90   30.40
  -4  -4  -5    8.00    4.10
  -4   4  -5    5.40    3.40
   4   4  -5    6.50    3.40
   4  -4  -5    9.10    3.90
   4   4  -5   11.30    4.80
  -4   4  -5   12.60    4.60
  -4  -4   5    9.00    4.20
  -4  -4   5    9.00    3.20
  -4   4   5    8.20    3.20
   4   4   5    7.30    3.30
  -4   4   5    8.00    4.10
   4   4   5    5.00    3.70
   4  -4   5    8.60    4.40
   4  -4   5    9.10    3.10
   4  -5  -5  397.86   16.80
  -4   5  -5  386.66   15.70
  -4   5  -5  392.76   17.20
   5   4  -5  387.96   18.10
  -5  -4  -5  399.86   16.90
  -5  -4   5  367.16   16.20
  -4   5   5  362.36   16.80
   5   4   5  342.67   16.90
   4  -5   5  346.07   16.40
   4  -5   5  379.76   14.50
   3  -5  -5   92.59    8.40
   3  -5  -5   87.09    7.40
  -3   5  -5  108.19    8.80
  -5  -3  -5   94.99    6.70
  -5  -3  -5   92.09    7.50
   5   3  -5   96.99    8.80
  -3   5  -5   87.49    6.90
  -3   5   5   89.89    8.20
  -3   5   5   84.79    7.30
   3  -5   5   82.19    6.50
  -5  -3   5   78.99    7.30
   3  -5   5   84.29    6.40
   5   3   5   85.19    8.60
   5   2  -5  436.36   17.90
   5   2  -5  439.96   15.60
  -2   5  -5  425.36   14.50
  -5  -2  -5  452.95   16.40
   2  -5  -5  434.66   15.60
  -2   5  -5  394.56   17.10
  -2   5  -5  437.46   16.40
   2  -5  -5  437.16   17.30
  -5  -2  -5  430.76   15.50
   2  -5   5  417.36   14.90
   5   2   5  382.46   17.20
   2  -5   5  406.46   15.60
  -2   5   5  399.76   16.80
  -2   5   5  398.96   16.00
  -5  -2   5  388.36   16.00
   5   1  -5  290.87   12.70
  -5  -1  -5  291.77   12.30
   1  -5  -5  297.07   11.50
  -1   5  -5  269.07   13.20
   1  -5  -5  275.47   13.20
  -5  -1  -5  285.87   11.80
  -1   5  -5  288.67   12.80
   5   1  -5  270.37   13.30
   1  -5   5  288.57   11.40
  -1   5   5  303.27   13.20
  -1   5   5  290.07   13.50
  -5  -1   5  288.57   12.00
  -5  -1   5  290.57   12.50
   1  -5   5  301.67   12.70
   5   1   5  307.97   14.00
   0  -5  -5  639.34   22.30
   0   5  -5  616.44   21.90
   0   5  -5  648.14   23.20
   5   0  -5  632.24   22.40
   5   0  -5  615.64   22.30
   0  -5  -5  660.53   19.80
  -5   0  -5  645.04   20.40
  -5   0  -5  663.13   22.10
  -5   0   5  629.54   21.60
  -5   0   5  637.34   21.70
   0   5   5  639.44   20.30
   0   5   5  635.24   21.90
   0  -5   5  616.84   21.40
   0  -5   5  661.43   21.10
   1   5  -5  267.47   12.40
   1   5  -5  279.27   13.40
  -5   1  -5  288.47   11.10
   5  -1  -5  295.87   13.00
  -1  -5  -5  286.27   13.00
  -5   1  -5  285.77   12.60
   5  -1  -5  270.17   13.10
  -1  -5   5  278.57   11.90
   1   5   5  275.27   11.60
  -1  -5   5  271.57   12.10
  -5   1   5  271.87   12.40
   5  -1   5  264.97   13.20
  -5   1   5  303.67   12.90
   1   5   5  291.57   12.60
   5  -2  -5  399.16   15.90
  -5   2  -5  402.56   16.50
   5  -2  -5  387.06   17.00
   2   5  -5  392.66   17.40
  -5   2  -5  406.16   14.80
  -2  -5  -5  392.36   16.50
   2   5  -5  409.46   16.30
  -5   2   5  425.16   17.00
   5  -2   5  443.86   17.80
  -5   2   5  426.36   16.60
   2   5   5  430.26   16.40
  -2  -5   5  458.35   16.40
  -2  -5   5  426.46   15.90
   2   5   5  438.96   16.40
   5  -3  -5   72.09    6.80
   5  -3  -5   70.09    7.60
  -5   3  -5   71.19    7.30
   3   5  -5   77.89    9.10
   3   5  -5   77.89    7.20
  -3  -5  -5   91.79    8.60
  -3  -5   5  114.69    7.60
   3   5   5   94.19    8.00
   3   5   5   99.69    8.10
   5  -3   5   95.89    8.80
  -5   3   5  102.89    8.00
  -3  -5   5   91.19    7.80
  -5   3   5   95.09    8.40
   4   5  -5  365.46   15.10
  -5   4  -5  383.56   16.70
  -4  -5  -5  370.16   16.60
   4   5  -5  358.26   17.80
   5  -4  -5  364.46   16.90
  -4  -5   5  404.26   14.90
   5  -4   5  421.86   17.80
   4   5   5  393.56   16.00
  -5   4   5  372.06   17.00
   4   5   5  402.46   17.70
  -4  -5   5  374.76   16.50
  -5   5  -5   96.29    9.00
  -5   5  -5   89.69    8.90
   5  -5  -5  100.39   10.00
   5   5  -5  109.89   11.00
  -5  -5  -5   92.79    8.80
   5   5   5  100.89   10.40
   5  -5   5  105.29    9.40
  -5   5   5  102.59    9.90
  -5  -5   5   89.19    9.40
  -5   6  -5   96.79    9.60
   5  -6  -5  113.49   11.30
  -6  -5  -5  107.99   10.20
   5  -6  -5   97.79   10.40
   6   5  -5  112.29   13.20
  -5   6  -5  102.49   10.70
   6   5   5  116.39   11.30
   5  -6   5  118.49   10.40
  -6  -5   5  107.19   11.00
   5  -6   5  130.59   10.80
  -5   6   5  130.39   11.50
   4  -6  -5   23.50    5.80
   4  -6  -5   20.30    6.20
   6   4  -5   21.70    6.70
  -4   6  -5   15.90    5.50
  -6  -4  -5   13.90    5.30
   4  -6   5    8.10    5.30
   6   4   5    8.40    5.70
   4  -6   5   16.50    6.00
  -4   6   5   12.60    5.80
   4  -6   5    8.60    4.40
  -6  -4   5   12.50    5.20
  -3   6  -5  238.78   13.70
   3  -6  -5  239.98   12.20
   3  -6  -5  217.88   12.80
   6   3  -5  256.17   15.00
  -6  -3  -5  257.77   13.10
  -3   6   5  214.98   12.30
   3  -6   5  227.88   12.00
   6   3   5  230.18   14.30
  -6  -3   5  218.98   12.50
  -3   6   5  218.28   12.90
   6   2  -5   24.10    5.00
  -6  -2  -5   27.60    5.10
  -2   6  -5   29.30    6.60
   6   2  -5   29.70    6.60
  -6  -2  -5   22.70    4.90
  -2   6  -5   25.90    5.70
   2  -6  -5   21.20    5.30
  -2   6   5   24.70    5.60
   2  -6   5   28.10    5.50
   2  -6   5   25.80    4.80
   6   2   5   24.20    6.40
  -2   6   5   23.10    5.40
  -6  -2   5   24.00    5.20
   6   1  -5  261.87   13.10
  -1   6  -5  260.07   13.30
  -6  -1  -5  273.27   12.30
  -1   6  -5  265.87   14.30
  -6  -1  -5  280.37   12.90
   1  -6  -5  271.27   13.70
   6   1  -5  268.57   14.60
  -6  -1   5  267.37   13.20
   1  -6   5  260.67   12.70
  -1   6   5  269.37   13.60
   1  -6   5  273.77   12.20
   6   1   5  278.57   14.60
  -6  -1   5  265.97   12.40
   6   0  -5    2.70    4.60
   0   6  -5    2.40    3.70
  -6   0  -5    6.10    3.40
   6   0  -5    0.20    4.20
  -6   0  -5    0.90    3.90
   0  -6  -5    1.70    3.70
   0   6  -5    1.60    4.10
   0  -6   5    2.60    3.50
   0   6   5    1.90    4.00
   6   0   5    5.20    4.80
  -6   0   5   -0.70    3.70
   0  -6   5    3.80    3.50
  -6   0   5   -1.40    3.60
   1   6  -5  270.47   13.30
  -6   1  -5  268.07   11.70
   1   6  -5  270.67   14.40
   6  -1  -5  271.27   14.00
  -6   1  -5  283.97   13.80
  -1  -6  -5  258.87   13.40
   6  -1  -5  284.37   14.10
   1   6   5  275.67   13.70
  -1  -6   5  272.57   12.90
  -6   1   5  255.17   13.20
  -6   1   5  253.37   13.00
   6  -1   5  279.27   14.80
  -1  -6   5  274.47   12.80
  -6   2  -5   17.70    5.50
   2   6  -5   13.40    5.40
   2   6  -5   22.50    5.20
  -2  -6  -5   17.90    5.00
   6  -2  -5   27.90    6.50
   6  -2  -5   24.30    5.60
  -6   2   5   29.10    6.10
   2   6   5   19.00    5.40
  -6   2   5   28.10    5.70
  -2  -6   5   21.70    4.70
   6  -2   5   32.90    6.90
  -2  -6   5   30.80    5.50
  -6   3  -5  214.68   13.00
   3   6  -5  215.88   11.90
   3   6  -5  225.88   14.10
  -3  -6  -5  211.98   12.80
   6  -3  -5  216.58   13.20
   6  -3  -5  219.98   13.80
   3   6   5  216.78   12.60
  -3  -6   5  247.88   12.70
   6  -3   5  247.78   14.20
  -3  -6   5  233.18   11.70
  -6   3   5  247.58   13.00
   3   6   5  236.28   12.70
   4   6  -5   11.60    6.20
   4   6  -5   16.20    5.10
  -6   4  -5    3.80    4.70
   6  -4  -5   10.40    5.70
  -4  -6  -5    8.70    5.50
  -4  -6   5   26.10    6.50
   4   6   5   26.10    6.90
  -4  -6   5   18.50    4.90
   6  -4   5   20.10    6.10
   4   6   5   15.10    5.40
  -6   4   5   17.60    6.00
  -6   5  -5  125.89   11.00
   6  -5  -5  123.79   11.30
  -5  -6  -5  134.19   11.50
   5   6  -5  122.89   12.90
  -5  -6   5  118.99   10.50
  -6   5   5   93.99   10.90
   6  -5   5  113.79   10.70
   5   6   5  108.09   11.70
   6  -6  -5    9.40    6.90
  -6   6  -5   12.60    6.60
   6  -6   5   14.40    6.90
  -6   6   5   13.70    7.10
   6  -6   5   11.60    6.90
   6   6   5   15.70    8.00
   5  -7   5   34.00    8.20
   4  -7  -5  144.69   12.50
   7   4  -5  133.89   13.90
  -4   7  -5  149.69   12.70
  -7  -4  -5  147.29   12.30
  -7  -4   5  181.08   12.60
  -4   7   5  176.68   13.50
   4  -7   5  156.08   12.50
   7   4   5  180.28   14.80
   4  -7   5  168.78   11.30
   7   3  -5   11.70    6.00
   3  -7  -5   23.10    6.90
  -3   7  -5   14.60    6.40
  -7  -3  -5   24.70    6.50
  -3   7   5   19.90    6.80
   7   3   5   19.80    7.30
  -3   7   5   12.10    5.20
   3  -7   5   17.60    5.80
  -7  -3   5    9.80    5.90
   2  -7  -5  177.88   12.30
  -7  -2  -5  196.58   11.50
  -7  -2  -5  182.18   11.60
   7   2  -5  178.28   13.20
  -2   7  -5  179.08   13.30
  -2   7  -5  181.18   12.80
  -2   7   5  179.38   12.50
  -7  -2   5  196.38   12.60
   2  -7   5  183.98   11.40
   7   2   5  201.28   14.80
  -7  -1  -5   35.30    6.10
  -7  -1  -5   41.60    6.90
   7   1  -5   35.70    8.00
   1  -7  -5   37.70    7.30
  -1   7  -5   36.40    7.40
  -1   7  -5   43.60    8.40
   7   1  -5   29.50    6.50
   1  -7   5   46.70    7.20
  -7  -1   5   44.80    7.10
   7   1   5   34.70    7.50
   1  -7   5   47.10    6.70
  -1   7   5   44.70    7.50
  -7  -1   5   42.70    6.60
   0   7  -5  350.96   17.90
  -7   0  -5  286.17   15.50
   7   0  -5  352.96   17.90
   7   0  -5  328.87   16.60
   0  -7  -5  316.47   16.10
  -7   0  -5  319.07   15.80
   0   7  -5  326.67   16.60
   7   0   5  315.67   17.30
   0   7   5  326.77   16.40
  -7   0   5  333.77   15.70
   0  -7   5  323.07   15.10
   0  -7   5  324.77   15.80
  -7   0   5  316.27   15.40
   1   7  -5   49.10    7.90
  -1  -7  -5   53.79    8.20
  -7   1  -5   33.30    6.90
   7  -1  -5   36.70    7.60
   7  -1  -5   39.80    7.90
   1   7  -5   43.50    8.50
  -7   1   5   39.40    7.10
  -1  -7   5   27.20    6.20
  -7   1   5   42.70    7.30
   7  -1   5   34.00    7.60
  -1  -7   5   30.90    6.40
   1   7   5   25.50    6.40
   7  -2  -5  178.28   12.70
  -7   2  -5  191.98   12.40
   2   7  -5  192.68   13.70
  -2  -7  -5  202.68   13.70
   7  -2  -5  180.08   12.80
   2   7  -5  195.18   12.40
  -2  -7   5  191.28   11.40
  -2  -7   5  185.08   11.50
   7  -2   5  211.28   14.50
   2   7   5  188.98   12.30
  -7   2   5  184.18   12.90
  -7   2   5  192.88   12.30
  -7   3  -5   22.30    6.30
  -3  -7  -5   18.30    6.60
   7  -3  -5   20.10    6.30
   3   7  -5   18.10    7.00
   3   7  -5   17.20    6.10
  -3  -7   5   11.60    5.40
  -7   3   5   12.60    5.60
  -7   3   5   19.10    5.90
   7  -3   5   18.60    6.60
  -3  -7   5   15.20    5.10
   3   7   5   21.90    6.10
   4   7  -5  169.68   14.80
  -7   4  -5  184.08   13.60
   7  -4  -5  170.38   13.10
   4   7  -5  177.88   12.40
  -4  -7  -5  155.98   13.00
  -4  -7   5  143.49   11.90
   7  -4   5  148.49   13.50
  -7   4   5  149.39   12.70
  -4  -7   5  151.58   11.10
   4   7   5  161.38   12.30
  -8  -3  -5  122.89   11.90
  -3   8   5   96.49   11.90
   2  -8  -5   41.00    8.70
  -2   8  -5   38.70    8.70
   8   2  -5   45.40   10.00
  -2   8  -5   34.30    8.80
  -8  -2  -5   40.90    7.50
  -2   8   5   43.30    8.40
  -8  -2   5   49.60   14.50
   2  -8   5   47.60    8.40
   1  -8  -5  147.09   12.30
  -8  -1  -5  147.09   11.60
   8   1  -5  147.59   13.40
  -1   8  -5  143.09   12.30
  -1   8  -5  151.78   13.80
   8   1  -5  138.99   11.90
   1  -8   5  156.48   11.60
   8   1   5  151.78   13.90
  -8  -1   5  164.38   12.90
  -1   8   5  129.49   11.30
  -8   0  -5   20.70    6.50
   0  -8  -5   35.90    7.90
   8   0  -5   36.20    9.10
   0   8  -5   28.70    7.80
   8   0  -5   24.40    7.40
   0   8  -5   30.80    8.30
   0   8   5   25.30    6.90
   8   0   5   16.10    7.30
  -8   0   5   37.50    7.90
  -8   0   5   30.10    7.10
   0  -8   5   26.00    6.80
   1   8  -5  145.29   13.40
  -1  -8  -5  160.78   13.60
   1   8  -5  143.59   12.90
   8  -1  -5  158.98   14.00
  -8   1  -5  146.89   12.30
   8  -1  -5  144.49   13.10
  -8   1   5  147.99   12.10
  -1  -8   5  150.98   11.70
  -1  -8   5  149.49   12.10
   8  -1   5  146.79   13.80
  -8   1   5  146.29   12.60
   1   8   5  147.69   12.20
   2   8  -5   31.70    9.10
   2   8  -5   42.50    8.10
  -2  -8   5   39.70    7.80
   8  -2   5   45.10   10.10
  -8   2   5   41.90    8.80
   2   8   5   34.50    8.80
  -2  -8   5   29.60    6.90
  -8   2   5   27.10    8.00
  -1   0  -6 1250.97   33.60
  -1   0  -6 1226.48   33.80
  -1   0  -6 1229.78   32.20
   1   0  -6 1203.18   33.00
   0   1  -6 1253.17   34.00
   1   0  -6 1271.17   33.90
   0   1  -6 1246.48   33.50
   0  -1  -6 1233.48   34.00
   1   0   6 1209.98   33.20
  -1   0   6 1240.28   33.20
   1   0   6 1213.08   33.50
   0   1   6 1214.68   33.20
   0   1   6 1224.78   33.40
  -1   0   6 1251.17   33.10
   0  -1   6 1222.18   32.20
   0  -1   6 1193.48   33.20
   0   1   6 1257.67   32.10
   1   1  -6 2353.36   62.59
   1   1  -6 2387.46   62.19
   1  -1  -6 2364.26   62.79
  -1  -1  -6 2297.47   61.69
  -1  -1  -6 2313.37   62.39
  -1   1  -6 2390.86   62.39
  -1   1  -6 2296.37   62.99
   1  -1  -6 2310.57   60.49
  -1   1   6 2381.96   61.79
   1   1   6 2341.87   61.69
  -1  -1   6 2348.36   61.69
   1   1   6 2322.27   61.89
  -1  -1   6 2316.67   61.59
  -1   1   6 2551.74   60.79
   1  -1   6 2375.66   61.89
  -2  -1  -6  497.25   15.60
   2   1  -6  504.25   16.30
  -1   2  -6  510.75   16.80
  -1   2  -6  503.85   15.40
   1  -2  -6  494.65   15.90
  -2  -1  -6  503.85   15.20
   2   1  -6  496.55   15.40
   2   1   6  522.05   15.80
  -2  -1   6  498.95   14.60
  -1   2   6  492.45   16.20
   2   1   6  510.15   15.00
  -1   2   6  510.65   15.30
   1  -2   6  500.15   13.80
   1  -2   6  502.65   15.30
  -2  -1   6  511.95   15.40
   0  -2  -6 1698.93   46.30
   0  -2  -6 1725.43   46.60
   0   2  -6 1714.23   45.40
  -2   0  -6 1680.73   44.70
   0   2  -6 1666.73   47.00
  -2   0  -6 1731.63   46.40
   2   0  -6 1744.03   46.20
   2   0  -6 1743.93   46.60
   0   2   6 1738.83   46.60
  -2   0   6 1720.43   46.10
   0   2   6 1689.13   45.90
   2   0   6 1690.83   45.40
   0  -2   6 1682.03   44.90
   2   0   6 1681.43   46.50
  -2   0   6 1697.73   45.00
   0  -2   6 1719.73   45.90
   0   2   6 1724.03   44.20
  -1  -2  -6  489.15   15.50
   1   2  -6  492.95   14.60
  -1  -2  -6  511.35   15.40
  -2   1  -6  513.85   15.80
  -2   1  -6  515.95   16.40
  -2   1  -6  499.45   13.60
   2  -1  -6  497.95   14.70
   1   2  -6  477.05   16.10
   2  -1  -6  501.35   16.20
   1   2   6  490.85   15.30
   2  -1   6  482.05   14.70
   2  -1   6  512.45   16.40
   1   2   6  504.25   14.90
  -1  -2   6  499.55   15.10
  -1  -2   6  504.95   15.00
  -2   1   6  498.05   14.50
  -2   1   6  500.35   15.90
  -2  -2  -6   28.60    3.10
  -2  -2  -6   30.30    3.50
   2  -2  -6   28.50    3.80
  -2   2  -6   29.40    2.00
   2  -2  -6   30.80    2.40
  -2   2  -6   25.80    3.20
   2   2  -6   29.70    2.80
   2   2  -6   34.50    4.30
  -2   2  -6   24.90    3.70
  -2  -2   6   33.50    3.40
  -2   2   6   29.40    3.00
   2  -2   6   32.10    3.00
  -2  -2   6   33.70    2.90
   2   2   6   29.60    3.10
   2  -2   6   28.20    2.00
  -2   2   6   32.80    3.70
   2   2   6   31.80    3.60
   3   2  -6   77.79    4.60
  -3  -2  -6   78.49    5.30
   3   2  -6   78.49    6.40
  -2   3  -6   78.29    5.00
  -2   3  -6   84.99    6.60
   2  -3  -6   81.39    5.70
  -3  -2  -6   86.39    5.00
   2  -3   6   59.09    3.60
  -2   3   6   49.00    5.20
  -3  -2   6   52.59    4.60
   2  -3   6   50.59    4.10
   3   2   6   59.99    4.30
  -3  -2   6   57.39    3.70
  -2   3   6   59.39    4.70
   3   2   6   59.09    5.50
   1  -3  -6 3580.44   86.99
  -1   3  -6 3317.97   90.99
   3   1  -6 3350.46   90.69
   1  -3  -6 3435.76   90.79
  -3  -1  -6 3229.08   88.79
   3   1  -6 3416.06   89.59
   1  -3  -6 3439.56   89.69
  -1   3  -6 3488.15   88.79
  -3  -1  -6 3426.36   89.59
   1  -3   6 3409.56   89.29
   3   1   6 3334.97   88.19
  -1   3   6 3413.96   86.99
  -3  -1   6 3412.06   89.69
  -3  -1   6 3338.87   87.69
   1  -3   6 3402.36   87.89
  -1   3   6 3330.67   90.49
   3   1   6 3240.48   90.09
  -1   3   6 3361.66   89.49
   0  -3  -6   35.70    3.50
  -3   0  -6   33.70    2.80
   3   0  -6   35.00    4.00
  -3   0  -6   38.00    3.80
   0   3  -6   36.60    2.70
   3   0  -6   39.70    4.40
   0   3  -6   27.70    4.00
   0  -3  -6   34.50    3.90
   0   3   6   28.90    3.40
   0   3   6   46.40    2.70
  -3   0   6   36.10    3.80
   0   3   6   32.70    4.10
   3   0   6   36.20    2.90
   3   0   6   31.60    4.00
  -3   0   6   37.20    2.40
   0  -3   6   30.60    3.40
   0  -3   6   41.60    3.30
  -1  -3  -6 3402.26   90.49
  -1  -3  -6 3324.07   89.19
   1   3  -6 3442.66   91.49
   3  -1  -6 3480.45   91.29
   3  -1  -6 3492.25   89.79
   1   3  -6 3476.75   87.79
  -3   1  -6 3306.87   88.09
  -3   1  -6 3374.46   90.49
   1   3   6 3296.77   89.89
  -1  -3   6 3356.86   89.39
  -1  -3   6 3409.16   89.69
  -3   1   6 3427.46   88.09
   3  -1   6 3485.35   88.79
  -3   1   6 3398.96   90.59
   3  -1   6 3357.36   91.09
   1   3   6 3395.46   89.19
  -3   2  -6   59.59    3.50
  -2  -3  -6   49.10    4.90
   2   3  -6   49.70    3.00
  -3   2  -6   49.99    5.30
   2   3  -6   54.39    5.50
  -3   2  -6   51.29    4.70
   3  -2  -6   56.49    5.60
   3  -2  -6   50.09    4.00
  -2  -3  -6   55.69    4.10
   2   3   6   72.49    5.00
  -2  -3   6   77.49    4.80
   3  -3  -6 2984.60   81.99
  -3   3  -6 2962.50   78.99
   3   3  -6 2956.70   82.99
  -3   3  -6 3029.00   82.69
  -3  -3  -6 3068.59   79.69
  -3   3  -6 3009.80   81.19
  -3  -3  -6 3035.30   81.59
   3  -3  -6 2993.50   79.09
   3   3  -6 3071.79   78.79
  -3  -3   6 2976.20   79.59
   3   3   6 2980.30   81.89
  -3   3   6 2964.00   80.09
   3   3   6 3015.60   80.39
   3  -3   6 2965.40   79.69
   3  -3   6 3085.39   82.69
  -3   3   6 3012.80   82.19
  -3  -3   6 3038.10   81.29
  -3   4  -6    5.00    3.10
   4   3  -6    4.50    3.90
  -4  -3  -6    2.90    2.90
   3  -4  -6    3.00    3.30
  -4  -3  -6    0.20    2.40
  -3   4  -6    5.40    4.00
  -3   4   6    4.70    3.40
   4   3   6    5.10    2.80
  -3   4   6    3.20    3.00
  -4  -3   6    2.20    3.00
   3  -4   6    3.00    2.30
  -4  -3   6    2.40    2.20
   4   3   6    2.10    4.00
   3  -4   6    5.60    2.90
  -2   4  -6  150.58    9.20
  -4  -2  -6  149.39    8.20
   2  -4  -6  150.78    6.70
  -2   4  -6  162.78    7.80
  -4  -2  -6  151.58    7.70
   4   2  -6  165.08    7.80
   4   2  -6  159.78    9.80
   2  -4  -6  143.69    8.20
   2  -4   6  162.28    7.90
  -2   4   6  158.48    8.50
  -2   4   6  166.88    9.40
  -4  -2   6  171.18    6.40
   4   2   6  160.98    7.10
   4   2   6  178.38    9.80
   2  -4   6  164.88    7.00
  -4  -2   6  159.88    8.50
   1  -4  -6  131.69    8.00
   1  -4  -6  146.39    7.30
  -4  -1  -6  139.29    7.00
  -1   4  -6  139.39    8.40
  -1   4  -6  134.89    7.70
   4   1  -6  125.99    8.10
   4   1  -6  127.09    7.50
  -4  -1  -6  140.99    7.50
  -1   4  -6  139.89    6.20
  -4  -1   6  136.39    5.20
  -4  -1   6  128.69    7.30
   1  -4   6  143.79    6.40
   1  -4   6  123.39    7.10
  -1   4   6  133.09    8.00
  -1   4   6  119.19    7.30
  -1   4   6  135.59    5.80
   4   1   6  138.19    5.90
   4   1   6  138.49    8.20
   0  -4  -6   -0.20    2.70
   0   4  -6    0.00    2.40
   4   0  -6    0.70    2.60
   0  -4  -6    2.20    2.20
  -4   0  -6    3.40    2.00
   4   0  -6    3.30    2.90
  -4   0  -6    3.30    2.80
   0   4  -6    2.80    1.50
   0   4  -6    2.30    2.80
   0  -4   6    2.60    2.40
   0   4   6    1.70    1.80
  -4   0   6    3.40    2.50
   4   0   6    3.20    1.60
   4   0   6    5.50    3.10
   0   4   6    1.60    2.30
   0  -4   6    2.60    2.10
   1   4  -6  138.99    8.70
  -4   1  -6  118.39    7.40
  -1  -4  -6  134.19    6.30
  -4   1  -6  133.49    6.10
  -1  -4  -6  127.49    7.90
   4  -1  -6  138.59    8.50
   1   4  -6  140.19    7.90
   4  -1  -6  126.29    7.40
   1   4   6  143.29    6.80
  -4   1   6  143.49    7.80
  -1  -4   6  136.29    7.00
  -1  -4   6  146.39    7.70
   1   4   6  131.89    7.50
   4  -1   6  145.89    8.70
   4  -1   6  133.29    5.80
   2   4  -6  174.88   10.20
   4  -2  -6  160.68    8.10
  -2  -4  -6  172.08    9.20
  -2  -4  -6  160.28    6.90
   4  -2  -6  157.08    9.10
  -4   2  -6  159.38    8.70
   2   4  -6  161.78    8.50
  -4   2  -6  161.08    7.10
   2   4   6  154.48    8.20
  -2  -4   6  164.68    8.20
   4  -2   6  152.98    9.10
  -4   2   6  156.98    8.90
   4  -2   6  169.68    6.90
  -2  -4   6  160.68    8.30
   2   4   6  154.78    8.20
   3   4  -6    3.40    3.80
  -4   3  -6    2.50    3.10
  -3  -4  -6    2.80    2.20
   4  -3  -6    5.40    3.00
  -3  -4  -6    1.50    3.60
   4  -3  -6    6.90    3.70
  -4   3  -6    1.40    3.30
   3   4  -6    3.00    3.10
  -3  -4   6    3.30    2.90
   3   4   6    1.00    3.20
   4  -3   6   -3.60    3.00
   3   4   6    2.40    2.80
  -3  -4   6   -0.50    2.80
  -4   3   6    3.70    2.80
   4  -3   6    1.40    2.30
  -4   3   6    3.10    3.50
  -4   4  -6   34.00    6.10
   4   4  -6   27.00    6.00
  -4   4  -6   24.20    4.60
   4  -4  -6   25.60    5.40
  -4  -4  -6   36.30    6.00
   4   4   6   26.70    5.60
  -4   4   6   26.50    5.10
   4  -4   6   23.80    3.90
  -4   4   6   31.30    5.70
  -4  -4   6   22.20    4.60
   4  -4   6   23.70    5.50
   4   4   6   22.90    4.40
  -4  -4   6   26.40    4.10
  -4   5  -6   71.49    8.40
  -4   5  -6   61.49    6.80
   4  -5  -6   73.29    8.20
   5   4  -6   54.59    8.20
  -5  -4  -6   62.69    7.70
  -5  -4   6   70.49    7.60
   5   4   6   82.79    9.60
  -4   5   6   77.19    8.00
   4  -5   6   67.79    6.40
   4  -5   6   82.89    8.80
  -5  -3  -6  954.30   29.70
   3  -5  -6  918.11   29.70
   5   3  -6  937.81   31.90
  -5  -3  -6  906.01   28.10
  -3   5  -6  945.01   31.30
  -3   5  -6  950.00   28.60
   3  -5  -6  899.61   30.70
  -3   5   6  908.61   30.60
   5   3   6  872.81   31.00
   3  -5   6  900.21   28.40
  -3   5   6  902.01   29.30
  -5  -3   6  858.61   29.70
   2  -5  -6  118.49    8.60
  -5  -2  -6   99.09    7.60
   5   2  -6  118.49    7.60
   2  -5  -6  108.39    7.30
   5   2  -6  118.89    9.50
  -5  -2  -6  104.79    7.00
  -2   5  -6  104.09    8.50
  -2   5  -6  107.29    6.50
  -2   5   6   94.59    7.90
  -5  -2   6   93.29    7.70
   5   2   6   96.89    8.40
   2  -5   6   89.59    6.90
   2  -5   6  102.59    6.40
  -2   5   6   96.89    7.50
  -1   5  -6  991.60   32.80
   1  -5  -6 1036.80   30.20
  -5  -1  -6 1016.00   30.50
   1  -5  -6  995.50   32.10
  -1   5  -6 1017.70   31.70
   5   1  -6 1000.60   32.70
   5   1  -6 1005.40   31.40
  -5  -1  -6 1001.40   30.90
  -1   5   6 1014.80   32.40
  -5  -1   6 1014.00   31.40
   5   1   6 1002.70   32.80
  -1   5   6 1021.10   31.70
   1  -5   6  967.80   30.80
   1  -5   6 1017.70   29.80
  -5   0  -6  267.27   10.70
  -5   0  -6  267.97   12.10
   0  -5  -6  252.87   12.50
   0   5  -6  265.07   12.40
   0   5  -6  270.47   13.50
   0  -5  -6  260.37   10.50
   5   0  -6  252.07   12.70
   5   0  -6  264.97   12.60
   0  -5   6  253.57   11.80
   0  -5   6  287.77   11.40
   5   0   6  258.97   12.80
  -5   0   6  260.27   12.00
  -5   0   6  258.07   11.80
   0   5   6  254.57   11.90
  -1  -5  -6  994.70   31.90
  -5   1  -6 1004.90   29.30
   5  -1  -6  956.90   32.10
   5  -1  -6 1023.50   31.70
  -5   1  -6  977.80   31.50
   1   5  -6 1010.90   31.60
   1   5  -6  998.90   32.80
   1   5   6 1000.00   31.50
   5  -1   6  984.30   32.40
  -1  -5   6 1043.70   31.20
   1   5   6 1002.50   30.20
  -5   1   6 1008.70   31.50
  -1  -5   6 1006.70   30.50
  -5   1   6 1013.90   31.50
  -2  -5  -6  101.99    8.30
   5  -2  -6   91.69    7.30
   2   5  -6   86.49    7.20
   2   5  -6   95.09    8.50
   5  -2  -6   97.19    8.10
  -5   2  -6   99.19    8.20
   5  -2   6   99.79    8.30
  -5   2   6  107.29    8.10
   2   5   6  110.59    8.10
  -5   2   6  100.29    7.70
   2   5   6  101.89    7.30
  -2  -5   6  111.09    7.60
  -2  -5   6  108.19    7.30
  -3  -5  -6  891.51   30.60
   3   5  -6  982.00   29.70
   3   5  -6  883.21   31.80
   5  -3  -6  928.21   31.40
  -5   3  -6  890.11   30.30
   5  -3  -6  890.91   30.10
   5  -3   6  919.31   31.30
  -3  -5   6  928.11   29.80
   3   5   6  947.01   30.50
   3   5   6  948.41   30.00
  -5   3   6  940.31   31.10
  -3  -5   6  944.51   29.00
   4   5  -6   62.39    8.70
  -4  -5  -6   77.89    8.40
  -5   4  -6   83.09    8.60
   5  -4  -6   71.19    8.40
   4   5   6   60.59    8.10
  -4  -5   6   65.79    6.60
  -5   4   6   60.29    7.70
  -4  -5   6   70.69    7.40
   4   5   6   69.59    7.40
   5  -4   6   62.99    8.40
  -5  -5  -6  351.06   16.60
   5   5  -6  348.87   18.60
  -5   5  -6  321.07   15.50
  -5   5  -6  326.27   16.70
   5  -5  -6  337.77   16.50
   5  -5   6  306.67   16.20
  -5   5   6  317.37   16.30
   5   5   6  358.56   17.60
  -5  -5   6  347.67   16.50
  -5   6  -6   42.50    7.40
  -5   6  -6   53.29    9.00
   5  -6  -6   65.59    9.20
  -6  -5  -6   62.29    9.00
   5  -6  -6   61.39    9.40
   6   5  -6   56.39    9.80
  -5   6   6   57.99    9.20
   6   5   6   54.59    9.10
   5  -6   6   67.39    9.50
  -6  -5   6   64.19    9.20
  -4   6  -6   17.20    6.50
   4  -6  -6   14.80    5.70
   4  -6  -6   17.30    6.20
   6   4  -6   14.30    6.30
  -6  -4  -6   23.50    6.50
  -6  -4   6   15.50    5.90
   6   4   6   10.40    6.00
   4  -6   6   15.70    4.80
  -4   6   6   15.70    6.10
   4  -6   6   18.30    6.40
   3  -6  -6   30.10    6.80
  -3   6  -6   30.50    6.80
   6   3  -6   31.90    6.90
   3  -6  -6   30.40    5.90
  -6  -3  -6   25.60    5.90
   6   3   6   40.80    8.30
  -3   6   6   38.10    6.30
  -3   6   6   42.70    7.20
  -6  -3   6   41.90    6.90
   3  -6   6   40.60    6.10
   6   2  -6    0.10    4.90
  -2   6  -6    1.70    5.00
   2  -6  -6    4.50    4.70
   2  -6  -6    4.80    4.30
  -6  -2  -6    1.80    3.60
  -6  -2  -6    4.30    4.00
   6   2  -6    1.80    4.30
  -2   6  -6    1.90    4.30
   2  -6   6    5.00    3.90
   6   2   6    6.20    5.60
  -2   6   6    0.80    3.70
  -2   6   6    5.70    4.80
  -6  -2   6    5.70    4.30
  -6  -1  -6   40.00    5.80
   1  -6  -6   39.30    6.80
   6   1  -6   36.10    6.60
  -1   6  -6   44.70    6.80
  -1   6  -6   27.20    6.10
  -6  -1  -6   43.20    5.50
   6   1  -6   33.60    5.80
  -6  -1   6   40.00    6.40
   1  -6   6   47.40    6.60
   1  -6   6   43.20    5.50
   6   1   6   35.30    6.70
  -1   6   6   34.00    6.20
   6   0  -6   21.10    6.00
   0   6  -6   19.30    5.50
  -6   0  -6   27.10    5.60
  -6   0  -6   22.40    4.40
   6   0  -6   18.80    5.40
   0   6  -6   23.00    6.30
   0  -6  -6   20.10    5.30
   0   6   6   18.40    4.90
  -6   0   6   27.70    5.30
  -6   0   6   22.50    5.10
   0  -6   6   28.10    5.00
   0  -6   6   15.90    5.00
   6   0   6   31.20    6.80
  -6   1  -6   40.20    6.60
   6  -1  -6   41.40    6.70
   1   6  -6   47.50    7.70
  -1  -6  -6   40.70    6.70
   1   6  -6   35.70    6.30
   6  -1  -6   41.10    7.00
   1   6   6   32.60    5.80
   6  -1   6   32.90    6.60
  -6   1   6   37.00    6.20
  -1  -6   6   33.90    5.90
  -6   1   6   38.90    6.20
  -1  -6   6   34.90    5.50
   6  -2  -6    0.30    4.50
   6  -2  -6    1.70    4.20
   2   6  -6    4.80    4.00
   2   6  -6    0.10    4.90
  -6   2  -6    3.30    4.60
  -2  -6  -6    0.90    4.00
  -6   2   6    2.50    4.70
  -2  -6   6   -1.70    3.30
  -6   2   6    0.00    3.80
   2   6   6    4.70    4.50
   6  -2   6    5.50    4.80
  -2  -6   6    9.10    4.40
   6  -3  -6   29.20    6.30
  -3  -6  -6   29.10    6.30
  -6   3  -6   40.10    6.70
   3   6  -6   43.70    7.80
   3   6  -6   40.80    6.60
   3   6   6   17.90    5.10
  -6   3   6   30.40    6.20
  -3  -6   6   25.10    5.40
  -3  -6   6   27.20    5.70
   6  -3   6   30.30    7.00
  -4  -6  -6   12.70    5.40
  -6   4  -6    9.40    5.60
   4   6  -6   13.70    6.50
   6  -4  -6   18.70    6.20
   6  -4   6   11.80    5.70
   4   6   6   14.30    5.00
  -4  -6   6   13.50    5.50
  -6   4   6   15.10    5.70
   4   6   6   18.00    6.50
  -4  -6   6   18.60    5.20
   5   6  -6   61.59   10.60
  -6   5  -6   65.69    8.90
   6  -5  -6   48.60    8.60
  -5  -6  -6   57.29    8.50
  -6   5   6   59.29    9.30
   5   6   6   47.10    8.80
   6  -5   6   51.49    8.60
  -5  -6   6   51.49    8.10
  -6   6  -6    3.30    6.00
   6   6   6    4.10    6.70
   6  -6   6    0.20    6.00
   6  -6   6    7.20    6.30
  -7  -4  -6   36.90    7.50
   4  -7  -6   37.70    8.20
   7   4  -6   25.90    8.60
  -4   7  -6   36.10    8.50
   7   4   6   42.70    9.60
   4  -7   6   41.60    8.40
  -4   7   6   30.60    8.10
  -7  -4   6   32.50    7.10
   4  -7   6   30.40    6.50
  -7  -3  -6  428.36   19.00
   7   3  -6  396.16   20.40
  -3   7  -6  405.36   20.00
   3  -7  -6  414.86   19.40
  -7  -3   6  379.76   18.90
  -3   7   6  428.76   19.80
  -3   7   6  397.46   18.80
   7   3   6  428.26   21.40
   3  -7   6  395.46   17.80
  -2   7  -6   38.90    7.40
  -2   7  -6   52.89    9.10
   2  -7  -6   62.29    9.20
   7   2  -6   46.40    8.90
  -7  -2  -6   54.49    7.40
  -7  -2  -6   47.50    7.20
  -2   7   6   37.30    6.80
  -7  -2   6   32.80    6.50
   7   2   6   27.40    7.80
   2  -7   6   44.80    7.00
  -7  -1  -6  504.45   19.70
   7   1  -6  508.55   22.80
  -1   7  -6  529.85   21.60
   1  -7  -6  518.85   22.10
  -7  -1  -6  524.45   20.60
   7   1  -6  507.95   21.00
  -1   7  -6  517.85   22.60
   1  -7   6  504.95   20.50
  -7  -1   6  516.95   21.20
  -1   7   6  501.85   21.10
   7   1   6  499.55   22.80
   7   0  -6  125.89   11.50
   0   7  -6  131.49   12.10
   0  -7  -6  121.89   10.50
   0   7  -6  116.29   10.10
  -7   0  -6  125.69    9.70
   7   0  -6  114.09   10.60
  -7   0   6  109.79   10.00
   0  -7   6  107.99    9.20
   0  -7   6  114.09    9.60
   7   0   6  114.99   12.00
   0   7   6  108.69    9.90
   1   7  -6  497.15   21.30
   7  -1  -6  500.65   21.90
  -7   1  -6  492.35   20.70
   1   7  -6  521.65   22.80
  -1  -7  -6  512.45   21.80
   7  -1  -6  479.65   21.50
  -1  -7   6  499.25   20.50
   1   7   6  483.65   20.70
  -1  -7   6  513.05   20.00
  -7   1   6  510.55   21.00
   7  -1   6  498.05   22.60
   7  -2  -6   47.60    8.50
  -2  -7  -6   43.10    7.90
   2   7  -6   42.90    8.40
   2   7  -6   53.59    8.10
   7  -2  -6   44.60    8.90
  -7   2  -6   34.60    7.50
   7  -2   6   46.10    8.40
   2   7   6   39.60    7.40
  -7   2   6   59.49    8.80
  -2  -7   6   45.50    7.30
  -2  -7   6   48.00    7.00
  -3  -7  -6  398.06   19.30
   7  -3  -6  393.66   20.00
  -7   3  -6  387.76   18.70
   3   7  -6  395.26   20.50
   3   7  -6  398.66   18.10
  -3  -7   6  419.96   18.40
  -7   3   6  378.36   19.20
   3   7   6  402.06   18.90
   7  -3   6  405.36   20.50
  -3  -7   6  371.26   17.00
   7  -4  -6   43.10    8.60
  -7   4  -6   43.00    8.50
   4   7  -6   33.50    9.60
  -4  -7  -6   28.90    7.20
  -4  -7   6   33.70    7.20
   4   7   6   30.70    7.40
  -7   4   6   32.90    8.20
   7  -4   6   34.50    8.10
  -4  -7   6   27.10    6.50
  -3   8  -6    4.00    7.10
  -8  -3  -6    3.70    5.90
   2  -8  -6   10.70    7.70
  -2   8  -6    7.50    7.40
   8   2  -6   12.70    8.10
  -2   8   6    2.00    5.90
   2  -8   6    6.80    6.80
  -1   8  -6    8.00    6.60
  -8  -1  -6    3.90    5.20
   8   1  -6    2.20    6.90
   1  -8  -6    5.20    6.50
  -1   8  -6    0.20    5.90
  -8  -1   6    2.30    5.90
  -1   8   6   -0.80    5.30
   8   1   6    4.70    7.70
   1  -8   6    0.50    5.20
   8   0  -6    1.70    6.80
   0   8  -6    1.80    6.50
   0  -8  -6   -3.50    5.80
  -8   0  -6    3.30    5.70
   0   8  -6   -1.20    5.70
   8   0  -6    1.20    5.90
   0   8   6    0.70    5.40
  -8   0   6    1.90    5.70
   0  -8   6   -2.00    5.50
   8   0   6    2.00    6.40
   8  -1  -6    4.40    6.10
   1   8  -6    3.10    7.30
  -8   1  -6    5.90    6.10
   1   8  -6    1.60    5.60
   8  -1  -6    5.30    7.10
  -1  -8  -6    0.80    5.30
  -1  -8   6    3.60    6.50
  -8   1   6    0.80    6.00
   8  -1   6    3.50    7.50
  -1  -8   6   -1.90    4.80
   1   8   6    7.20    6.40
   2   8  -6    9.40    7.90
   2   8  -6    7.20    6.90
  -2  -8   6    6.50    5.40
  -8   2   6    8.80    6.90
   0   0  -7    0.10    1.20
   0   0  -7    1.20    1.10
   0   0   7    3.90    1.40
   0   0   7    0.00    0.80
  -1   0  -7 3156.28   83.19
   0   1  -7 3164.08   83.29
  -1   0  -7 3273.67   81.69
  -1   0  -7 3245.88   83.59
   0  -1  -7 3224.18   83.79
   0   1  -7 3213.08   83.79
   1   0  -7 3152.68   82.59
   1   0  -7 3305.37   83.79
   1   0   7 3047.90   83.19
   0   1   7 3142.39   82.99
  -1   0   7 3158.38   82.79
   0  -1   7 3087.69   82.89
   0   1   7 3196.28   82.99
   1   0   7 3149.39   82.99
   0  -1   7 3135.69   81.69
  -1   0   7 3183.28   82.89
   0   1   7 3242.88   81.89
  -1  -1  -7   23.30    2.20
  -1  -1  -7   25.70    2.80
   1   1  -7   25.60    2.70
  -1   1  -7   27.50    3.00
   1  -1  -7   25.00    1.50
  -1   1  -7   25.10    2.70
   1   1  -7   22.50    2.70
   1  -1  -7   27.30    3.20
  -1   1   7   25.80    2.90
   1   1   7   25.10    2.20
  -1   1   7   23.50    2.30
  -1  -1   7   22.70    2.10
   1   1   7   24.30    2.60
  -1  -1   7   20.60    2.20
   1  -1   7   21.30    2.40
   2   1  -7  817.62   24.30
  -1   2  -7  798.42   24.80
  -1   2  -7  754.22   23.30
  -2  -1  -7  785.82   23.00
   1  -2  -7  776.02   24.10
   2   1  -7  804.22   23.70
  -2  -1  -7  781.02   23.70
  -1   2   7  835.62   23.30
   2   1   7  814.72   23.00
  -1   2   7  826.32   24.40
  -2  -1   7  842.62   23.50
   1  -2   7  834.12   23.30
  -2  -1   7  822.12   22.70
   2   1   7  826.42   23.70
   1  -2   7  840.62   21.40
  -2   0  -7  205.38    8.30
  -2   0  -7  212.68    6.60
   0   2  -7  205.38    7.50
   0   2  -7  203.38    8.70
   2   0  -7  198.68    7.80
   0  -2  -7  200.88    8.20
   2   0  -7  200.28    8.30
   0  -2  -7  211.68    8.40
   2   0   7  213.18    8.30
  -2   0   7  214.48    7.30
   2   0   7  213.48    7.50
   0  -2   7  209.88    6.70
  -2   0   7  211.18    8.00
   0   2   7  208.98    6.00
   0   2   7  202.88    7.90
   0   2   7  204.88    5.90
   0  -2   7  203.58    7.70
   0   2   7  211.68    8.40
   2  -1  -7  825.52   22.40
  -1  -2  -7  815.02   23.50
   1   2  -7  824.82   24.40
  -1  -2  -7  828.02   23.50
   1   2  -7  820.32   22.80
  -2   1  -7  841.92   21.00
  -2   1  -7  849.02   24.50
   2  -1  -7  836.12   24.30
  -2   1  -7  861.81   24.00
  -2   1   7  794.72   24.00
  -2   1   7  782.42   22.40
   1   2   7  797.22   22.60
   1   2   7  761.32   23.20
   2  -1   7  757.52   22.80
   2  -1   7  741.23   24.10
   2  -1   7  773.82   21.10
  -1  -2   7  786.42   22.60
  -1  -2   7  774.32   22.90
  -2  -2  -7  109.89    5.70
   2  -2  -7  111.49    4.40
  -2   2  -7  127.69    7.10
  -2   2  -7  112.69    6.00
   2  -2  -7  104.39    6.20
   2   2  -7  115.69    6.90
   2   2  -7  111.99    5.40
  -2  -2  -7  117.49    6.00
  -2   2   7  116.99    5.40
   2  -2   7  113.99    5.50
   2  -2   7  111.79    3.80
   2   2   7  107.59    5.60
  -2  -2   7  117.59    5.70
  -2   2   7  117.89    6.70
  -2  -2   7  109.49    5.30
   2   2   7  118.39    6.10
   3   2  -7  956.10   27.20
   2  -3  -7  963.30   25.20
  -3  -2  -7  932.01   27.50
   3   2  -7  933.71   29.50
  -2   3  -7  966.20   27.80
   2  -3  -7  942.61   28.50
  -3  -2  -7  958.80   28.00
  -2   3  -7  961.90   29.90
   2  -3   7  889.71   25.60
  -3  -2   7  923.41   26.40
  -2   3   7  971.30   29.40
   3   2   7  915.41   28.50
  -3  -2   7  954.60   28.20
   3   2   7  945.51   27.10
   2  -3   7  944.31   27.40
  -2   3   7  905.51   27.50
  -3  -1  -7  224.48    8.90
   1  -3  -7  240.98   10.80
  -3  -1  -7  230.08    9.70
  -1   3  -7  244.28    9.10
   3   1  -7  246.08    9.90
   3   1  -7  237.88   10.40
  -1   3  -7  244.48   11.10
   1  -3  -7  242.88   10.10
  -3  -1   7  258.17    8.40
   1  -3   7  267.37    8.40
   3   1   7  266.17    9.00
   1  -3   7  263.37    9.80
   3   1   7  265.77   10.60
  -3  -1   7  259.77   10.00
  -1   3   7  260.07   10.80
  -1   3   7  242.88    9.60
   0   3  -7 2437.66   68.59
   0   3  -7 2572.44   65.79
   3   0  -7 2522.85   67.69
  -3   0  -7 2532.75   65.69
   0  -3  -7 2472.25   67.89
   0  -3  -7 2537.15   67.19
  -3   0  -7 2543.45   67.69
   3   0  -7 2523.35   67.99
   0   3   7 2466.85   64.89
   3   0   7 2484.55   67.99
   0  -3   7 2478.55   65.89
   3   0   7 2524.45   65.99
   0   3   7 2473.55   67.99
   0   3   7 2536.05   67.29
  -3   0   7 2503.65   65.29
  -3   0   7 2475.25   67.39
   0  -3   7 2482.05   66.99
  -3   1  -7  255.07    8.00
   3  -1  -7  258.67   10.80
  -3   1  -7  248.28   10.50
   1   3  -7  259.77   11.10
   3  -1  -7  258.17    9.70
  -1  -3  -7  253.07   10.30
  -1  -3  -7  261.17    9.60
  -3   1  -7  260.87   10.40
   1   3  -7  257.97    8.20
   3  -1   7  231.68   10.50
   1   3   7  232.88    8.80
  -3   1   7  248.38    8.30
  -1  -3   7  238.68    9.50
   1   3   7  238.58    9.70
   3  -1   7  264.07    9.10
  -1  -3   7  239.98    9.20
  -3   1   7  241.08   10.20
  -2  -3  -7  925.21   28.40
  -3   2  -7  904.01   29.20
   3  -2  -7  958.60   26.90
   3  -2  -7  913.91   29.10
   2   3  -7  954.60   29.90
  -3   2  -7  914.91   28.50
  -2  -3  -7  955.40   27.30
  -3   2  -7  915.11   25.70
   2   3  -7  916.31   26.10
  -3   2   7  976.30   29.40
   3  -2   7  990.50   29.80
   2   3   7  940.81   27.80
   3  -2   7  964.60   27.00
   2   3   7  975.80   28.20
  -2  -3   7  963.30   28.00
  -3   2   7  972.50   26.80
  -2  -3   7  946.11   27.50
  -3  -3  -7  108.79    6.00
   3   3  -7  110.89    5.50
   3  -3  -7  104.49    7.30
   3  -3  -7  102.19    5.30
  -3  -3  -7  109.49    7.30
  -3   3  -7  112.39    7.80
  -3   3  -7  105.79    6.70
   3   3  -7  113.99    8.60
   3  -3   7  106.09    7.70
  -3  -3   7  104.49    6.70
  -3   3   7  107.19    6.10
  -3  -3   7   99.89    5.80
   3   3   7   99.89    7.30
   3   3   7  112.59    6.20
   3  -3   7  102.59    5.70
  -3   3   7  116.39    7.60
   3  -3   7  103.29    5.00
   4   3  -7 1047.10   34.70
  -4  -3  -7 1103.89   33.10
  -4  -3  -7 1058.69   31.40
   3  -4  -7 1049.99   33.40
  -3   4  -7 1063.19   32.30
  -3   4  -7 1105.29   34.70
   3  -4   7 1030.90   31.50
   4   3   7 1078.09   31.70
  -3   4   7 1064.09   32.20
  -3   4   7 1091.09   34.10
  -4  -3   7 1098.99   30.60
  -4  -3   7 1051.59   33.10
   4   3   7 1096.99   34.20
  -2   4  -7   77.19    5.50
   4   2  -7   72.29    6.90
  -2   4  -7   69.69    6.80
   4   2  -7   77.09    5.80
  -4  -2  -7   74.39    6.00
  -4  -2  -7   73.59    5.70
   2  -4  -7   76.29    6.30
  -2   4   7   61.09    6.20
   4   2   7   81.39    7.20
   2  -4   7   82.69    5.80
   2  -4   7   77.29    4.60
  -2   4   7   70.49    6.10
  -4  -2   7   77.29    6.10
  -4  -2   7   74.89    4.40
   4   2   7   84.29    5.10
  -4  -1  -7 1524.25   44.60
   1  -4  -7 1533.45   45.80
   4   1  -7 1661.53   46.30
  -1   4  -7 1598.94   43.00
   4   1  -7 1518.85   44.70
  -4  -1  -7 1505.55   43.60
   1  -4  -7 1578.64   44.40
  -4  -1   7 1553.94   44.70
   1  -4   7 1573.74   44.40
  -4  -1   7 1587.24   42.00
  -1   4   7 1557.64   45.80
  -1   4   7 1628.94   45.00
   1  -4   7 1638.34   43.10
   4   1   7 1575.04   42.60
   4   1   7 1560.64   45.70
  -4   0  -7  199.08    9.40
  -4   0  -7  196.88    7.90
   0  -4  -7  202.88   10.30
   0  -4  -7  213.08    9.00
   4   0  -7  205.98   10.10
   4   0  -7  201.08    9.80
   0   4  -7  213.98   10.70
   0   4  -7  202.18    7.20
  -4   0   7  198.18    9.50
   0   4   7  186.08    9.30
   4   0   7  198.38   10.10
   0  -4   7  195.68    8.40
   0   4   7  195.78    9.50
   4   0   7  203.48    7.60
  -4   1  -7 1585.34   42.40
  -4   1  -7 1548.55   45.00
   4  -1  -7 1652.43   44.80
  -1  -4  -7 1553.14   43.20
   4  -1  -7 1580.74   45.90
   1   4  -7 1567.24   46.30
  -1  -4  -7 1558.94   45.20
  -4   1   7 1579.94   45.20
   1   4   7 1527.55   44.60
  -1  -4   7 1548.65   44.30
   4  -1   7 1548.65   45.90
   1   4   7 1526.55   43.10
   4  -1   7 1597.44   42.50
  -1  -4   7 1551.64   43.70
   4  -2  -7   65.99    5.70
   4  -2  -7   75.99    6.80
   2   4  -7   70.19    7.00
  -4   2  -7   73.99    6.20
  -2  -4  -7   84.99    6.90
  -2  -4  -7   76.39    5.00
   2   4   7   82.89    6.10
  -4   2   7   68.79    6.40
  -2  -4   7   74.39    5.60
  -2  -4   7   86.09    5.90
   2   4   7   71.39    5.70
   4  -2   7   74.89    7.30
   4  -2   7   76.49    5.00
   4  -3  -7 1043.10   33.80
  -4   3  -7 1093.29   33.40
  -4   3  -7 1068.89   34.00
  -3  -4  -7 1057.99   33.50
   3   4  -7 1054.19   34.90
  -3  -4  -7 1066.09   30.60
   4  -3   7 1070.69   30.80
   3   4   7 1097.49   32.60
  -3  -4   7 1085.69   31.60
  -3  -4   7 1064.99   32.70
   3   4   7 1074.59   33.20
   4  -3   7 1064.19   34.30
  -4   4  -7   80.79    8.40
   4   4  -7   92.69    9.50
  -4  -4  -7   79.99    7.80
   4  -4  -7   76.79    8.10
  -4   4  -7   86.19    7.70
   4   4   7   84.59    7.00
   4  -4   7   76.19    6.30
  -4  -4   7   89.79    7.50
   4  -4   7   84.79    8.50
   4   4   7   88.59    8.40
  -4   4   7   93.49    8.00
  -4  -4   7   83.69    6.20
   5   4  -7  472.15   21.40
  -4   5  -7  495.45   19.10
  -5  -4  -7  505.25   20.00
   4  -5  -7  485.45   20.10
  -4   5  -7  472.95   20.70
  -4   5   7  493.65   20.70
   5   4   7  504.25   21.10
   4  -5   7  523.45   21.20
  -5  -4   7  512.65   20.30
   4  -5   7  490.65   17.90
   3  -5  -7   39.10    6.60
  -3   5  -7   36.00    6.30
  -3   5  -7   38.50    5.20
   3  -5  -7   41.70    5.70
  -5  -3  -7   44.10    5.30
  -5  -3  -7   41.60    5.90
   5   3  -7   25.70    6.00
  -3   5   7   19.70    5.30
  -3   5   7   20.30    4.90
  -5  -3   7   20.50    5.10
   5   3   7   18.80    6.00
   3  -5   7   20.20    4.50
  -2   5  -7  457.75   15.90
  -5  -2  -7  490.45   17.10
  -2   5  -7  461.45   19.20
   2  -5  -7  449.76   17.10
   2  -5  -7  477.65   18.90
   5   2  -7  457.05   19.30
  -5  -2  -7  464.65   17.20
   5   2  -7  496.95   17.20
  -2   5   7  443.16   17.40
   5   2   7  454.95   18.80
  -2   5   7  440.66   18.40
  -5  -2   7  479.45   18.20
   2  -5   7  466.25   17.20
  -1   5  -7    2.60    3.70
   5   1  -7    0.00    3.00
  -5  -1  -7    0.10    2.50
   1  -5  -7    0.80    3.60
   5   1  -7   -1.10    3.50
  -5  -1  -7    3.00    2.90
   1  -5  -7    3.90    2.80
  -1   5   7    8.40    4.20
   5   1   7    5.10    4.40
   1  -5   7    6.70    3.40
  -1   5   7    5.50    3.60
   1  -5   7    3.10    2.60
  -5  -1   7    9.10    3.90
  -5   0  -7  934.71   29.70
   0   5  -7  960.30   31.80
   0  -5  -7  962.50   28.40
   0  -5  -7  922.91   30.50
  -5   0  -7  933.71   27.90
   5   0  -7  952.20   30.60
   5   0  -7  891.91   30.20
   0   5  -7  959.00   30.30
   5   0   7  971.20   31.30
   0  -5   7  928.71   29.50
  -5   0   7  968.80   30.00
   0   5   7  934.91   30.00
   0  -5   7  937.71   28.40
   5  -1  -7    7.60    4.10
   1   5  -7    4.50    3.50
   5  -1  -7    4.90    3.70
  -5   1  -7    5.70    3.50
  -1  -5  -7    4.50    3.80
   1   5  -7    6.10    4.10
  -1  -5   7    1.90    3.00
   1   5   7   -0.90    3.30
  -1  -5   7    1.20    3.00
  -5   1   7    4.70    3.70
   5  -1   7   -2.00    3.40
   5  -2  -7  489.65   17.50
   2   5  -7  473.75   18.00
   5  -2  -7  447.46   18.70
  -5   2  -7  478.05   18.60
   2   5  -7  447.26   19.60
  -2  -5  -7  445.26   18.20
   2   5   7  462.85   17.80
   2   5   7  459.45   18.30
  -2  -5   7  447.66   17.10
   5  -2   7  444.66   18.70
  -2  -5   7  470.75   17.10
  -5   2   7  476.55   18.50
   3   5  -7   20.20    5.80
   5  -3  -7   16.10    5.00
  -3  -5  -7   19.10    5.00
  -5   3  -7   20.80    5.10
   3   5   7   27.80    5.10
   5  -3   7   36.30    6.80
   3   5   7   42.30    6.00
  -5   3   7   45.70    6.90
  -3  -5   7   44.40    6.00
  -3  -5   7   40.20    5.40
  -4  -5  -7  483.75   20.00
  -5   4  -7  513.05   20.40
   5  -4  -7  514.95   21.00
   4   5  -7  504.65   22.40
   4   5   7  494.65   19.30
   4   5   7  540.65   21.10
  -5   4   7  536.45   21.30
  -4  -5   7  519.65   20.30
   5  -4   7  492.65   21.20
  -4  -5   7  488.75   18.20
   5   5  -7    1.10    5.30
  -5   5  -7    5.90    5.90
  -5   5  -7    2.40    4.80
   5  -5  -7    9.60    5.50
  -5  -5  -7    2.80    4.90
   5   5   7    3.50    4.50
  -5  -5   7    2.90    4.80
  -5   5   7   -0.10    5.10
   5  -5   7    5.40    5.70
   6   5  -7  149.59   14.10
  -6  -5  -7  132.39   11.80
   5  -6  -7  123.79   11.60
   5  -6  -7  118.89   11.30
  -5   6  -7  123.89   11.10
  -5   6   7   84.29   10.30
  -6  -5   7  108.09   11.10
   6   5   7  126.79   12.70
   5  -6   7  108.39   11.00
  -4   6  -7   41.80    8.00
   4  -6  -7   40.80    7.00
   6   4  -7   34.90    8.10
   4  -6  -7   40.60    7.60
  -6  -4  -7   30.80    6.50
  -6  -4   7   49.50    7.50
  -4   6   7   58.69    8.60
   4  -6   7   53.39    7.00
   4  -6   7   63.09    9.10
   6   4   7   54.89    8.80
   3  -6  -7  156.68   11.40
  -6  -3  -7  163.68   10.80
   6   3  -7  163.38   12.20
  -3   6  -7  162.48   11.70
   3  -6  -7  153.28   10.40
   6   3   7  164.98   12.90
  -3   6   7  140.19   10.50
   3  -6   7  157.78   10.20
  -3   6   7  155.38   11.30
  -6  -3   7  165.88   10.90
  -6  -2  -7   33.70    5.70
   2  -6  -7   28.10    5.50
  -2   6  -7   29.90    7.10
   2  -6  -7   45.00    7.30
  -6  -2  -7   29.20    5.60
   6   2  -7   21.80    6.20
  -2   6   7   39.00    6.90
  -2   6   7   37.20    6.10
   6   2   7   40.10    7.40
  -6  -2   7   35.80    6.40
   2  -6   7   29.30    5.30
   6   1  -7  187.08   12.60
   6   1  -7  196.48   11.70
  -1   6  -7  214.28   13.00
  -1   6  -7  216.88   12.30
  -6  -1  -7  202.48   10.50
  -6  -1  -7  202.68   11.10
   1  -6  -7  224.08   12.80
   1  -6   7  227.88   11.70
   6   1   7  237.08   14.00
  -1   6   7  227.98   12.60
  -6  -1   7  233.28   12.50
   0   6  -7   47.90    7.60
   6   0  -7   52.19    7.20
   6   0  -7   50.39    7.50
   0  -6  -7   56.09    7.60
   0   6  -7   48.30    6.80
  -6   0  -7   51.49    6.90
   0   6   7   68.49    7.80
   0  -6   7   58.59    6.80
   0  -6   7   64.19    6.70
  -6   0   7   60.69    7.40
  -6   1  -7  221.88   12.00
  -1  -6  -7  221.08   12.40
   6  -1  -7  215.08   12.90
   1   6  -7  230.88   13.90
   1   6  -7  209.08   11.90
   6  -1  -7  215.68   12.50
  -6   1   7  203.68   11.80
   6  -1   7  200.88   13.20
  -1  -6   7  221.68   11.10
   1   6   7  217.18   12.40
  -1  -6   7  202.98   11.30
   2   6  -7   27.70    7.00
  -2  -6  -7   33.60    6.20
   6  -2  -7   33.30    6.30
   6  -2  -7   43.40    6.90
  -6   2  -7   37.10    6.40
   2   6  -7   38.40    6.70
  -2  -6   7   31.50    5.90
   2   6   7   26.20    5.70
  -6   2   7   32.50    6.20
  -2  -6   7   29.90    5.50
   6  -2   7   32.90    6.80
  -6   3  -7  153.58   11.60
   6  -3  -7  157.58   11.80
  -3  -6  -7  167.38   12.20
   3   6  -7  158.88   12.40
   6  -3   7  180.88   12.90
   3   6   7  176.18   11.50
  -3  -6   7  173.08   10.20
  -3  -6   7  161.58   10.70
  -6   3   7  167.08   11.50
   4   6  -7   38.90    8.20
   6  -4  -7   65.09    9.40
  -6   4  -7   57.59    8.40
  -4  -6  -7   58.59    8.30
   6  -4   7   34.80    7.20
  -4  -6   7   46.60    7.50
  -4  -6   7   41.40    6.30
   4   6   7   30.40    6.20
  -6   4   7   51.09    8.40
  -5  -6  -7  109.39   11.30
  -6   5  -7  107.19   10.90
   5   6  -7  107.99   12.00
   6  -5  -7  114.89   11.90
  -6   5   7  120.39   11.80
   6  -5   7  109.59   11.80
  -5  -6   7  111.79   10.90
  -6   6  -7   37.20    9.20
   4  -7  -7  130.39   12.50
  -4   7  -7  128.49   12.80
   7   4  -7  133.09   14.40
  -7  -4  -7  139.59   11.80
   4  -7   7  121.89   12.20
   7   4   7  130.59   14.10
  -4   7   7  142.99   13.00
   4  -7   7  125.09   10.40
   7   3  -7   44.40    8.80
  -7  -3  -7   55.89    8.20
   3  -7  -7   54.59    8.50
  -3   7  -7   46.70    8.70
  -3   7   7   35.10    6.90
  -7  -3   7   53.39    8.60
  -3   7   7   39.90    7.80
   3  -7   7   53.49    7.30
   7   3   7   55.69    9.70
   2  -7  -7  143.89   12.50
   7   2  -7  126.29   11.40
  -7  -2  -7  125.89   10.30
  -2   7  -7  133.89   12.50
  -7  -2  -7  145.49   10.40
   7   2   7  109.49   11.70
  -7  -2   7  132.89   10.50
   2  -7   7  125.29   10.50
  -2   7   7  135.59   11.40
  -1   7  -7   73.09   10.30
   1  -7  -7   69.69    9.10
   7   1  -7   83.09   10.50
  -7  -1  -7   80.09    8.20
   7   1  -7   62.79    8.20
  -7  -1   7   84.29    9.30
   7   1   7   87.79   11.00
  -1   7   7   67.59    8.70
   1  -7   7   82.69    9.20
   0  -7  -7  258.57   15.20
   7   0  -7  257.47   14.60
   7   0  -7  250.07   15.30
  -7   0  -7  261.27   14.40
   0   7  -7  270.77   16.60
   0   7  -7  255.67   14.70
  -7   0   7  270.77   14.70
   0  -7   7  260.37   13.80
   0   7   7  272.57   14.70
   7   0   7  241.48   15.40
  -7   1  -7   79.39    9.30
   1   7  -7   71.89   10.10
   7  -1  -7   81.59   10.00
   7  -1  -7   67.89    9.30
  -1  -7  -7   87.89    9.40
   1   7  -7   76.99    9.20
   1   7   7   71.49    8.80
  -7   1   7   82.99    9.00
  -1  -7   7   68.89    8.00
  -1  -7   7   66.49    8.00
   7  -1   7   78.89   10.30
   7  -2  -7  143.09   12.50
  -2  -7  -7  136.69   11.40
  -7   2  -7  135.49   11.70
   2   7  -7  129.69   11.60
   2   7  -7  129.29   12.00
  -2  -7   7  138.59   10.90
   2   7   7  132.89   10.70
  -7   2   7  140.19   11.90
   7  -2   7  123.69   11.80
  -2  -7   7  131.09   10.50
  -7   3  -7   35.20    7.30
   3   7  -7   49.80    9.80
  -3  -7  -7   45.70    8.60
   7  -3  -7   43.00    8.30
  -3  -7   7   57.59    8.20
  -3  -7   7   45.60    7.50
   7  -3   7   46.80    9.40
  -7   3   7   38.80    8.40
  -4  -7  -7  106.49   17.30
   4   7  -7  111.69   15.10
  -7   4  -7  140.79   12.50
   7  -4   7  142.29   12.80
  -7   4   7  136.59   12.60
  -4  -7   7  109.59   10.20
  -4  -7   7  128.09   11.50
   4   7   7  127.09   11.90
   8   2  -7   56.19   11.20
  -2   8  -7   66.79   11.40
   8   1  -7  135.99   13.70
  -8  -1  -7  142.59   12.00
   1  -8  -7  146.69   12.70
  -1   8  -7  146.09   14.40
  -8  -1   7  167.08   21.50
   1  -8   7  156.08   13.20
  -1   8   7  137.49   11.70
   0  -8  -7   95.29   11.50
   8   0  -7   76.49   11.00
  -8   0  -7  114.99   11.30
   0   8  -7   90.39   11.90
   8   0  -7   73.49   10.00
   8   0   7   87.79   13.30
   0   8   7   68.79   10.50
  -8   0   7  102.59   11.20
   0  -8   7  100.79   12.10
   1   8  -7  164.68   15.00
   8  -1  -7  164.58   14.10
   1   8  -7  156.18   15.30
  -8   1  -7  156.78   12.30
  -8   1   7  153.88   13.40
  -2  -8   7   72.39    9.10
   0   0  -8   87.89    4.30
   0   0  -8   85.89    5.00
   0   0   8   81.19    4.30
   0   0   8   85.89    3.80
   0  -1  -8  207.58    6.60
   1   0  -8  209.28    7.40
   0   1  -8  219.68    8.50
  -1   0  -8  209.18    8.30
  -1   0  -8  213.38    6.60
   0  -1  -8  208.28    8.50
   0   1  -8  204.28    8.10
  -1   0  -8  223.98    8.10
   1   0  -8  213.48    8.50
  -1   0   8  226.48    7.80
   1   0   8  207.08    7.80
   0   1   8  218.28    7.80
   0  -1   8  216.18    7.80
   1   0   8  205.28    7.90
   0   1   8  205.18    7.80
   0  -1   8  207.48    6.60
   0   1   8  218.08    6.60
  -1   0   8  225.08    7.80
   1   1  -8   51.89    4.00
  -1  -1  -8   53.29    3.30
   1  -1  -8   52.39    2.40
   1  -1  -8   54.69    4.30
  -1   1  -8   56.19    4.40
  -1   1  -8   48.90    3.80
   1   1  -8   56.49    4.10
  -1  -1  -8   52.59    4.00
   1  -1   8   53.79    3.60
   1   1   8   51.39    3.20
  -1  -1   8   51.89    3.10
  -1  -1   8   62.09    3.70
  -1   1   8   51.19    3.60
  -1   1   8   54.09    3.90
   1   1   8   53.49    3.80
   2   1  -8  361.76   12.60
  -2  -1  -8  363.46   11.90
  -2  -1  -8  364.76   12.80
   2   1  -8  362.66   13.00
   1  -2  -8  365.26   13.10
  -1   2  -8  352.76   12.40
  -1   2  -8  371.36   13.70
   2   1   8  374.76   12.50
  -1   2   8  370.46   13.20
  -1   2   8  372.56   12.20
   1  -2   8  371.06    9.90
   2   1   8  381.66   12.10
   1  -2   8  367.96   12.20
  -2  -1   8  379.76   11.90
  -2  -1   8  376.96   12.20
  -2   0  -8 2223.48   59.69
   0  -2  -8 2236.88   59.69
  -2   0  -8 2178.08   59.39
  -2   0  -8 2172.88   57.29
   0  -2  -8 2255.47   59.79
   0   2  -8 2169.88   60.29
   2   0  -8 2267.37   58.89
   0   2  -8 2163.58   58.69
   2   0  -8 2261.07   59.89
   0   2   8 2202.98   56.49
  -2   0   8 2217.28   58.29
   0  -2   8 2204.48   58.89
   2   0   8 2228.18   58.69
   0   2   8 2234.18   59.59
   0   2   8 2163.98   58.89
   0  -2   8 2171.38   57.39
  -2   0   8 2199.88   59.19
   0   2   8 2224.18   56.59
   2   0   8 2121.39   59.49
  -1  -2  -8  370.46   12.50
   2  -1  -8  377.56   11.40
  -2   1  -8  378.66   13.50
  -2   1  -8  389.06   13.20
   1   2  -8  365.46   12.10
   1   2  -8  374.06   13.50
  -1  -2  -8  375.66   12.80
   2  -1  -8  379.96   13.50
   1   2   8  356.86   12.30
   1   2   8  372.26   11.60
  -1  -2   8  364.86   11.70
   2  -1   8  357.36   13.50
  -2   1   8  366.86   11.70
  -1  -2   8  361.56   12.20
  -2   1   8  361.66   13.00
   2  -1   8  385.56   12.30
  -2   2  -8 3932.31  103.69
  -2  -2  -8 3958.20  103.39
   2  -2  -8 4079.39  100.79
   2   2  -8 3919.41  102.79
   2  -2  -8 3935.11  104.39
  -2  -2  -8 3904.21  103.19
  -2   2  -8 3652.63  104.69
   2   2  -8 3993.80  104.69
   2   2   8 3899.81  102.89
  -2   2   8 4000.20  102.69
   2   2   8 3910.51  103.19
  -2  -2   8 3864.11  102.49
  -2   2   8 3963.10  104.39
   2  -2   8 3829.12  102.69
  -2  -2   8 4043.20  103.09
   2  -3  -8  128.49    7.60
  -3  -2  -8  140.19    7.40
   3   2  -8  127.99    8.50
  -2   3  -8  123.89    7.10
  -3  -2  -8  131.99    7.10
   3   2  -8  137.19    7.00
  -2   3  -8  134.19    8.50
  -2   3   8  152.98    7.30
   3   2   8  169.48    8.30
   2  -3   8  148.99    5.20
   2  -3   8  154.78    7.40
  -2   3   8  147.59    8.30
   3   2   8  168.88    7.20
  -3  -2   8  154.68    6.50
  -3  -2   8  153.08    7.50
   3   1  -8   51.49    4.70
   3   1  -8   51.69    4.80
  -1   3  -8   54.09    5.40
   1  -3  -8   45.60    4.90
  -3  -1  -8   58.69    4.90
  -3  -1  -8   49.80    3.90
   1  -3  -8   58.99    5.10
  -1   3  -8   54.29    4.10
  -1   3   8   48.00    4.80
   3   1   8   50.69    4.70
   1  -3   8   52.19    3.20
  -3  -1   8   50.19    4.60
   3   1   8   52.39    3.90
  -1   3   8   51.89    4.60
  -3  -1   8   49.80    3.60
   1  -3   8   55.59    4.40
   3   0  -8   58.89    4.90
   3   0  -8   71.19    5.70
   0  -3  -8   65.39    5.10
   0   3  -8   66.19    4.10
   0  -3  -8   67.79    5.50
  -3   0  -8   73.89    5.60
   0   3  -8   64.79    5.70
  -3   0  -8   70.09    3.70
   0   3   8   68.99    5.20
   0  -3   8   75.19    4.90
   0   3   8   71.29    5.70
   3   0   8   71.09    5.60
   3   0   8   72.29    4.40
  -3   0   8   71.29    3.80
   0  -3   8   67.39    3.90
  -3   0   8   68.19    4.90
   0   3   8   70.49    2.90
  -1  -3  -8   60.69    4.60
  -3   1  -8   49.50    5.00
  -3   1  -8   48.10    5.10
   1   3  -8   53.69    3.50
  -3   1  -8   48.40    2.70
   3  -1  -8   50.39    5.10
   1   3  -8   51.89    5.20
   3  -1  -8   57.89    4.40
  -1  -3  -8   56.39    5.00
  -3   1   8   49.30    3.30
   3  -1   8   53.19    5.10
   1   3   8   47.20    4.30
  -3   1   8   50.39    5.10
   3  -1   8   52.89    4.00
   1   3   8   50.19    3.70
  -1  -3   8   49.50    4.20
  -1  -3   8   57.59    4.00
   2   3  -8  162.58    6.30
  -2  -3  -8  155.88    8.00
   2   3  -8  166.48    9.00
   3  -2  -8  151.38    6.50
  -2  -3  -8  154.78    7.10
  -3   2  -8  158.38    8.10
  -3   2  -8  156.48    8.90
   3  -2  -8  149.79    8.70
   3  -2   8  135.39    6.60
   2   3   8  133.39    7.30
  -2  -3   8  130.89    6.90
   2   3   8  129.19    7.00
  -3   2   8  131.29    6.30
   3  -2   8  129.99    8.50
  -2  -3   8  142.19    7.30
  -3   2   8  129.59    7.90
  -3  -3  -8   14.30    3.10
   3  -3  -8   10.40    4.00
   3   3  -8   10.00    3.60
   3   3  -8   11.00    4.00
  -3  -3  -8   13.40    3.90
  -3   3  -8   11.50    3.50
  -3   3  -8    8.90    3.80
   3   3   8   15.50    3.30
   3   3   8   17.20    4.00
   3  -3   8    9.90    3.90
   3  -3   8    9.40    2.90
  -3   3   8   11.20    3.00
  -3  -3   8   12.70    3.50
  -3   3   8   11.70    3.80
  -3  -3   8   14.50    3.00
  -3   4  -8    9.60    3.50
   3  -4  -8   11.50    4.30
  -4  -3  -8   15.10    4.30
  -4  -3  -8    7.20    3.20
  -3   4  -8   14.50    5.00
   4   3  -8    9.70    4.80
  -3   4   8    0.50    3.30
   4   3   8    6.10    4.10
  -4  -3   8    2.00    2.50
   3  -4   8    4.00    2.80
   4   3   8    2.30    2.80
  -4  -3   8    2.40    3.30
  -3   4   8    4.70    3.10
  -4  -2  -8 1593.54   45.50
  -2   4  -8 1592.24   45.00
   4   2  -8 1555.64   47.50
  -4  -2  -8 1613.24   45.40
  -2   4  -8 1561.04   47.80
   2  -4  -8 1600.14   46.20
   4   2  -8 1588.94   45.20
  -4  -2   8 1580.34   43.40
   4   2   8 1660.63   47.20
  -2   4   8 1659.93   46.00
   2  -4   8 1637.64   45.40
  -4  -2   8 1572.04   45.90
  -2   4   8 1565.14   47.20
   4   2   8 1645.54   44.40
   4   1  -8   70.09    6.20
  -1   4  -8   65.69    4.80
  -1   4  -8   79.49    7.00
   1  -4  -8   68.29    6.50
  -4  -1  -8   63.19    6.00
  -4  -1  -8   60.89    5.10
   4   1  -8   62.19    6.40
   1  -4  -8   63.99    5.80
  -4  -1   8   94.69    4.60
   1  -4   8   96.19    5.10
  -4  -1   8   91.89    6.50
  -1   4   8   85.49    6.50
   4   1   8   91.09    5.10
   1  -4   8   89.89    6.10
  -1   4   8  101.69    7.20
   4   1   8  105.39    7.60
   0   4  -8 1071.09   33.60
   0  -4  -8 1059.79   31.30
   0   4  -8 1080.19   29.40
  -4   0  -8 1042.60   32.10
   4   0  -8 1054.09   32.60
  -4   0  -8 1058.19   29.80
   0  -4  -8 1032.90   32.60
   4   0  -8 1084.89   32.50
   0  -4   8 1053.39   31.60
   4   0   8 1078.49   29.80
   0   4   8 1045.50   31.90
   0  -4   8 1091.19   30.30
  -4   0   8 1043.80   31.90
   4   0   8 1050.59   32.80
  -4   1  -8   79.99    6.10
  -4   1  -8   91.49    6.90
   4  -1  -8   94.99    7.50
   4  -1  -8   89.09    6.30
  -1  -4  -8   94.69    7.00
   1   4  -8   81.09    7.00
  -1  -4  -8   88.79    5.70
   4  -1   8   73.39    4.80
  -1  -4   8   64.79    5.30
   4  -1   8   67.79    6.60
  -4   1   8   61.69    5.90
   1   4   8   64.69    4.80
  -1  -4   8   67.59    6.00
   1   4   8   59.29    5.60
  -2  -4  -8 1653.23   44.60
   4  -2  -8 1627.84   45.00
   4  -2  -8 1597.94   47.60
  -4   2  -8 1612.64   46.70
  -2  -4  -8 1587.64   46.60
   2   4  -8 1574.14   47.90
   2   4   8 1573.24   45.90
  -2  -4   8 1629.84   45.50
   4  -2   8 1563.14   47.50
   2   4   8 1591.14   45.40
  -2  -4   8 1586.74   45.40
  -4   2   8 1622.04   47.20
   4  -2   8 1627.34   44.30
  -3  -4  -8    1.10    2.50
  -3  -4  -8    5.50    3.70
  -4   3  -8    4.50    3.40
  -4   3  -8    4.10    3.70
   3   4  -8    5.00    4.10
   4  -3  -8    0.80    3.40
  -3  -4   8    5.50    3.30
  -4   3   8    9.20    4.20
   3   4   8    7.90    3.60
   3   4   8   11.60    3.40
  -3  -4   8    9.20    3.30
   4  -3   8    8.10    3.00
   4  -3   8   15.30    4.60
   4  -4  -8  677.63   24.70
  -4   4  -8  690.53   25.30
  -4  -4  -8  685.43   24.00
  -4   4  -8  641.84   23.30
   4   4  -8  663.13   25.50
   4  -4   8  648.94   24.90
   4  -4   8  686.13   21.80
   4   4   8  702.13   24.50
  -4  -4   8  665.33   23.60
   4   4   8  699.63   22.90
  -4  -4   8  662.13   21.60
  -4   4   8  670.33   24.70
   4  -5  -8   34.20    6.60
   5   4  -8   34.60    7.90
  -5  -4  -8   32.80    6.00
  -4   5  -8   40.50    6.30
  -4   5  -8   34.30    6.70
   5   4   8   24.80    6.60
  -5  -4   8   30.70    6.20
   4  -5   8   36.80    5.50
   4  -5   8   26.10    6.20
  -4   5   8   37.30    7.20
   3  -5  -8   12.80    4.80
   5   3  -8   11.80    5.20
   3  -5  -8   13.00    4.50
  -5  -3  -8   17.40    4.90
  -3   5  -8   12.00    4.90
  -5  -3  -8   19.50    4.40
  -3   5  -8   17.00    4.20
  -3   5   8   14.60    4.70
   3  -5   8   16.60    4.40
  -5  -3   8   17.50    5.10
   5   3   8    7.60    4.60
  -3   5   8   20.00    4.90
   2  -5  -8   32.30    5.20
   2  -5  -8   39.10    6.60
   5   2  -8   29.90    5.90
  -2   5  -8   38.30    5.40
   5   2  -8   34.20    5.10
  -5  -2  -8   30.30    4.80
  -5  -2  -8   41.20    5.40
  -2   5  -8   31.30    6.60
  -2   5   8   34.80    6.20
  -5  -2   8   39.30    5.90
   2  -5   8   34.70    5.00
   5   2   8   45.90    6.80
  -2   5   8   29.80    5.40
  -1   5  -8   12.20    5.00
   5   1  -8   12.20    4.00
  -5  -1  -8   15.40    3.50
  -5  -1  -8    8.00    3.80
   5   1  -8   12.80    4.40
   1  -5  -8   12.30    4.60
   1  -5  -8    8.90    3.60
  -1   5   8    9.20    4.00
   1  -5   8   20.70    4.50
  -1   5   8   10.90    4.40
   5   1   8    7.30    4.20
  -5  -1   8    9.20    4.10
   1  -5   8   13.90    3.60
  -5   0  -8   14.50    4.00
   5   0  -8    7.10    4.20
   0   5  -8   11.70    4.70
   0  -5  -8   13.60    4.70
   0  -5  -8   14.70    3.70
   5   0  -8    8.50    4.20
  -5   0  -8    7.20    2.70
  -5   0   8    9.70    3.70
   0   5   8    5.40    3.70
   0  -5   8   13.50    3.30
   0  -5   8    7.50    3.40
   5   0   8    7.10    4.10
   1   5  -8   17.80    5.40
   5  -1  -8   20.30    5.30
  -1  -5  -8   11.50    4.40
  -1  -5  -8   14.90    3.70
  -5   1  -8   12.50    4.10
   5  -1  -8   13.10    4.30
   5  -1   8    8.60    4.30
  -1  -5   8   14.40    3.60
  -1  -5   8   14.20    3.80
   1   5   8   13.30    4.40
  -5   1   8   14.80    4.60
   2   5  -8   31.90    6.20
   5  -2  -8   37.00    5.50
  -5   2  -8   32.10    5.40
   5  -2  -8   32.60    5.80
  -2  -5  -8   37.00    6.10
  -2  -5   8   35.30    5.20
   5  -2   8   33.10    6.00
  -5   2   8   31.90    5.70
  -2  -5   8   36.60    5.10
   2   5   8   27.70    5.00
   5  -3  -8   12.30    5.50
  -5   3  -8   14.10    4.70
   3   5  -8   15.10    6.00
  -3  -5  -8   13.10    5.10
   5  -3   8   11.00    5.00
  -3  -5   8   11.40    4.10
  -3  -5   8   15.10    4.00
  -5   3   8   15.50    4.80
   3   5   8   14.70    4.30
  -5   4  -8   25.90    5.70
   4   5  -8   21.50    6.40
  -4  -5  -8   29.70    6.30
   5  -4  -8   29.00    6.20
  -5   4   8   36.90    6.50
   4   5   8   49.50    6.80
   5  -4   8   28.40    6.90
  -4  -5   8   36.90    6.50
  -4  -5   8   36.70    5.30
   4   5   8   31.00    6.00
   5   5  -8    7.50    5.90
  -5   5  -8    5.10    6.00
  -5   5  -8    9.30    4.80
   5  -5  -8    7.60    5.20
  -5  -5  -8    9.40    5.40
   5   5   8   13.20    6.30
  -5  -5   8   13.90    5.80
   5  -5   8    4.90    5.80
  -5   5   8    8.40    5.40
   6   5  -8   49.20    9.40
   5  -6  -8   53.59    8.90
   5  -6  -8   58.69    9.20
  -6  -5  -8   59.89    8.70
  -5   6  -8   55.89    8.90
   5  -6   8   50.39    8.90
  -6  -5   8   47.40    7.90
  -5   6   8   54.29    9.10
   6   5   8   49.10    9.10
  -4   6  -8  301.17   16.60
   6   4  -8  286.87   17.20
   4  -6  -8  299.27   16.70
  -6  -4  -8  310.27   15.80
   4  -6  -8  295.17   15.70
  -4   6   8  302.97   16.80
   4  -6   8  311.27   16.90
  -6  -4   8  332.47   16.50
   4  -6   8  315.97   14.40
   6   4   8  298.27   17.40
   3  -6  -8   48.60    7.10
   3  -6  -8   60.89    8.60
  -3   6  -8   54.89    8.40
  -6  -3  -8   47.50    7.80
  -6  -3  -8   53.49    7.30
   6   3  -8   49.40    8.20
  -6  -3   8   33.20    6.70
   6   3   8   46.70    8.70
  -3   6   8   38.50    7.50
  -3   6   8   35.70    6.70
   3  -6   8   43.00    6.60
   6   2  -8  623.64   25.20
  -6  -2  -8  614.34   22.50
  -6  -2  -8  621.14   22.50
   2  -6  -8  634.04   22.70
   2  -6  -8  605.84   24.50
  -2   6  -8  635.64   25.30
  -2   6   8  665.03   24.00
   2  -6   8  661.03   23.00
  -6  -2   8  630.84   23.60
  -2   6   8  622.24   24.70
   6   2   8  664.93   25.40
   1  -6  -8  143.19   10.60
   6   1  -8  133.49    9.90
  -1   6  -8  131.59   10.90
  -6  -1  -8  125.69    9.00
   6   1  -8  145.19   11.00
  -6  -1   8  133.99    9.40
   6   1   8  136.49   11.50
   1  -6   8  141.89    9.30
  -1   6   8  140.99    9.90
  -6   0  -8  495.25   19.90
   6   0  -8  514.55   20.60
   0  -6  -8  515.45   20.70
   6   0  -8  511.75   20.80
   0   6  -8  524.45   21.80
   0  -6   8  509.95   18.40
   0   6   8  518.35   20.10
  -6   0   8  507.15   20.10
   0  -6   8  492.65   19.30
   6   0   8  496.85   21.20
   1   6  -8  144.19   11.20
   6  -1  -8  125.99   10.10
  -1  -6  -8  159.28   11.10
   6  -1  -8  124.99    9.90
  -6   1  -8  141.29   10.50
  -1  -6   8  127.79    9.60
  -1  -6   8  143.89    8.90
   1   6   8  129.09    9.60
  -6   1   8  145.59   10.50
   6  -1   8  141.69   11.50
  -6   2  -8  645.64   24.50
   6  -2  -8  622.34   25.10
  -2  -6  -8  653.53   24.80
   2   6  -8  613.14   25.50
   6  -2   8  658.63   25.50
  -2  -6   8  633.14   22.70
  -6   2   8  656.63   24.90
  -2  -6   8  644.54   22.90
   2   6   8  642.04   23.90
   6  -3  -8   49.20    8.10
   3   6  -8   37.10    7.90
  -3  -6  -8   33.70    6.70
  -6   3  -8   39.70    7.10
  -3  -6   8   59.09    7.60
   3   6   8   63.39    8.10
  -3  -6   8   54.39    7.10
   6  -3   8   58.29    9.00
  -4  -6  -8  316.87   16.80
   4   6  -8  313.47   17.80
   6  -4  -8  313.27   17.00
  -6   4  -8  327.77   16.90
   4   6   8  310.07   15.70
  -6   4   8  299.97   16.70
  -4  -6   8  299.47   14.10
  -4  -6   8  289.27   15.40
   6  -4   8  321.57   17.70
   6  -5  -8   60.39    9.80
   5   6  -8   40.80    9.10
  -5  -6  -8   54.39    8.50
  -6   5  -8   54.59    8.10
   6  -5   8   59.79    9.50
  -6   5   8   56.69    9.50
  -5  -6   8   49.30    8.00
   4  -7  -8    2.00    9.40
  -7  -4  -8    6.40    6.10
  -4   7  -8    2.60    5.80
   4  -7   8    8.40    5.60
   7   4   8    4.70    6.60
   4  -7   8   10.30    6.20
  -7  -3  -8    2.00    4.90
  -3   7  -8    2.70    5.60
   3  -7  -8    6.40    6.20
   7   3  -8    6.40    6.80
   7   3   8    4.30    7.00
   3  -7   8    4.70    5.30
  -3   7   8    5.10    5.90
  -3   7   8    6.60    5.80
  -7  -3   8    8.80    5.80
  -2   7  -8   14.60    7.20
  -7  -2  -8   13.90    5.40
   2  -7  -8   15.30    6.90
   7   2  -8   19.70    6.60
   2  -7   8   20.00    5.80
  -7  -2   8   21.20    6.00
  -2   7   8   19.10    6.50
   7   2   8   17.60    7.10
   1  -7  -8    4.70    5.20
   7   1  -8    9.50    5.60
  -1   7  -8    8.80    6.80
   7   1  -8    6.60    6.00
  -7  -1  -8   10.60    5.40
   1  -7   8   10.60    5.00
   7   1   8   15.70    7.20
  -7  -1   8    8.00    5.30
  -1   7   8    1.60    5.50
   7   0  -8   10.30    5.90
   0  -7  -8    9.60    6.00
  -7   0  -8   15.40    5.70
   7   0  -8    7.10    5.90
   0   7  -8    7.00    5.90
   0  -7   8    7.40    5.40
  -7   0   8    6.90    4.80
   0   7   8    6.10    4.90
   7   0   8    7.30    6.30
  -1  -7  -8    8.40    6.20
   7  -1  -8    6.20    5.90
   7  -1  -8   14.40    6.50
  -7   1  -8   16.40    6.10
   1   7  -8    8.80    6.80
  -1  -7   8    3.40    4.70
   1   7   8    6.60    5.00
  -7   1   8    9.40    5.30
   7  -1   8   12.20    6.80
   2   7  -8   28.90    8.30
  -2  -7  -8   26.80    7.30
  -7   2  -8   15.10    6.50
   7  -2  -8   15.80    6.30
  -2  -7   8   20.60    6.00
  -2  -7   8   20.60    5.80
   7  -2   8   18.00    7.40
  -7   2   8   23.90    7.10
   2   7   8    8.20    5.40
   3   7  -8    2.90    6.20
   7  -3  -8    4.50    5.60
  -7   3  -8   13.70    6.60
  -3  -7  -8    0.50    5.90
   7  -3   8    3.80    6.10
  -3  -7   8    4.40    5.30
  -3  -7   8   -3.40    5.00
  -7   3   8    4.70    6.00
   3   7   8    0.40    5.00
   4   7   8    9.50    6.30
   7  -4   8    7.00   11.30
  -4  -7   8   11.30    6.30
  -4  -7   8    1.30    6.90
  -8  -1  -8   67.19    9.20
   8   1  -8   51.59    9.30
  -1   8  -8   49.80    9.80
   8   0  -8  193.68   15.20
   8   0  -8  183.38   14.40
   0   8  -8  204.38   15.70
  -8   0  -8  209.08   14.30
   1   8  -8   48.50    9.90
   8  -1  -8   52.39    9.20
   0   0  -9   -0.10    1.50
   0   0  -9    0.70    1.40
   0   0   9    0.40    1.10
   0   0   9    0.20    1.40
   0   1  -9 1393.06   38.70
   1   0  -9 1360.66   37.60
   0  -1  -9 1387.16   39.00
   0  -1  -9 1407.16   36.70
   1   0  -9 1412.46   39.10
  -1   0  -9 1432.26   39.10
   0   1  -9 1429.06   38.90
  -1   0  -9 1359.26   38.30
  -1   0  -9 1425.16   36.60
  -1   0   9 1389.96   38.00
   0  -1   9 1379.06   38.10
   0  -1   9 1382.66   36.60
   0   1   9 1391.06   36.70
   0   1   9 1353.56   38.00
   0   1   9 1377.16   38.20
   1   0   9 1420.56   38.20
   1   0   9 1347.17   38.20
  -1   0   9 1373.36   37.90
  -1  -1  -9  259.37    8.70
  -1   1  -9  247.28    9.60
  -1  -1  -9  260.67   10.00
   1   1  -9  243.78    9.60
   1   1  -9  252.27    9.60
   1  -1  -9  246.88    7.60
  -1   1  -9  245.38    9.90
  -1   1   9  261.57    9.10
   1  -1   9  261.17    9.30
  -1  -1   9  247.58    8.50
  -1   1   9  251.27    9.50
   1   1   9  247.28    9.20
  -1  -1   9  250.97    9.00
   1   1   9  248.78    8.60
  -2  -1  -9 2166.28   58.19
   1  -2  -9 2174.58   58.49
  -1   2  -9 2076.69   57.49
  -1   2  -9 2157.78   59.09
   2   1  -9 2176.68   58.19
  -2  -1  -9 2201.58   56.89
   2   1  -9 2129.89   57.89
  -1   2   9 2093.79   57.19
  -2  -1   9 2081.79   56.79
   2   1   9 2115.19   57.49
   1  -2   9 2135.49   57.39
  -1   2   9 2084.09   58.29
   2   1   9 2155.78   57.19
  -2  -1   9 2069.79   57.09
   0  -2  -9   25.70    3.40
   0   2  -9   27.60    3.20
  -2   0  -9   31.10    3.70
  -2   0  -9   31.00    3.80
   2   0  -9   27.70    3.10
  -2   0  -9   32.20    2.10
   2   0  -9   26.70    3.70
   0   2  -9   23.90    3.70
   0  -2  -9   27.00    3.70
  -2   0   9   32.70    3.40
  -2   0   9   31.10    3.10
   0  -2   9   26.40    2.10
   0  -2   9   26.30    3.10
   0   2   9   26.00    1.50
   0   2   9   29.70    3.40
   2   0   9   26.30    3.40
   0   2   9   26.20    1.40
   0   2   9   28.80    3.50
   2   0   9   28.50    3.10
  -2   1  -9 2112.59   58.39
  -2   1  -9 2100.69   57.89
   1   2  -9 2112.29   56.99
   2  -1  -9 2147.39   55.69
   2  -1  -9 2118.39   58.39
   1   2  -9 2161.38   58.49
  -1  -2  -9 2063.59   57.19
  -1  -2  -9 2038.80   57.59
   1   2   9 2103.89   57.09
   2  -1   9 2119.39   56.99
  -2   1   9 2175.08   58.09
   2  -1   9 2109.59   58.49
   1   2   9 2189.98   56.09
  -2   1   9 2126.39   56.49
  -1  -2   9 2076.09   56.79
  -1  -2   9 2129.79   56.19
  -2  -2  -9   80.19    5.20
  -2   2  -9   75.49    5.30
   2  -2  -9   83.79    6.00
   2   2  -9   83.49    5.20
  -2   2  -9   81.99    6.30
   2   2  -9   88.09    6.40
  -2  -2  -9   79.29    5.50
   2  -2  -9   74.59    2.80
   2   2   9   70.39    4.90
  -2  -2   9   81.39    4.90
  -2   2   9   76.49    4.90
  -2   2   9   78.19    5.70
   2  -2   9   74.19    4.80
  -2  -2   9   88.89    5.10
   2   2   9   86.69    5.40
  -3  -2  -9 1716.23   48.70
   3   2  -9 1719.93   50.39
  -2   3  -9 1686.33   50.79
  -2   3  -9 1718.53   48.70
   2  -3  -9 1703.23   49.70
   3   2  -9 1718.53   48.40
  -3  -2  -9 1748.23   48.90
   3   2   9 1794.52   49.50
  -2   3   9 1774.12   48.50
  -3  -2   9 1774.52   47.50
  -2   3   9 1754.42   50.29
  -3  -2   9 1784.72   48.90
   3   2   9 1818.02   48.20
   2  -3   9 1757.02   48.40
   3   1  -9  136.99    7.60
   1  -3  -9  134.09    7.30
  -3  -1  -9  128.59    6.20
  -1   3  -9  133.19    6.60
   1  -3  -9  128.89    7.70
  -1   3  -9  134.69    8.30
   3   1  -9  127.79    7.20
  -3  -1  -9  136.39    7.30
  -3  -1   9  139.39    6.20
   3   1   9  148.49    6.60
  -1   3   9  139.09    7.00
   1  -3   9  139.79    7.00
  -1   3   9  131.19    7.60
   1  -3   9  132.39    4.90
  -3  -1   9  141.19    7.20
   3   1   9  137.19    7.40
   0  -3  -9 1471.75   42.30
   0  -3  -9 1460.85   41.90
   3   0  -9 1506.55   42.60
   3   0  -9 1507.95   41.70
  -3   0  -9 1465.35   39.40
   0   3  -9 1510.85   40.50
  -3   0  -9 1434.76   42.10
   0   3  -9 1464.25   43.20
  -3   0   9 1448.36   41.70
   0  -3   9 1494.85   41.40
   3   0   9 1466.75   40.60
   0   3   9 1476.05   41.60
   0  -3   9 1461.75   39.60
   0   3   9 1543.95   42.70
   3   0   9 1458.65   42.40
  -3   0   9 1448.96   39.90
   3  -1  -9  139.59    6.60
  -3   1  -9  159.48    8.50
  -3   1  -9  146.79    7.80
   1   3  -9  148.49    8.60
  -1  -3  -9  138.09    7.20
  -1  -3  -9  148.29    7.50
   1   3  -9  140.99    6.20
   3  -1  -9  150.08    8.50
   1   3   9  128.39    7.00
   3  -1   9  145.29    6.80
  -1  -3   9  137.79    6.50
   1   3   9  131.49    5.90
  -1  -3   9  137.99    7.10
  -3   1   9  138.99    6.10
  -3   1   9  139.09    7.90
   3  -1   9  132.19    7.90
  -3   2  -9 1740.43   50.09
  -2  -3  -9 1734.63   48.70
  -3   2  -9 1729.03   49.00
   3  -2  -9 1745.63   49.80
   2   3  -9 1782.82   50.29
   3  -2  -9 1729.93   46.50
  -2  -3  -9 1795.72   48.10
   2   3  -9 1735.83   46.80
  -3   2   9 1703.93   49.60
  -2  -3   9 1723.63   47.80
  -3   2   9 1763.82   47.10
  -2  -3   9 1708.73   47.70
   2   3   9 1670.03   48.10
   2   3   9 1701.03   48.00
   3  -2   9 1736.43   50.19
   3  -2   9 1645.74   47.30
  -3   3  -9   99.39    7.20
  -3  -3  -9  105.69    6.50
   3   3  -9   93.99    7.80
   3  -3  -9  104.09    7.70
  -3  -3  -9   98.49    7.30
  -3   3  -9  107.29    8.20
   3   3   9  108.09    7.60
  -3   3   9   87.59    7.30
  -3  -3   9   99.99    6.60
   3  -3   9   96.89    6.00
   3   3   9  105.89    6.80
  -3   3   9   99.79    6.20
  -3  -3   9  103.69    6.10
   3  -3   9  105.19    8.10
   4   3  -9  604.64   23.20
  -4  -3  -9  602.14   20.40
  -3   4  -9  606.04   23.10
   3  -4  -9  625.34   22.20
  -3   4  -9  630.04   21.20
  -4  -3  -9  629.84   21.40
   4   3   9  632.04   20.30
   4   3   9  620.44   22.40
  -3   4   9  600.94   20.70
   3  -4   9  615.14   20.40
  -4  -3   9  616.64   21.50
  -4  -3   9  592.24   19.20
  -3   4   9  603.04   22.60
  -2   4  -9   29.10    4.30
  -4  -2  -9   24.40    4.30
  -2   4  -9   23.00    5.10
   4   2  -9   21.50    4.00
  -4  -2  -9   26.00    4.20
   4   2  -9   19.30    4.70
   2  -4  -9   31.20    5.10
   4   2   9   27.80    5.20
  -2   4   9   25.10    4.20
   4   2   9   34.60    4.10
  -4  -2   9   27.20    3.40
   2  -4   9   33.40    4.50
  -2   4   9   36.90    5.80
  -4  -2   9   36.10    5.10
  -4  -1  -9  676.33   21.30
  -1   4  -9  724.83   21.40
   4   1  -9  700.53   23.80
  -4  -1  -9  648.84   22.50
  -1   4  -9  687.63   24.50
   1  -4  -9  691.43   24.00
   1  -4  -9  679.13   22.70
   4   1  -9  681.13   22.80
   4   1   9  735.53   21.10
  -1   4   9  722.53   22.90
  -4  -1   9  699.13   22.80
   1  -4   9  679.13   20.40
  -1   4   9  692.83   23.90
  -4  -1   9  710.63   20.40
   4   1   9  702.43   23.60
   1  -4   9  701.83   22.50
  -4   0  -9   17.50    2.70
   0   4  -9   16.80    4.60
   0  -4  -9   20.30    3.90
   0   4  -9   19.30    2.80
   4   0  -9   20.20    4.10
  -4   0  -9   22.00    4.10
   4   0  -9   20.80    4.50
   0  -4  -9   17.80    4.20
   0   4   9   14.40    3.90
   4   0   9   19.00    4.70
  -4   0   9   19.90    4.10
   0  -4   9   19.30    3.00
   0  -4   9   17.70    3.70
   0   4   9   15.00    3.60
   4   0   9   15.20    2.90
  -4   1  -9  696.03   23.30
   4  -1  -9  712.53   22.40
   4  -1  -9  709.03   24.10
  -1  -4  -9  686.73   23.20
  -1  -4  -9  716.93   22.10
   1   4  -9  712.23   24.60
  -4   1   9  677.63   23.20
   4  -1   9  727.63   21.20
   4  -1   9  650.53   23.70
  -1  -4   9  679.23   21.40
  -1  -4   9  688.13   22.30
   4  -2  -9   37.80    5.70
   2   4  -9   26.60    5.40
   4  -2  -9   31.20    4.30
  -4   2  -9   27.10    5.00
  -2  -4  -9   34.20    5.30
  -2  -4  -9   36.10    4.30
  -4   2  -9   34.30    5.70
   4  -2   9   29.90    4.00
   2   4   9   22.10    3.80
   2   4   9   24.90    4.20
  -2  -4   9   24.40    4.10
  -4   2   9   19.10    4.50
  -2  -4   9   23.10    4.20
   4  -2   9   23.90    5.30
  -4   3  -9  600.64   22.70
   3   4  -9  614.84   23.70
   4  -3  -9  596.84   22.60
  -3  -4  -9  623.54   20.00
  -4   3  -9  600.24   21.90
  -3  -4  -9  626.14   22.30
   3   4   9  642.34   21.80
   4  -3   9  627.84   19.90
  -3  -4   9  606.24   21.20
  -3  -4   9  626.04   20.40
   3   4   9  613.44   21.10
   4  -3   9  603.54   23.00
  -4   3   9  632.94   22.60
   4  -4  -9    3.70    4.10
  -4  -4  -9   -0.90    3.30
   4   4  -9    8.20    5.40
  -4   4  -9    2.10    4.00
  -4   4  -9    2.20    4.70
   4  -4   9   -2.00    3.00
   4   4   9   -1.30    4.00
  -4   4   9    2.00    3.90
   4  -4   9    6.70    5.00
  -4  -4   9    1.50    3.70
  -4  -4   9    1.90    3.10
   4   4   9    1.60    3.50
   5   4  -9  302.37   16.50
  -4   5  -9  304.47   14.10
  -4   5  -9  283.27   15.90
   4  -5  -9  284.57   14.70
  -5  -4  -9  299.27   14.50
   4  -5   9  286.67   15.80
   4  -5   9  296.67   13.10
  -5  -4   9  257.47   14.20
   5   4   9  286.67   15.60
  -4   5   9  308.37   15.80
   3  -5  -9   60.19    7.70
  -3   5  -9   48.50    6.10
  -3   5  -9   66.39    8.40
  -5  -3  -9   64.49    7.10
  -5  -3  -9   52.79    6.10
   3  -5  -9   52.49    6.90
   5   3  -9   49.80    7.70
  -3   5   9   67.39    7.30
   5   3   9   60.69    7.80
  -5  -3   9   50.39    6.50
  -3   5   9   57.69    7.50
   3  -5   9   63.69    6.70
   5   2  -9  576.74   22.50
   2  -5  -9  574.84   21.10
  -5  -2  -9  575.14   20.50
   2  -5  -9  578.94   22.40
  -2   5  -9  571.04   22.90
   5   2  -9  583.54   20.50
  -5  -2  -9  577.34   20.40
   2  -5   9  619.44   20.90
  -2   5   9  608.94   21.50
  -5  -2   9  576.34   21.10
   5   2   9  621.44   22.90
  -2   5   9  562.04   22.10
  -5  -1  -9   37.50    4.80
  -1   5  -9   36.30    6.30
   1  -5  -9   36.10    5.00
   5   1  -9   29.00    5.30
   5   1  -9   42.20    5.90
   1  -5  -9   31.20    5.60
  -5  -1  -9   31.20    5.00
  -1   5   9   34.00    5.70
   1  -5   9   31.20    5.00
   5   1   9   33.00    6.10
  -5  -1   9   44.20    5.90
  -1   5   9   39.10    5.60
   5   0  -9  530.35   20.60
   0   5  -9  536.35   21.60
   5   0  -9  586.24   20.80
   0  -5  -9  542.45   20.90
  -5   0  -9  559.94   20.30
   0  -5  -9  551.14   19.00
  -5   0   9  556.64   20.20
   5   0   9  521.05   20.80
   0   5   9  531.45   20.00
   0  -5   9  553.44   19.60
   0  -5   9  561.84   18.10
  -5   1  -9   40.60    6.10
   5  -1  -9   42.30    6.00
  -1  -5  -9   35.60    4.60
   1   5  -9   28.00    6.20
  -1  -5  -9   38.70    6.10
   5  -1  -9   35.40    6.40
  -5   1   9   36.80    5.80
  -1  -5   9   41.60    5.00
  -1  -5   9   35.60    5.20
   1   5   9   28.00    5.00
   5  -1   9   35.80    6.40
  -2  -5  -9  582.64   22.30
   5  -2  -9  605.64   23.20
  -5   2  -9  601.34   22.30
   2   5  -9  610.04   23.90
  -2  -5   9  593.74   20.60
   2   5   9  598.44   21.70
  -2  -5   9  600.24   20.80
   5  -2   9  637.74   23.80
  -5   2   9  579.44   22.30
  -5   3  -9   64.59    7.80
  -3  -5  -9   60.69    7.60
   5  -3  -9   65.89    8.20
   3   5  -9   79.59    8.90
   5  -3   9   62.69    8.60
   3   5   9   61.69    7.30
  -3  -5   9   59.99    7.00
  -3  -5   9   63.39    6.50
  -5   4  -9  287.97   15.00
   5  -4  -9  295.97   16.10
   4   5  -9  302.57   16.70
  -5   4  -9  325.77   16.60
  -4  -5  -9  276.57   14.70
  -5   4   9  302.27   15.80
  -4  -5   9  301.17   13.20
   4   5   9  313.67   14.70
  -4  -5   9  314.47   14.80
   5  -4   9  310.67   16.50
  -5   5  -9   49.00    8.80
   5   5  -9   55.59    9.90
   5  -5  -9   38.40    8.00
  -5   5  -9   30.90    6.60
  -5  -5  -9   40.10    7.10
  -5  -5   9   43.40    7.10
  -5   5   9   46.20    8.20
   5  -5   9   52.19    9.10
   5   5   9   39.00    7.70
  -5   6  -9  160.08   13.70
  -6  -5  -9  169.78   12.90
   5  -6  -9  157.58   13.30
   6   5  -9  136.99   16.30
   5  -6  -9  155.38   13.60
   6   5   9  160.18   13.80
   5  -6   9  165.98   13.30
  -5   6   9  171.58   13.80
  -6  -5   9  188.58   13.30
   4  -6  -9   35.90    7.70
   4  -6  -9   38.80    7.50
  -4   6  -9   41.10    8.40
  -6  -4  -9   42.10    7.40
   6   4  -9   30.30    7.80
   4  -6   9   28.10    7.70
  -6  -4   9   12.10    5.90
   6   4   9   22.00    7.80
   4  -6   9   30.30    6.10
  -4   6   9   26.80    7.00
   3  -6  -9  359.56   16.50
  -6  -3  -9  357.66   16.20
  -3   6  -9  324.17   17.50
   3  -6  -9  339.97   17.40
  -6  -3  -9  348.17   15.30
   6   3  -9  374.46   18.80
  -3   6   9  324.37   17.00
   6   3   9  345.37   18.30
   3  -6   9  365.96   15.80
  -3   6   9  341.87   16.30
  -6  -3   9  335.67   16.60
  -2   6  -9   79.69   10.10
   6   2  -9   83.59    9.10
  -6  -2  -9   78.29    7.50
  -6  -2  -9   80.29    7.80
   2  -6  -9   68.59    8.50
   2  -6  -9   72.89    7.80
  -6  -2   9   76.69    8.00
   6   2   9   79.29    9.50
  -2   6   9   77.99    8.70
  -2   6   9   70.39    8.10
   2  -6   9   82.89    7.70
  -1   6  -9  501.05   22.10
   1  -6  -9  479.95   20.70
   6   1  -9  504.45   20.10
  -6  -1  -9  491.05   19.50
   6   1  -9  468.25   20.60
   6   1   9  506.95   21.70
  -6  -1   9  490.55   19.80
   1  -6   9  498.25   19.30
  -1   6   9  525.85   20.40
   0  -6  -9   40.60    6.70
  -6   0  -9   39.10    6.60
   6   0  -9   51.09    7.50
   0   6  -9   49.90    8.10
   6   0  -9   48.10    7.30
  -6   0   9   48.60    7.00
   0  -6   9   55.59    7.20
   0   6   9   53.69    7.50
   6  -1  -9  499.35   19.80
   1   6  -9  531.65   22.50
   6  -1  -9  462.85   20.70
  -6   1  -9  514.75   20.50
  -1  -6  -9  503.45   20.70
   6  -1   9  484.25   21.10
  -1  -6   9  504.15   18.40
  -6   1   9  459.25   20.00
  -1  -6   9  494.55   19.20
   1   6   9  469.35   19.60
   2   6  -9   67.39    9.30
   6  -2  -9   71.29    9.20
  -2  -6  -9   84.39    9.40
  -6   2  -9   77.59    8.80
  -6   2   9   92.49    9.60
  -2  -6   9   77.69    7.70
  -2  -6   9   83.39    7.80
   6  -2   9   86.29   10.20
   2   6   9   88.89    8.50
   6  -3  -9  335.47   17.80
   3   6  -9  310.47   17.90
  -6   3  -9  346.87   17.20
  -3  -6  -9  348.37   17.60
   3   6   9  352.36   16.50
  -3  -6   9  345.37   15.90
   6  -3   9  347.87   17.80
  -3  -6   9  337.37   15.00
  -6   3   9  363.56   17.70
   4   6  -9   15.50    7.50
  -6   4  -9   22.70    6.70
   6  -4  -9   30.70    7.80
  -4  -6  -9   38.40    7.90
  -6   4   9   42.30    7.60
  -4  -6   9   29.90    5.90
   6  -4   9   42.10    8.90
   4   6   9   28.50    6.50
  -4  -6   9   38.10    7.00
   6  -5  -9  171.78   14.20
  -6   5  -9  182.78   13.40
  -5  -6  -9  183.88   12.90
  -6   5   9  161.18   13.70
   6  -5   9  163.18   14.10
  -5  -6   9  169.18   12.70
  -7  -4  -9   81.19   10.20
   4  -7   9  102.69   10.30
   7   4   9  112.99   13.80
   4  -7   9   81.89   17.40
   3  -7  -9   58.09    9.50
  -3   7  -9   57.49    9.50
   7   3  -9   52.29   10.00
   7   3   9   71.09   11.30
   3  -7   9   67.59    8.60
  -3   7   9   54.49    8.60
  -3   7   9   79.59   10.70
  -7  -3   9   46.20    7.90
  -2   7  -9  144.39   12.80
   2  -7  -9  152.78   13.30
   7   2  -9  158.08   12.80
  -7  -2  -9  131.09   10.60
   2  -7   9  179.68   12.10
   7   2   9  184.48   14.80
  -2   7   9  164.48   12.70
  -7  -2   9  157.18   12.30
   1  -7  -9   75.59    9.60
   7   1  -9   60.49    9.10
   7   1  -9   53.19    8.00
  -1   7  -9   73.19   10.80
  -7  -1  -9   67.69    8.40
   7   1   9   66.69    9.90
  -1   7   9   64.89    8.60
   1  -7   9   63.09    8.20
  -7  -1   9   64.89    8.50
   0  -7  -9  176.58   13.10
  -7   0  -9  173.98   12.20
   0   7  -9  176.18   14.30
   7   0  -9  169.38   12.60
   7   0  -9  151.98   12.30
   0   7   9  155.18   11.70
  -7   0   9  156.08   12.00
   7   0   9  173.18   14.00
   0  -7   9  163.38   11.30
   1   7  -9   82.99   11.30
  -7   1  -9   58.89    8.40
   7  -1  -9   66.69    9.70
  -1  -7  -9   73.89   10.00
  -7   1   9   77.29    9.30
   1   7   9   70.19    8.80
   7  -1   9   58.59    9.60
  -1  -7   9   71.59    8.90
   2   7  -9  170.78   14.70
  -7   2  -9  154.48   11.90
   7  -2  -9  175.78   13.80
  -2  -7  -9  160.38   13.00
   2   7   9  157.88   12.60
  -2  -7   9  156.88   11.00
   7  -2   9  150.58   13.10
  -7   2   9  149.29   12.70
  -2  -7   9  145.79   11.40
   7  -3  -9   57.49    9.70
   3   7  -9   78.69   11.90
  -3  -7  -9   54.49    9.60
  -7   3  -9   60.09    9.40
  -3  -7   9   68.69    8.60
   3   7   9   60.29    9.10
   7  -3   9   63.29   10.60
  -3  -7   9   60.69    8.20
  -7   3   9   48.40    8.40
   4   7   9   95.39   10.90
  -4  -7   9   86.99   10.10
   8   1  -9  124.69   12.90
  -8  -1  -9  117.49   11.40
   8   0  -9   20.40    7.60
   0   0 -10   -1.20    1.80
   0   0 -10   -0.60    1.50
   0   0  10    3.20    1.50
   0   0  10   -0.40    1.80
   0   1 -10   99.39    5.70
   0  -1 -10  102.69    6.10
  -1   0 -10  104.49    4.10
   1   0 -10  101.09    6.30
   1   0 -10   99.99    5.00
   0   1 -10  111.59    5.90
   0  -1 -10  106.79    4.30
  -1   0 -10  101.49    5.50
  -1   0 -10  110.29    6.30
  -1   0  10  106.99    5.40
   0  -1  10  103.79    4.20
   0   1  10   99.89    5.20
   1   0  10   92.19    5.30
   0   1  10  108.99    5.50
  -1   0  10  100.99    5.20
   1   0  10  108.99    5.50
   0   1  10  102.89    4.20
   0  -1  10  108.29    5.60
  -1   1 -10 1623.44   45.40
   1  -1 -10 1625.84   42.50
  -1  -1 -10 1638.64   43.70
  -1  -1 -10 1605.54   45.20
   1   1 -10 1616.94   45.00
   1   1 -10 1598.14   44.70
  -1   1 -10 1629.54   45.10
   1  -1  10 1615.14   44.40
  -1  -1  10 1599.54   43.40
   1   1  10 1626.44   44.40
   1   1  10 1615.04   43.50
  -1  -1  10 1581.24   44.10
  -1   1  10 1603.64   44.60
  -1   1  10 1630.84   44.20
   2   1 -10   35.10    4.10
  -2  -1 -10   33.80    4.40
  -2  -1 -10   34.20    3.20
   2   1 -10   29.40    4.00
   1  -2 -10   36.90    4.60
  -1   2 -10   32.30    3.90
  -1   2 -10   30.80    4.50
  -2  -1  10   33.90    3.60
  -1   2  10   28.70    3.50
   2   1  10   32.90    3.80
  -1   2  10   32.20    4.30
   1  -2  10   33.90    3.90
   2   1  10   33.60    3.70
  -2  -1  10   30.90    3.40
  -2   0 -10   16.60    1.70
   2   0 -10   17.80    3.50
  -2   0 -10   12.70    3.00
   0   2 -10   10.20    3.00
   0  -2 -10   15.30    3.30
   2   0 -10    8.90    2.40
   0   2 -10   15.50    2.90
   0  -2 -10   10.10    2.80
   0   2  10   13.80    2.90
   0   2  10   11.60    2.60
  -2   0  10   14.60    2.40
   0   2  10   13.20    1.30
  -2   0  10   13.80    2.90
   0  -2  10   13.70    1.70
   0  -2  10   11.90    2.60
   2   0  10   16.20    2.80
  -1  -2 -10   35.80    4.50
   1   2 -10   34.10    4.30
  -2   1 -10   35.30    4.60
  -2   1 -10   35.20    4.20
  -1  -2 -10   33.20    3.80
   1   2 -10   34.80    3.70
   2  -1 -10   31.70    4.60
   2  -1 -10   27.20    2.70
  -1  -2  10   35.00    3.10
   1   2  10   29.60    3.60
  -2   1  10   29.40    3.90
   1   2  10   33.70    3.10
  -1  -2  10   37.90    4.00
   2  -1  10   38.60    4.00
   2  -1  10   35.40    4.70
  -2   1  10   43.80    3.70
  -2  -2 -10    4.50    2.80
  -2   2 -10    5.20    2.80
   2  -2 -10    3.90    3.10
   2   2 -10    5.50    2.60
  -2  -2 -10    3.80    2.30
   2   2 -10    4.10    3.10
  -2   2 -10    5.70    3.40
   2   2  10    1.70    2.20
   2   2  10    0.90    2.10
   2  -2  10    6.50    2.70
  -2  -2  10    3.30    2.20
  -2   2  10    4.90    2.40
  -2   2  10    6.30    2.80
  -2  -2  10    9.10    2.50
  -3  -2 -10   28.50    4.20
  -2   3 -10   26.40    5.10
  -3  -2 -10   32.20    4.20
   3   2 -10   31.20    5.30
   2  -3 -10   32.30    5.20
   3   2 -10   27.30    4.10
  -2   3 -10   28.40    4.20
  -2   3  10   39.40    5.40
  -3  -2  10   47.10    4.20
  -2   3  10   48.60    4.90
  -3  -2  10   44.50    4.50
   2  -3  10   45.40    4.50
   3   2  10   49.70    5.30
   3   2  10   53.19    4.80
   3   1 -10 1733.83   49.50
  -1   3 -10 1673.13   50.39
  -3  -1 -10 1665.73   47.20
   1  -3 -10 1687.13   49.30
   3   1 -10 1710.43   49.20
  -3  -1 -10 1708.03   49.10
   1  -3 -10 1676.93   49.90
  -1   3 -10 1643.94   48.00
  -3  -1  10 1809.82   47.40
  -1   3  10 1866.21   48.80
   3   1  10 1823.62   49.30
   3   1  10 1797.52   47.90
  -3  -1  10 1777.82   48.60
   1  -3  10 1789.32   48.60
  -1   3  10 1770.42   49.90
  -3   0 -10   80.99    6.00
   3   0 -10   76.29    5.50
   0  -3 -10   86.09    6.30
   0  -3 -10   71.59    6.00
  -3   0 -10   74.19    3.80
   3   0 -10   88.49    6.60
   0   3 -10   76.29    6.50
   0   3 -10   78.79    5.00
   3   0  10   72.89    5.10
  -3   0  10   77.09    5.70
  -3   0  10   79.29    4.50
   0  -3  10   78.99    4.10
   0   3  10   69.79    6.10
   3   0  10   78.49    6.30
   0   3  10   75.79    5.50
   0  -3  10   74.19    5.40
  -1  -3 -10 1770.62   48.80
  -3   1 -10 1790.72   49.90
  -3   1 -10 1773.92   49.40
   3  -1 -10 1790.72   50.09
   1   3 -10 1805.52   47.40
  -1  -3 -10 1788.52   49.10
   1   3 -10 1762.12   50.19
   3  -1 -10 1840.82   47.50
   1   3  10 1677.13   46.70
  -3   1  10 1650.13   49.10
  -3   1  10 1725.53   47.10
  -1  -3  10 1700.13   47.10
  -1  -3  10 1654.93   48.00
   3  -1  10 1714.93   47.80
   3  -1  10 1700.43   49.99
   1   3  10 1666.33   48.40
  -3   2 -10   41.50    5.20
   2   3 -10   43.40    4.10
   2   3 -10   52.69    6.40
  -2  -3 -10   50.69    5.30
   3  -2 -10   53.79    6.30
  -2  -3 -10   47.90    5.00
  -3   2 -10   53.39    6.30
   3  -2  10   31.20    5.50
  -2  -3  10   29.30    4.00
   2   3  10   32.70    4.50
   2   3  10   28.50    4.10
  -2  -3  10   34.00    4.10
  -3   2  10   27.90    4.70
   3  -2  10   26.90    4.00
  -3   2  10   26.90    3.50
  -3  -3 -10 1427.06   41.40
   3  -3 -10 1389.36   42.40
  -3   3 -10 1390.76   41.30
  -3  -3 -10 1357.56   40.30
  -3   3 -10 1377.36   43.00
   3   3 -10 1337.87   42.70
   3  -3  10 1373.16   42.90
   3   3  10 1411.66   41.20
   3   3  10 1440.36   40.50
   3  -3  10 1396.06   40.10
  -3  -3  10 1408.96   39.70
  -3   3  10 1461.65   40.20
  -3  -3  10 1435.66   40.90
  -3   3  10 1446.76   42.60
  -3   4 -10   14.90    5.40
   4   3 -10   25.70    6.10
  -3   4 -10   21.20    4.40
  -4  -3 -10   28.40    4.70
  -4  -3 -10   28.90    5.10
   3  -4 -10   18.00    4.70
   3  -4  10   16.90    3.80
  -3   4  10   28.50    5.50
  -3   4  10   23.60    4.60
   4   3  10   24.20    4.40
  -4  -3  10   17.00    4.40
   4   3  10   20.70    5.20
  -4  -3  10   25.70    3.90
  -2   4 -10   15.50    3.70
   4   2 -10   10.70    3.70
  -4  -2 -10    9.30    3.60
   4   2 -10    9.60    4.70
   2  -4 -10    7.00    3.90
  -4  -2 -10    8.00    3.30
  -2   4 -10    9.60    4.40
  -4  -2  10   11.40    3.80
   2  -4  10   15.00    4.10
  -2   4  10   15.20    4.30
   4   2  10   19.90    4.90
   4   2  10   17.70    3.60
  -2   4  10   13.50    3.70
  -4  -2  10   15.50    3.00
  -1   4 -10   57.59    5.00
   1  -4 -10   44.20    6.30
   4   1 -10   55.09    6.40
  -4  -1 -10   45.10    4.60
  -1   4 -10   48.00    6.50
   4   1 -10   46.10    5.70
  -4  -1 -10   55.69    6.30
   1  -4 -10   47.60    5.80
  -1   4  10   65.59    7.20
  -4  -1  10   56.09    5.80
   4   1  10   64.79    7.00
   1  -4  10   60.69    5.60
  -4  -1  10   58.79    4.60
  -1   4  10   56.39    5.50
   4   1  10   53.89    4.90
   4   0 -10   42.70    5.40
   4   0 -10   50.39    6.20
   0   4 -10   41.00    4.00
   0  -4 -10   47.00    6.20
  -4   0 -10   54.29    6.10
   0  -4 -10   47.20    5.50
   0   4 -10   49.80    6.70
   0   4  10   39.50    5.10
   0  -4  10   51.29    5.60
   0   4  10   55.79    6.70
   4   0  10   45.10    6.10
  -4   0  10   47.50    5.30
   0  -4  10   43.10    3.90
   4   0  10   41.70    4.20
   1   4 -10   58.09    7.00
   4  -1 -10   61.99    7.00
  -1  -4 -10   60.29    6.00
  -1  -4 -10   64.19    5.50
   4  -1 -10   54.59    5.50
  -4   1 -10   64.09    6.70
   4  -1  10   55.69    4.80
   4  -1  10   57.49    6.30
  -1  -4  10   47.90    5.40
  -4   1  10   42.80    5.60
   1   4  10   48.50    5.40
  -1  -4  10   51.79    4.90
  -4   2 -10   28.70    5.10
  -4   2 -10   17.50    4.90
  -2  -4 -10   13.70    3.60
  -2  -4 -10    7.70    3.90
   4  -2 -10   15.20    4.60
   2   4 -10   36.70    6.30
   4  -2  10    9.50    3.20
   2   4  10   10.80    3.50
  -2  -4  10   15.00    3.70
  -4   2  10   12.70    4.40
   4  -2  10   15.40    4.50
  -2  -4  10   23.30    4.00
  -4   3 -10   17.70    4.80
  -3  -4 -10   26.40    4.20
  -3  -4 -10   23.00    5.00
   3   4 -10   22.50    5.60
  -4   3 -10   29.10    5.70
   4  -3 -10   20.70    5.40
   3   4  10   16.80    4.40
   4  -3  10   25.00    5.60
  -4   3  10   19.60    5.10
  -3  -4  10   21.80    4.50
  -3  -4  10   24.40    4.40
   3   4  10   24.50    4.70
   4  -3  10   25.30    4.20
  -4   4 -10   22.20    5.90
   4   4 -10   14.30    5.70
  -4  -4 -10   17.80    4.90
  -4   4 -10   20.00    5.10
   4  -4 -10   17.50    5.20
  -4   4  10   11.70    4.90
  -4  -4  10   15.10    4.60
   4   4  10   20.50    5.50
   4  -4  10   16.10    4.30
  -4  -4  10   21.60    4.30
   4   4  10   23.70    5.00
   4  -4  10   19.80    5.70
  -4   5 -10   49.10    7.00
   5   4 -10   45.90    8.60
  -4   5 -10   47.10    7.80
  -5  -4 -10   49.40    7.10
   4  -5 -10   62.09    8.50
  -4   5  10   37.20    7.10
  -5  -4  10   42.50    7.00
   5   4  10   39.20    7.50
   4  -5  10   44.00    6.10
   4  -5  10   36.60    7.20
   3  -5 -10  512.15   22.00
   5   3 -10  563.54   23.00
   3  -5 -10  557.84   21.40
  -5  -3 -10  531.75   19.50
  -3   5 -10  540.45   22.50
  -3   5 -10  573.04   19.80
  -5  -3 -10  560.34   20.30
  -3   5  10  534.35   20.40
   5   3  10  512.05   21.70
  -3   5  10  532.95   21.70
  -5  -3  10  514.45   20.60
   3  -5  10  532.05   19.60
  -2   5 -10   21.00    5.80
   2  -5 -10   17.60    4.80
  -5  -2 -10   21.00    4.60
  -5  -2 -10   27.60    5.10
   2  -5 -10   22.70    5.60
   5   2 -10   23.80    5.90
   5   2 -10   22.80    4.90
   2  -5  10   18.00    4.40
  -2   5  10   26.50    5.10
  -2   5  10   24.50    5.50
  -5  -2  10   22.20    5.20
   5   2  10   22.70    5.90
  -5  -1 -10  617.44   22.70
   5   1 -10  618.34   23.70
   1  -5 -10  656.73   22.90
   1  -5 -10  618.04   24.10
  -1   5 -10  633.84   25.10
   5   1 -10  652.13   23.30
  -1   5  10  713.13   24.90
   1  -5  10  704.73   23.10
   5   1  10  688.43   24.40
  -5  -1  10  685.43   23.40
  -1   5  10  713.53   23.70
   0  -5 -10  101.59    8.90
   5   0 -10  101.79    8.00
   0   5 -10  107.59    9.70
  -5   0 -10   93.99    7.80
   5   0 -10   99.29    8.70
   0  -5 -10   99.79    7.50
   0  -5  10   99.59    7.60
   5   0  10  106.99    8.80
  -5   0  10   96.39    7.70
   0   5  10  105.49    8.40
   5  -1 -10  724.33   23.40
  -1  -5 -10  744.33   24.80
   5  -1 -10  678.33   24.80
  -5   1 -10  704.63   24.20
  -1  -5 -10  677.63   22.00
   1   5 -10  722.03   25.90
   5  -1  10  623.84   24.40
  -1  -5  10  622.24   21.30
  -1  -5  10  614.44   22.40
   1   5  10  623.14   23.00
  -5   1  10  607.64   23.30
  -5   2 -10   17.80    5.10
   2   5 -10   18.40    5.80
  -2  -5 -10   25.80    5.40
   5  -2 -10   25.30    5.90
   2   5  10   15.70    4.50
   5  -2  10   20.50    5.80
  -2  -5  10   22.50    4.70
  -5   2  10   17.70    4.90
  -2  -5  10   23.00    4.70
   5  -3 -10  515.25   21.80
  -5   3 -10  536.45   21.10
   3   5 -10  501.65   22.40
  -3  -5 -10  525.95   21.50
  -3  -5  10  549.05   19.50
   3   5  10  550.44   20.40
  -5   3  10  559.84   22.10
  -3  -5  10  554.44   20.30
   5  -3  10  556.94   22.70
   5  -4 -10   47.50    8.20
  -5   4 -10   40.60    8.00
  -4  -5 -10   44.60    7.40
   4   5 -10   26.50    7.00
  -5   4 -10   51.39    7.60
  -5   4  10   48.00    7.80
  -4  -5  10   49.99    7.00
   5  -4  10   54.59    8.90
  -4  -5  10   52.39    6.20
   4   5  10   57.09    7.50
  -5   5 -10  240.08   15.00
  -5   5 -10  250.47   14.10
   5  -5 -10  243.98   15.30
  -5  -5 -10  236.18   14.20
   5   5 -10  256.97   17.00
  -5   5  10  253.67   15.50
  -5  -5  10  270.57   14.80
   5  -5  10  233.48   15.20
  -6  -5 -10   10.40    6.60
   5  -6 -10   16.00    7.20
  -5   6 -10   23.90   13.00
  -6  -5  10   16.90    7.60
   5  -6  10   24.40    9.20
   4  -6 -10    7.90    5.60
   4  -6 -10    6.40    6.00
  -6  -4 -10    7.80    5.50
   6   4 -10    5.80    7.10
  -4   6 -10    6.10    5.90
   6   4  10    9.50    6.90
  -6  -4  10    4.00    5.60
  -4   6  10    9.10    6.20
   4  -6  10   -0.60    4.50
   4  -6  10    1.10    5.20
   3  -6 -10   11.80    5.80
   6   3 -10    4.00    6.30
  -6  -3 -10    2.50    4.20
   3  -6 -10    8.50    5.50
  -3   6 -10    7.80    5.60
  -6  -3 -10   14.60    5.40
  -6  -3  10   11.10    5.70
   6   3  10    4.90    5.50
  -3   6  10    5.20    5.20
  -3   6  10    5.90    5.10
   3  -6  10    9.50    4.60
  -2   6 -10   12.40    6.60
   2  -6 -10   13.60    6.00
   2  -6 -10    9.70    4.90
  -6  -2 -10   11.50    4.90
   6   2 -10    8.40    5.90
  -2   6  10    6.50    5.60
  -2   6  10    3.10    4.30
   6   2  10    7.70    6.10
  -6  -2  10   -0.60    4.60
   2  -6  10    4.10    4.20
   6   1 -10    4.70    4.40
  -1   6 -10    6.60    5.30
   1  -6 -10   12.70    6.20
   6   1 -10    7.80    5.00
  -6  -1 -10    2.80    4.50
   1  -6  10   12.70    4.80
  -1   6  10   16.90    5.20
  -6  -1  10    9.80    5.00
   6   1  10    9.90    5.40
   6   0 -10    3.60    4.70
   6   0 -10    0.70    4.70
   0   6 -10    5.70    5.10
  -6   0 -10    5.80    4.70
   0  -6 -10    0.70    4.30
   0  -6  10   -1.30    4.20
   6   0  10    7.00    5.80
  -6   0  10    3.00    4.50
   0   6  10    5.40    4.40
   1   6 -10    6.20    5.40
   6  -1 -10   18.10    6.20
  -1  -6 -10   11.70    5.80
  -6   1 -10   12.80    5.30
  -1  -6  10   12.00    4.70
   6  -1  10    4.70    5.00
   1   6  10    5.60    4.50
  -6   1  10    6.30    4.90
  -6   2 -10    4.10    4.70
   6  -2 -10    8.90    5.70
   2   6 -10    7.40    5.80
  -2  -6 -10   10.70    5.70
  -6   2  10   10.70    5.70
  -2  -6  10    8.90    4.80
  -2  -6  10    7.70    4.40
   2   6  10    8.30    5.30
   6  -2  10    2.00    5.20
   3   6 -10    1.20    5.40
  -3  -6 -10    3.40    5.70
  -6   3 -10    5.60    5.10
   6  -3 -10    7.40    5.50
  -3  -6  10    6.40    4.60
   6  -3  10   15.30    6.20
   3   6  10    8.50    5.30
  -3  -6  10    7.30    5.00
  -6   3  10    8.50    5.20
   6  -4 -10    8.40    6.50
   4   6 -10    7.20    6.90
  -4  -6 -10    2.90    5.90
  -6   4 -10    1.70    5.30
   4   6  10    7.40    5.60
   6  -4  10    7.90    6.80
  -6   4  10    4.60    5.30
  -4  -6  10    1.30    5.00
  -4  -6  10    4.80    5.10
  -6   5 -10   17.50    6.80
   6  -5 -10   36.70   13.40
  -5  -6 -10   14.90    6.50
  -5  -6  10   13.00    6.50
   4  -7  10   40.50    7.80
   7   3 -10  255.47   17.40
   3  -7 -10  252.67   16.40
  -3   7 -10  234.08   16.70
  -7  -3  10  237.08   15.20
  -3   7  10  224.78   16.00
   3  -7  10  271.17   14.20
   7   3  10  253.67   17.40
  -3   7  10  248.38   14.60
   2  -7 -10   33.50    7.80
  -7  -2 -10   43.40    7.50
   7   2 -10   27.20    7.40
  -2   7 -10   34.70    8.40
   7   2  10   39.10    8.60
   2  -7  10   28.80    6.90
  -7  -2  10   35.50    7.70
  -2   7  10   35.50    7.20
  -1   7 -10  301.97   18.70
   7   1 -10  287.47   16.70
  -7  -1 -10  309.77   16.30
   1  -7 -10  298.87   17.50
   7   1 -10  314.17   16.70
  -7  -1  10  361.46   17.00
  -1   7  10  336.17   17.30
   1  -7  10  355.36   16.80
   7   1  10  379.76   19.80
   7   0 -10  116.19   11.30
  -7   0 -10   98.99   10.50
   7   0 -10  106.19   11.30
   0  -7 -10  109.49   11.40
  -7   0  10  119.39   10.90
   7   0  10  104.89   11.40
   0  -7  10   95.99    9.40
   0   7  10  114.59   11.20
   7  -1 -10  336.67   18.40
  -7   1 -10  370.26   17.90
  -1  -7 -10  380.06   18.80
   1   7 -10  380.56   19.90
   1   7  10  322.77   16.90
   7  -1  10  289.97   18.30
  -7   1  10  316.97   17.40
  -1  -7  10  309.17   16.30
   7  -2 -10   24.50    7.20
   2   7 -10   25.10    7.80
  -7   2 -10   25.80    7.20
  -2  -7 -10   30.70    7.90
  -2  -7  10   34.60    7.10
  -7   2  10   41.70    8.30
   7  -2  10   38.20    9.00
   2   7  10   41.50    7.70
   3   7 -10  233.58   17.60
  -7   3 -10  230.58   15.60
  -3  -7 -10  246.68   16.50
   7  -3 -10  233.18   16.70
   3   7  10  239.38   14.70
   7  -3  10  242.48   17.10
  -7   3  10  252.47   16.10
  -3  -7  10  269.37   14.60
  -3  -7  10  245.78   13.60
   4   7  10   37.70    9.20
  -4  -7  10   34.50    7.40
   8   1 -10    3.10    6.80
   8   0 -10   -4.30    5.90
   0   0 -11    0.50    1.80
   0   0 -11    1.00    2.30
   0   0  11   -1.00    1.70
   0   0  11    0.20    1.30
  -1   0 -11 2452.45   66.59
  -1   0 -11 2415.36   67.49
   1   0 -11 2556.44   67.89
   0  -1 -11 2498.55   67.79
   1   0 -11 2496.45   65.99
   0   1 -11 2479.95   67.29
   0  -1 -11 2503.45   64.89
  -1   0 -11 2545.25   64.69
   0   1 -11 2494.25   67.29
  -1   0  11 2455.15   66.29
   0  -1  11 2506.65   66.69
   1   0  11 2492.95   66.59
   0   1  11 2413.76   66.49
   0   1  11 2551.94   66.29
   0   1  11 2522.65   64.89
  -1   0  11 2514.05   66.29
   1   0  11 2394.06   66.49
   0  -1  11 2386.06   64.69
  -1   1 -11   52.39    4.70
   1   1 -11   54.69    4.50
   1  -1 -11   57.29    5.10
  -1  -1 -11   55.89    3.90
   1   1 -11   49.99    4.80
  -1   1 -11   47.50    4.50
  -1  -1 -11   55.49    4.90
   1  -1 -11   54.09    3.10
  -1  -1  11   59.79    4.40
   1   1  11   47.50    4.20
  -1   1  11   49.30    4.30
  -1   1  11   53.89    4.50
   1  -1  11   50.79    4.60
  -1  -1  11   50.69    3.60
   1   1  11   51.29    3.70
  -1   2 -11 1434.36   41.60
  -2  -1 -11 1440.56   38.80
   1  -2 -11 1411.26   41.20
   2   1 -11 1394.06   40.60
  -1   2 -11 1420.36   40.30
  -2  -1 -11 1384.96   40.70
   2   1 -11 1459.65   40.40
   2   1  11 1383.66   39.70
  -1   2  11 1420.26   40.70
   2   1  11 1407.26   39.70
   1  -2  11 1419.76   39.80
  -2  -1  11 1416.46   39.40
  -2  -1  11 1415.36   39.40
  -1   2  11 1398.46   39.70
  -2   0 -11  106.59    4.20
   0  -2 -11  114.79    7.10
  -2   0 -11  108.39    6.80
  -2   0 -11  115.99    6.50
   2   0 -11  111.79    5.70
   0  -2 -11  100.99    6.30
   0   2 -11  109.79    6.20
   0   2 -11  102.29    6.80
   2   0 -11  112.19    7.20
  -2   0  11  107.69    5.80
   0   2  11  110.59    6.50
   0   2  11  114.29    6.20
   2   0  11  104.29    6.10
  -2   0  11  115.69    6.30
   2   0  11  107.79    6.50
   0  -2  11  107.99    6.20
   0  -2  11  110.79    4.30
   2  -1 -11 1390.66   40.90
  -2   1 -11 1363.86   40.30
   2  -1 -11 1373.96   37.60
   1   2 -11 1372.76   39.50
  -2   1 -11 1407.46   40.90
  -1  -2 -11 1389.46   39.50
  -1  -2 -11 1394.16   40.40
   1   2 -11 1430.06   40.90
  -2   1  11 1431.06   40.40
   2  -1  11 1402.86   39.50
  -1  -2  11 1383.66   39.30
   1   2  11 1402.56   39.60
  -1  -2  11 1397.96   38.10
   1   2  11 1441.36   38.10
  -2   1  11 1436.26   39.10
   2  -1  11 1423.66   40.90
  -2  -2 -11   38.60    4.60
   2   2 -11   42.10    5.20
   2   2 -11   44.70    4.80
  -2   2 -11   49.20    5.20
   2  -2 -11   42.80    5.30
  -2  -2 -11   41.70    4.40
  -2   2 -11   47.50    5.90
  -2  -2  11   41.40    4.40
   2   2  11   46.90    4.40
   2   2  11   38.50    4.20
  -2  -2  11   43.60    4.10
  -2   2  11   47.00    5.00
   2  -2  11   39.30    4.30
  -2   2  11   52.19    4.60
  -2   3 -11  736.73   25.90
   2  -3 -11  749.62   25.00
  -3  -2 -11  769.52   24.20
   3   2 -11  744.33   25.20
   3   2 -11  743.13   23.80
  -2   3 -11  732.53   23.90
  -3  -2 -11  759.22   23.40
  -2   3  11  741.23   23.40
   2  -3  11  748.53   23.40
   3   2  11  718.43   23.80
   3   2  11  756.92   23.30
  -3  -2  11  750.92   23.50
  -2   3  11  757.42   25.20
  -3  -2  11  757.02   22.80
   1  -3 -11   68.69    6.50
  -1   3 -11   66.79    5.30
   3   1 -11   68.89    5.70
  -1   3 -11   66.39    6.60
   1  -3 -11   62.79    6.00
   3   1 -11   69.29    6.30
  -3  -1 -11   70.09    4.70
  -3  -1 -11   71.79    6.00
  -1   3  11   88.79    6.20
   3   1  11   80.19    6.30
   1  -3  11   82.59    5.70
  -3  -1  11   76.19    5.20
  -1   3  11   75.49    6.50
  -3  -1  11   72.59    5.30
   3   1  11   81.09    5.50
   3   0 -11 1272.47   35.50
   0  -3 -11 1207.58   36.10
   0  -3 -11 1169.48   36.10
  -3   0 -11 1263.17   36.60
   0   3 -11 1212.28   34.80
   3   0 -11 1224.98   36.80
   0   3 -11 1248.78   37.50
   0  -3  11 1223.58   33.10
  -3   0  11 1208.58   34.10
   0   3  11 1240.68   36.50
  -3   0  11 1230.58   35.80
   3   0  11 1240.08   34.90
   3   0  11 1155.68   36.10
   0  -3  11 1230.68   35.40
   0   3  11 1201.48   35.60
   1   3 -11   75.09    5.00
  -3   1 -11   72.29    6.20
  -3   1 -11   78.49    6.70
   1   3 -11   83.09    6.80
   3  -1 -11   80.79    7.10
  -1  -3 -11   79.29    6.20
   3  -1 -11   83.59    5.10
  -1  -3 -11   75.99    6.00
  -3   1  11   67.79    5.90
   1   3  11   67.19    5.50
  -1  -3  11   72.59    4.60
   3  -1  11   72.09    5.20
   3  -1  11   64.19    6.20
  -3   1  11   67.59    4.70
  -1  -3  11   54.69    5.50
  -3   2 -11  742.53   25.50
  -3   2 -11  737.93   24.60
   2   3 -11  725.93   22.60
   2   3 -11  767.12   25.70
  -2  -3 -11  750.42   24.00
   3  -2 -11  772.52   25.60
  -2  -3 -11  749.03   23.90
  -3   2  11  755.52   24.90
  -2  -3  11  759.62   23.10
   3  -2  11  728.53   25.40
  -2  -3  11  728.13   23.10
   2   3  11  722.83   23.60
   3  -2  11  760.62   23.30
   2   3  11  750.92   23.00
  -3   2  11  747.23   22.70
   3  -3 -11   35.30    5.60
  -3  -3 -11   36.40    5.00
  -3   3 -11   33.50    5.00
   3   3 -11   42.50    6.50
  -3   3 -11   26.00    5.40
  -3  -3 -11   36.50    5.30
   3  -3  11   30.60    5.60
   3  -3  11   33.20    4.40
  -3  -3  11   38.10    4.40
  -3  -3  11   37.00    4.90
   3   3  11   38.00    5.40
  -3   3  11   27.50    4.20
   3   3  11   43.10    5.10
  -3   3  11   38.20    5.60
   4   3 -11  670.63   25.70
   3  -4 -11  725.53   25.40
  -4  -3 -11  711.43   24.00
  -3   4 -11  714.23   24.00
  -4  -3 -11  702.53   23.60
  -3   4 -11  701.23   26.30
   4   3  11  734.13   23.30
  -3   4  11  710.63   23.70
   4   3  11  716.63   25.00
  -4  -3  11  727.63   24.30
  -3   4  11  699.43   25.40
  -4  -3  11  682.43   22.10
   3  -4  11  700.73   23.20
   2  -4 -11   59.19    6.90
  -2   4 -11   46.80    7.10
   4   2 -11   61.29    6.20
  -4  -2 -11   63.89    6.50
  -2   4 -11   66.39    6.00
  -4  -2 -11   58.39    5.90
   4   2 -11   54.89    7.10
  -4  -2  11   78.79    5.30
   4   2  11   73.19    5.80
   2  -4  11   73.59    6.20
  -2   4  11   64.69    7.50
   4   2  11   75.79    7.40
  -4  -2  11   78.59    6.40
  -2   4  11   70.59    6.60
   4   1 -11 1188.48   36.70
   4   1 -11 1205.08   37.10
   1  -4 -11 1193.18   37.60
  -4  -1 -11 1201.68   36.50
  -1   4 -11 1212.48   34.90
   1  -4 -11 1199.78   36.70
  -1   4 -11 1204.88   38.40
  -1   4  11 1225.88   37.60
  -1   4  11 1216.28   36.10
  -4  -1  11 1181.98   36.00
  -4  -1  11 1155.38   36.80
   1  -4  11 1256.17   36.10
   4   1  11 1192.08   36.90
   4   1  11 1246.88   34.80
   4   0 -11   78.29    6.50
   0  -4 -11   68.19    6.30
   0   4 -11   75.59    5.90
  -4   0 -11   78.89    6.80
   4   0 -11   77.39    7.00
   0  -4 -11   78.99    7.40
   0   4 -11   82.59    8.20
  -4   0  11   75.19    6.30
   0  -4  11   79.49    6.80
   0   4  11   76.29    6.90
   4   0  11   74.89    6.90
   4   0  11   77.89    5.50
   0   4  11   81.09    6.80
   4  -1 -11 1202.28   37.80
  -1  -4 -11 1185.48   36.90
   4  -1 -11 1256.87   35.60
  -4   1 -11 1223.68   37.20
   1   4 -11 1142.59   38.10
  -1  -4 -11 1224.28   36.10
   4  -1  11 1266.47   35.00
  -4   1  11 1200.08   37.10
  -1  -4  11 1223.28   34.60
   4  -1  11 1193.48   37.80
  -1  -4  11 1229.18   36.00
   1   4  11 1166.78   36.20
  -4   2 -11   67.99    7.20
  -2  -4 -11   75.19    6.10
  -2  -4 -11   60.19    6.70
   4  -2 -11   76.89    8.10
   2   4 -11   58.39    7.50
  -4   2 -11   78.99    7.60
   2   4  11   48.10    5.80
  -4   2  11   63.19    7.60
   4  -2  11   54.09    7.00
  -2  -4  11   52.69    5.70
  -2  -4  11   61.09    5.50
   4  -2  11   58.29    5.50
   3   4 -11  678.43   26.00
  -4   3 -11  688.93   25.40
  -3  -4 -11  668.43   24.30
  -3  -4 -11  705.63   22.70
  -4   3 -11  710.33   24.40
   4  -3 -11  692.03   25.50
   3   4  11  709.03   23.60
  -4   3  11  697.83   25.00
  -3  -4  11  673.93   22.60
   4  -3  11  683.83   22.40
   4  -3  11  672.33   25.50
  -3  -4  11  704.93   23.40
  -4  -4 -11  174.38   10.90
   4  -4 -11  164.28   11.20
  -4   4 -11  151.68   11.40
  -4  -4 -11  174.78   10.90
   4   4 -11  173.28   12.20
  -4   4 -11  187.28   11.10
   4   4  11  168.38   10.30
   4   4  11  166.98   12.70
   4  -4  11  173.28    9.50
  -4  -4  11  173.78   10.60
   4  -4  11  156.78   11.50
  -4  -4  11  172.68    9.20
  -4   4  11  165.88   11.20
  -5  -4 -11  381.06   17.00
   4  -5 -11  377.66   17.80
  -4   5 -11  387.86   18.80
  -4   5 -11  375.06   16.70
   5   4 -11  389.06   19.30
   4  -5  11  366.66   15.70
  -5  -4  11  382.06   17.20
   4  -5  11  362.66   18.30
  -4   5  11  373.66   18.00
   5   4  11  357.06   17.90
   3  -5 -11   48.00    7.30
  -5  -3 -11   35.60    5.60
  -3   5 -11   37.00    7.30
  -5  -3 -11   40.80    6.50
  -3   5 -11   37.50    5.90
   5   3 -11   33.80    7.60
   3  -5 -11   32.50    6.90
   5   3  11   38.00    6.10
  -3   5  11   41.10    6.50
  -3   5  11   34.60    6.90
   3  -5  11   33.90    6.00
   5   3  11   38.50    7.40
  -5  -3  11   42.90    6.70
  -5  -2 -11  427.06   16.90
   2  -5 -11  424.16   18.90
  -2   5 -11  403.66   19.00
   2  -5 -11  420.96   17.60
   5   2 -11  403.26   16.90
   5   2 -11  431.56   19.00
  -2   5  11  429.36   18.90
  -5  -2  11  435.86   17.30
   2  -5  11  447.86   17.00
   5   2  11  427.26   17.00
   5   2  11  428.86   18.40
  -2   5  11  454.35   17.50
  -1   5 -11   50.09    7.80
   5   1 -11   53.39    6.80
   1  -5 -11   54.39    6.70
   1  -5 -11   56.59    7.60
   5   1 -11   46.10    6.80
  -5  -1 -11   41.20    5.90
   5   1  11   49.70    7.20
  -1   5  11   59.79    7.90
   1  -5  11   54.09    6.30
  -5  -1  11   61.09    7.10
  -1   5  11   54.89    6.90
   0   5 -11  717.43   26.70
  -5   0 -11  680.63   24.90
   0  -5 -11  733.53   24.20
   5   0 -11  723.33   25.00
   5   0 -11  713.93   25.70
   0  -5 -11  720.83   25.90
  -5   0  11  693.63   24.80
   0  -5  11  749.53   24.60
   5   0  11  692.63   25.80
   0   5  11  739.03   25.10
  -5   1 -11   57.39    7.10
  -1  -5 -11   65.39    6.60
   1   5 -11   54.49    7.90
  -1  -5 -11   51.29    7.30
   5  -1 -11   55.89    7.20
  -1  -5  11   57.89    6.50
  -1  -5  11   59.59    8.60
   1   5  11   48.30    6.30
  -5   1  11   53.79    6.90
   5  -1  11   47.90    7.30
  -5   2 -11  447.26   18.60
   2   5 -11  466.05   20.40
  -2  -5 -11  438.86   18.40
   5  -2 -11  435.96   19.40
   5  -2  11  418.46   19.30
  -5   2  11  432.26   18.90
   2   5  11  415.76   17.70
  -2  -5  11  414.26   17.10
  -2  -5  11  451.65   16.80
  -5   3 -11   33.10    6.10
  -3  -5 -11   25.90    6.20
   5  -3 -11   24.40    6.30
   3   5 -11   39.20    7.80
  -3  -5  11   35.30    5.80
   5  -3  11   43.00    7.40
  -5   3  11   42.00    7.20
   3   5  11   36.80    6.40
  -3  -5  11   38.60    5.90
   5  -4 -11  366.86   18.30
  -5   4 -11  402.46   17.70
  -5   4 -11  395.36   18.90
  -4  -5 -11  394.36   17.70
   4   5 -11  384.16   19.50
  -4  -5  11  363.46   15.50
   4   5  11  406.26   17.30
   5  -4  11  390.36   19.00
  -5   4  11  355.46   17.80
  -4  -5  11  382.16   17.00
  -5   5 -11   35.50    8.40
  -5   5 -11   48.50    7.90
  -5  -5 -11   40.10    7.70
   5   5 -11   29.10    8.70
   5  -5 -11   36.10    7.90
  -5  -5  11   33.30    6.70
  -5   5  11   47.30    8.70
   5  -5  11   41.00    8.80
   5  -6 -11  111.99   12.40
  -6  -5 -11  108.69   11.50
   6   4 -11   64.29    9.90
  -6  -4 -11   73.59    9.20
  -4   6 -11   57.39    9.80
   4  -6 -11   53.29    8.70
   4  -6 -11   50.29    9.00
  -6  -4  11   60.59    8.90
   4  -6  11   53.89    9.10
   6   4  11   55.69    9.60
   4  -6  11   42.60    7.00
  -4   6  11   60.89    9.70
  -6  -3 -11  145.99   10.90
   3  -6 -11  159.78   12.50
   3  -6 -11  167.48   12.00
  -3   6 -11  183.88   14.10
   6   3 -11  163.88   13.80
  -3   6  11  178.48   12.70
  -3   6  11  181.28   12.20
   3  -6  11  187.18   11.60
  -6  -3  11  172.28   12.10
   6   3  11  182.98   13.80
  -6  -2 -11   16.30    5.30
   2  -6 -11   11.50    5.20
   6   2 -11   21.50    6.90
   2  -6 -11   14.50    6.10
  -2   6 -11   20.50    7.50
   2  -6  11   13.00    4.90
  -2   6  11   16.40    5.30
  -6  -2  11   15.60    5.90
   6   2  11   17.50    6.20
  -2   6  11   18.50    6.50
   1  -6 -11  235.48   14.20
   6   1 -11  213.78   13.20
   6   1 -11  240.88   14.30
  -1   6 -11  246.88   15.70
  -6  -1 -11  239.18   12.80
  -6  -1  11  247.88   13.80
   1  -6  11  254.07   13.00
  -1   6  11  241.78   13.40
   6   1  11  265.27   15.30
   0  -6 -11   56.49    8.10
  -6   0 -11   52.79    7.20
   0   6 -11   53.99    8.60
   6   0 -11   36.70    6.80
   6   0 -11   49.60    7.90
   0  -6  11   55.99    7.40
   6   0  11   45.40    7.90
   0   6  11   55.09    7.40
  -6   0  11   62.99    8.00
  -1  -6 -11  264.67   14.70
   1   6 -11  241.78   15.60
  -6   1 -11  226.28   13.30
   6  -1 -11  249.58   14.30
  -1  -6  11  230.18   12.50
  -6   1  11  236.38   13.50
   1   6  11  251.87   14.00
   6  -1  11  213.88   14.10
   6  -2 -11   15.70    6.60
  -2  -6 -11   16.30    6.40
  -6   2 -11   15.00    6.00
   2   6 -11   14.40    6.30
   6  -2  11   13.50    6.10
  -2  -6  11   16.60    5.60
   2   6  11   13.00    5.20
  -6   2  11   24.40    6.20
  -6   3 -11  193.38   13.10
   6  -3 -11  169.38   13.50
  -3  -6 -11  182.28   13.30
   3   6 -11  179.68   14.40
   3   6  11  165.48   12.20
  -3  -6  11  144.79   10.60
  -3  -6  11  149.59   10.90
   6  -3  11  172.98   13.00
  -6   3  11  169.58   12.80
   6  -4 -11   56.49    9.10
   4   6 -11   45.40    9.30
  -6   4 -11   57.29    8.60
  -4  -6 -11   67.29    9.60
   6  -4  11   78.79   11.00
  -4  -6  11   58.59    8.10
  -6   4  11   65.39    9.50
   4   6  11   66.99    9.00
  -6   5 -11  113.79   13.40
  -5  -6  11  108.49   11.10
   4  -7  11  158.48   19.20
  -3   7 -11   33.10   10.20
   7   3 -11   26.50    8.20
  -3   7  11   27.80    7.90
   3  -7  11   23.20    6.90
   7   3  11   34.80    9.20
  -2   7 -11  179.38   15.30
   2  -7 -11  186.28   13.90
  -7  -2 -11  168.98   12.50
   7   2 -11  176.28   14.40
  -7  -2  11  187.68   13.30
   2  -7  11  173.08   12.10
  -2   7  11  183.58   13.60
   7   2  11  174.78   15.00
   7   1 -11   39.40    8.50
   7   1 -11   52.79    8.40
  -7  -1 -11   45.00    7.60
  -1   7 -11   44.40    9.10
   1  -7 -11   36.80    7.60
  -7  -1  11   38.50    7.50
  -1   7  11   46.50    8.00
   1  -7  11   39.40    7.30
   7   1  11   49.20    9.00
   0  -7 -11  308.57   17.30
   0   7 -11  338.87   18.90
   7   0 -11  314.37   17.50
  -7   0 -11  329.77   17.10
   7   0  11  311.07   18.20
   0  -7  11  304.47   16.10
   0   7  11  308.87   17.00
  -7   0  11  319.97   16.70
  -7   1 -11   39.20    8.00
   1   7 -11   43.60    9.10
   7  -1 -11   35.00    7.70
  -1  -7 -11   54.49    8.80
  -1  -7  11   40.30    7.10
   7  -1  11   49.40    9.00
  -7   1  11   39.70    8.30
   1   7  11   43.90    8.20
  -2  -7 -11  198.38   14.50
  -7   2 -11  196.18   14.20
   7  -2 -11  167.88   14.30
   2   7 -11  180.38   15.70
   7  -2  11  173.08   15.10
  -2  -7  11  169.68   12.40
   2   7  11  177.08   13.60
   3   7  11   33.20    8.30
  -3  -7  11   32.10    7.10
  -4  -7  11  143.99   14.80
   0   0 -12 1538.45   42.50
   0   0 -12 1526.25   44.00
   0   0  12 1551.64   41.60
   0   0  12 1533.45   42.80
   0  -1 -12  246.98    8.40
  -1   0 -12  243.58    8.10
   0   1 -12  247.48   10.60
   0   1 -12  251.47   10.40
  -1   0 -12  234.08   10.50
   1   0 -12  259.07   11.20
   1   0 -12  246.18    9.30
   0  -1 -12  251.67   10.90
  -1   0 -12  243.88    9.90
   0   1  12  254.47    9.50
   1   0  12  257.97   10.00
   0   1  12  250.27    8.40
  -1   0  12  246.98    9.80
   1   0  12  244.68    9.80
   0  -1  12  235.28    9.80
  -1   0  12  253.97    9.60
   0  -1  12  233.58    8.20
   0   1  12  238.48    9.80
   1  -1 -12    7.90    1.80
   1   1 -12    9.00    3.20
  -1  -1 -12    9.70    3.10
  -1   1 -12    9.70    3.10
   1   1 -12    7.70    2.80
  -1  -1 -12    6.70    2.30
   1  -1 -12    8.40    3.20
  -1   1 -12    6.00    2.90
   1   1  12    7.10    2.70
  -1  -1  12    9.50    2.80
  -1  -1  12   18.80    2.70
  -1   1  12    9.30    2.70
   1   1  12    8.90    2.30
  -1   1  12   12.20    2.90
   1  -1  12    6.20    2.60
  -1   2 -12  195.68    9.30
   1  -2 -12  187.78   10.00
   2   1 -12  203.98    9.50
  -1   2 -12  199.38   10.50
  -2  -1 -12  190.58    9.70
   2   1 -12  199.78    9.70
  -2  -1 -12  188.38    7.90
  -1   2  12  227.38   10.00
   1  -2  12  228.08    9.60
   2   1  12  205.48    9.00
  -2  -1  12  224.78    8.90
  -2  -1  12  212.98    8.80
  -1   2  12  232.28    9.30
   2   1  12  235.28    9.30
   0   2 -12 1644.54   47.20
   0  -2 -12 1660.03   47.00
  -2   0 -12 1606.54   46.00
  -2   0 -12 1655.03   47.00
   2   0 -12 1686.63   47.30
   0  -2 -12 1640.94   46.10
   2   0 -12 1665.73   45.10
   0   2 -12 1542.45   45.70
   2   0  12 1608.44   46.10
   0   2  12 1703.83   46.20
   0  -2  12 1637.44   45.80
  -2   0  12 1658.63   45.20
   0   2  12 1615.24   45.80
  -2   0  12 1648.94   45.80
   2   0  12 1624.54   45.60
   0  -2  12 1605.44   43.20
  -2   1 -12  224.28   10.30
  -2   1 -12  228.38   10.30
   2  -1 -12  211.08   10.50
   2  -1 -12  217.68    7.50
  -1  -2 -12  227.28    9.20
   1   2 -12  208.88    9.30
  -1  -2 -12  212.38    9.90
   1   2 -12  216.78   10.00
   2  -1  12  193.78    9.80
  -2   1  12  215.78    9.80
   2  -1  12  195.38    9.10
  -2   1  12  192.08    8.50
  -1  -2  12  184.88    8.90
  -1  -2  12  191.18    7.70
   1   2  12  195.48    7.70
   1   2  12  201.88    9.30
  -2  -2 -12 1601.54   44.60
   2  -2 -12 1568.84   46.50
   2   2 -12 1577.34   46.30
   2   2 -12 1575.04   45.10
  -2  -2 -12 1577.64   45.80
  -2   2 -12 1612.34   47.20
  -2   2 -12 1603.94   45.90
  -2   2  12 1673.43   46.40
   2   2  12 1559.04   44.80
  -2  -2  12 1618.84   44.60
   2  -2  12 1563.14   44.90
   2   2  12 1599.04   44.40
  -2  -2  12 1569.04   44.10
  -2   2  12 1614.04   44.60
   3   2 -12   33.80    5.70
  -3  -2 -12   22.20    4.30
  -2   3 -12   31.80    4.90
   3   2 -12   22.70    4.40
  -2   3 -12   30.30    6.00
  -3  -2 -12   29.90    4.30
   2  -3 -12   22.70    4.70
  -2   3  12   33.90    4.70
   3   2  12   37.80    5.00
   2  -3  12   41.50    4.90
  -2   3  12   49.40    6.50
  -3  -2  12   47.80    4.80
   3   2  12   42.90    4.70
  -3  -2  12   35.00    4.50
  -3  -1 -12   88.29    6.80
  -1   3 -12   85.69    8.00
  -1   3 -12   98.79    6.60
   1  -3 -12   82.99    7.20
   3   1 -12  104.69    7.20
   3   1 -12   95.39    7.20
  -3  -1 -12   87.99    5.30
   1  -3 -12   92.69    7.20
  -1   3  12  100.99    6.80
  -3  -1  12   88.89    6.10
  -3  -1  12   94.19    6.00
   3   1  12   95.19    6.30
   3   1  12   91.59    6.80
   1  -3  12   90.89    6.40
  -1   3  12   95.99    7.40
   0  -3 -12  136.39    8.20
   0   3 -12  133.19    7.10
  -3   0 -12  125.79    8.00
   0  -3 -12  134.69    8.30
   0   3 -12  120.49    8.40
   3   0 -12  132.09    7.10
   3   0 -12  127.39    8.60
   0   3  12  129.39    7.70
  -3   0  12  132.09    6.60
   0   3  12  121.89    8.00
   3   0  12  142.89    8.30
   3   0  12  121.89    7.00
  -3   0  12  125.09    7.60
   0  -3  12  121.99    7.30
  -3   1 -12   94.09    7.40
  -3   1 -12  100.39    7.50
   1   3 -12   86.89    5.80
   3  -1 -12   91.69    5.40
   3  -1 -12   94.89    7.60
  -1  -3 -12   88.09    6.60
   1   3 -12   85.29    7.20
  -1  -3 -12   87.19    6.60
  -1  -3  12   91.39    5.10
   1   3  12   91.49    6.40
   3  -1  12   92.89    7.30
   3  -1  12   87.79    5.90
  -3   1  12   91.49    5.70
  -1  -3  12   93.39    6.70
  -3   1  12   88.49    7.10
   2   3 -12   40.50    5.80
  -2  -3 -12   37.50    5.10
   2   3 -12   35.20    4.20
  -2  -3 -12   44.20    5.50
  -3   2 -12   44.10    5.60
  -3   2 -12   39.50    6.20
   3  -2 -12   35.80    5.70
   2   3  12   33.00    4.60
  -3   2  12   31.30    5.30
   3  -2  12   25.70    5.60
   3  -2  12   23.60    4.00
  -2  -3  12   33.80    4.20
  -2  -3  12   25.40    4.10
  -3   2  12   27.80    4.00
   3  -3 -12   -2.40    3.30
  -3  -3 -12   -0.30    3.30
  -3   3 -12    1.40    4.10
   3   3 -12    9.10    4.40
  -3   3 -12   -1.90    3.30
  -3  -3 -12    2.40    3.20
  -3  -3  12    3.50    3.00
   3   3  12   -1.10    3.40
   3  -3  12    0.80    3.10
  -3   3  12   -1.30    2.70
   3  -3  12    5.60    4.30
  -3  -3  12    1.30    3.10
   3   3  12    0.40    2.70
  -3   3  12    3.80    3.90
  -4  -3 -12   65.39    6.90
   4   3 -12   71.29    8.70
  -3   4 -12   59.89    6.80
   3  -4 -12   53.89    7.30
  -3   4 -12   62.69    8.50
  -4  -3 -12   61.09    6.70
  -4  -3  12   44.50    6.10
   3  -4  12   63.09    6.60
  -4  -3  12   60.59    6.00
  -3   4  12   57.59    7.50
  -3   4  12   60.99    6.80
   4   3  12   52.19    6.10
   4   3  12   54.09    7.20
   4   2 -12  666.33   23.10
  -2   4 -12  653.03   25.60
   4   2 -12  696.73   25.00
  -4  -2 -12  661.33   22.30
   2  -4 -12  683.73   25.20
   2  -4 -12  640.34   23.80
  -2   4 -12  663.53   22.80
  -4  -2 -12  647.74   23.40
   4   2  12  741.13   24.50
   4   2  12  757.42   22.60
  -2   4  12  697.73   23.20
  -4  -2  12  712.53   23.40
   2  -4  12  691.83   22.90
  -2   4  12  730.53   25.20
  -4  -2  12  708.63   23.10
   1  -4 -12  102.39    8.20
   4   1 -12   91.89    8.00
   4   1 -12   87.19    7.80
  -1   4 -12   93.29    6.70
  -1   4 -12   98.49    9.30
  -4  -1 -12  101.89    7.70
   1  -4 -12   88.19    8.40
   1  -4  12  115.69    7.60
   4   1  12  140.59    9.10
  -1   4  12  112.69    7.60
  -1   4  12  135.49    9.30
   4   1  12  111.29    6.80
  -4  -1  12  120.59    7.70
   0  -4 -12  687.63   24.30
   0   4 -12  716.63   25.60
  -4   0 -12  675.63   23.80
   0  -4 -12  685.03   23.40
   4   0 -12  704.33   23.30
   4   0 -12  705.13   24.50
   0  -4  12  692.33   23.10
   4   0  12  677.23   24.20
   0   4  12  689.83   23.30
   4   0  12  720.93   22.10
   0   4  12  706.33   24.40
  -4   0  12  709.43   23.70
  -1  -4 -12  124.79    7.90
   1   4 -12  109.39    8.80
   4  -1 -12  136.99    9.70
  -1  -4 -12  125.29    8.50
  -4   1 -12  128.69    9.00
  -4   1  12   95.09    7.70
   4  -1  12   95.69    6.60
   1   4  12   89.39    7.20
  -1  -4  12   94.69    7.50
  -1  -4  12   93.19    6.10
   4  -1  12   87.19    8.00
   2   4 -12  672.83   25.30
   4  -2 -12  698.43   25.20
  -2  -4 -12  711.73   23.10
  -4   2 -12  709.73   24.40
  -4   2 -12  715.23   25.20
  -2  -4 -12  705.73   24.00
   2   4  12  656.53   23.10
  -2  -4  12  675.83   22.20
   4  -2  12  696.73   22.30
  -2  -4  12  664.53   22.80
   4  -2  12  645.44   24.80
   4  -3 -12   55.99    7.70
  -4   3 -12   53.99    7.20
  -3  -4 -12   50.19    5.80
  -4   3 -12   42.40    6.90
   3   4 -12   42.00    7.20
  -3  -4 -12   52.29    6.80
  -3  -4  12   66.39    6.60
   4  -3  12   63.59    8.10
   4  -3  12   65.89    6.30
  -3  -4  12   69.69    6.70
  -4   3  12   60.19    7.40
  -4  -4 -12  359.96   15.10
  -4  -4 -12  344.37   16.00
  -4   4 -12  358.96   17.70
  -4   4 -12  365.96   16.40
   4   4 -12  365.06   18.40
   4  -4 -12  379.26   17.80
   4  -4  12  348.17   17.50
   4   4  12  374.56   15.40
  -4  -4  12  381.26   16.00
  -4  -4  12  368.26   14.70
   4  -4  12  352.06   14.80
  -4   4  12  373.46   17.70
  -4   5 -12   25.70    7.00
  -5  -4 -12   25.10    6.10
   4  -5 -12   27.70    7.00
  -4   5 -12   24.00    6.10
   5   4 -12   29.60    8.30
   4  -5  12   15.00    6.00
   4  -5  12   25.00    5.80
  -4   5  12   28.00    7.20
  -5  -4  12   23.40    6.20
  -3   5 -12   23.60    5.30
   5   3 -12   20.30    6.30
   3  -5 -12   32.60    7.10
  -5  -3 -12   24.40    5.50
  -3   5 -12   20.20    6.10
   3  -5 -12   28.30    6.60
   3  -5  12   23.90    5.00
  -3   5  12   26.50    6.60
  -5  -3  12   24.90    5.70
  -3   5  12   26.50    5.90
   5   3  12   20.00    5.20
   5   3  12   26.00    6.70
   2  -5 -12   17.30    5.30
  -5  -2 -12   21.40    5.30
   2  -5 -12   20.80    6.10
   5   2 -12   16.90    6.20
   5   2 -12   18.40    5.30
  -2   5 -12   22.90    6.70
   2  -5  12    5.80    4.10
  -2   5  12   10.60    5.30
  -2   5  12   19.50    5.40
   5   2  12   21.70    6.20
  -5  -2  12   16.50    5.30
   5   2  12   14.50    4.50
   5   1 -12   14.30    5.30
  -5  -1 -12   20.50    4.90
   1  -5 -12   16.30    5.60
   5   1 -12   13.50    4.70
   1  -5 -12   23.40    5.40
  -1   5 -12   13.30    5.30
  -1   5  12   14.20    4.40
  -5  -1  12   18.70    5.20
   5   1  12   13.90    5.30
   1  -5  12   12.90    4.40
  -1   5  12   18.60    5.60
   5   1  12   19.50    5.40
   5   0 -12    2.80    4.60
  -5   0 -12    3.60    4.30
   5   0 -12    1.10    3.90
   0  -5 -12    3.30    4.10
   0   5 -12   -1.30    4.90
   0  -5 -12    0.60    3.60
  -5   0  12    1.80    4.00
   0   5  12    0.40    3.50
   0  -5  12    2.60    4.20
   5   0  12    1.40    4.60
  -1  -5 -12   17.80    4.50
  -1  -5 -12   24.30    5.80
   5  -1 -12   16.30    5.70
   1   5 -12   16.70    5.70
  -5   1 -12   18.70    5.40
  -5   1  12   13.00    4.70
  -1  -5  12   18.50    4.70
   5  -1  12   12.00    5.20
   1   5  12   16.00    4.70
   2   5 -12   10.90    5.50
  -5   2 -12   20.10    5.90
   5  -2 -12   17.90    6.30
  -2  -5 -12   12.40    5.10
   2   5  12   23.40    5.30
  -2  -5  12   14.30    4.20
  -5   2  12   16.60    5.30
  -2  -5  12   17.30    4.70
   5  -2  12   25.70    6.30
  -3  -5 -12   19.40    5.80
   5  -3 -12   23.70    6.70
   3   5 -12   19.40    6.50
  -5   3 -12   24.10    5.80
  -3  -5  12   21.60    4.90
   5  -3  12   30.00    7.30
   3   5  12   23.90    5.40
  -5   3  12   24.10    6.20
  -3  -5  12   24.40    5.20
  -4  -5 -12   23.60    6.70
  -5   4 -12   27.30    7.20
   4   5 -12   24.20    7.20
  -5   4 -12   26.90    6.80
   5  -4 -12   31.00    7.70
  -5   4  12   34.60    7.30
   5  -4  12   26.70    6.90
  -4  -5  12   32.40    6.30
   4   5  12   34.20    6.30
  -5   5 -12    8.90    7.00
   5   5 -12    3.80    7.20
  -5   5 -12    5.80    5.40
  -5  -5 -12    9.20    5.50
   5  -5 -12    6.50    5.80
  -5  -5  12    3.20    4.90
  -5   5  12    1.20    6.20
   5  -5  12    5.90    6.70
   6   4 -12  258.17   17.40
   4  -6 -12  261.27   16.10
  -4   6 -12  270.87   17.30
   4  -6 -12  245.98   15.70
   4  -6  12  230.38   16.20
  -4   6  12  236.38   15.50
   4  -6  12  229.48   13.50
  -6  -4  12  253.67   15.00
   3  -6 -12   65.49    8.70
  -3   6 -12   61.59    9.40
   3  -6 -12   75.89   10.10
  -6  -3 -12   67.79    8.10
   6   3 -12   70.09   10.50
  -3   6  12   49.90    8.80
  -6  -3  12   49.90    8.10
   6   3  12   62.69   10.00
  -3   6  12   54.59    8.00
   3  -6  12   49.70    7.20
  -6  -2 -12  414.36   18.20
  -2   6 -12  427.96   21.20
   2  -6 -12  423.56   18.70
   6   2 -12  419.86   20.30
   2  -6 -12  416.66   20.10
  -6  -2  12  434.16   19.00
  -2   6  12  425.06   20.30
   2  -6  12  441.86   18.50
   6   2  12  407.66   19.60
  -2   6  12  442.66   19.30
  -1   6 -12   43.20    8.30
  -6  -1 -12   45.60    7.20
   6   1 -12   33.80    6.70
   6   1 -12   41.90    7.50
   1  -6 -12   44.30    7.80
  -1   6  12   62.79    8.00
   6   1  12   45.70    8.00
  -6  -1  12   57.39    7.50
   1  -6  12   58.99    7.60
   0   6 -12  478.45   22.20
  -6   0 -12  486.55   20.20
   0  -6 -12  497.25   21.50
   6   0 -12  473.65   21.00
   0  -6  12  506.05   20.20
   0   6  12  488.25   20.40
  -6   0  12  498.15   20.50
   1   6 -12   60.09    9.40
  -1  -6 -12   56.39    8.30
   6  -1 -12   47.20    7.80
  -6   1 -12   51.89    7.50
  -1  -6  12   42.40    6.70
   1   6  12   42.80    7.40
   6  -1  12   52.79    8.50
  -6   1  12   64.39    8.60
  -6   2 -12  425.16   19.70
   2   6 -12  407.46   20.80
   6  -2 -12  422.06   20.00
  -2  -6 -12  448.56   19.70
  -2  -6  12  443.16   18.40
   6  -2  12  401.76   20.10
  -6   2  12  410.56   19.50
   2   6  12  421.46   19.10
  -3  -6 -12   51.99    8.20
   3   6 -12   38.60    9.00
   6  -3 -12   49.70    8.40
  -6   3 -12   56.69    8.90
   3   6  12   67.79    8.60
  -6   3  12   76.89    9.90
   6  -3  12   62.49   10.00
   6  -4 -12  225.58   15.50
  -6   4 -12  232.28   14.80
  -4  -6 -12  251.37   15.80
   4   6 -12  210.78   16.80
   6  -4  12  253.27   16.30
   4   6  12  265.17   15.20
  -6   4  12  265.47   16.30
  -4  -6  12  253.57   14.30
   7   3 -12   -0.20    7.20
   3  -7  12   -5.30    6.00
  -3   7  12    1.70    6.20
   7   3  12    1.50    7.40
   2  -7 -12    2.70    6.60
  -2   7 -12    0.20    7.10
   7   2 -12    2.20    6.80
  -7  -2 -12    0.10    5.30
  -7  -2  12    3.50    5.80
   7   2  12    3.10    7.30
   2  -7  12   -1.70    5.60
  -2   7  12    1.00    6.00
   1  -7 -12    2.50    5.70
  -1   7 -12   -1.30    7.00
  -7  -1 -12    1.60    5.20
   7   1 -12    0.30    6.00
   7   1 -12    3.10    6.20
  -1   7  12    2.10    5.30
  -7  -1  12    7.70    6.10
   7   1  12   -3.20    5.70
   1  -7  12    3.30    5.20
  -7   0 -12    0.00    5.40
   7   0 -12    5.70    6.40
   0   7 -12    8.00    6.70
   0  -7 -12   11.40    6.90
   0  -7  12    1.10    4.90
  -7   0  12    4.30    5.30
   0   7  12    6.50    6.00
   7   0  12    8.40    6.70
   7  -1 -12   -0.50    6.20
  -7   1 -12    7.00    6.40
   1   7 -12    2.40    7.20
  -1  -7 -12    4.90    6.60
  -7   1  12    5.90    6.10
   1   7  12    1.60    5.80
  -1  -7  12    8.40    6.00
   7  -1  12    4.10    7.00
  -7   2 -12   -1.50    5.70
   7  -2 -12    1.20    5.90
  -2  -7 -12    2.50    6.00
   2   7 -12   -5.40    7.00
  -2  -7  12   -1.00    5.50
   7  -2  12   -3.80    7.20
   2   7  12    2.30    6.10
  -7   2  12   -0.30    6.30
  -3  -7  12   -1.70    5.50
   0   0 -13    0.20    2.10
   0   0 -13    0.30    2.50
   0   0  13   -1.30    2.40
   0   0  13    1.60    1.70
   0   1 -13 1140.79   33.30
  -1   0 -13 1116.69   33.80
   1   0 -13 1119.39   33.90
   0  -1 -13 1137.29   34.10
  -1   0 -13 1107.79   30.40
   0   1 -13 1116.29   33.50
  -1   0 -13 1126.19   32.60
   1   0 -13 1130.89   31.90
   0  -1 -13 1112.79   30.70
  -1   0  13 1128.09   32.50
   0   1  13 1126.49   32.00
   0  -1  13 1100.39   30.50
   0   1  13 1062.29   32.50
   1   0  13 1130.89   32.70
   0  -1  13 1108.99   32.70
   1   0  13 1134.39   32.60
   0   1  13 1126.69   30.80
  -1   0  13 1134.89   32.20
  -1  -1 -13   -0.10    2.00
   1  -1 -13    3.30    3.40
   1   1 -13    0.30    2.60
   1  -1 -13    1.40    1.60
  -1  -1 -13    2.10    2.70
   1   1 -13   -0.40    2.40
  -1   1 -13   -0.20    2.40
  -1   1 -13    0.10    2.80
   1   1  13   -0.60    2.40
   1  -1  13    1.80    2.40
   1   1  13   -0.60    1.80
  -1   1  13   -1.00    2.20
  -1  -1  13    1.80    2.40
  -1   1  13    0.50    2.20
  -1  -1  13    4.50    2.10
   2   1 -13 1779.72   51.69
   1  -2 -13 1809.22   52.19
  -2  -1 -13 1764.52   51.69
  -1   2 -13 1839.92   51.39
   2   1 -13 1802.92   50.89
  -2  -1 -13 1812.62   49.10
  -1   2 -13 1835.42   52.59
  -1   2  13 1840.62   51.29
   2   1  13 1816.22   50.59
   2   1  13 1824.02   50.29
   1  -2  13 1812.72   50.79
  -2  -1  13 1844.72   50.29
  -2  -1  13 1828.52   49.99
  -1   2  13 1797.62   50.59
   0   2 -13    1.60    3.20
  -2   0 -13    5.00    2.80
   0  -2 -13    3.90    3.00
  -2   0 -13    2.70    3.10
   0   2 -13    4.10    2.70
   0  -2 -13    3.20    2.60
   2   0 -13    4.30    3.40
   2   0 -13    4.70    2.40
   0  -2  13    4.10    2.60
   0   2  13    2.70    2.60
   2   0  13    4.90    2.70
   0   2  13    3.30    2.60
  -2   0  13    3.30    2.50
   2   0  13    3.30    2.70
  -2   0  13    5.40    2.70
   2  -1 -13 1838.62   52.69
  -2   1 -13 1825.12   52.09
   1   2 -13 1847.32   51.29
  -1  -2 -13 1788.12   51.99
  -2   1 -13 1841.92   52.09
  -1  -2 -13 1820.92   50.59
   1   2 -13 1862.81   52.29
  -2   1  13 1854.81   51.59
   1   2  13 1768.32   50.99
   2  -1  13 1790.02   52.09
   2  -1  13 1834.72   50.89
  -1  -2  13 1815.22   49.20
  -1  -2  13 1849.71   50.89
  -2   1  13 1812.32   50.39
  -2   2 -13    4.90    3.20
  -2  -2 -13    1.60    2.90
   2   2 -13    4.80    3.10
  -2  -2 -13    5.90    2.70
   2  -2 -13    2.80    3.30
   2   2 -13    5.90    3.60
  -2   2 -13    3.40    3.40
  -2   2  13    5.20    3.00
   2  -2  13    4.70    2.90
  -2   2  13    2.10    2.50
  -2  -2  13    2.80    2.40
   2   2  13    2.20    2.90
  -2  -2  13    5.60    3.10
   2   2  13    5.40    2.80
  -3  -2 -13 1210.38   35.20
  -2   3 -13 1202.88   36.30
  -2   3 -13 1160.08   38.10
  -3  -2 -13 1183.48   36.50
   3   2 -13 1220.18   36.30
   2  -3 -13 1192.98   37.50
   3   2 -13 1250.67   37.50
  -3  -2  13 1203.08   35.40
   3   2  13 1180.98   35.30
  -2   3  13 1219.38   37.40
  -2   3  13 1214.38   35.70
   3   2  13 1218.88   35.90
  -3  -2  13 1199.78   35.00
   2  -3  13 1143.19   35.50
   1  -3 -13   23.90    5.10
  -1   3 -13   22.40    4.20
   3   1 -13   20.20    4.60
  -1   3 -13   20.90    5.00
  -3  -1 -13   23.50    4.50
   3   1 -13   20.40    4.30
   1  -3 -13   27.60    5.20
  -1   3  13   27.30    5.10
   3   1  13   25.30    3.90
   3   1  13   30.50    4.80
  -3  -1  13   28.00    4.30
  -3  -1  13   29.60    4.00
   1  -3  13   27.30    4.40
  -1   3  13   22.70    4.10
   0   3 -13  760.82   26.80
   3   0 -13  815.52   24.60
   3   0 -13  782.42   26.40
   0   3 -13  794.82   24.80
  -3   0 -13  802.32   26.30
   0  -3 -13  794.72   25.80
   0  -3 -13  802.52   26.30
  -3   0  13  789.62   25.30
   3   0  13  812.42   24.70
   3   0  13  789.32   25.90
  -3   0  13  801.42   23.90
   0  -3  13  750.12   24.90
   0   3  13  807.92   26.00
   0   3  13  809.32   25.30
  -3   1 -13   28.80    5.20
   1   3 -13   25.30    5.40
  -1  -3 -13   28.70    5.00
  -3   1 -13   29.00    4.80
  -1  -3 -13   25.30    4.50
   3  -1 -13   26.90    5.50
   1   3 -13   31.00    4.30
  -3   1  13   20.20    3.50
  -3   1  13   15.50    4.10
   1   3  13   24.00    4.30
  -1  -3  13   26.80    3.30
  -1  -3  13   21.70    4.00
   3  -1  13   20.90    4.60
   3  -1  13   24.70    4.00
  -2  -3 -13 1165.68   35.70
  -3   2 -13 1208.68   36.80
  -2  -3 -13 1160.18   36.10
  -3   2 -13 1198.28   37.70
   2   3 -13 1167.88   37.40
   3  -2 -13 1230.38   37.90
   2   3 -13 1158.08   34.80
  -3   2  13 1160.78   36.70
   2   3  13 1206.08   35.80
   3  -2  13 1202.08   35.50
  -3   2  13 1247.58   34.90
   3  -2  13 1191.48   37.70
  -2  -3  13 1202.38   35.30
  -2  -3  13 1223.38   34.70
  -3   3 -13   78.69    8.30
   3   3 -13   86.09    8.80
  -3   3 -13   84.69    7.70
  -3  -3 -13   82.09    7.50
   3  -3 -13   83.39    8.20
  -3  -3 -13   83.39    7.40
   3  -3  13   89.09    7.20
  -3  -3  13   82.79    6.60
   3   3  13   93.39    7.40
   3  -3  13   92.79    8.90
  -3   3  13   83.39    8.10
  -3  -3  13   79.49    6.60
  -3   3  13   88.49    6.80
  -4  -3 -13  273.77   13.00
   4   3 -13  274.87   15.10
  -4  -3 -13  273.27   12.70
  -3   4 -13  258.07   14.80
   3  -4 -13  270.67   14.50
  -3   4 -13  275.57   13.20
   3  -4  13  268.97   12.60
  -3   4  13  300.87   14.90
   4   3  13  279.87   12.60
  -3   4  13  262.57   12.40
   4   3  13  283.57   13.80
   3  -4  13  256.67   14.50
  -4  -3  13  274.07   12.90
   2  -4 -13   28.00    5.50
  -2   4 -13   31.50    5.00
   2  -4 -13   34.20    6.40
  -4  -2 -13   30.70    5.30
   4   2 -13   37.70    6.20
  -2   4 -13   35.80    6.70
   4   2 -13   28.60    5.20
  -2   4  13   33.90    6.30
  -4  -2  13   30.50    4.90
   4   2  13   28.70    5.70
   2  -4  13   29.50    5.00
   4   2  13   29.80    4.80
  -2   4  13   34.40    5.40
  -4  -1 -13  359.76   15.40
   4   1 -13  331.27   14.90
  -1   4 -13  347.67   13.70
  -1   4 -13  330.37   16.10
   1  -4 -13  302.37   15.00
   4   1 -13  356.16   15.40
   1  -4 -13  333.77   14.90
   4   1  13  371.06   13.70
   4   1  13  375.56   15.50
  -1   4  13  369.66   15.70
   1  -4  13  366.96   14.40
  -4  -1  13  332.97   14.10
  -1   4  13  358.66   14.60
  -4   0 -13   43.50    6.10
   0  -4 -13   49.00    6.40
   0  -4 -13   47.90    6.80
   4   0 -13   47.60    7.00
   0   4 -13   40.70    6.70
   4   0 -13   52.89    6.10
  -4   0  13   47.40    6.30
   4   0  13   45.60    6.50
   0  -4  13   44.30    5.60
   0   4  13   44.20    6.00
   0   4  13   47.80    6.60
   4   0  13   41.60    5.00
   4  -1 -13  368.86   16.40
  -4   1 -13  380.06   16.20
   1   4 -13  365.96   16.90
  -1  -4 -13  375.86   15.60
  -1  -4 -13  374.76   15.10
   1   4  13  338.37   14.60
   4  -1  13  314.87   15.70
   4  -1  13  366.46   13.90
  -4   1  13  337.07   15.40
  -1  -4  13  359.36   14.50
  -4   2 -13   31.70    6.50
   4  -2 -13   33.20    6.10
  -2  -4 -13   34.20    5.40
  -2  -4 -13   32.30    5.70
  -4   2 -13   25.00    5.30
   2   4 -13   34.90    6.90
  -2  -4  13   41.00    5.00
   4  -2  13   28.80    6.10
   2   4  13   32.60    5.20
   4  -2  13   30.40    4.60
  -4   2  13   30.20    5.70
  -2  -4  13   34.80    5.00
  -3  -4 -13  274.67   13.80
  -3  -4 -13  257.87   12.60
  -4   3 -13  279.77   14.80
  -4   3 -13  283.77   13.90
   4  -3 -13  274.47   15.20
   3   4 -13  309.97   15.70
   4  -3  13  271.37   14.80
  -4   3  13  277.87   14.30
  -3  -4  13  277.87   12.60
  -3  -4  13  282.07   12.80
   3   4  13  271.47   13.20
   4  -3  13  295.47   12.70
  -4   4 -13   47.40    8.30
   4  -4 -13   50.39    7.80
  -4   4 -13   43.80    6.90
  -4  -4 -13   47.80    7.20
   4   4 -13   44.80    7.90
  -4  -4 -13   51.59    6.60
  -4   4  13   51.19    7.90
   4  -4  13   46.40    8.30
   4   4  13   47.00    6.60
   4  -4  13   43.50    6.10
  -4  -4  13   48.30    6.60
   4  -5 -13  149.49   12.80
   5   4 -13  149.29   13.50
  -4   5 -13  134.29   12.90
  -4   5 -13  130.09   10.70
  -4   5  13  161.28   12.80
   4  -5  13  156.08   13.10
   4  -5  13  148.79   10.20
  -5  -4  13  155.68   11.30
   3  -5 -13   69.69    9.10
  -5  -3 -13   67.19    7.70
   5   3 -13   61.39    9.20
  -3   5 -13   64.99    9.30
   3  -5 -13   78.19    9.50
   3  -5  13   70.49    8.00
  -5  -3  13   59.59    7.50
   5   3  13   70.19    9.30
  -3   5  13   65.19    7.50
  -3   5  13   53.89    8.30
   5   3  13   63.09    7.70
   5   2 -13  508.55   21.60
  -2   5 -13  530.75   22.60
  -5  -2 -13  516.95   20.20
   2  -5 -13  515.75   20.90
   2  -5 -13  511.65   21.90
   5   2  13  504.65   18.70
  -5  -2  13  467.55   19.40
   5   2  13  527.65   21.30
  -2   5  13  547.55   20.60
  -2   5  13  514.75   21.70
   2  -5  13  520.05   19.60
   5   1 -13   37.70    6.70
   5   1 -13   39.00    6.80
   1  -5 -13   37.10    6.70
  -5  -1 -13   32.00    5.80
  -1   5 -13   36.70    7.80
   1  -5 -13   43.70    6.80
   5   1  13   36.20    6.50
   5   1  13   30.10    5.30
  -1   5  13   28.60    6.10
  -1   5  13   28.40    5.50
  -5  -1  13   34.80    5.80
   1  -5  13   33.90    5.90
  -5   0 -13  312.27   15.10
   5   0 -13  289.07   15.20
   0  -5 -13  304.27   14.10
   0   5 -13  285.97   15.70
   0  -5 -13  288.47   15.10
   5   0  13  302.57   15.20
   5   0  13  275.47   15.60
   0  -5  13  319.47   14.40
   0   5  13  307.27   14.30
  -5   0  13  320.37   14.90
   1   5 -13   24.40    6.60
  -5   1 -13   45.30    7.10
  -1  -5 -13   32.70    5.70
   5  -1 -13   28.50    6.20
  -1  -5 -13   39.60    6.60
  -5   1  13   35.50    6.50
  -1  -5  13   35.70    5.80
   5  -1  13   28.70    6.80
   1   5  13   32.50    5.80
  -2  -5 -13  491.75   20.50
   2   5 -13  527.05   22.60
   5  -2 -13  527.65   22.20
  -5   2 -13  518.75   21.20
  -2  -5  13  496.25   19.20
   5  -2  13  494.55   21.80
   2   5  13  510.35   20.40
   3   5 -13   66.39    9.40
  -3  -5 -13   77.99    9.20
   5  -3 -13   59.09    8.80
  -5   3 -13   70.79    8.50
   3   5  13   66.09    7.80
   5  -3  13   72.59    9.80
  -3  -5  13   58.59    7.30
  -3  -5  13   77.59    7.90
  -5   3  13   66.09    8.60
  -5   4 -13  137.89   12.00
   4   5 -13  155.88   13.30
  -4  -5 -13  151.98   11.70
  -5   4 -13  163.48   12.20
   5  -4 -13  141.59   12.00
   5  -4  13  133.59   11.90
  -4  -5  13  142.39   10.60
   4   5  13  158.48   10.70
  -5   4  13  139.89   12.10
   5   5 -13   42.00   10.00
   5  -5 -13   40.20    8.70
  -5  -5 -13   34.60    7.50
  -5   5 -13   37.50    9.20
  -5   5 -13   43.60    7.90
  -5   5  13   46.60    9.10
   5  -5  13   50.99   10.00
  -5  -5  13   37.90    7.30
   6   4 -13   51.29   10.10
   4  -6 -13   57.19    9.50
  -6  -4  13   52.39    8.40
   4  -6  13   60.59    8.40
  -6  -3 -13  344.97   16.40
  -3   6 -13  355.66   19.30
   3  -6 -13  344.77   17.60
   6   3 -13  347.67   19.40
   3  -6 -13  341.77   18.40
  -3   6  13  345.87   17.10
   3  -6  13  341.67   16.10
   6   3  13  349.37   18.90
  -3   6  13  346.57   18.70
  -6  -3  13  345.07   17.40
   6   2 -13   58.49    9.10
   2  -6 -13   72.69    8.90
  -2   6 -13   61.59    9.70
   2  -6 -13   48.70    8.10
  -6  -2 -13   75.39    8.80
   2  -6  13   59.29    7.90
  -2   6  13   79.49    9.40
  -2   6  13   60.29    8.90
   6   2  13   60.99    8.90
  -6  -2  13   86.79    9.70
  -6  -1 -13  512.55   21.20
   6   1 -13  489.65   21.60
   6   1 -13  541.25   22.60
   1  -6 -13  523.15   23.10
  -1   6 -13  559.14   24.20
  -1   6  13  541.85   21.90
   6   1  13  526.45   23.10
  -6  -1  13  537.35   21.90
   1  -6  13  529.85   21.30
   0   6 -13   81.39   10.60
  -6   0 -13   80.09    9.20
   6   0 -13   82.89    9.70
   0  -6 -13   86.09   10.10
  -6   0  13   87.29    9.50
   6   0  13   77.99   10.20
   0   6  13   69.69    8.50
   0  -6  13  105.29    9.10
  -1  -6 -13  518.35   22.30
   6  -1 -13  563.44   23.30
  -6   1 -13  521.65   22.00
   1   6 -13  539.85   24.20
   6  -1  13  538.95   23.90
  -1  -6  13  507.95   20.80
   1   6  13  547.85   22.20
  -6   1  13  527.95   22.60
  -6   2 -13   63.19    9.10
   6  -2 -13   68.49    9.80
  -2  -6 -13   79.49   10.00
   2   6 -13   65.09    9.90
  -2  -6  13   74.89    8.60
   6  -2  13   66.49    9.80
   2   6  13   57.79    8.10
  -6   2  13   71.99    9.70
   6  -3 -13  344.97   19.30
  -6   3 -13  363.46   18.60
   3   6 -13  334.37   19.30
  -3  -6 -13  338.57   18.30
  -6   3  13  361.76   18.60
   6  -3  13  345.97   18.90
  -3  -6  13  345.07   16.00
   3   6  13  326.07   16.80
  -6   4 -13   49.20    8.90
  -4  -6 -13   46.70    8.80
   4   6  13   58.69    9.00
  -3   7  13   32.40   12.30
  -7  -2 -13  215.38   14.10
   7   2 -13  225.68   16.20
  -2   7  13  224.18   15.30
   7   2  13  219.48   16.70
  -1   7 -13   32.10    8.80
  -7  -1 -13   30.30    7.40
   1  -7 -13   34.80    8.10
   1  -7  13   28.20    7.40
  -1   7  13   27.80    7.00
  -7  -1  13   36.70    8.00
   0  -7 -13  146.89   13.60
   7   0 -13  152.48   13.30
   0   7 -13  150.48   13.90
  -7   0 -13  145.29   12.60
   0  -7  13  143.09   11.60
   7   0  13  138.89   13.20
  -7   0  13  145.39   12.00
   0   7  13  163.98   13.20
   1   7 -13   28.90    8.80
  -1  -7 -13   33.80    8.20
   7  -1 -13   21.80    7.80
  -7   1 -13   40.60    8.60
   1   7  13   30.80    7.30
  -7   1  13   36.70    8.10
  -1  -7  13   29.40    7.50
   7  -1  13   29.50    9.20
  -2  -7  13  204.28   15.10
   0   0 -14    0.20    2.30
   0   0 -14    1.10    3.10
   0   0  14    1.00    1.80
   0   0  14    1.60    2.40
   1   0 -14  163.58    7.50
   0  -1 -14  157.18    6.40
   0  -1 -14  157.38    9.00
   0   1 -14  155.28    8.60
   0   1 -14  153.98    8.40
  -1   0 -14  162.48    8.10
   0  -1 -14  159.78    7.60
  -1   0 -14  145.49    8.70
   1   0 -14  159.88    9.30
   1   0  14  159.18    8.30
  -1   0  14  162.18    7.90
   0  -1  14  157.58    6.20
   0   1  14  164.38    7.50
   0  -1  14  152.18    8.30
  -1   0  14  149.39    7.50
   1   0  14  157.78    8.00
   0   1  14  151.58    8.20
  -1   1 -14 1921.51   55.29
  -1   1 -14 1994.00   55.29
  -1  -1 -14 1959.50   52.89
  -1  -1 -14 1875.21   55.39
   1  -1 -14 1898.61   55.69
   1   1 -14 1968.80   54.59
   1   1 -14 1979.60   55.49
   1   1  14 1914.81   52.89
  -1  -1  14 1976.60   52.99
   1   1  14 1947.21   54.39
  -1   1  14 1968.90   54.19
   1  -1  14 1964.50   54.39
  -1   1  14 1996.60   54.19
  -1   2 -14   68.89    7.10
   1  -2 -14   68.99    7.30
   2   1 -14   73.49    6.50
  -1   2 -14   69.89    6.60
   2   1 -14   71.19    6.00
  -2  -1 -14   75.39    6.70
   2   1  14   68.09    5.70
   1  -2  14   79.89    6.20
   2   1  14   73.39    5.90
  -2  -1  14   73.39    5.60
  -1   2  14   65.49    5.60
  -2  -1  14   66.69    5.50
  -1   2  14   75.09    6.30
   0  -2 -14    3.20    2.90
   2   0 -14    7.70    4.10
   0   2 -14    8.00    3.80
   2   0 -14    3.60    2.40
  -2   0 -14    5.20    3.10
  -2   0 -14    2.20    3.50
   0  -2 -14    2.70    3.20
   0   2 -14    1.70    3.00
  -2   0  14    2.50    2.80
   0  -2  14    4.00    3.20
  -2   0  14    4.50    2.90
   2   0  14    5.70    2.90
   0   2  14    2.60    2.80
   2   0  14    5.50    3.10
   0   2  14    0.60    2.70
   1   2 -14   65.59    6.70
   1   2 -14   74.19    6.30
   2  -1 -14   58.89    6.80
  -2   1 -14   64.69    6.70
  -1  -2 -14   75.89    7.00
  -1  -2 -14   58.89    5.20
  -2   1 -14   61.79    6.10
  -1  -2  14   68.59    4.60
  -1  -2  14   73.39    5.80
   1   2  14   63.99    5.70
   2  -1  14   78.29    6.40
   2  -1  14   76.79    6.50
  -2   1  14   75.39    5.80
  -2   1  14   67.59    6.10
  -2   2 -14   17.10    4.20
  -2  -2 -14   13.30    3.40
  -2   2 -14   12.00    4.20
   2   2 -14   16.80    4.50
  -2  -2 -14   15.50    4.10
   2  -2 -14   13.80    4.70
   2   2 -14   11.40    3.70
  -2  -2  14   20.60    3.90
  -2   2  14   14.60    3.80
   2  -2  14    7.50    3.30
  -2   2  14   13.10    4.00
   2   2  14   14.60    3.70
  -2  -2  14   14.20    3.20
  -2   3 -14  111.19    7.80
  -3  -2 -14  117.39    8.60
   3   2 -14  101.69    8.30
   3   2 -14  106.19    8.60
   2  -3 -14  104.29    9.00
  -2   3 -14  109.79    9.40
  -2   3  14  114.69    7.40
  -3  -2  14  111.59    7.30
  -2   3  14  109.59    8.60
  -3  -2  14  118.59    7.40
   3   2  14  110.39    7.60
   3   2  14  116.19    7.70
   2  -3  14  106.79    7.50
   3   1 -14  786.42   25.60
   3   1 -14  765.52   26.40
   1  -3 -14  724.73   26.00
  -3  -1 -14  766.32   26.30
   1  -3 -14  747.93   26.40
  -1   3 -14  805.82   25.60
  -1   3 -14  790.62   27.50
  -3  -1  14  821.22   24.40
   3   1  14  778.42   25.50
  -3  -1  14  823.32   25.20
  -1   3  14  784.12   25.40
   1  -3  14  797.42   25.40
  -1   3  14  797.32   26.20
   3   1  14  816.12   25.00
   3   0 -14   77.69    6.00
   0  -3 -14   86.79    7.30
  -3   0 -14   88.49    7.30
   3   0 -14   65.69    7.40
   0  -3 -14   80.79    7.00
   0   3 -14   84.29    6.50
   0   3 -14   66.39    7.00
   0   3  14   80.49    6.60
   0   3  14   83.59    7.10
   3   0  14   74.29    7.00
  -3   0  14   88.99    6.90
   3   0  14   91.49    6.60
   0  -3  14   87.39    6.60
  -3   0  14   81.39    5.80
  -3   1 -14  821.82   27.00
  -1  -3 -14  788.22   25.80
   1   3 -14  793.62   25.20
   3  -1 -14  884.91   28.20
  -1  -3 -14  860.61   27.00
   1   3 -14  778.02   27.40
  -3   1 -14  805.92   26.80
   3  -1  14  824.62   25.40
   1   3  14  761.22   25.70
  -3   1  14  819.12   26.70
  -1  -3  14  776.32   25.50
  -3   1  14  764.32   24.40
   3  -1  14  772.92   27.10
   2   3 -14  121.89    8.90
  -3   2 -14  116.79    8.90
  -2  -3 -14  101.19    7.60
   2   3 -14  116.99    7.50
   3  -2 -14  103.19    8.80
  -3   2 -14  121.19    9.50
  -2  -3 -14  107.39    8.30
  -3   2  14  107.59    8.00
  -3   2  14  122.09    7.20
  -2  -3  14  107.19    6.60
   3  -2  14  116.89    7.80
   3  -2  14  120.29    9.60
  -2  -3  14  108.09    7.60
   2   3  14   93.29    7.80
  -3   3 -14  379.96   16.20
  -3  -3 -14  355.36   15.30
  -3  -3 -14  354.26   15.50
  -3   3 -14  363.16   17.20
   3   3 -14  375.16   17.00
   3  -3 -14  365.66   17.20
   3   3  14  376.46   15.30
   3  -3  14  377.46   15.20
   3  -3  14  378.26   17.20
  -3   3  14  401.06   15.00
  -3  -3  14  380.96   14.60
  -3  -3  14  386.76   14.80
  -3   3  14  371.96   16.70
  -4  -3 -14   61.89    7.10
   3  -4 -14   81.59    9.20
  -3   4 -14   57.59    8.50
   4   3 -14   70.09    9.20
  -3   4 -14   73.29    7.80
   3  -4  14   81.59    8.80
  -4  -3  14   74.79    7.40
   3  -4  14   78.39    7.70
  -3   4  14   73.29    7.60
   4   3  14   89.19    7.60
  -3   4  14   77.89    8.30
   4   2 -14   10.30    4.50
   2  -4 -14    3.40    4.10
  -2   4 -14    2.60    3.50
  -4  -2 -14    1.50    3.90
   4   2 -14    6.80    4.90
  -2   4 -14    3.10    5.20
   2  -4 -14    2.80    4.00
  -4  -2  14    5.70    3.90
   4   2  14    7.60    3.70
   2  -4  14    3.20    4.00
  -2   4  14    1.70    3.70
   4   2  14    4.10    4.20
  -2   4  14    3.00    3.40
  -1   4 -14   10.30    5.00
  -4  -1 -14   18.20    5.10
   1  -4 -14   16.70    4.80
   4   1 -14   14.70    4.70
  -1   4 -14   21.90    4.40
   1  -4 -14   13.90    4.80
   4   1 -14   14.00    4.80
  -1   4  14   13.10    4.50
   1  -4  14   14.40    4.30
  -4  -1  14   10.50    3.80
   4   1  14   16.90    5.10
  -1   4  14   13.00    4.60
   4   1  14   14.90    4.10
   0  -4 -14    0.20    3.80
   4   0 -14   -1.50    4.00
   0   4 -14    2.90    4.00
   0  -4 -14    4.90    4.00
  -4   0 -14    0.30    3.60
   4   0  14    3.50    3.80
   4   0  14    1.50    3.20
   0  -4  14    2.60    3.40
  -4   0  14    2.90    3.80
   0   4  14   -2.10    3.20
  -4   1 -14   15.60    5.20
   1   4 -14   18.80    5.90
  -1  -4 -14   15.50    4.70
  -1  -4 -14   13.00    4.40
   4  -1 -14   17.20    5.40
  -1  -4  14   16.70    4.30
  -4   1  14   12.30    4.40
   4  -1  14   13.00    3.80
   1   4  14   21.00    4.70
   4  -1  14   18.30    5.60
  -2  -4 -14    2.00    3.80
  -4   2 -14    9.20    4.90
   2   4 -14    5.60    4.60
  -2  -4 -14    1.90    3.80
  -4   2 -14    5.90    4.50
   4  -2 -14    7.00    4.80
   2   4  14    6.10    4.30
  -4   2  14   10.30    4.50
   4  -2  14    3.20    3.70
  -2  -4  14    4.10    3.60
   4  -2  14    3.80    4.30
  -4   3 -14   84.09    9.90
  -4   3 -14   85.49    8.90
  -3  -4 -14   66.19    7.90
  -3  -4 -14   70.99    7.50
   4  -3 -14   68.49    8.80
   3   4 -14   74.39    9.60
  -3  -4  14   81.59    7.60
  -4   3  14   78.79    8.30
   4  -3  14   79.09    9.70
   4  -3  14   75.09    7.40
  -3  -4  14   60.19    6.60
   3   4  14   87.89    8.20
  -4   4 -14   -0.20    4.60
  -4   4 -14    0.00    5.00
  -4  -4 -14    3.70    4.50
   4   4 -14    1.50    5.30
   4  -4 -14   -4.20    5.30
  -4  -4 -14    3.00    4.70
   4  -4  14    1.40    4.10
   4   4  14    3.60    4.10
  -4  -4  14    2.30    4.10
   4  -4  14    2.00    4.90
  -4   4  14    1.80    5.30
   4  -5 -14   22.60    7.40
  -4   5 -14   10.70    6.50
  -4   5 -14   15.90    6.10
   5   4 -14   19.70    7.30
   4  -5  14   19.30    5.90
   4  -5  14   13.80    6.30
  -5  -4  14   23.50    6.30
  -4   5  14   24.10    6.70
   3  -5 -14  389.66   18.80
   3  -5 -14  402.06   19.50
   5   3 -14  430.06   20.20
  -5  -3 -14  404.86   17.60
  -3   5 -14  387.26   19.70
  -5  -3  14  382.16   17.40
   5   3  14  387.96   16.80
   3  -5  14  393.66   16.90
  -3   5  14  389.16   17.40
  -3   5  14  410.96   19.40
   5   2 -14   22.60    6.10
   2  -5 -14   19.90    6.40
  -5  -2 -14   26.20    6.20
   2  -5 -14   18.80    5.90
  -2   5 -14   20.10    7.00
  -2   5  14   21.20    5.80
   5   2  14   26.30    6.60
  -5  -2  14   28.40    5.90
   2  -5  14   15.70    5.30
  -2   5  14   25.40    6.70
   5   2  14   19.40    4.80
  -1   5 -14  683.83   27.20
   1  -5 -14  657.73   24.80
  -5  -1 -14  666.33   25.00
   5   1 -14  662.33   25.20
   1  -5 -14  653.13   25.70
   5   1 -14  691.03   25.30
   5   1  14  693.23   22.80
   1  -5  14  696.83   24.30
  -1   5  14  668.93   25.90
   5   1  14  680.93   25.70
  -1   5  14  719.23   25.10
  -5  -1  14  696.83   24.80
   5   0 -14    2.20    4.50
  -5   0 -14    6.90    4.60
   0  -5 -14    8.60    5.40
   0  -5 -14    5.40    4.40
   0   5 -14    5.40    5.10
  -5   0  14    7.20    4.40
   5   0  14    7.70    4.40
   0   5  14    3.10    4.00
   5   0  14    5.70    5.30
   0  -5  14   13.70    5.10
  -1  -5 -14  700.83   25.60
   5  -1 -14  691.23   26.30
   1   5 -14  682.93   27.30
  -5   1 -14  695.03   25.60
  -1  -5 -14  682.23   24.00
  -1  -5  14  690.43   24.20
   5  -1  14  625.54   25.50
  -5   1  14  665.73   25.40
  -2  -5 -14   16.40    5.50
  -5   2 -14   15.10    5.40
   2   5 -14   19.80    7.10
   5  -2 -14   12.50    6.20
  -5   2  14   21.40    5.70
  -2  -5  14   18.60    5.10
   2   5  14   21.80    5.40
   5  -2  14   25.50    6.80
   3   5 -14  383.36   20.20
  -5   3 -14  379.56   18.40
  -3  -5 -14  378.96   18.30
   5  -3 -14  386.36   19.70
   3   5  14  405.36   18.10
  -5   3  14  404.66   19.00
  -3  -5  14  390.16   16.70
   5  -3  14  403.86   19.90
   4   5 -14   13.10    7.00
   5  -4 -14   15.60    6.60
  -5   4 -14   10.30    5.50
  -4  -5 -14   15.50    6.10
  -5   4 -14   18.10    6.80
  -4  -5  14   20.80    6.00
   4   5  14   18.00    6.00
  -5   4  14   23.10    7.10
   5  -4  14   19.00    7.00
  -5   5 -14  309.07   16.90
   5  -5 -14  277.57   19.70
   5   5 -14  320.37   28.40
  -5  -5  14  285.47   16.10
   6   4 -14    0.20   11.40
   4  -6 -14    5.20    6.50
  -6  -4  14    4.20    5.90
   4  -6  14   -2.30    5.10
  -3   6 -14   12.80    6.80
   3  -6 -14   17.60    7.50
  -6  -3 -14   18.10    6.30
   3  -6 -14   15.30    6.50
   6   3 -14   15.60    7.00
   3  -6  14   19.10    6.40
  -6  -3  14   10.20    5.70
   6   3  14   16.40    7.60
  -3   6  14   11.60    5.80
  -3   6  14   10.00    6.90
   2  -6 -14   10.10    6.00
   6   2 -14   12.80    6.50
   2  -6 -14    9.40    6.50
  -6  -2 -14    4.70    5.30
  -2   6 -14    7.30    7.00
  -2   6  14    6.90    5.40
   2  -6  14    9.50    5.10
   6   2  14    6.90    6.20
  -6  -2  14   10.10    5.90
  -2   6  14    7.10    6.30
  -6  -1 -14   13.00    5.90
  -1   6 -14    5.40    6.20
   6   1 -14    5.70    5.90
   1  -6 -14    5.70    6.30
   6   1  14    6.10    6.20
  -6  -1  14    3.20    5.30
   1  -6  14    8.40    5.10
  -1   6  14    3.80    4.90
   0   6 -14    2.50    5.60
   0  -6 -14    4.00    5.80
   6   0 -14   -2.60    5.30
  -6   0 -14    6.60    5.40
  -6   0  14    4.10    5.50
   6   0  14    2.90    5.40
   0   6  14    1.90    5.20
   0  -6  14    1.20    4.50
  -1  -6 -14    7.60    5.50
   6  -1 -14    6.70    6.40
  -6   1 -14    9.00    6.00
   1   6 -14    2.30    5.80
  -1  -6  14   12.50    5.90
   6  -1  14    4.10    5.80
   1   6  14    2.00    4.50
  -6   1  14   16.70    6.50
  -2  -6 -14    7.20    6.20
   2   6 -14    8.40    7.20
  -6   2 -14    9.00    5.90
   6  -2 -14    0.60    6.10
   2   6  14    8.20    5.60
  -2  -6  14    6.90    5.00
  -6   2  14    7.00    5.20
   6  -2  14    3.40    6.80
  -6   3 -14   17.00    7.00
  -3  -6 -14   10.80    6.60
   6  -3 -14    9.90    6.40
   3   6 -14   12.00    7.50
  -6   3  14    7.40    6.20
   3   6  14   16.30    6.70
  -3  -6  14    4.80    5.50
   6  -3  14   16.20    6.90
  -4  -6 -14   -0.50    6.20
   4   6  14    4.10    6.20
   7   2 -14   52.89   10.70
  -7  -2 -14   37.00    7.60
   7   2  14   44.60   14.30
  -7  -1 -14  193.48   14.00
   7   1  14  208.48   16.40
  -7   0 -14   25.60    8.60
   7   0 -14   24.20    7.60
   7   0  14   36.20    9.60
   7  -1 -14  187.18   16.70
   0   0 -15    2.90    3.20
   0   0 -15    0.20    2.20
   0   0  15   -0.80    1.80
   0   0  15   -1.70    2.50
   0  -1 -15 1057.29   30.90
   0   1 -15 1031.40   32.00
   0   1 -15 1011.20   32.60
   0  -1 -15 1042.30   33.00
  -1   0 -15 1042.80   32.90
   1   0 -15 1079.09   30.80
  -1   0 -15 1078.49   31.40
   1   0 -15 1065.99   33.30
   0   1  15 1072.69   30.70
   1   0  15 1058.09   31.70
   0  -1  15 1024.80   31.60
   1   0  15 1037.30   31.20
  -1   0  15 1072.79   31.50
  -1   0  15 1029.00   30.60
   0   1  15 1061.79   31.70
   1  -1 -15    6.50    3.60
   1   1 -15    6.80    3.20
  -1  -1 -15    7.50    2.60
  -1  -1 -15    7.00    3.90
   1   1 -15    6.10    3.70
  -1   1 -15    9.30    3.50
  -1   1 -15   12.20    4.00
   1   1  15    5.90    3.10
  -1   1  15    4.80    3.00
  -1   1  15    4.40    2.90
  -1  -1  15    5.90    2.60
  -1  -1  15    4.00    2.90
   1  -1  15    4.50    3.00
   1   1  15    5.20    2.50
  -1   2 -15 1109.59   35.00
  -2  -1 -15 1126.19   35.60
   2   1 -15 1172.08   35.70
   1  -2 -15 1129.09   36.00
  -1   2 -15 1191.78   36.20
   2   1 -15 1143.39   34.50
  -2  -1  15 1149.58   33.80
   2   1  15 1160.88   34.40
  -2  -1  15 1165.38   33.70
   1  -2  15 1137.29   34.50
   2   1  15 1130.49   33.70
  -1   2  15 1133.39   34.30
  -1   2  15 1154.88   34.70
  -2   0 -15    7.10    3.30
   0  -2 -15   -0.60    3.20
   0   2 -15    5.80    3.80
   0   2 -15    4.70    3.20
   0  -2 -15   -0.70    2.70
   2   0 -15    4.00    4.10
   2   0 -15    2.00    2.70
  -2   0 -15    5.30    3.60
   2   0  15    0.60    3.20
   0   2  15    4.20    3.00
   0  -2  15    3.60    3.30
   0   2  15    2.40    2.90
   2   0  15    4.70    3.20
  -2   0  15    5.10    3.00
  -2   0  15    1.90    2.90
  -1  -2 -15 1129.59   33.80
   1   2 -15 1109.59   34.90
  -2   1 -15 1163.58   35.70
  -1  -2 -15 1167.78   35.90
   1   2 -15 1143.09   35.70
  -2   1 -15 1168.18   36.00
   2  -1 -15 1148.89   36.40
   2  -1  15 1161.68   35.60
  -2   1  15 1166.68   34.80
  -2   1  15 1153.58   34.00
  -1  -2  15 1187.58   34.70
   2  -1  15 1131.99   34.30
   1   2  15 1148.39   34.70
  -2  -2 -15   -0.60    3.20
   2  -2 -15    0.80    4.00
   2   2 -15   -0.90    3.00
  -2   2 -15    0.70    3.50
  -2   2 -15    0.20    3.60
   2   2 -15    1.00    3.50
  -2  -2 -15    0.00    2.70
   2  -2  15    0.70    3.30
  -2   2  15   -1.20    2.90
   2   2  15    0.40    3.20
  -2  -2  15    2.10    2.60
  -2  -2  15   -0.10    2.80
  -2   2  15    2.00    3.40
   3   2 -15  629.54   23.10
  -2   3 -15  672.23   25.20
   3   2 -15  679.13   24.10
  -2   3 -15  689.53   23.50
   2  -3 -15  664.63   24.70
  -3  -2 -15  645.14   23.60
  -3  -2  15  659.03   21.80
  -2   3  15  653.73   22.40
   3   2  15  673.43   22.60
  -3  -2  15  650.23   22.10
  -2   3  15  673.53   23.90
   2  -3  15  691.13   22.90
   3   1 -15   31.90    5.50
   1  -3 -15   24.40    5.50
  -3  -1 -15   27.50    5.70
  -1   3 -15   23.30    5.50
   1  -3 -15   27.90    5.20
   3   1 -15   32.80    5.20
  -1   3 -15   29.70    5.00
   3   1  15   25.60    4.80
   3   1  15   37.70    5.30
   1  -3  15   30.70    5.00
  -3  -1  15   34.90    4.70
  -1   3  15   40.80    5.40
  -3  -1  15   38.10    5.20
  -1   3  15   36.50    5.70
   0   3 -15  589.94   22.00
   0   3 -15  559.64   19.80
  -3   0 -15  558.74   21.00
   3   0 -15  560.54   21.40
   0  -3 -15  595.24   20.60
   0  -3 -15  555.94   20.90
   0   3  15  548.65   20.10
  -3   0  15  569.54   18.80
   3   0  15  574.54   20.60
   0   3  15  583.74   20.50
   3   0  15  553.94   19.30
  -3   0  15  546.85   20.00
   0  -3  15  556.44   19.90
  -3   1 -15   32.00    5.80
  -3   1 -15   31.70    5.80
   3  -1 -15   29.00    5.90
   1   3 -15   42.60    6.80
  -1  -3 -15   35.50    5.50
   1   3 -15   33.40    5.00
  -1  -3 -15   32.80    4.90
   3  -1  15   31.50    5.10
   3  -1  15   26.80    5.30
  -3   1  15   29.80    5.40
   1   3  15   32.90    5.40
  -3   1  15   27.90    4.10
  -1  -3  15   31.20    5.20
  -2  -3 -15  639.84   23.00
   2   3 -15  633.64   24.20
   2   3 -15  680.03   22.80
  -2  -3 -15  661.63   22.30
  -3   2 -15  656.73   23.90
   3  -2 -15  690.63   25.00
  -3   2 -15  709.93   25.00
   3  -2  15  636.64   22.20
  -3   2  15  656.83   23.50
   2   3  15  650.03   22.60
  -2  -3  15  644.34   23.90
   3  -2  15  637.64   24.40
  -3   2  15  662.73   21.70
  -2  -3  15  634.44   22.10
   3   3 -15   82.79    9.10
  -3   3 -15   85.69    9.80
  -3   3 -15   80.59    7.80
  -3  -3 -15   83.09    8.10
   3  -3 -15   86.99    8.80
   3   3  15   79.29    7.70
  -3  -3  15   80.59    6.90
  -3  -3  15   72.59    7.10
   3  -3  15   83.09    9.60
  -3   3  15   74.39    6.90
   3  -3  15   78.69    7.10
  -3   3  15   89.79    8.20
  -3   4 -15  258.27   15.40
   4   3 -15  221.38   14.20
  -4  -3 -15  231.88   12.70
  -3   4 -15  236.68   12.90
   3  -4 -15  227.88   14.30
   3  -4  15  246.18   12.60
   3  -4  15  233.08   14.50
  -4  -3  15  221.18   12.10
  -3   4  15  223.08   12.10
  -3   4  15  234.68   13.90
   4   3  15  247.08   12.30
  -2   4 -15   35.80    7.50
   4   2 -15   23.70    6.10
  -4  -2 -15   27.80    5.90
   2  -4 -15   20.80    5.40
   2  -4 -15   28.50    6.40
   4   2 -15   23.50    5.60
  -2   4 -15   28.30    5.50
   4   2  15   32.40    5.80
   4   2  15   32.90    5.30
   2  -4  15   23.70    5.10
  -2   4  15   23.50    6.00
  -2   4  15   29.10    5.70
  -4  -2  15   24.00    5.00
   4   1 -15  353.26   15.30
  -1   4 -15  358.36   17.40
   4   1 -15  353.06   16.00
  -1   4 -15  346.17   14.30
   1  -4 -15  329.67   15.80
   1  -4 -15  346.47   16.10
  -4  -1 -15  331.87   15.40
   4   1  15  349.17   15.60
  -1   4  15  344.97   16.10
  -1   4  15  369.36   15.40
   4   1  15  332.97   14.00
   1  -4  15  338.77   14.90
  -4  -1  15  326.67   14.40
   4   0 -15   43.70    6.90
   0  -4 -15   45.40    6.60
   0  -4 -15   46.20    6.70
  -4   0 -15   32.70    6.00
   0   4 -15   31.60    6.40
   0  -4  15   40.20    5.80
  -4   0  15   43.50    6.20
   4   0  15   42.30    6.70
   0   4  15   42.50    6.00
   4   0  15   43.10    5.60
  -4   1 -15  368.36   16.60
   4  -1 -15  344.57   16.70
   1   4 -15  332.57   17.10
  -1  -4 -15  359.76   15.70
  -1  -4 -15  354.96   15.70
   1   4  15  352.66   15.20
  -1  -4  15  346.27   14.90
   4  -1  15  352.66   16.30
   4  -1  15  346.27   14.20
  -4   1  15  363.66   16.20
  -2  -4 -15   36.80    6.10
  -4   2 -15   25.40    6.50
   4  -2 -15   32.00    7.00
   2   4 -15   25.00    6.20
  -2  -4 -15   29.80    5.80
  -4   2 -15   24.60    6.20
   4  -2  15   21.60    6.40
  -4   2  15   31.70    6.40
   4  -2  15   23.30    5.00
   2   4  15   25.30    5.60
  -2  -4  15   22.90    4.90
  -3  -4 -15  236.78   12.50
  -4   3 -15  229.28   13.00
  -4   3 -15  217.48   13.60
   4  -3 -15  231.28   14.60
  -3  -4 -15  219.58   12.60
   3   4 -15  242.48   14.40
  -4   3  15  222.38   13.50
   4  -3  15  217.68   11.70
   3   4  15  218.58   12.40
   4  -3  15  225.98   13.90
  -3  -4  15  226.38   11.80
  -4   4 -15   64.39    9.40
   4   4 -15   75.09   10.70
  -4  -4 -15   67.39    7.90
  -4   4 -15   63.39    8.60
   4  -4 -15   74.19    9.90
   4  -4  15   66.09    9.40
   4   4  15   72.29    8.30
  -4   4  15   56.09    8.20
  -4  -4  15   77.89    8.20
   4  -4  15   71.29    7.90
   4  -5 -15  168.28   13.70
  -4   5 -15  157.18   11.90
   5   4 -15  151.68   14.20
  -4   5 -15  160.68   13.50
  -4   5  15  166.68   13.40
   4  -5  15  148.79   12.80
   4  -5  15  137.89   10.90
  -5  -4  15  175.48   12.00
  -5  -3 -15   42.60    7.00
   3  -5 -15   54.89    9.00
  -3   5 -15   46.20    8.90
   5   3 -15   52.69    9.00
   3  -5 -15   44.60    8.10
  -5  -3  15   45.20    7.10
   5   3  15   59.69    7.60
  -3   5  15   43.50    7.20
  -3   5  15   43.50    8.30
   3  -5  15   52.89    7.10
   5   2 -15  404.06   19.20
  -2   5 -15  398.26   20.00
   2  -5 -15  406.66   19.60
  -5  -2 -15  410.26   18.30
   2  -5 -15  399.06   18.80
  -2   5  15  409.86   19.40
   2  -5  15  410.36   17.70
   5   2  15  412.86   16.40
   5   2  15  391.16   18.50
  -2   5  15  416.56   17.90
  -5  -2  15  405.56   17.80
  -5  -1 -15   27.20    6.50
   5   1 -15   27.20    6.30
  -1   5 -15   28.00    7.30
   1  -5 -15   29.90    6.60
   1  -5 -15   34.10    7.20
  -5  -1  15   39.30    6.70
   5   1  15   24.90    6.00
  -1   5  15   29.60    6.90
   1  -5  15   33.70    6.50
  -1   5  15   30.30    6.00
   5   1  15   20.30    4.80
  -5   0 -15  366.56   17.20
   0   5 -15  354.16   18.30
   0  -5 -15  378.46   17.70
   5   0 -15  373.66   17.60
   0  -5 -15  379.46   16.90
  -5   0  15  369.96   16.70
   0   5  15  380.26   16.90
   5   0  15  359.86   15.70
   0  -5  15  366.06   16.10
   5   0  15  348.57   17.60
   1   5 -15   23.50    6.90
  -5   1 -15   24.50    6.20
   5  -1 -15   33.60    7.80
  -1  -5 -15   29.60    5.90
  -1  -5 -15   30.50    6.70
  -5   1  15   31.50    6.80
   5  -1  15   22.00    6.40
   1   5  15   21.80    5.50
  -1  -5  15   30.70    5.90
  -2  -5 -15  408.46   18.50
  -5   2 -15  408.66   19.00
   2   5 -15  426.16   20.90
   5  -2 -15  425.46   20.20
  -2  -5  15  401.16   17.10
  -5   2  15  401.06   18.50
   2   5  15  396.06   18.00
   5  -2  15  394.16   19.70
  -3  -5 -15   52.09    8.20
  -5   3 -15   51.29    7.90
   5  -3 -15   52.19    8.80
   3   5 -15   36.00    8.70
   5  -3  15   56.69    9.60
  -3  -5  15   45.30    6.70
   3   5  15   45.10    7.20
  -5   3  15   49.20    8.40
   4   5 -15  155.58   14.40
  -5   4 -15  168.58   14.30
  -4  -5 -15  152.28   12.80
  -5   4 -15  159.68   12.90
   4   5  15  175.28   12.40
   5  -4  15  176.48   14.50
  -5   4  15  195.28   14.00
  -5   5 -15   34.40    8.00
  -5  -5  15   37.80    7.60
   3  -6 -15  206.38   14.80
  -6  -3 -15  207.38   13.40
   6   3 -15  204.78   15.80
  -3   6  15  203.88   14.10
   3  -6  15  194.58   13.40
  -6  -3  15  221.38   14.10
  -6  -2 -15   30.60    7.20
   2  -6 -15   49.10    9.10
   2  -6 -15   41.80    8.20
  -2   6 -15   26.50    8.10
   6   2 -15   27.20    8.00
  -2   6  15   28.70    7.70
  -6  -2  15   33.20    7.30
  -2   6  15   31.70    7.60
   2  -6  15   32.70    7.20
   6   2  15   24.90    7.60
  -1   6 -15  305.47   18.40
   6   1 -15  344.67   17.70
   1  -6 -15  327.37   18.40
   1  -6  15  361.96   17.10
  -6  -1  15  341.87   17.20
  -1   6  15  315.47   16.50
   0   6 -15   70.79   10.60
  -6   0 -15   65.19    9.30
   0  -6 -15   59.19    8.80
   6   0  15   72.49   10.50
   0   6  15   63.49    8.90
   0  -6  15   69.59    8.40
  -6   0  15   57.99    8.30
  -6   1 -15  346.17   18.00
   1   6 -15  331.97   18.90
  -1  -6 -15  345.17   18.00
   6  -1 -15  304.27   18.20
  -6   1  15  311.37   17.40
   1   6  15  351.06   17.00
  -1  -6  15  318.47   16.00
   6  -1  15  319.27   18.10
   6  -2 -15   24.70    8.00
   2   6 -15   31.60    9.20
  -2  -6 -15   22.50    7.40
  -6   2 -15   27.70    6.90
   6  -2  15   24.00    8.20
  -2  -6  15   30.40    7.00
   2   6  15   39.50    7.30
  -6   2  15   24.90    7.50
  -3  -6 -15  242.18   15.70
   3   6 -15  217.48   18.50
  -6   3 -15  204.38   16.40
   3   6  15  221.78   14.60
  -3  -6  15  230.18   13.80
   7   0 -15  116.39   13.20
   0   0 -16 1900.01   54.89
   0   0 -16 1876.01   52.59
   0   0  16 1909.71   53.39
   1   0 -16    1.70    2.70
   1   0 -16    4.00    3.40
   0  -1 -16    2.00    3.30
   0   1 -16    1.60    3.10
  -1   0 -16    3.10    2.90
   0  -1 -16    0.20    2.40
  -1   0 -16    0.90    3.20
   0   1 -16   -2.30    3.30
   0  -1  16   -2.30    2.60
   1   0  16    0.50    2.70
  -1   0  16   -0.50    2.40
   1   0  16   -0.40    2.80
  -1   0  16    2.30    2.80
   0   1  16    0.50    2.30
   0   1  16   -0.40    2.70
   1  -1 -16   16.20    4.50
   1   1 -16   16.90    4.10
  -1  -1 -16   12.80    4.20
  -1   1 -16   19.70    4.50
   1   1 -16   11.30    4.20
  -1   1 -16   14.60    4.30
  -1  -1  16   22.80    4.10
   1  -1  16   13.30    3.60
   1   1  16   19.30    4.10
  -1  -1  16   15.80    3.20
  -1   1  16   15.10    3.70
  -1   1  16   19.20    3.90
   1  -2 -16    4.50    3.80
   2   1 -16    2.70    3.50
  -1   2 -16    0.80    4.10
   2   1 -16    1.70    3.30
  -2  -1 -16    2.70    3.70
  -1   2 -16    1.20    3.60
  -1   2  16    2.20    3.30
  -1   2  16    0.80    2.90
  -2  -1  16    0.20    2.60
   2   1  16    0.10    2.90
   2   1  16    0.20    3.30
  -2  -1  16    1.70    3.10
   1  -2  16    1.40    3.10
   2   0 -16 1198.08   38.00
  -2   0 -16 1233.48   36.20
   0   2 -16 1235.28   37.70
  -2   0 -16 1221.38   37.70
   0   2 -16 1168.48   36.60
   0  -2 -16 1200.78   37.70
   0  -2 -16 1196.98   35.90
   0  -2  16 1170.88   36.20
   2   0  16 1230.78   36.20
   2   0  16 1224.98   36.30
  -2   0  16 1228.58   36.10
  -2   0  16 1172.98   35.40
   0   2  16 1236.08   36.00
   0   2  16 1157.08   36.10
   2  -1 -16   -1.60    3.70
  -2   1 -16   -0.90    3.30
  -1  -2 -16    2.00    3.40
   1   2 -16   -0.70    3.50
  -1  -2 -16    1.60    2.80
  -2   1 -16    0.50    3.10
   1   2 -16   -1.60    3.20
  -2   1  16    3.40    3.40
  -1  -2  16    2.90    3.50
   2  -1  16    4.20    3.10
   2  -1  16   -2.40    3.20
   1   2  16   -0.10    3.00
  -2   1  16    2.30    3.10
  -2   2 -16  825.42   27.80
   2   2 -16  797.92   27.10
   2  -2 -16  834.22   28.80
   2   2 -16  836.02   27.70
  -2  -2 -16  790.02   27.60
  -2   2 -16  826.12   28.30
   2  -2  16  797.62   27.90
   2   2  16  814.52   26.60
  -2   2  16  818.42   27.30
  -2  -2  16  812.12   25.10
  -2   2  16  823.62   26.20
  -2  -2  16  825.52   26.40
   2  -2  16  808.22   26.60
   3   2 -16    6.50    4.20
  -2   3 -16    3.40    4.80
  -3  -2 -16    4.30    4.00
   2  -3 -16    7.70    5.10
  -2   3 -16    9.10    4.40
   3   2 -16    3.10    4.30
  -3  -2  16    5.90    3.80
  -3  -2  16    9.00    3.70
   3   2  16    7.70    3.70
  -2   3  16    1.80    4.30
   2  -3  16    5.50    3.80
  -2   3  16    4.10    3.90
  -1   3 -16   13.70    5.00
   3   1 -16   19.40    4.70
  -3  -1 -16   12.90    4.40
   3   1 -16   24.80    5.50
   1  -3 -16   15.30    5.40
  -1   3 -16   18.60    4.60
   1  -3 -16   21.20    5.00
  -3  -1  16   15.80    3.70
   3   1  16   13.40    3.90
  -1   3  16   23.20    4.80
  -3  -1  16   20.50    4.40
  -1   3  16   22.60    5.20
   1  -3  16   21.40    4.70
   3   1  16   19.00    4.70
   0   3 -16    8.10    4.70
  -3   0 -16    8.90    4.20
   0  -3 -16   10.60    4.20
   0  -3 -16   11.00    4.30
   0   3 -16    6.90    4.00
   3   0 -16   10.90    4.90
   3   0  16    7.40    3.70
   0   3  16    8.70    3.90
  -3   0  16    4.00    3.70
   0   3  16    9.00    4.30
   3   0  16   13.00    4.50
  -3   0  16    6.00    3.10
   0  -3  16    8.30    4.20
  -3   1 -16   10.50    4.50
  -3   1 -16   18.00    5.30
   3  -1 -16   16.80    5.60
  -1  -3 -16   11.10    4.40
   1   3 -16   11.90    4.70
   1   3 -16   16.00    4.30
  -1  -3 -16   17.00    4.40
  -1  -3  16   16.30    4.30
  -3   1  16   12.80    3.70
   3  -1  16   19.10    5.30
   3  -1  16   20.30    4.60
   1   3  16   17.70    4.80
  -3   1  16   15.90    4.80
  -2  -3 -16    4.30    3.80
   3  -2 -16    9.00    5.20
  -3   2 -16    2.30    4.30
   2   3 -16    2.10    4.60
  -3   2 -16   10.50    4.80
  -2  -3 -16    5.00    4.30
   3  -2  16    7.90    3.70
  -2  -3  16   10.00    4.30
  -3   2  16    9.80    3.80
  -3   2  16    2.90    4.00
   3  -2  16    9.30    4.60
   2   3  16    7.20    3.90
  -3   3 -16   10.80    4.80
   3   3 -16    9.60    5.00
   3  -3 -16    6.50    4.90
  -3   3 -16   10.50    5.40
  -3  -3 -16   13.30    5.00
  -3  -3  16    8.90    3.70
  -3   3  16    9.00    5.00
   3  -3  16   11.10    5.20
   3   3  16    5.40    4.00
  -3   3  16    6.20    4.00
   3  -3  16   11.10    4.70
  -3  -3  16    9.60    4.50
   3  -4 -16   74.79    9.50
  -3   4 -16   53.99    7.50
  -3   4 -16   55.89    8.80
   4   3 -16   65.59    9.50
  -4  -3 -16   65.49    8.20
  -3   4  16   69.09    9.00
  -3   4  16   71.09    7.50
   4   3  16   68.39    7.70
   3  -4  16   56.69    7.30
   3  -4  16   58.79    8.70
  -4  -3  16   71.99    7.60
  -2   4 -16  481.85   21.60
   2  -4 -16  472.55   20.20
   4   2 -16  462.25   19.50
  -4  -2 -16  471.25   19.70
  -2   4 -16  493.25   19.10
   2  -4 -16  521.05   21.20
   4   2 -16  495.55   20.40
   4   2  16  465.15   18.10
   2  -4  16  466.55   18.60
  -2   4  16  452.55   19.70
  -2   4  16  454.05   18.70
  -4  -2  16  475.35   18.60
   1  -4 -16   49.80    7.40
   1  -4 -16   42.10    6.90
  -4  -1 -16   51.49    7.50
  -1   4 -16   42.80    7.40
   4   1 -16   51.79    7.60
  -1   4 -16   43.60    6.10
  -1   4  16   54.19    7.70
   1  -4  16   54.29    6.80
  -4  -1  16   47.90    6.50
   4   1  16   46.90    7.00
  -1   4  16   55.39    7.00
   4   1  16   48.50    6.00
   0  -4 -16  671.83   24.80
  -4   0 -16  669.53   25.00
   0   4 -16  702.63   26.40
   0  -4 -16  643.84   24.60
   4   0 -16  703.83   25.90
   4   0  16  715.83   23.30
   0   4  16  671.63   24.10
  -4   0  16  647.64   24.10
   4   0  16  651.23   24.50
   0  -4  16  673.93   23.90
  -4   1 -16   54.69    7.60
   4  -1 -16   53.39    8.20
  -1  -4 -16   39.10    6.50
   1   4 -16   45.40    7.40
  -1  -4 -16   44.80    6.70
   4  -1  16   57.39    6.60
  -1  -4  16   46.60    6.70
   1   4  16   43.60    6.30
   4  -1  16   53.79    7.90
  -4   1  16   49.30    7.20
  -4   2 -16  457.95   20.40
  -2  -4 -16  471.25   19.30
  -4   2 -16  486.95   20.70
  -2  -4 -16  452.85   19.20
   4  -2 -16  493.35   21.30
   2   4 -16  475.35   21.50
   4  -2  16  489.15   20.90
   2   4  16  515.35   19.60
  -4   2  16  493.35   20.30
   4  -2  16  484.55   18.40
  -2  -4  16  513.75   19.30
  -4   3 -16   62.29    8.10
   3   4 -16   71.69    9.50
   4  -3 -16   65.89    9.10
  -3  -4 -16   66.89    7.80
  -4   3 -16   55.59    8.50
  -4   3  16   68.39    8.90
   4  -3  16   55.99    8.60
   4  -3  16   70.99    7.70
   3   4  16   64.09    7.70
  -3  -4  16   78.49    7.90
   4  -4 -16  323.37   18.10
   4   4 -16  335.27   18.70
  -4  -4 -16  316.67   15.70
  -4   4 -16  347.97   18.30
  -4   4 -16  321.97   16.70
   4  -4  16  313.67   17.50
   4  -4  16  337.07   15.70
   4   4  16  349.27   15.80
  -4   4  16  318.17   17.00
   4  -5 -16    8.60    6.50
   5   4 -16   12.70    8.00
  -5  -4  16    4.40    5.60
   4  -5  16    0.00    4.50
  -4   5  16    4.60    6.90
   3  -5 -16   -1.70    4.80
  -5  -3 -16   -3.90    4.80
   5   3 -16    3.30    6.70
   3  -5 -16    0.10    5.10
  -3   5 -16   -0.70    6.50
   3  -5  16   -2.20    4.20
   5   3  16    3.20    5.30
  -3   5  16    2.30    5.10
  -3   5  16    2.40    5.20
  -5  -3  16    0.60    4.60
   3  -5  16   -1.10    5.70
  -5  -2 -16    4.10    5.40
  -2   5 -16   11.80    6.30
   2  -5 -16   15.20    6.50
   2  -5 -16    2.20    5.60
   5   2 -16   10.90    6.30
   2  -5  16    4.30    4.40
  -5  -2  16    5.20    5.00
  -2   5  16    2.60    5.10
  -2   5  16    4.90    5.80
   5   2  16    2.30    8.10
   5   2  16   -1.80    4.20
  -5  -1 -16   17.90    5.80
   1  -5 -16   15.80    6.20
   5   1 -16   13.70    5.80
   1  -5 -16   15.10    5.60
  -1   5 -16   16.70    6.30
  -1   5  16   16.00    5.20
   1  -5  16   18.50    5.50
   5   1  16   13.60    6.10
   5   1  16   21.50    5.10
  -5  -1  16   14.50    5.40
  -1   5  16   12.40    6.10
   0  -5 -16   23.60    6.20
   0  -5 -16   20.70    6.00
   0   5 -16   21.40    6.70
   5   0 -16   17.20    6.50
  -5   0 -16   20.60    6.40
   5   0  16   22.20    5.40
  -5   0  16   14.80    5.20
   0   5  16   12.10    5.30
   5   0  16   13.80    6.20
   0  -5  16   24.90    6.10
   1   5 -16   12.30    6.70
   5  -1 -16   19.50    7.20
  -1  -5 -16   26.00    6.20
  -5   1 -16   17.40    6.00
  -1  -5 -16   25.10    6.40
   1   5  16   11.00    4.90
   5  -1  16   21.20    6.40
  -1  -5  16   24.50    6.10
  -5   1  16   12.60    5.70
   5  -2 -16   -1.60    6.00
  -5   2 -16    0.50    5.30
   2   5 -16    0.80    5.70
  -2  -5 -16    2.00    4.90
  -5   2  16    3.30    5.30
  -2  -5  16   10.30    5.40
   2   5  16    3.30    5.20
   5  -2  16    9.40    5.80
  -3  -5 -16   -2.70    4.80
   3   5 -16    4.80    6.00
  -5   3 -16   -2.80    4.90
   5  -3 -16    1.70    6.30
  -3  -5  16    6.10    5.20
   3   5  16    4.10    4.90
  -5   3  16    1.50    5.00
   5  -3  16   -0.30    5.50
   5  -4 -16    8.90    7.70
   4   5 -16    3.80    7.40
  -5   4 -16   10.20    6.70
  -5   4 -16    6.20    7.20
   4   5  16   10.40    6.40
  -5   4  16    1.90    6.40
   3  -6 -16   27.80    7.90
  -6  -3 -16   25.00    6.90
   6   3 -16   24.60    8.80
  -6  -3  16   35.30    7.80
  -3   6  16   30.00    7.20
  -2   6 -16  308.57   18.90
   2  -6 -16  286.47   16.80
   2  -6 -16  299.97   17.90
  -6  -2 -16  321.17   17.10
  -6  -2  16  310.27   16.60
  -2   6  16  302.47   18.00
   2  -6  16  307.37   16.50
   6   2  16  298.27   17.70
  -2   6  16  315.97   17.00
   1  -6 -16   18.10    7.00
  -6  -1 -16   19.80    6.70
   6   1 -16   15.90    6.90
  -1   6 -16   15.30    7.20
   1  -6 -16   15.10    9.20
  -1   6  16   19.20    6.20
   1  -6  16    9.90    6.40
   6   1  16    9.10    6.20
  -6  -1  16   20.60    7.00
   0  -6 -16  446.16   21.20
   0   6 -16  431.86   22.20
   6   0 -16  438.26   21.40
  -6   0 -16  439.96   20.80
   0   6  16  437.76   20.50
  -6   0  16  456.05   20.70
   6   0  16  405.26   21.10
   0  -6  16  451.45   20.00
   1   6 -16   12.00    7.20
  -1  -6 -16   16.50    6.90
  -6   1 -16   21.20    7.40
   6  -1 -16   13.20    7.50
  -6   1  16   19.80    7.00
   1   6  16   12.90    5.90
  -1  -6  16   10.70    6.10
   6  -1  16   17.60    7.10
   6  -2 -16  266.07   17.80
   2   6 -16  305.57   19.10
  -2  -6 -16  290.67   17.10
  -6   2 -16  316.17   17.40
   2   6  16  331.47   17.00
   6  -2  16  309.97   18.90
  -2  -6  16  320.27   16.00
  -3  -6 -16   28.70    7.90
  -3  -6  16   35.00    7.70
   0   0 -17    1.20    2.70
   0   0 -17    4.70    4.00
   0   0  17    0.50    2.90
  -1   0 -17  577.64   21.70
   1   0 -17  585.74   21.90
   0   1 -17  587.34   20.70
   0   1 -17  598.84   21.70
   0  -1 -17  546.95   21.50
  -1   0 -17  593.04   19.80
  -1   0  17  606.14   20.20
   0   1  17  597.54   20.50
   1   0  17  573.44   20.10
  -1   0  17  569.54   19.00
   1   0  17  598.04   19.90
   0  -1  17  557.54   20.10
   0   1  17  580.04   19.00
   1   1 -17   -0.60    3.70
   1  -1 -17    5.10    3.90
   1   1 -17    0.70    3.30
  -1   1 -17    0.30    3.50
  -1  -1 -17    0.90    4.00
  -1   1 -17    1.60    3.60
  -1   1  17    0.80    2.80
   1   1  17    1.70    3.20
  -1  -1  17    2.90    3.30
   1  -1  17    1.60    3.10
  -1   1  17    2.70    3.10
   2   1 -17  758.32   25.10
  -1   2 -17  797.62   26.90
   2   1 -17  737.13   26.30
  -1   2 -17  705.43   25.60
   1  -2 -17  719.73   26.40
  -2  -1 -17  763.22   26.70
  -1   2  17  794.82   25.30
  -1   2  17  743.53   24.80
  -2  -1  17  737.73   24.40
  -2  -1  17  764.12   24.20
   2   1  17  748.13   24.90
   1  -2  17  738.73   25.10
  -2   0 -17   27.70    4.90
   0  -2 -17   27.20    5.40
   0   2 -17   29.40    5.90
  -2   0 -17   31.40    5.70
   0   2 -17   28.40    5.40
   0  -2 -17   22.60    4.40
   2   0 -17   21.40    5.30
  -2   0  17   25.00    4.40
   0  -2  17   31.50    5.30
   2   0  17   28.70    5.00
   0   2  17   27.00    4.70
   2   0  17   33.10    5.20
   0   2  17   30.10    4.80
  -2   0  17   23.20    4.20
   1   2 -17  785.62   26.10
  -1  -2 -17  772.92   26.70
   2  -1 -17  774.02   27.50
  -2   1 -17  769.12   26.00
   1   2 -17  780.52   26.40
  -2   1 -17  760.72   26.60
  -1  -2  17  759.92   25.20
   2  -1  17  762.32   26.10
  -2   1  17  761.32   25.30
   1   2  17  754.42   25.30
  -2   1  17  731.73   24.60
   2  -1  17  726.13   24.90
   2  -2 -17   17.00    5.50
  -2   2 -17   15.20    5.00
  -2   2 -17   17.30    4.90
  -2  -2 -17   20.20    5.60
   2   2 -17   20.50    5.20
   2   2 -17   25.20    5.20
   2  -2  17   13.20    4.60
   2   2  17   15.30    4.30
  -2   2  17   17.10    4.80
  -2   2  17   20.10    4.60
   2  -2  17   15.00    4.60
  -2  -2  17   17.50    4.20
   3   2 -17  447.76   18.80
  -2   3 -17  431.06   19.80
   3   2 -17  428.66   18.10
  -2   3 -17  441.56   18.30
   2  -3 -17  451.55   19.60
  -3  -2 -17  450.95   18.70
  -3  -2  17  444.66   17.00
  -3  -2  17  435.76   16.80
  -2   3  17  463.95   18.80
   2  -3  17  428.26   17.60
   3   2  17  460.45   17.50
  -2   3  17  434.16   17.40
   1  -3 -17    4.80    4.00
   1  -3 -17   11.60    5.20
  -3  -1 -17   13.70    5.20
  -1   3 -17   10.20    5.00
   3   1 -17    7.40    4.40
  -1   3 -17   11.40    4.60
   1  -3  17    4.90    4.30
   3   1  17    4.30    5.80
   3   1  17    5.30    4.10
  -3  -1  17    7.20    3.60
  -3  -1  17    9.60    4.10
  -1   3  17   10.20    4.20
  -1   3  17   12.40    4.40
   0   3 -17  341.47   14.70
   0   3 -17  324.37   15.70
  -3   0 -17  334.97   16.00
   0  -3 -17  327.27   15.50
   0  -3 -17  351.66   14.90
   3   0 -17  324.57   16.20
  -3   0  17  352.96   14.90
   3   0  17  333.97   14.20
   3   0  17  339.47   15.00
  -3   0  17  327.97   13.40
   0  -3  17  321.27   14.30
   0   3  17  356.86   14.90
   0   3  17  323.97   14.70
  -1  -3 -17    7.90    4.00
   1   3 -17    6.50    4.00
  -1  -3 -17    6.50    4.20
   1   3 -17    8.90    5.20
   3  -1 -17    6.50    4.70
  -3   1 -17    5.60    4.80
  -3   1 -17    9.70    4.50
   1   3  17    6.70    3.90
   3  -1  17   12.20    4.10
  -3   1  17   11.40    4.00
  -1  -3  17    7.10    3.90
   3  -1  17   10.70    4.50
  -3   1  17    5.90    4.20
   2   3 -17  444.46   19.50
  -3   2 -17  466.55   19.30
  -2  -3 -17  452.15   18.90
   3  -2 -17  408.06   19.40
  -3   2 -17  459.55   19.30
  -3   2  17  456.85   18.70
  -2  -3  17  470.05   18.00
   3  -2  17  438.16   19.30
   2   3  17  456.75   18.00
  -3   2  17  435.26   16.90
   3  -2  17  443.56   17.40
  -3  -3 -17   12.00    5.20
  -3   3 -17   18.70    5.80
   3  -3 -17    9.20    5.50
  -3   3 -17   13.80    6.20
   3   3 -17   13.90    6.00
  -3   3  17    5.30    4.20
   3  -3  17   12.70    4.60
  -3  -3  17   19.00    5.20
  -3   3  17   14.40    5.20
   3  -3  17   15.70    6.10
   3   3  17   13.90    4.70
   3  -4 -17  235.78   15.20
   4   3 -17  233.88   14.20
  -3   4 -17  242.18   13.60
  -3   4 -17  235.98   15.40
  -4  -3 -17  231.78   13.60
  -3   4  17  199.58   12.20
   4   3  17  209.08   12.40
   3  -4  17  204.18   12.10
   3  -4  17  227.28   14.90
  -4  -3  17  212.68   12.40
  -3   4  17  198.98   13.70
  -2   4 -17   28.10    6.10
   4   2 -17   38.00    6.80
   2  -4 -17   35.10    6.70
  -4  -2 -17   37.40    7.10
   2  -4 -17   38.70    7.90
  -2   4 -17   39.30    7.90
   4   2 -17   36.50    7.20
  -2   4  17   29.30    5.70
  -2   4  17   31.20    6.50
  -4  -2  17   23.30    5.30
   2  -4  17   26.50    5.70
   4   2  17   31.80    5.80
  -1   4 -17  324.17   17.10
   4   1 -17  325.67   16.50
  -4  -1 -17  335.87   16.50
  -1   4 -17  364.86   20.90
   1  -4 -17  319.97   15.90
   1  -4 -17  330.57   16.20
   4   1  17  336.57   15.70
  -4  -1  17  355.66   15.60
   4   1  17  346.77   14.80
   1  -4  17  324.37   15.10
  -1   4  17  358.16   16.60
  -1   4  17  333.17   15.60
  -4   0 -17   30.20    6.80
   4   0 -17   22.40    6.00
   0   4 -17   35.30    7.70
   0  -4 -17   32.10    6.70
   0  -4 -17   28.20    6.40
  -4   0  17   27.90    5.50
   0  -4  17   29.40    5.60
   0   4  17   31.00    5.80
   4   0  17   26.80    5.40
   4   0  17   32.60    6.70
  -4   1 -17  338.97   16.80
   4  -1 -17  329.27   16.90
  -1  -4 -17  334.97   15.50
  -1  -4 -17  314.57   15.60
   1   4 -17  329.27   16.90
   1   4  17  320.27   15.10
   4  -1  17  318.97   16.00
  -4   1  17  339.47   15.70
  -1  -4  17  348.57   15.20
   4  -1  17  336.67   14.50
  -2  -4 -17   32.10    6.30
  -4   2 -17   24.90    6.20
  -2  -4 -17   29.10    6.20
   4  -2 -17   30.00    7.30
   2   4 -17   31.80    7.40
  -4   2 -17   27.30    6.70
   4  -2  17   38.70    7.20
  -4   2  17   36.80    6.60
   2   4  17   44.90    7.10
   4  -2  17   43.80    6.30
  -2  -4  17   32.80    5.90
   3   4 -17  202.68   14.70
  -3  -4 -17  207.98   12.80
   4  -3 -17  215.78   14.50
  -4   3 -17  205.28   13.90
  -4   3 -17  211.48   13.90
   4  -3  17  235.28   14.50
  -3  -4  17  222.78   12.40
   4  -3  17  215.48   12.30
   3   4  17  228.88   13.20
  -4   3  17  224.08   13.90
  -4  -4 -17   68.89    8.90
  -4   4 -17   60.29    8.80
   4  -4 -17   71.79   10.60
  -4   4 -17   56.69    9.30
   4   4 -17   70.89   10.70
   4   4  17   58.79    8.20
   4  -4  17   56.39    7.50
  -4   4  17   57.19    8.80
   4  -4  17   67.09    9.80
   5   4 -17   97.79   12.90
   4  -5  17  111.29   10.70
   3  -5 -17   26.00    8.10
  -3   5 -17   23.30    7.70
   3  -5 -17   38.10    8.30
   5   3 -17   25.90    8.00
  -5  -3 -17   23.90    6.70
   5   3  17   16.70    8.80
  -3   5  17   20.60    7.40
   3  -5  17   20.50    7.00
  -3   5  17   19.00    6.50
   3  -5  17   23.00    6.80
  -5  -3  17   35.80    7.30
  -5  -2 -17  257.37   14.90
   2  -5 -17  244.78   15.30
  -2   5 -17  242.18   15.80
   2  -5 -17  246.98   14.90
   2  -5  17  245.58   13.60
  -2   5  17  238.58   14.80
  -2   5  17  264.37   14.10
   5   2  17  243.78   13.40
  -5  -2  17  245.18   13.80
  -1   5 -17   44.20    9.00
  -5  -1 -17   51.59    8.40
   1  -5 -17   33.00    7.40
   1  -5 -17   35.80    7.50
   5   1 -17   33.70    7.60
  -1   5  17   41.30    7.90
   1  -5  17   29.40    6.30
  -5  -1  17   43.60    7.50
   5   1  17   47.90    6.60
   5   1  17   32.90    6.80
  -1   5  17   40.90    7.30
   0   5 -17  201.68   14.50
  -5   0 -17  231.78   14.00
   0  -5 -17  214.38   13.30
   5   0 -17  195.48   14.20
   0  -5 -17  202.18   13.10
   0  -5  17  247.38   13.10
  -5   0  17  221.08   13.10
   0   5  17  223.48   12.90
   5   0  17  215.88   14.20
   5   0  17  213.28   13.00
  -1  -5 -17   43.10    7.40
  -5   1 -17   46.80    8.20
   5  -1 -17   29.30    7.70
  -1  -5 -17   29.60    6.80
   1   5 -17   43.40    9.10
  -1  -5  17   37.30    6.70
   1   5  17   39.10    7.20
   5  -1  17   37.20    8.20
  -5   1  17   38.30    7.70
  -2  -5 -17  245.98   14.70
   2   5 -17  231.68   16.10
   5  -2 -17  249.68   16.70
   2   5  17  257.37   14.20
  -2  -5  17  262.07   14.20
  -5   2  17  261.97   15.40
   5  -2  17  290.57   17.00
  -5   3 -17   24.80    6.90
   5  -3 -17   29.40    8.70
   3   5 -17   13.20    7.00
   3   5  17   25.80    6.90
   5  -3  17   28.70    7.90
  -5   3  17   33.80    8.10
  -3  -5  17   22.70    6.00
  -5   4 -17  126.79   14.00
   4   5  17  119.49   11.90
  -6  -3 -17  131.69   12.40
   6   3 -17  123.29   15.60
  -6  -2 -17   11.30    6.30
   2  -6 -17   12.80    7.00
  -6  -2  17   14.40    6.70
  -2   6  17   11.50    6.60
   6   1 -17  177.58   13.90
   1  -6 -17  184.78   18.00
  -6  -1 -17  196.98   14.30
  -1   6 -17  173.28   16.80
   1  -6 -17  172.78   13.70
  -1   6  17  172.28   12.80
   1  -6  17  153.18   14.20
   6   1  17  176.78   14.20
  -6  -1  17  183.48   13.50
   6   0 -17   27.10    8.10
   0  -6 -17   28.10    8.00
   0   6 -17   33.70    8.90
  -6   0 -17   33.80    7.70
  -6   0  17   33.90    8.00
   0  -6  17   19.50    6.80
   6   0  17   33.10    8.90
   0   6  17   28.70    7.70
  -6   1 -17  167.88   14.90
  -1  -6 -17  171.68   13.80
   1   6 -17  188.08   15.20
   6  -1  17  180.68   14.30
  -1  -6  17  174.18   13.00
  -6   1  17  164.98   13.50
   1   6  17  163.88   14.20
  -2  -6 -17   13.50    7.20
  -2  -6  17   12.90   10.30
  -3  -6 -17  138.09   20.40
   0   0 -18   -1.30    3.50
   0   0  18    2.60    3.20
   0   1 -18   14.50    4.60
  -1   0 -18   12.10    4.50
  -1   0 -18   11.10    4.00
   0   1 -18   15.50    5.00
   1   0 -18   12.20    4.50
   0  -1 -18   14.40    5.00
   0  -1  18   16.00    4.10
   1   0  18   20.60    4.70
  -1   0  18   11.70    4.20
   0   1  18   16.80    4.60
  -1   1 -18 1120.69   36.20
   1   1 -18 1129.99   34.70
   1   1 -18 1133.39   36.20
   1  -1 -18 1149.29   36.90
  -1   1 -18 1147.79   35.40
  -1  -1 -18 1105.19   36.20
   1  -1  18 1117.39   34.80
  -1   1  18 1112.19   33.80
  -1   1  18 1136.99   34.50
  -1  -1  18 1124.99   34.50
   1   1  18 1095.69   34.70
  -2  -1 -18   13.10    5.40
  -1   2 -18    9.20    4.70
   1  -2 -18    8.90    4.00
  -1   2 -18   12.10    5.00
   1  -2 -18    5.30    4.80
   2   1 -18    9.80    4.40
   2   1  18   10.50    4.50
   1  -2  18    8.90    4.40
  -1   2  18    9.10    3.90
  -2  -1  18   15.90    4.40
  -1   2  18   15.70    4.40
   0   2 -18   80.89    8.20
  -2   0 -18   74.99    8.60
   2   0 -18   72.99    7.90
   0  -2 -18   58.19    7.50
   0  -2 -18   64.89    9.30
   0   2 -18   73.99    7.90
  -2   0  18   68.29    6.70
   2   0  18   66.39    6.70
   0   2  18   73.69    7.00
   2   0  18   64.39    6.90
  -2   0  18   58.99    6.40
   0   2  18   67.89    6.80
   0  -2  18   71.09    6.90
   1   2 -18   12.80    4.70
  -1  -2 -18   12.50    4.80
   1   2 -18    9.50    4.70
  -2   1 -18    8.70    4.40
   2  -1 -18    8.00    4.80
  -2   1 -18   12.80    4.90
   1   2  18   10.30    4.50
  -2   1  18   11.20    4.10
  -2   1  18    9.80    4.00
   2  -1  18    9.30    4.00
   2  -1  18    8.70    4.30
  -1  -2  18    7.30    4.40
   2  -2 -18    0.30    4.90
  -2  -2 -18    1.70    4.70
   2   2 -18    1.10    4.10
   2   2 -18    0.20    4.10
  -2   2 -18    0.10    4.30
  -2   2 -18   -0.20    4.50
   2  -2  18   -0.90    3.90
  -2   2  18   -1.00    3.50
   2  -2  18    1.00    4.30
   2   2  18    5.50    3.80
  -2   2  18   -0.40    3.70
  -2  -2  18    4.50    4.00
  -2   3 -18   91.99   10.00
  -2   3 -18   55.19    7.50
  -3  -2 -18   63.49    7.90
   2  -3 -18   64.79    8.50
   3   2 -18   59.89    7.90
   3   2 -18   70.59    8.50
  -2   3  18   76.49    8.60
   3   2  18   61.19    7.20
   2  -3  18   60.19    7.30
  -2   3  18   60.49    7.30
  -3  -2  18   61.89    7.00
  -1   3 -18  724.73   26.40
   1  -3 -18  687.03   25.80
   1  -3 -18  692.53   25.00
  -1   3 -18  685.63   24.70
  -3  -1 -18  697.23   25.90
   3   1 -18  726.63   26.00
   3   1  18  667.63   23.80
  -1   3  18  671.93   24.30
   1  -3  18  656.83   24.20
  -3  -1  18  686.03   23.90
  -3  -1  18  710.83   23.40
  -1   3  18  679.83   24.60
  -3   0 -18   84.99    8.60
   0  -3 -18   88.49    8.70
   0   3 -18   92.89    8.40
   0   3 -18  107.49   10.10
   3   0 -18   92.49    9.90
   0  -3 -18   89.89    8.20
  -3   0  18   93.99    8.10
   3   0  18   98.09    8.50
   0   3  18  100.89    8.20
   0  -3  18   88.89    8.60
   3   0  18   90.69    7.50
  -3   0  18   93.19    7.30
   0   3  18   97.09    8.30
  -3   1 -18  710.73   25.80
   1   3 -18  689.73   26.40
  -3   1 -18  691.93   26.40
   3  -1 -18  693.03   26.90
   1   3 -18  695.83   24.60
  -1  -3 -18  659.63   25.50
  -1  -3  18  732.33   25.00
   1   3  18  739.13   25.10
   3  -1  18  746.83   26.20
   3  -1  18  730.73   24.50
  -3   1  18  731.93   25.30
  -3   1  18  721.43   23.80
  -3   2 -18   49.00    7.90
   3  -2 -18   72.49    9.50
  -3   2 -18   52.49    7.60
  -2  -3 -18   69.59    8.60
   2   3 -18   57.69    8.70
   2   3  18   82.69    8.60
  -3   2  18   81.99    7.80
  -2  -3  18   63.59    7.60
   3  -2  18   74.49    7.70
   3  -2  18   71.39    8.60
  -3   2  18   75.79    8.30
  -3   3 -18  457.75   20.10
  -3  -3 -18  475.95   20.00
  -3   3 -18  451.35   20.70
   3  -3 -18  456.55   21.00
   3   3 -18  490.75   21.20
   3   3  18  472.85   19.20
  -3   3  18  457.95   20.00
  -3  -3  18  435.26   18.20
   3  -3  18  464.85   18.60
   3  -3  18  432.26   20.20
  -3   3  18  452.05   18.20
  -3   4 -18   42.80    7.60
  -3   4 -18   31.80    7.70
   4   3 -18   54.49    9.40
  -4  -3 -18   46.60    7.50
   3  -4 -18   29.30    7.60
  -3   4  18   40.70    8.10
   4   3  18   55.09    7.80
   3  -4  18   35.00    7.10
  -3   4  18   38.30    6.90
   3  -4  18   36.80    7.70
  -2   4 -18    3.70    5.90
   2  -4 -18    2.20    4.50
   2  -4 -18    5.10    5.30
  -2   4 -18    7.90    4.90
  -4  -2 -18    2.70    4.80
  -4  -2  18    2.40    4.50
   2  -4  18    1.60    4.80
   4   2  18    3.70    4.60
  -2   4  18    0.10    4.60
  -2   4  18    1.40    4.80
   4   1 -18   33.70    7.20
   1  -4 -18   28.80    6.20
  -1   4 -18   48.00    8.60
  -4  -1 -18   31.50    6.50
   1  -4 -18   36.80    7.40
  -1   4  18   27.80    6.10
   4   1  18   35.80    6.10
   1  -4  18   37.10    6.40
  -1   4  18   28.70    6.30
  -4  -1  18   37.40    6.60
   0   4 -18    8.10    5.50
  -4   0 -18   13.30    5.30
   0  -4 -18    9.10    5.40
   4   0 -18   14.40    6.30
   0  -4 -18   15.40    5.60
  -4   0  18   17.10    5.60
   0  -4  18   11.20    4.90
   4   0  18   10.20    5.40
   0   4  18   14.90    5.00
   4   0  18   15.90    4.60
   4  -1 -18   29.30    6.90
  -4   1 -18   31.70    7.20
  -1  -4 -18   31.30    6.50
  -1  -4 -18   37.70    6.70
   1   4 -18   31.80    7.20
  -1  -4  18   24.70    5.70
  -4   1  18   36.10    6.90
   4  -1  18   36.60    5.70
   4  -1  18   38.10    7.00
   1   4  18   36.30    6.30
   4  -2 -18    3.20    6.00
  -2  -4 -18    3.30    5.00
   2   4 -18    5.00    6.10
  -4   2 -18    2.20    4.90
   4  -2  18    3.50    5.10
  -4   2  18    3.50    4.90
   4  -2  18    4.50    4.60
   2   4  18    2.80    5.00
  -2  -4  18   -1.00    4.50
   3   4 -18   40.50    8.50
  -4   3 -18   34.70    8.10
  -3  -4 -18   35.80    6.90
   4  -3 -18   27.70    7.60
  -4   3 -18   31.40    7.10
   4  -3  18   50.79    9.30
  -3  -4  18   42.80    7.10
   4  -3  18   41.90    6.70
  -4   3  18   40.90    7.40
   3   4  18   40.00    7.40
   4   4 -18    1.70    6.90
  -4   4 -18    0.00    5.70
  -4  -4 -18   -4.10    5.10
   4  -4 -18    1.70    6.50
  -4   4 -18    1.30    5.70
  -4   4  18    0.80    5.90
   4  -4  18   -0.10    5.50
   4  -4  18   -1.00    5.10
   4   4  18    0.60    4.70
   3  -5 -18  310.67   18.70
   5   3 -18  350.16   19.40
   3  -5 -18  330.57   18.90
  -5  -3 -18  316.77   17.30
   3  -5  18  338.27   17.20
  -3   5  18  320.37   17.00
  -3   5  18  334.67   18.70
  -5  -3  18  348.27   17.30
   2  -5 -18    5.70    6.10
   2  -5 -18    7.80    6.30
  -2   5 -18    4.50    5.90
  -5  -2 -18    2.30    5.80
   5   2  18    1.40    5.50
  -2   5  18    5.30    5.60
  -2   5  18    2.30    5.80
   2  -5  18    1.70    5.40
  -5  -2  18    5.30    5.40
   1  -5 -18  520.05   22.50
   5   1 -18  556.34   22.90
  -1   5 -18  533.35   24.40
  -5  -1 -18  508.75   22.30
   1  -5 -18  494.05   21.90
   1  -5  18  492.85   20.70
  -1   5  18  478.65   21.90
   5   1  18  472.05   20.70
   5   1  18  429.26   22.10
  -5  -1  18  496.55   21.10
  -1   5  18  487.05   20.80
   0  -5 -18   12.30    5.80
   5   0 -18   14.70    7.00
   0   5 -18    9.30    6.50
   0  -5 -18    8.10    6.00
  -5   0 -18   13.00    6.50
   0   5  18   10.90    6.10
  -5   0  18    8.70    5.50
   5   0  18   13.10    7.20
   0  -5  18   10.50    5.40
   5   0  18    5.30    5.40
  -1  -5 -18  495.75   21.10
   5  -1 -18  482.55   22.80
  -1  -5 -18  474.95   21.30
  -5   1 -18  482.85   22.40
   1   5  18  543.25   21.60
   5  -1  18  507.35   22.80
  -1  -5  18  515.95   20.90
  -5   2 -18    5.50    6.30
   2   5 -18    7.60    6.70
  -2  -5 -18    1.90    5.60
   5  -2 -18    3.20    6.10
  -5   2  18    7.70    6.10
   5  -2  18   13.20    7.00
  -2  -5  18    2.10    4.70
   2   5  18   10.40    5.30
   3   5 -18  317.47   19.20
  -5   3 -18  342.97   18.60
   3   5  18  309.47   16.50
  -5   3  18  326.67   18.20
   5  -3  18  323.57   21.00
  -3  -5  18  338.97   16.70
   2  -6 -18    4.30    6.60
  -6  -1  18    3.80    6.30
   6   1  18    1.50    6.80
   0  -6 -18   -2.20    6.20
   6   0 -18   -0.50    6.80
  -6   0  18    2.40    6.00
   6   0  18    0.60    6.00
  -1  -6 -18    1.70    6.40
   6  -1  18    6.70   11.30
  -2  -6 -18   -0.90    7.20
   0   0 -19   -0.70    4.20
   0   0  19    2.30    3.70
   0  -1 -19  252.27   13.70
   0   1 -19  276.67   14.20
   0   1 -19  272.77   13.20
   1   0 -19  274.97   14.50
   1   0  19  259.77   12.60
   0   1  19  258.67   12.40
  -1   0  19  263.57   12.20
   0  -1  19  264.37   12.80
  -1   1 -19   -1.00    4.00
  -1   1 -19   -3.00    3.80
   1  -1 -19    1.50    4.10
   1   1 -19   -3.10    4.10
  -1  -1 -19   -1.20    4.00
   1   1  19    1.50    3.60
   1  -1  19    1.80    3.50
  -1   1  19   -1.40    3.60
  -1  -1  19   -3.10    3.60
   1  -1  19    0.30    3.80
   2   1 -19  494.35   20.50
   1  -2 -19  505.15   21.40
  -1   2 -19  527.85   20.90
  -1   2 -19  474.65   20.30
  -2  -1 -19  510.75   21.30
   1  -2 -19  479.45   19.20
   1  -2  19  516.95   19.70
  -2  -1  19  511.65   19.10
   2   1  19  500.75   19.40
  -1   2  19  515.15   19.10
  -1   2  19  518.75   19.50
   0   2 -19    3.30    4.60
  -2   0 -19    4.30    4.90
   0   2 -19    2.80    4.00
   0  -2 -19    1.30    4.10
   2   0 -19    4.90    4.90
  -2   0  19    1.30    3.70
   0   2  19    4.80    3.90
   0  -2  19    6.70    4.20
   2   0  19    0.60    3.40
  -1  -2 -19  517.05   20.60
  -2   1 -19  474.85   20.50
   1   2 -19  484.55   19.80
   2  -1 -19  509.95   21.30
   1   2 -19  504.45   20.00
  -2   1 -19  508.95   19.70
  -2   1  19  488.65   18.80
  -2   1  19  525.35   18.90
   2  -1  19  508.75   19.70
  -1  -2  19  482.25   19.10
   1   2  19  475.85   18.90
   2  -1  19  463.55   18.60
  -2  -2 -19    9.00    5.60
  -2   2 -19    5.90    5.30
   2   2 -19    9.80    5.00
   2  -2 -19    0.80    4.50
  -2   2 -19   15.60    5.90
   2   2 -19    3.50    4.40
  -2  -2  19    9.10    4.60
   2  -2  19    8.60    5.10
  -2   2  19    7.70    4.30
   2  -2  19    2.70    4.00
  -2   2  19    6.90    4.60
   2   2  19    7.40    4.70
  -3  -2 -19  391.16   18.30
  -2   3 -19  383.46   18.50
   3   2 -19  392.86   17.70
   2  -3 -19  424.96   19.60
   2  -3 -19  392.66   18.00
  -2   3 -19  346.17   17.10
  -2   3  19  364.46   17.10
   3   2  19  366.46   16.20
   2  -3  19  369.16   16.80
  -2   3  19  368.86   16.50
  -3  -2  19  369.46   15.80
  -1   3 -19   36.90    7.30
   3   1 -19   35.10    6.90
  -1   3 -19   39.10    6.70
   1  -3 -19   41.90    7.50
  -3  -1 -19   40.80    7.40
   1  -3 -19   50.09    7.30
  -3  -1  19   48.90    6.30
   1  -3  19   36.90    6.20
  -1   3  19   45.20    6.90
  -1   3  19   42.40    6.40
   3   1  19   47.80    6.60
  -3   0 -19  227.28   13.40
   0  -3 -19  234.98   13.90
   0   3 -19  241.18   13.00
   3   0 -19  223.08   13.70
   0  -3 -19  236.28   13.40
   0   3 -19  241.18   14.20
   0  -3  19  243.68   12.70
  -3   0  19  242.78   12.50
   0   3  19  218.48   12.20
   3   0  19  220.18   13.70
  -3   0  19  236.68   11.70
   3   0  19  232.58   11.90
   0   3  19  232.38   12.50
  -3   1 -19   46.00    7.80
   1   3 -19   41.20    6.70
  -1  -3 -19   41.90    7.00
   3  -1 -19   48.50    8.60
   1   3 -19   39.20    7.40
  -3   1 -19   35.40    6.60
  -3   1  19   41.80    5.90
   1   3  19   31.70    5.90
  -3   1  19   48.70    6.70
  -1  -3  19   35.20    6.50
   3  -1  19   39.40    6.60
   3  -1  19   41.70    6.50
   3  -2 -19  412.96   19.90
  -3   2 -19  383.56   18.50
  -3   2 -19  408.46   18.70
  -2  -3 -19  378.26   18.10
   2   3 -19  361.86   18.30
  -3   2  19  400.26   16.30
   3  -2  19  387.66   18.40
  -3   2  19  394.46   17.60
   2   3  19  368.36   16.80
  -2  -3  19  401.96   16.90
   3  -2  19  376.06   16.30
  -3   3 -19   75.89    9.50
   3  -3 -19   88.79   10.90
  -3   3 -19   84.39   10.60
  -3  -3 -19   71.09    9.10
   3   3 -19   58.89    8.90
  -3   3  19   78.99    9.30
   3   3  19   73.19    8.20
   3  -3  19   77.89    9.90
  -3  -3  19   71.79    8.00
  -3   3  19   69.29    7.90
   3  -4 -19  118.09   12.50
  -3   4 -19   85.89   11.10
   4   3 -19  106.99   11.80
  -3   4 -19  116.69   11.00
   3  -4 -19  106.79   11.40
  -4  -3 -19  104.99   11.10
  -3   4  19  106.39   10.40
   4   3  19  111.49    9.70
  -3   4  19  117.89   10.40
   3  -4  19  118.49   11.50
   3  -4  19  102.49   10.40
   2  -4 -19   16.70    6.80
  -4  -2 -19   14.30    6.40
  -2   4 -19   15.80    6.40
   2  -4 -19    6.10    5.80
  -2   4 -19   10.60    5.40
  -2   4  19   12.10    5.20
   4   2  19    8.30    5.20
  -2   4  19    4.70    5.50
   2  -4  19   15.10    5.60
   1  -4 -19  137.89   11.10
   4   1 -19  155.08   12.40
   1  -4 -19  140.79   12.00
  -4  -1 -19  162.38   12.40
  -1   4 -19  150.68   12.90
   1  -4  19  137.19   10.90
   4   1  19  139.29   10.20
  -1   4  19  132.19   11.50
  -1   4  19  138.49   10.90
  -4  -1  19  140.69   10.60
   4   0 -19   13.80    6.50
   0   4 -19   17.30    7.20
  -4   0 -19   13.60    6.30
   0  -4 -19   15.20    6.10
   0  -4 -19   16.10    6.00
   0   4  19   10.50    5.00
   0  -4  19   13.00    5.20
   4   0  19   20.80    5.60
  -4   0  19   15.70    5.40
   4   0  19   13.30    5.90
   1   4 -19  133.69   11.60
   4  -1 -19  153.78   13.20
  -4   1 -19  144.59   11.60
  -1  -4 -19  135.69   11.30
   4  -1  19  137.79   11.60
  -4   1  19  143.39   11.10
   4  -1  19  160.18   10.40
  -1  -4  19  157.08   10.70
   1   4  19  148.09   10.70
   4  -2 -19    8.50    6.90
   2   4 -19    8.80    6.90
  -2  -4 -19   13.20    5.80
  -4   2 -19   10.00    5.80
  -4   2  19   15.20    6.10
  -2  -4  19    8.60    5.30
   4  -2  19   16.30    7.00
   4  -2  19   17.50    5.60
   2   4  19   11.10    5.20
  -4   3 -19  123.39   12.50
   3   4 -19  105.79   11.50
  -4   3 -19  115.69   11.80
   4  -3 -19  132.29   13.50
  -3  -4 -19  108.09   10.90
  -4   3  19  105.29   11.10
   3   4  19  102.49   10.60
  -3  -4  19  114.49   10.50
   4  -3  19   96.29    9.70
   4  -3  19  108.99   12.20
   4   4 -19    2.00    6.90
  -4  -4 -19    1.60    5.90
  -4   4 -19    3.00    6.20
  -4   4  19    0.30    9.90
   4   4  19    3.40    5.20
   4  -4  19    3.20    5.60
  -5  -3 -19    4.80    6.30
  -3   5  19   16.40    7.00
  -5  -2 -19  218.78   15.00
   2  -5 -19  208.28   14.80
   2  -5 -19  221.38   15.30
  -2   5 -19  213.68   16.30
  -2   5  19  198.28   13.60
   2  -5  19  217.38   14.20
  -5  -2  19  223.48   13.90
  -2   5  19  203.18   14.90
   5   1 -19    1.70    6.40
   1  -5 -19    1.70    5.40
   1  -5 -19    3.40    6.00
  -1   5 -19    0.40    6.00
  -5  -1 -19   -1.30    5.20
   1  -5  19    1.30    5.10
  -1   5  19   -1.20    5.40
  -5  -1  19    4.80    5.60
  -1   5  19    2.90    4.90
   0  -5 -19  142.19   12.00
   0   5 -19  136.49   13.00
  -5   0 -19  157.78   12.70
   5   0 -19  128.19   13.10
   0  -5 -19  129.59   11.90
   0  -5  19  161.78   11.70
   5   0  19  155.28   13.10
   0   5  19  163.38   12.50
  -5   0  19  155.58   12.20
  -1  -5 -19    0.70    5.60
  -1  -5 -19    1.50    5.60
   1   5 -19    5.00    6.30
   5  -1 -19    4.20    6.50
  -5   1 -19    1.50    6.10
  -5   1  19    1.80    5.20
  -1  -5  19    2.60    5.20
   1   5  19   -0.80    4.80
   5  -1  19   -2.40    5.90
  -5   2 -19  230.68   17.60
   5  -2 -19  219.18   17.60
   2   5 -19  214.28   15.70
   5  -2  19  212.98   15.80
  -5   2  19  215.38   14.50
   2   5  19  223.48   14.50
  -2  -5  19  202.78   13.20
  -3  -5  19   15.80    6.50
   0   0 -20  477.45   19.60
   0   0  20  414.26   17.20
   0  -1 -20   16.70    5.80
  -1   0 -20   23.20    5.80
   0   1 -20   20.00    6.00
   1   0 -20   17.30    5.40
   0  -1  20   30.90    5.80
  -1   0  20   21.40    5.00
   1   0  20   24.40    5.00
   0   1  20   23.70    5.30
   1  -1 -20   -0.80    4.60
  -1   1 -20   -0.10    3.90
   1   1 -20   -0.80    4.50
  -1  -1 -20   -1.70    4.00
  -1   1 -20    1.20    4.40
   1   1  20    3.00    3.90
  -1   1  20   -1.50    3.50
   1  -1  20    1.20    3.70
  -1  -1  20    0.50    4.00
  -1   2 -20   61.69    8.50
  -1   2 -20   58.29    8.10
   1  -2 -20   53.29    7.90
  -2  -1 -20   61.09    8.70
   2   1 -20   62.59    8.50
  -2  -1  20   55.29    6.80
   2   1  20   50.49    6.70
  -1   2  20   45.90    6.40
   1  -2  20   48.70    7.00
   0   2 -20  769.42   27.60
   2   0 -20  791.12   28.90
   0  -2 -20  763.22   28.20
  -2   0 -20  757.82   28.30
   0   2 -20  759.42   27.70
  -2   0  20  779.62   25.90
   2   0  20  783.72   26.40
   0   2  20  779.92   26.80
   0  -2  20  761.72   26.50
  -1  -2 -20   52.79    7.70
  -2   1 -20   52.69    7.70
  -2   1 -20   54.79    7.40
   1   2 -20   35.50    6.80
   2  -1 -20   49.70    8.00
   1   2 -20   50.19    7.60
  -2   1  20   46.40    6.10
   1   2  20   61.39    7.20
   2  -1  20   54.99    7.30
   2  -1  20   48.10    6.50
  -1  -2  20   66.29    7.70
   2  -2 -20  988.40   36.00
  -2  -2 -20 1098.49   36.40
  -2   2 -20 1047.90   36.00
  -2   2 -20 1050.79   35.80
   2   2 -20 1055.69   35.30
  -2  -2  20 1074.59   34.00
  -2   2  20 1033.00   34.30
   2  -2  20 1088.29   35.90
  -2   2  20 1064.39   34.00
   2  -2  20 1064.39   34.20
   2   2  20 1090.19   34.50
   2  -3 -20   25.30    6.40
  -2   3 -20   47.20    8.60
   3   2 -20   30.00    7.00
  -3  -2 -20   26.00    7.00
  -2   3 -20   29.20    6.90
   2  -3 -20   36.70    8.10
   2  -3  20   23.70    7.00
  -2   3  20   22.40    6.00
   3   2  20   24.10    6.10
  -2   3  20   24.30    5.70
  -3  -2  20   23.00    5.70
   2  -3  20   26.00    6.30
  -1   3 -20    8.90    5.30
   1  -3 -20   12.90    6.20
   1  -3 -20    6.70    5.20
   3   1 -20    5.00    5.40
  -1   3 -20   10.40    5.50
  -3  -1 -20   11.80    5.40
  -3  -1  20   12.60    4.80
   1  -3  20   14.10    5.00
  -1   3  20    9.90    4.90
  -1   3  20   11.00    5.20
   3   1  20   10.60    5.10
   0   3 -20   43.60    7.90
   0  -3 -20   36.60    6.90
  -3   0 -20   41.20    7.50
   0   3 -20   35.00    6.80
   3   0 -20   41.10    8.20
   3   0  20   39.50    6.10
  -3   0  20   28.70    5.20
  -3   0  20   38.80    9.20
   0   3  20   37.50    6.40
   0  -3  20   41.10    6.90
   1   3 -20   11.80    7.80
   3  -1 -20   20.10    6.60
  -3   1 -20   16.20    6.50
  -1  -3 -20    7.00    5.10
   1   3 -20   18.10    6.40
  -3   1  20   11.80    5.20
  -1  -3  20   16.20    5.20
   3  -1  20    6.90    5.20
   1   3  20   13.40    5.10
   3  -1  20   11.10    5.00
  -3   1  20    8.90    4.40
  -3   2 -20   29.90    7.30
   2   3 -20   17.60    6.70
  -3   2 -20   30.90    7.40
  -2  -3 -20   13.80    5.80
   3  -2 -20   17.90    6.70
   2   3  20   36.70    6.50
  -2  -3  20   32.50    6.60
  -3   2  20   29.20    6.00
  -3   2  20   37.90    7.10
   3  -2  20   28.40    7.00
   3  -2  20   29.00    6.20
  -3   3 -20   -1.60    5.90
  -3  -3 -20    5.00    5.80
  -3   3 -20   -3.90    4.70
   3   3 -20    9.10    6.70
   3  -3 -20    4.80    6.10
   3  -3  20    3.90    5.40
  -3  -3  20    4.30    5.00
  -3   3  20    0.70    4.60
   3  -3  20    1.70    4.60
  -3   3  20    0.70    5.20
   3   3  20    2.50    4.70
  -4  -3 -20    5.50    6.50
   3  -4 -20    4.10    6.30
   3  -4 -20    8.10    7.50
  -3   4 -20   11.50    6.50
  -3   4 -20    5.40    6.40
  -3   4  20   12.90    6.60
   3  -4  20   13.90    6.80
   4   3  20   21.30    6.60
  -3   4  20   18.10    6.40
   3  -4  20   21.90    6.30
   2  -4 -20  492.45   22.50
  -2   4 -20  480.55   22.90
  -2   4 -20  476.35   22.60
   2  -4 -20  490.65   21.90
  -4  -2 -20  486.25   21.90
   4   2  20  462.75   19.80
   2  -4  20  471.55   20.70
  -2   4  20  453.45   21.00
  -2   4  20  467.75   20.00
  -4  -1 -20   28.90    7.40
   1  -4 -20   23.20    6.80
   1  -4 -20   20.00    6.80
   4   1 -20   35.30    8.10
  -1   4 -20   31.70    8.70
  -1   4  20   18.20    6.20
  -1   4  20   14.20    5.50
   1  -4  20   19.70    6.00
   4   1  20   16.80    5.70
  -4   0 -20  344.67   17.80
   0  -4 -20  349.17   17.70
   0   4 -20  336.27   18.10
   0  -4  20  337.47   16.90
   4   0  20  362.76   15.80
   0   4  20  335.07   16.40
  -4   0  20  339.37   16.70
  -4   1 -20   18.70    7.00
   4  -1 -20   17.30    6.90
  -1  -4 -20   10.40    6.10
   1   4 -20   13.80    6.50
   4  -1  20   35.00    6.50
  -1  -4  20   25.60    6.30
  -4   1  20   26.90    6.80
   1   4  20   21.20    6.40
   4  -1  20   23.60    7.30
   4  -2 -20  483.55   23.80
  -2  -4 -20  497.35   21.70
  -4   2 -20  488.35   22.60
   2   4 -20  459.85   22.70
  -4   2  20  519.85   21.50
   4  -2  20  505.55   20.30
   4  -2  20  480.75   21.90
   2   4  20  494.85   21.10
  -2  -4  20  482.85   20.50
  -4   3 -20    6.60    7.10
   3   4 -20   14.90    7.90
  -3  -4 -20   14.80    6.60
  -4   3 -20   15.40    6.50
   4  -3  20    7.20    5.40
  -4   3  20   11.40    6.60
   4  -3  20    9.00    7.00
  -3  -4  20    2.40    5.70
   3   4  20   15.70    6.10
   4   4 -20  230.58   17.00
  -4  -4 -20  210.88   14.90
   2  -5 -20   -3.90   10.80
   2  -5 -20    1.60    7.20
  -2   5  20    6.40    7.30
   1  -5 -20    1.30    5.90
   5   1 -20    0.30    6.20
  -5  -1 -20    3.40    9.60
   1  -5 -20    0.90    6.10
  -1   5 -20    5.40    6.70
  -1   5  20   -0.70    5.30
  -5  -1  20    3.40    5.70
   0   5 -20   -1.70    7.10
   0  -5 -20    5.50    6.30
   0  -5 -20   -1.20    5.70
   5   0 -20    0.50    6.80
  -5   0  20    2.80    5.80
  -1  -5 -20    2.70    6.00
   1   5 -20   -1.10    6.90
   5  -1 -20   -1.50    7.20
  -5   1  20   -1.70    5.60
   5  -1  20    1.30    6.30
  -5   2  20    2.70    6.60
   0   0 -21    1.80    5.10
   0   0  21    2.00    4.20
   1   0 -21  269.27   14.80
   0   1 -21  283.47   15.30
  -1   0 -21  278.07   15.40
   0  -1 -21  276.47   15.40
   0  -1  21  272.67   13.30
   1   0  21  252.67   13.30
  -1   0  21  296.77   13.40
   0   1  21  262.47   13.30
  -1   1 -21    6.50    5.70
   1  -1 -21    3.90    4.90
   1   1 -21    4.00    5.20
  -1  -1 -21    1.70    5.00
  -1   1  21    6.60    4.50
   1  -1  21    1.20    3.80
  -1  -1  21    3.20    3.90
   1   1  21    3.30    4.10
  -2  -1 -21  195.48   13.60
   2   1 -21  183.38   12.90
   1  -2 -21  192.08   13.50
  -1   2 -21  195.48   12.90
  -1   2 -21  177.08   12.30
   1  -2  21  179.98   11.10
  -2  -1  21  180.48   10.70
  -1   2  21  180.78   11.10
   2   1  21  175.28   11.40
  -2   0 -21   14.90    6.00
   0   2 -21   10.80    5.90
   2   0 -21   14.30    5.60
   0   2 -21   15.30    5.90
   0  -2 -21   17.20    6.40
   2   0  21   11.80    4.70
  -2   0  21   16.70    5.10
   0   2  21   12.60    5.10
   0  -2  21   13.50    4.80
  -1  -2 -21  181.68   12.40
  -2   1 -21  195.28   17.50
  -2   1 -21  176.08   12.90
   2  -1 -21  173.78   13.30
   1   2 -21  170.78   12.10
  -1  -2  21  186.78   11.50
  -2   1  21  176.98   10.90
   2  -1  21  167.68   10.80
   1   2  21  186.38   11.80
   2  -2 -21    5.60    5.40
   2   2 -21    7.20    5.30
  -2  -2 -21   12.30    5.90
  -2   2 -21    8.20    5.40
  -2   2 -21   13.90    6.20
  -2  -2  21    9.10    4.90
  -2   2  21    7.20    7.80
   2  -2  21   11.00    5.40
  -2   2  21    9.00    4.50
   2  -2  21    6.90    5.40
   2   2  21    5.70    4.60
  -2   3 -21  130.49   12.40
   2  -3 -21  115.69   10.80
  -2   3 -21  127.19   11.50
   2  -3 -21  143.39   12.90
   3   2 -21  136.79   11.70
  -3  -2 -21  153.58   12.60
   2  -3  21  125.19   11.80
  -2   3  21  147.39   11.10
  -2   3  21  123.79   10.60
   3   2  21  140.39   10.30
   2  -3  21  152.48   11.50
  -3  -2  21  142.79   10.50
  -1   3 -21   33.50    6.80
   1  -3 -21   23.50    6.70
  -3  -1 -21   39.40    8.00
  -1   3 -21   28.80    7.20
   3   1 -21   35.80    7.60
   3   1  21   30.30    6.10
   1  -3  21   28.70    6.70
  -3  -1  21   33.40    6.20
  -1   3  21   16.60    5.60
  -3   0 -21  241.78   14.90
   0  -3 -21  208.38   13.50
   3   0 -21  212.18   13.90
   0   3 -21  214.28   13.20
   0   3 -21  203.88   14.00
   0   3  21  219.88   12.60
  -3   0  21  204.28   11.70
   0  -3  21  204.98   12.40
   3   0  21  207.78   12.10
   3  -1 -21   27.90    8.00
  -1  -3 -21   22.10    6.80
   1   3 -21   31.10    7.60
  -3   1 -21   27.00    7.50
  -3   1  21   22.90    5.60
   1   3  21   33.40    6.30
  -3   1  21   32.80    7.60
   3  -1  21   32.50    6.10
  -1  -3  21   37.50    7.10
  -3   2 -21  144.29   12.50
  -2  -3 -21  152.48   12.60
   3  -2 -21  149.99   13.70
  -3   2 -21  145.29   12.10
   2   3 -21  131.09   12.10
  -2  -3  21  141.69   10.50
   3  -2  21  138.19   10.90
   3  -2  21  134.69   11.90
  -3   2  21  144.49   10.50
   2   3  21  147.29   11.00
  -3   2  21  144.99   11.30
  -3   3 -21   28.20    7.80
  -3   3 -21   21.20    7.20
   3  -3 -21   22.00    8.20
  -3  -3 -21   16.50    6.60
   3  -3  21   22.80    7.00
  -3  -3  21   21.30    6.40
   3  -3  21   28.20    6.50
  -3   3  21   19.10    6.20
  -3   3  21   18.00    6.80
   3   3  21   32.10    6.90
  -3   4 -21  157.58   13.00
   3  -4 -21  108.99   13.50
  -3   4  21  140.49   12.50
  -3   4  21  134.19   11.60
   4   3  21  136.09   12.90
  -4  -2 -21    8.50    6.60
   2  -4 -21    9.10    6.60
   2  -4 -21    1.00    5.60
  -2   4 -21    5.90    6.40
  -2   4  21    4.30    5.90
   4   2  21    6.50    5.00
   2  -4  21    6.00    5.40
  -2   4  21    7.20    6.10
   1  -4 -21  193.38   14.50
   1  -4 -21  200.98   13.60
  -1   4 -21  192.18   15.20
  -4  -1 -21  196.38   14.50
   4   1 -21  211.08   14.60
   4   1  21  199.18   12.70
  -1   4  21  187.78   13.20
   1  -4  21  196.98   13.50
  -1   4  21  200.88   13.30
  -4   0 -21   10.70    6.20
   0   4 -21   10.90    7.10
   0  -4 -21    7.50    5.60
   4   0 -21    7.30    6.90
   0   4  21    9.20    5.90
   4   0  21   15.50    5.70
   0  -4  21   12.50    5.70
   1   4 -21  189.68   14.90
   4  -1 -21  198.48   15.80
  -4   1 -21  187.68   13.90
  -1  -4 -21  212.98   14.40
  -4   1  21  213.98   13.40
  -1  -4  21  206.48   13.80
   4  -1  21  214.18   12.10
   4  -1  21  190.38   13.90
   1   4  21  195.68   13.40
  -4   2 -21    5.80    6.10
  -2  -4 -21    0.50    6.10
   4  -2 -21    4.00    7.20
   2   4 -21    9.20    7.40
  -2  -4  21    5.20    5.80
   4  -2  21    6.40    6.80
   4  -2  21   10.80    5.80
   2   4  21    6.90    5.80
  -4   2  21    9.00    6.00
  -3  -4 -21  138.49   12.80
   3   4 -21  134.39   14.30
  -3  -4  21  146.29   11.90
  -4   3  21  146.19   13.00
   4  -3  21  136.19   10.80
   5   1 -21   -2.80    6.80
   1  -5 -21   -0.80    6.60
   0  -5 -21  169.68   13.80
  -5   0  21  173.48   13.80
  -1  -5 -21   -2.10    6.20
  -5   1  21    4.60    6.30
   5  -1  21    1.60    6.80
   0   0 -22    2.60    4.80
   0   0  22    0.10    3.80
  -1   0 -22   35.90    7.60
   0   1 -22   29.20    7.00
   1   0 -22   27.00    7.00
   0  -1 -22   22.30    6.40
   0  -1  22   20.90    5.30
   0   1  22   32.90    6.00
   1   0  22   22.90    5.40
  -1   0  22   23.00    5.60
  -1   1 -22  573.44   24.10
  -1  -1 -22  607.24   24.80
   1  -1 -22  602.34   24.80
   1   1 -22  608.34   24.50
  -1   1  22  611.64   22.60
   1   1  22  592.44   22.70
  -1  -1  22  588.64   22.20
   1  -1  22  589.14   22.40
   1  -2 -22    1.40    5.20
  -1   2 -22    9.60    6.20
  -1   2 -22    5.90    5.80
   2   1 -22    5.90    5.60
  -2  -1 -22    9.00    5.70
   1  -2  22    8.60    4.80
   2   1  22   16.00    5.20
  -1   2  22   10.70    4.90
  -2  -1  22   11.30    4.80
   0  -2 -22   -0.90    5.60
   2   0 -22    2.30    5.00
  -2   0 -22    4.10    5.90
   0   2 -22    3.40    5.10
   0   2  22    2.90    4.80
  -2   0  22    0.20    4.40
   0  -2  22    5.30    5.00
   2   0  22    2.10    4.70
  -1  -2 -22   11.00    5.80
  -2   1 -22   12.80    6.50
   2  -1 -22   10.60    6.60
   1   2 -22    8.20    5.80
   2  -1  22    8.00    4.90
  -1  -2  22    5.10    5.00
  -2   1  22    3.60    4.20
   1   2  22   10.30    5.30
  -2  -2 -22    4.00    6.30
  -2   2 -22    5.90    6.10
  -2   2 -22    3.20    5.80
   2  -2 -22    6.00    5.70
   2   2 -22    3.00    5.60
   2  -2  22    4.70    5.60
   2  -2  22    1.30    4.50
   2   2  22   -0.40    4.40
  -2   2  22    2.30    4.30
  -2  -2  22   -0.20    4.20
  -3  -2 -22   -2.40    5.90
   2  -3 -22   -0.40    6.40
  -2   3 -22   -0.40    6.00
  -2   3 -22    3.70    6.00
  -3  -2  22    0.60    4.80
   3   2  22    7.00    5.60
  -2   3  22    3.70    5.60
   2  -3  22    7.90    5.90
   2  -3  22    0.00    5.70
  -1   3 -22  624.44   25.50
  -3  -1 -22  590.74   25.20
  -1   3 -22  580.34   24.10
   3   1 -22  586.24   25.10
   1  -3 -22  609.84   25.70
   1  -3  22  564.74   23.40
   3   1  22  588.34   23.00
  -1   3  22  583.54   23.50
  -3  -1  22  593.34   22.30
   3   0 -22   19.10    7.10
   0   3 -22   27.10    7.00
  -3   0 -22   27.50    7.50
   0   3 -22   20.30    7.10
   0  -3 -22   28.60    7.60
   0   3  22   44.50    7.60
  -3   0  22   34.60    6.40
   0  -3  22   28.20    6.30
   3   0  22   24.90    6.10
   1   3 -22  527.75   23.90
  -3   1 -22  562.04   24.40
   3  -1 -22  581.74   25.10
  -1  -3 -22  567.24   24.50
  -3   1  22  566.24   21.50
   3  -1  22  569.24   22.10
   1   3  22  589.84   23.30
  -1  -3  22  614.84   23.40
  -3   2 -22    7.80    6.20
  -2  -3 -22    8.10    6.00
   3  -2 -22    7.50    7.10
  -3   2 -22   -1.10    6.10
  -2  -3  22    3.30    4.90
   3  -2  22    4.30    6.00
   3  -2  22    3.50    4.70
  -3   2  22    2.40    4.50
   2   3  22    0.90    5.80
  -3   3 -22  499.55   23.10
  -3   3 -22  517.55   23.50
  -3  -3 -22  499.55   22.70
  -3   3  22  486.05   21.90
   3  -3  22  498.55   23.10
   3  -3  22  460.55   27.40
  -3  -3  22  496.45   20.80
  -3   3  22  481.85   20.70
   2  -4 -22   -1.50    6.00
  -2   4  22   -1.90    5.80
   4   2  22   -1.70    5.90
  -1   4 -22    5.90    6.00
   4   1 -22    6.30    6.50
   1  -4 -22    4.90    7.40
   4   1  22   11.90    6.10
   0  -4 -22    6.60    5.90
   4   0 -22   -1.50    6.80
   0   4 -22   -1.60    6.70
   4   0  22    2.20    5.40
   1   4 -22   13.30    7.60
  -1  -4 -22   15.00    7.30
   4  -1  22    3.90    5.40
  -2  -4 -22    4.40    7.30
   2   4 -22    0.50    6.50
  -4   2  22    4.00    5.90
   4  -2  22    5.70    6.80
   4  -2  22    0.80    5.50
   0   0 -23    4.20    6.00
   0   0  23   -0.20    4.60
   0   1 -23  126.39   11.20
  -1   0 -23  120.39   11.90
   1   0 -23  138.99   12.40
   0  -1 -23  140.79   11.70
   1   0  23  132.59   10.00
   0  -1  23  123.29    9.80
  -1   0  23  149.09   10.20
   0   1  23  129.49   10.00
  -1   1 -23    3.30    6.30
  -1  -1 -23   -1.50    5.00
   1  -1 -23   -3.60    4.80
   1   1 -23   -1.10    5.30
  -1   1  23    2.80    4.70
   1   1  23    0.60    4.30
  -1  -1  23    3.80    4.50
   1  -1  23    2.40    4.50
  -1   2 -23  170.78   12.60
   2   1 -23  149.09   12.90
  -2  -1 -23  162.08   13.80
   1  -2 -23  160.48   13.50
  -1   2  23  163.28   11.20
  -2  -1  23  162.48   11.30
   1  -2  23  156.68   11.80
   2   1  23  183.18   12.10
  -2   0 -23    6.60    6.50
   0   2 -23    8.20    6.30
   2   0 -23    4.80    6.40
   0  -2 -23    7.50    6.10
  -2   0  23    4.90    4.70
   0   2  23    3.00    5.10
   0  -2  23    8.60    5.40
   2   0  23    6.90    4.90
   1   2 -23  168.48   12.80
   2  -1 -23  149.59   13.50
  -1  -2 -23  162.38   13.40
  -2   1 -23  163.48   13.60
   1   2  23  158.28   11.20
   2  -1  23  170.28   11.30
  -2   1  23  161.88   11.30
  -1  -2  23  179.28   11.60
   2  -2 -23   13.60    6.70
   2   2 -23   12.40    6.60
  -2   2 -23   11.40    6.80
  -2  -2 -23   12.90    6.90
   2   2  23    9.30    5.30
  -2   2  23   12.20    5.20
   2  -2  23   14.70    6.30
  -2  -2  23    9.60    5.20
  -2   3 -23  134.79   12.90
  -2   3 -23  114.29   12.00
  -2   3  23  115.89   10.30
   2  -3  23  130.49   12.40
  -3  -2  23  108.29   10.40
  -1   3 -23    3.90    6.10
  -3  -1 -23   -2.40    9.50
  -1   3 -23    5.20    6.10
   3   1 -23    3.60    6.00
   1  -3 -23    1.00    6.30
   3   1  23    7.10    5.50
  -1   3  23    5.00    5.20
   1  -3  23    8.20    8.40
  -3  -1  23    1.60    5.00
  -3   0 -23   88.49   10.90
   0  -3 -23  117.49   12.30
   3   0 -23  104.99   12.30
   0   3 -23  117.39   17.80
   3   0  23  113.59   10.60
  -3   0  23  110.19    9.90
   0   3  23  110.79   10.90
   3  -1 -23    1.30    6.50
  -3   1 -23    2.60    7.40
  -1  -3 -23   -0.60    6.10
  -3   1  23    2.60    4.90
  -1  -3  23   -1.30    4.80
   3  -1  23    4.40    5.50
  -3   2 -23  114.79   12.60
  -3   2  23  122.49   10.60
  -2  -3  23  104.69   11.20
   0   4 -23    1.00    6.80
   1   4 -23  109.19   13.20
   0   0 -24  306.07   17.10
   0   0  24  301.17   15.20
   1   0 -24    1.80    6.30
   0  -1 -24   -0.30    6.00
  -1   0 -24    3.60    6.20
   0   1 -24   -2.70    5.80
   1   0  24   -1.60    5.00
  -1   0  24    0.50    5.00
   0   1  24   -2.20    4.70
   0  -1  24    3.60    5.20
   1  -1 -24   -0.20    5.40
  -1  -1 -24    1.40    5.70
   1   1 -24   -2.00    5.10
  -1   1 -24    1.30    6.40
   1   1  24    1.50    4.70
  -1   1  24    3.50    4.60
   1  -1  24    3.90    4.80
  -1  -1  24    0.40    5.00
   2   1 -24   11.60    6.90
  -1   2 -24   14.70    7.10
  -2  -1  24   13.70    5.90
   2   1  24   20.60   10.10
  -1   2  24   16.10    6.30
  -2   0 -24  478.35   22.60
   2   0 -24  481.45   22.90
   0  -2 -24  464.45   22.40
   0   2 -24  489.85   22.50
   2   0  24  489.15   20.50
  -2   0  24  492.35   20.40
   0   2  24  472.75   20.50
   0  -2  24  488.15   20.70
  -2   1 -24   10.10    7.10
   1   2 -24   13.80    7.00
   2  -1 -24   18.40    8.00
  -1  -2 -24   19.50   11.50
  -1  -2  24   14.80    5.80
   2  -1  24   11.20    6.10
  -2   1  24   16.40    6.00
   2   2 -24  640.14   26.30
  -2   2  24  652.93   24.70
  -2  -2  24  602.74   26.60
  -2   3 -24    8.80    7.30
   3   1 -24   -1.10    6.80
  -1   3 -24    3.80    6.50
  -3  -1  24   -0.70    5.20
  -3   0  24    3.70    5.20
  -3   1  24    4.80    5.40
   0   0 -25    3.40   10.30
   0   1 -25  146.39   13.60
   1   1 -25    4.10    6.20
   0   2 -25    2.80    6.80
   1   2 -25   93.69   11.60
_computing_structure_solution     'SHELXT 2014/4 (Sheldrick, 2014)'
;
_shelx_hkl_checksum              45143
_shelx_res_file
;
    16bek6n_a_2.res created by SHELXL-2014/7
TITL 16bek6n_a.res in P4(1)2(1)2
REM Old TITL 16bek6n in P4(3)2(1)2
REM SHELXT solution in P4(1)2(1)2
REM R1 0.350,  Rweak 0.014,  Alpha 0.128,  Orientation as input
REM Flack x =  0.379 ( 0.022 ) from Parsons' quotients
REM Formula found by SHELXT:  C4 N4 O2 Se
CELL  0.71073   6.1352   6.1352  18.1726   90.000   90.000   90.000
ZERR    4.000   0.0004   0.0004   0.0012    0.000    0.000    0.000
LATT -1
SYMM  -x, -y, 1/2+z
SYMM  1/2-y, 1/2+x, 3/4+z
SYMM  1/2+y, 1/2-x, 1/4+z
SYMM  1/2-x, 1/2+y, 3/4-z
SYMM  1/2+x, 1/2-y, 1/4-z
SYMM  +y, +x, -z
SYMM  -y, -x, 1/2-z
REM enantiomorph space group. SYMM cards changed!
REM SYMM -X, -Y, 1/2+Z
REM SYMM 1/2-Y, 1/2+X, 1/4+Z
REM SYMM 1/2+Y, 1/2-X, 3/4+Z
REM SYMM 1/2-X, 1/2+Y, 1/4-Z
REM SYMM 1/2+X, 1/2-Y, 3/4-Z
REM SYMM Y, X, -Z
REM SYMM -Y, -X, 1/2-Z
SFAC C H N O SE
UNIT 8 40 8 16 4
ACTA
TEMP 26.630
L.S. 10
BOND $H
LIST 4
FMAP 2
PLAN -20
WGHT    0.031000    0.054700
FVAR       0.66306
SE01  5    0.240891    0.759109    0.750000    10.50000    0.01957    0.01957 =
         0.01719   -0.00098   -0.00098    0.00108
O1    4    0.272904    1.010461    0.720589    11.00000    0.04007    0.02470 =
         0.02805    0.00588   -0.00571   -0.00622
O2    4    0.285869    0.589460    0.682244    11.00000    0.03491    0.04041 =
         0.03290   -0.01686    0.00086    0.00476
C1    1    0.747745    0.224427    0.791309    11.00000    0.03104    0.02920 =
         0.02366    0.00409   -0.00316    0.00575
AFIX  23
H1A   2    0.787784    0.076807    0.804821    11.00000   -1.20000
H1B   2    0.846104    0.323150    0.816519    11.00000   -1.20000
AFIX   0
N1    3    0.521213    0.267665    0.816254    11.00000    0.03230    0.02590 =
         0.01967    0.00154    0.00106    0.00145
AFIX 133
H1C   2    0.514573    0.256763    0.865039    11.00000   -1.50000
H1D   2    0.431461    0.170759    0.796005    11.00000   -1.50000
H1E   2    0.481909    0.401373    0.802661    11.00000   -1.50000
AFIX   0
HKLF 4
REM  16bek6n_a.res in P4(1)2(1)2
REM R1 =  0.0208 for     961 Fo > 4sig(Fo)  and  0.0243 for all    1050 data
REM     42 parameters refined using      0 restraints
END
WGHT      0.0265      0.1005
REM Highest difference peak  0.299,  deepest hole -0.919,  1-sigma level  0.187
Q1    1   0.3870  0.6005  0.6206  11.00000  0.05    0.30
Q2    1   0.3458  0.5869  0.6127  11.00000  0.05    0.30
Q3    1   0.3231 -0.0424  0.6131  11.00000  0.05    0.29
Q4    1   0.4805 -0.0477  0.6427  11.00000  0.05    0.29
Q5    1   0.5203  0.1382  0.6240  11.00000  0.05    0.28
Q6    1   0.4178  0.3441  0.6531  11.00000  0.05    0.28
Q7    1   0.1785  1.1627  0.6589  11.00000  0.05    0.28
Q8    1   0.0733  0.4617  0.6179  11.00000  0.05    0.27
Q9    1   0.5497  0.5000  0.6712  11.00000  0.05    0.27
Q10   1   0.4564  0.1962  0.6451  11.00000  0.05    0.27
Q11   1   0.4177  0.4793  0.6380  11.00000  0.05    0.27
Q12   1   0.5433  0.8577  0.6486  11.00000  0.05    0.27
Q13   1   0.4300  0.8478  0.6206  11.00000  0.05    0.26
Q14   1   0.4703  0.5105  0.6056  11.00000  0.05    0.26
Q15   1   0.5608  0.2531  0.6224  11.00000  0.05    0.25
Q16   1   0.3367  0.4169  0.6635  11.00000  0.05    0.25
Q17   1   0.4445  1.0832  0.6485  11.00000  0.05    0.25
Q18   1   0.2116  0.4200  0.6607  11.00000  0.05    0.25
Q19   1   0.0646  1.0939  0.6526  11.00000  0.05    0.25
Q20   1   0.4170  0.2334  0.6272  11.00000  0.05    0.25
;
_shelx_res_checksum              42100
loop_
_space_group_symop_operation_xyz
'x, y, z'
'-x, -y, z+1/2'
'-y+1/2, x+1/2, z+3/4'
'y+1/2, -x+1/2, z+1/4'
'-x+1/2, y+1/2, -z+3/4'
'x+1/2, -y+1/2, -z+1/4'
'y, x, -z'
'-y, -x, -z+1/2'
loop_
_atom_site_type_symbol
_atom_site_label
_atom_site_fract_x
_atom_site_fract_y
_atom_site_fract_z
_atom_site_U_iso_or_equiv
_atom_site_adp_type
_atom_site_calc_flag
_atom_site_occupancy
Se Se01 0.24089(3) 0.75911(3) 0.7500 0.01878(11) Uani d 1
O O1 0.2729(3) 1.0105(2) 0.72059(9) 0.0309(4) Uani d 1
O O2 0.2859(3) 0.5895(3) 0.68224(10) 0.0361(4) Uani d 1
C C1 0.7477(3) 0.2244(3) 0.79131(15) 0.0280(5) Uani d 1
H H1A 0.7878 0.0768 0.8048 0.034 Uiso calc 1
H H1B 0.8461 0.3232 0.8165 0.034 Uiso calc 1
N N1 0.5212(3) 0.2677(3) 0.81625(10) 0.0260(4) Uani d 1
H H1C 0.5146 0.2568 0.8650 0.039 Uiso calc 1
H H1D 0.4315 0.1708 0.7960 0.039 Uiso calc 1
H H1E 0.4819 0.4014 0.8027 0.039 Uiso calc 1
loop_
_atom_site_aniso_label
_atom_site_aniso_U_11
_atom_site_aniso_U_22
_atom_site_aniso_U_33
_atom_site_aniso_U_12
_atom_site_aniso_U_13
_atom_site_aniso_U_23
Se01 0.01957(12) 0.01957(12) 0.01719(17) 0.00108(13) -0.00098(6) -0.00098(6)
O1 0.0401(10) 0.0247(8) 0.0280(8) -0.0062(7) -0.0057(8) 0.0059(7)
O2 0.0349(10) 0.0404(10) 0.0329(9) 0.0048(7) 0.0009(8) -0.0169(8)
C1 0.0310(12) 0.0292(10) 0.0237(12) 0.0058(10) -0.0032(8) 0.0041(8)
N1 0.0323(10) 0.0259(10) 0.0197(8) 0.0015(8) 0.0011(7) 0.0015(8)
loop_
_atom_type_symbol
_atom_type_description
_atom_type_scat_dispersion_real
_atom_type_scat_dispersion_imag
_atom_type_scat_source
C C 0.0033 0.0016 'International Tables Vol C Tables 4.2.6.8 and 6.1.1.4'
H H 0.0000 0.0000 'International Tables Vol C Tables 4.2.6.8 and 6.1.1.4'
N N 0.0061 0.0033 'International Tables Vol C Tables 4.2.6.8 and 6.1.1.4'
O O 0.0106 0.0060 'International Tables Vol C Tables 4.2.6.8 and 6.1.1.4'
Se Se -0.0929 2.2259 'International Tables Vol C Tables 4.2.6.8 and 6.1.1.4'
loop_
_geom_angle_atom_site_label_1
_geom_angle_atom_site_label_2
_geom_angle_atom_site_label_3
_geom_angle_site_symmetry_1
_geom_angle_site_symmetry_3
_geom_angle
O2 Se01 O2 8_666 . 110.61(13)
O2 Se01 O1 8_666 8_666 109.39(9)
O2 Se01 O1 . 8_666 109.09(8)
O2 Se01 O1 8_666 . 109.08(8)
O2 Se01 O1 . . 109.39(9)
O1 Se01 O1 8_666 . 109.26(12)
N1 C1 C1 . 8_666 112.72(16)
N1 C1 H1A . . 109.0
C1 C1 H1A 8_666 . 109.0
N1 C1 H1B . . 109.0
C1 C1 H1B 8_666 . 109.0
H1A C1 H1B . . 107.8
C1 N1 H1C . . 109.5
C1 N1 H1D . . 109.5
H1C N1 H1D . . 109.5
C1 N1 H1E . . 109.5
H1C N1 H1E . . 109.5
H1D N1 H1E . . 109.5
loop_
_geom_bond_atom_site_label_1
_geom_bond_atom_site_label_2
_geom_bond_site_symmetry_2
_geom_bond_distance
Se01 O2 8_666 1.6357(16)
Se01 O2 . 1.6357(16)
Se01 O1 8_666 1.6439(15)
Se01 O1 . 1.6439(15)
C1 N1 . 1.486(3)
C1 C1 8_666 1.521(5)
C1 H1A . 0.9700
C1 H1B . 0.9700
N1 H1C . 0.8900
N1 H1D . 0.8900
N1 H1E . 0.8900
