#------------------------------------------------------------------------------
#$Date: 2016-02-21 11:56:54 +0200 (Sun, 21 Feb 2016) $
#$Revision: 176809 $
#$URL: svn://www.crystallography.net/cod/cif/2/30/04/2300492.cif $
#------------------------------------------------------------------------------
#
# This file is available in the Crystallography Open Database (COD),
# http://www.crystallography.net/. The original data for this entry
# were provided by IUCr Journals, http://journals.iucr.org/.
#
# The file may be used within the scientific community so long as
# proper attribution is given to the journal article from which the
# data were obtained.
#
data_2300492
loop_
_publ_author_name
'Krause, Lennard'
'Herbst-Irmer, Regine'
'Sheldrick, George M.'
'Stalke, Dietmar'
_publ_section_title
;
 Comparison of silver and molybdenum microfocus X-ray sources for
 single-crystal structure determination
;
_journal_coeditor_code           aj5242
_journal_issue                   1
_journal_name_full               'Journal of Applied Crystallography'
_journal_paper_doi               10.1107/S1600576714022985
_journal_volume                  48
_journal_year                    2015
_chemical_formula_moiety         'C4 Co Sc3'
_chemical_formula_sum            'C4 Co Sc3'
_chemical_formula_weight         241.85
_chemical_name_systematic
;
 ?
;
_space_group_crystal_system      orthorhombic
_space_group_IT_number           71
_space_group_name_Hall           '-I 2 2'
_space_group_name_H-M_alt        'I m m m'
_symmetry_space_group_name_Hall  '-I 2 2'
_symmetry_space_group_name_H-M   'I m m m'
_audit_creation_method           SHELXL-2014
_cell_angle_alpha                90
_cell_angle_beta                 90
_cell_angle_gamma                90
_cell_formula_units_Z            2
_cell_length_a                   3.398(2)
_cell_length_b                   4.377(2)
_cell_length_c                   12.003(3)
_cell_measurement_reflns_used    9548
_cell_measurement_temperature    100(2)
_cell_measurement_theta_max      55.781
_cell_measurement_theta_min      3.3945
_cell_volume                     178.52(14)
_computing_cell_refinement       'SAINT V7.68A'
_computing_data_collection       'APEX2 v2012.2'
_computing_data_reduction        'SAINT V7.68A'
_computing_structure_refinement  'SHELXL-2014 (Sheldrick, 2014)'
_computing_structure_solution    'SHELXS-2012 (Sheldrick, 2012)'
_diffrn_ambient_temperature      100(2)
_diffrn_measured_fraction_theta_full 1.000
_diffrn_measured_fraction_theta_max 0.997
_diffrn_measurement_device_type  'Bruker Smart APEX II Quazar'
_diffrn_measurement_method       'omega scans'
_diffrn_radiation_type           MoK\a
_diffrn_radiation_wavelength     0.71073
_diffrn_reflns_av_R_equivalents  0.0204
_diffrn_reflns_av_unetI/netI     0.0066
_diffrn_reflns_Laue_measured_fraction_full 1.000
_diffrn_reflns_Laue_measured_fraction_max 0.997
_diffrn_reflns_limit_h_max       7
_diffrn_reflns_limit_h_min       -7
_diffrn_reflns_limit_k_max       9
_diffrn_reflns_limit_k_min       -10
_diffrn_reflns_limit_l_max       27
_diffrn_reflns_limit_l_min       -27
_diffrn_reflns_number            11104
_diffrn_reflns_point_group_measured_fraction_full 1.000
_diffrn_reflns_point_group_measured_fraction_max 0.997
_diffrn_reflns_theta_full        25.242
_diffrn_reflns_theta_max         55.801
_diffrn_reflns_theta_min         3.395
_diffrn_source                   'INCOATEC Microsource'
_exptl_absorpt_coefficient_mu    9.787
_exptl_absorpt_correction_T_max  0.7011
_exptl_absorpt_correction_T_min  0.5761
_exptl_absorpt_correction_type   multi-scan
_exptl_absorpt_process_details   SADABS-2014/4
_exptl_crystal_density_diffrn    4.499
_exptl_crystal_F_000             228
_exptl_crystal_size_max          0.080
_exptl_crystal_size_mid          0.050
_exptl_crystal_size_min          0.050
_refine_diff_density_max         0.960
_refine_diff_density_min         -0.736
_refine_diff_density_rms         0.211
_refine_ls_extinction_coef       0.046(3)
_refine_ls_extinction_expression Fc^*^=kFc[1+0.001xFc^2^\l^3^/sin(2\q)]^-1/4^
_refine_ls_extinction_method     SHELXL
_refine_ls_goodness_of_fit_ref   1.275
_refine_ls_hydrogen_treatment    undef
_refine_ls_matrix_type           full
_refine_ls_number_parameters     18
_refine_ls_number_reflns         704
_refine_ls_number_restraints     0
_refine_ls_restrained_S_all      1.275
_refine_ls_R_factor_all          0.0121
_refine_ls_R_factor_gt           0.0120
_refine_ls_shift/su_max          0.002
_refine_ls_shift/su_mean         0.000
_refine_ls_structure_factor_coef Fsqd
_refine_ls_weighting_details
'w=1/[\s^2^(Fo^2^)+(0.0174P)^2^+0.0528P] where P=(Fo^2^+2Fc^2^)/3'
_refine_ls_weighting_scheme      calc
_refine_ls_wR_factor_gt          0.0327
_refine_ls_wR_factor_ref         0.0327
_reflns_Friedel_coverage         0.000
_reflns_number_gt                699
_reflns_number_total             704
_reflns_threshold_expression     'I > 2\s(I)'
_cod_data_source_file            aj5242sup1.cif
_cod_data_source_block           4-(Mo)
_cod_database_code               2300492
_cod_database_fobs_code          2300492
#BEGIN Tags that were not found in dictionaries:
_shelx_space_group_comment
;
The symmetry employed for this shelxl refinement is uniquely defined
by the following loop, which should always be used as a source of
symmetry information in preference to the above space-group names.
They are only intended as comments.
;
_shelx_estimated_absorpt_t_min   0.508
_shelx_estimated_absorpt_t_max   0.640
_shelxl_version_number           2014-3
_shelx_res_file
;
TITL global    I m m m      R = 0.01
CELL 0.71073   3.398   4.377  12.003  90.00  90.00  90.00
ZERR    2.00   0.002   0.002   0.003   0.00   0.00   0.00
LATT 2
SYMM - X , - Y ,   Z
SYMM   X , - Y , - Z
SYMM - X ,   Y , - Z
SFAC C Co Sc
UNIT 8 2 6
LIST 4
ACTA
TEMP -173.000
SIZE 0.08 0.05 0.05
L.S. 10
FMAP 2
PLAN 10
BOND $H
WGHT    0.017400    0.052800
EXTI    0.045779
FVAR       0.28626
CO    2    0.500000    0.000000    0.000000    10.12500    0.00724    0.00349 =
         0.00362    0.00000    0.00000    0.00000
SC1   3    0.000000    0.500000    0.000000    10.12500    0.00431    0.00439 =
         0.00439    0.00000    0.00000    0.00000
SC2   3    0.500000    0.500000    0.311979    10.25000    0.00444    0.00370 =
         0.00399    0.00000    0.00000    0.00000
C     1    0.500000    0.333765    0.124802    10.50000    0.00601    0.00438 =
         0.00494    0.00030    0.00000    0.00000
HKLF 4

REM  global    I m m m      R = 0.01
REM R1 =  0.0120 for     699 Fo > 4sig(Fo)  and  0.0121 for all     704 data
REM     18 parameters refined using      0 restraints

END

WGHT      0.0174      0.0528

REM Highest difference peak  0.960,  deepest hole -0.736,  1-sigma level  0.211
Q1    1   0.5000  0.0000 -0.0369  10.25000  0.05    0.96
Q2    1   0.5000 -0.1002  0.0000  10.25000  0.05    0.92
Q3    1   0.6497  0.0000  0.0000  10.25000  0.05    0.69
Q4    1   0.1331  0.5000  0.0000  10.25000  0.05    0.62
Q5    1   0.4156  0.4224  0.3036  11.00000  0.05    0.55
Q6    1   0.0000  0.5000  0.0333  10.25000  0.05    0.42
Q7    1   0.2570  0.2662  0.1799  11.00000  0.05    0.38
Q8    1   0.5000  0.4622  0.3410  10.50000  0.05    0.37
Q9    1   0.2555  0.2060  0.1322  11.00000  0.05    0.37
Q10   1   0.2235  0.2093  0.0520  11.00000  0.05    0.35
;
_shelx_res_checksum              24586
_shelx_hkl_file
;
   2   0   0  895.48   15.40
   2   0   0  943.71   16.56
   2   0   0  856.31   14.20
   2   0   0  916.50   16.92
   2   0   0  883.70   16.88
   2   0   0  922.02   16.04
  -2   0   0  925.41   17.17
   2   0   0  970.48   17.14
  -2   0   0  974.63   17.48
  -2   0   0  955.00   14.75
  -2   0   0  887.28   15.15
  -2   0   0  942.78   15.03
  -2   0   0  906.19   14.62
  -4   0   0  379.83    6.35
  -4   0   0  387.11    6.08
   4   0   0  369.84    5.96
  -4   0   0  372.17    6.07
  -4   0   0  392.93    6.09
  -4   0   0  379.21    5.99
   4   0   0  376.11    6.28
  -6   0   0  161.85    3.07
  -6   0   0  171.11    2.95
   6   0   0  170.41    2.72
  -6   0   0  167.67    2.89
   1  -1   0    1.42    0.05
   1  -1   0    1.27    0.15
   1   1   0    1.23    0.17
   1   1   0    1.54    0.15
  -1   1   0    1.44    0.08
  -1   1   0    1.38    0.15
  -1   1   0    1.42    0.12
   1  -1   0    1.34    0.11
   1  -1   0    1.66    0.11
   1  -1   0    1.30    0.17
  -1   1   0    1.31    0.09
  -1  -1   0    1.38    0.07
  -1  -1   0    1.26    0.07
  -1  -1   0    1.49    0.10
  -1  -1   0    1.37    0.10
  -1  -1   0    1.27    0.14
  -1  -1   0    1.35    0.18
  -1  -1   0    1.48    0.20
  -1  -1   0    1.45    0.12
  -1   1   0    1.13    0.13
   1  -1   0    1.51    0.14
   1  -1   0    1.27    0.09
   1  -1   0    1.44    0.09
   1   1   0    1.72    0.12
  -1   1   0    1.40    0.19
   1   1   0    1.94    0.21
  -1   1   0    1.41    0.09
  -3   1   0    0.18    0.09
  -3   1   0    0.31    0.08
  -3  -1   0    0.21    0.07
  -3  -1   0    0.19    0.08
  -3  -1   0    0.04    0.06
   3   1   0    0.12    0.12
   3   1   0    0.09    0.14
   3   1   0   -0.02    0.10
  -3   1   0    0.12    0.05
  -3  -1   0    0.21    0.08
  -3  -1   0    0.15    0.06
   3   1   0    0.05    0.09
  -3  -1   0    0.16    0.05
  -3  -1   0    0.19    0.06
   3   1   0    0.09    0.09
   3  -1   0    0.13    0.08
   3  -1   0    0.10    0.08
   3  -1   0    0.22    0.11
   3  -1   0    0.21    0.07
   3  -1   0    0.15    0.04
   3   1   0    0.18    0.14
   3   1   0    0.05    0.10
   3   1   0    0.14    0.13
  -3   1   0    0.07    0.05
  -3   1   0    0.10    0.05
  -3   1   0    0.28    0.17
  -3  -1   0    0.13    0.05
  -5  -1   0    0.87    0.15
  -5   1   0    0.60    0.14
  -5   1   0    0.73    0.13
  -5   1   0    0.95    0.13
  -5  -1   0    0.88    0.14
  -5   1   0    0.37    0.15
   5  -1   0    1.03    0.18
  -5  -1   0    0.65    0.14
   5  -1   0    0.96    0.11
   5  -1   0    0.74    0.14
   5  -1   0    0.63    0.18
  -7   1   0    0.60    0.15
  -7   1   0    0.71    0.14
   0  -2   0  726.81   14.23
   0   2   0  706.97   13.30
   0  -2   0  745.66   14.79
   0   2   0  711.91   12.24
   0  -2   0  755.27   11.91
   0  -2   0  725.99   11.81
   0  -2   0  763.76   12.19
   0   2   0  730.15   14.17
   0  -2   0  743.08   12.24
   0  -2   0  684.47   12.62
   0   2   0  712.30   12.05
   0   2   0  759.10   11.55
   2   2   0  560.97    9.54
   2  -2   0  557.56    9.51
   2  -2   0  559.23    8.92
  -2   2   0  534.21    9.80
  -2  -2   0  554.74    9.20
  -2  -2   0  569.18    9.38
   2  -2   0  566.17    9.71
  -2   2   0  584.66    9.19
   2  -2   0  569.72    9.58
   2   2   0  583.18    9.40
   2   2   0  567.48    9.79
   2   2   0  560.91    9.86
  -2   2   0  557.18    9.36
   2  -2   0  584.51    9.40
   2   2   0  577.72    9.12
  -2   2   0  555.92    9.32
  -2  -2   0  558.96    8.78
  -2  -2   0  541.72    8.91
   2   2   0  578.91    9.98
   2   2   0  553.41    9.05
  -2  -2   0  608.86   10.23
  -2   2   0  581.66   10.02
  -2   2   0  572.23    9.60
   2  -2   0  570.84    9.20
  -2   2   0  567.97    9.85
  -2  -2   0  556.10    9.20
   2  -2   0  586.29    9.66
   2  -2   0  552.75    9.81
   2   2   0  652.02    9.49
   2   2   0  567.63    9.99
   2   2   0  546.91    9.41
  -2   2   0  578.21    9.54
  -2  -2   0  590.88    9.12
  -4   2   0  214.89    3.65
  -4  -2   0  218.75    3.60
  -4   2   0  217.77    3.56
  -4   2   0  209.14    3.55
  -4  -2   0  217.22    3.55
   4   2   0  216.52    3.63
  -4  -2   0  216.57    3.56
  -4   2   0  213.97    3.64
   4  -2   0  212.99    3.73
   4  -2   0  222.03    3.49
   4  -2   0  216.42    3.91
   4  -2   0  218.79    3.68
  -4   2   0  214.69    3.52
  -4  -2   0  217.78    3.79
  -4  -2   0  219.52    3.84
  -4   2   0  207.19    3.91
   4   2   0  219.16    3.79
  -6   2   0   92.33    1.86
  -6   2   0   94.44    1.81
  -6   2   0   97.02    2.00
   6  -2   0   94.57    1.96
   6  -2   0   94.33    1.75
   1   3   0   47.65    0.79
  -1   3   0   47.09    0.93
   1  -3   0   47.82    0.87
   1   3   0   46.87    0.95
  -1   3   0   48.06    0.89
   1  -3   0   46.41    1.03
  -1   3   0   43.75    1.56
  -1  -3   0   47.67    0.92
  -1   3   0   46.22    1.37
  -1   3   0   48.33    1.34
   1   3   0   47.69    0.88
  -1   3   0   47.56    1.18
   1  -3   0   47.57    1.58
   1  -3   0   48.83    1.21
   1  -3   0   48.69    0.92
  -1  -3   0   47.08    1.56
  -1  -3   0   47.48    1.69
  -1  -3   0   48.45    0.93
   1  -3   0   46.11    1.27
  -1  -3   0   47.84    1.38
   1   3   0   48.11    1.54
  -1   3   0   47.23    1.01
   1  -3   0   47.85    1.40
  -1  -3   0   46.51    0.86
  -1  -3   0   47.18    1.00
  -1   3   0   48.45    0.94
   1   3   0   46.91    0.92
   1   3   0   45.12    1.25
  -1  -3   0   45.55    1.02
   1   3   0   49.88    1.66
   1   3   0   46.12    0.93
   1  -3   0   47.79    1.02
  -3  -3   0   20.44    0.68
   3   3   0   20.05    0.56
  -3   3   0   20.11    0.54
  -3  -3   0   21.32    0.55
   3  -3   0   21.00    0.67
  -3   3   0   21.32    0.70
  -3   3   0   20.31    0.58
   3  -3   0   20.04    0.50
  -3  -3   0   20.78    0.65
   3  -3   0   20.72    0.58
  -3  -3   0   20.04    0.52
   3   3   0   20.22    0.49
   3  -3   0   19.89    0.69
  -3  -3   0   20.61    0.52
  -3   3   0   20.78    0.54
   5  -3   0    6.67    0.31
  -5   3   0    7.12    0.38
  -5  -3   0    6.17    0.32
  -5  -3   0    6.59    0.27
  -5   3   0    6.05    0.32
  -5   3   0    6.70    0.31
   5  -3   0    6.56    0.38
  -7   3   0    2.00    0.24
  -7   3   0    1.95    0.21
   0  -4   0  407.61    6.58
   0   4   0  402.30    6.53
   0  -4   0  404.70    7.38
   0  -4   0  411.74    6.40
   0   4   0  402.00    7.10
   0   4   0  390.46    6.41
   0  -4   0  406.82    6.65
   0   4   0  419.95    7.44
   0   4   0  385.84    6.34
   0   4   0  404.10    6.37
   0   4   0  401.45    6.54
   0  -4   0  407.03    6.28
   0  -4   0  409.69    6.46
  -2  -4   0  297.93    4.85
   2   4   0  299.66    4.96
  -2   4   0  306.15    4.97
  -2  -4   0  299.70    4.93
  -2   4   0  305.20    4.89
   2  -4   0  304.23    5.17
   2  -4   0  309.77    5.14
   2   4   0  307.72    4.95
   2  -4   0  308.21    4.84
  -2  -4   0  301.33    5.12
  -2   4   0  301.18    5.02
  -2   4   0  301.85    4.82
  -2  -4   0  297.32    5.12
   2   4   0  308.46    4.88
   2  -4   0  302.83    4.96
   2   4   0  304.58    4.71
  -4   4   0  155.74    2.70
  -4   4   0  155.93    2.72
  -4  -4   0  166.08    2.67
   4  -4   0  157.41    2.74
  -4   4   0  157.95    2.82
   4  -4   0  153.51    2.89
   4  -4   0  165.23    3.07
   4   4   0  161.75    2.49
   4  -4   0  153.53    3.15
  -4  -4   0  157.19    2.79
  -4  -4   0  156.94    2.75
  -4   4   0  153.25    2.78
  -4   4   0  153.83    3.11
  -4  -4   0  159.72    2.76
   4   4   0  156.95    2.72
   4   4   0  158.48    2.85
  -4  -4   0  154.90    3.14
  -6   4   0   74.29    1.68
   6  -4   0   76.51    1.53
  -6   4   0   74.62    1.58
   6  -4   0   76.41    1.72
  -6   4   0   73.56    1.53
   1   5   0    0.12    0.07
   1   5   0    0.13    0.06
   1  -5   0    0.21    0.11
  -1  -5   0    0.10    0.06
  -1  -5   0    0.20    0.10
   1   5   0    0.23    0.09
   1   5   0    0.17    0.10
   1  -5   0    0.26    0.10
  -1   5   0    0.11    0.07
  -1  -5   0    0.20    0.11
  -1  -5   0    0.21    0.09
  -1   5   0    0.15    0.08
  -1  -5   0    0.14    0.07
  -3  -5   0    0.39    0.09
  -3   5   0    0.64    0.15
  -3  -5   0    0.40    0.16
  -3   5   0    0.40    0.14
   3  -5   0    0.38    0.11
  -3   5   0    0.69    0.13
   3   5   0    0.44    0.13
   3  -5   0    0.92    0.22
  -3   5   0    0.31    0.09
   3   5   0    0.42    0.08
   3  -5   0    0.57    0.15
  -3  -5   0    0.44    0.12
   3   5   0    0.48    0.12
  -3  -5   0    0.40    0.11
  -3   5   0    0.62    0.14
  -3   5   0    0.36    0.10
   3   5   0    0.68    0.15
  -5   5   0    0.48    0.14
  -5  -5   0    0.18    0.14
  -5   5   0    0.66    0.16
  -5  -5   0    0.58    0.13
   5  -5   0    0.52    0.17
  -5   5   0    0.59    0.14
   5  -5   0    0.94    0.17
   5   5   0    0.76    0.09
  -5  -5   0    0.69    0.17
   0   6   0  312.21    5.31
   0  -6   0  322.75    5.08
   0  -6   0  322.15    5.59
   0  -6   0  319.12    5.12
   0  -6   0  319.20    5.30
   0   6   0  314.36    5.07
   0   6   0  309.71    5.21
   2   6   0  277.89    4.71
  -2  -6   0  272.75    4.55
   2   6   0  273.84    4.88
   2   6   0  273.59    4.60
  -2  -6   0  272.40    4.46
  -2   6   0  278.90    4.75
  -2  -6   0  274.10    4.98
  -2   6   0  272.74    4.62
  -2  -6   0  272.01    4.58
   2  -6   0  276.42    4.75
   2   6   0  276.71    4.43
  -2   6   0  278.01    4.46
   2  -6   0  280.16    4.48
  -4  -6   0  169.17    3.12
  -4  -6   0  174.28    3.08
  -4  -6   0  169.56    2.99
   4  -6   0  170.51    3.27
   4   6   0  175.09    2.86
   4   6   0  175.94    3.09
  -4   6   0  174.52    3.00
  -4   6   0  166.61    2.97
  -6  -6   0   88.27    1.66
  -6   6   0   90.98    1.73
  -6   6   0   86.49    1.70
   1  -7   0    0.15    0.12
   1   7   0    0.25    0.10
  -1  -7   0    0.31    0.16
  -1  -7   0    0.27    0.11
  -1   7   0    0.45    0.11
  -1  -7   0    1.48    0.24
   1  -7   0    0.37    0.12
  -1  -7   0    0.65    0.15
  -1   7   0    0.33    0.13
  -1  -7   0    0.35    0.10
   1   7   0    0.37    0.13
  -3  -7   0    0.56    0.14
  -3  -7   0    0.56    0.15
  -3   7   0    0.33    0.13
  -3   7   0    0.61    0.14
   3  -7   0    0.53    0.18
   3   7   0    0.52    0.15
   3   7   0    0.57    0.12
  -3  -7   0    0.34    0.15
  -5   7   0    0.39    0.12
  -5  -7   0    0.40    0.16
  -5  -7   0    0.39    0.13
   0  -8   0  110.70    2.31
   0  -8   0  110.57    2.12
  -2  -8   0   96.71    1.83
   2   8   0   96.78    1.83
  -2  -8   0   95.93    1.92
  -2  -8   0   95.31    1.93
  -2   8   0   95.76    1.99
   2   8   0   95.53    1.99
   2  -8   0   98.01    2.12
  -2   8   0   96.66    1.79
   2  -8   0   96.33    1.84
  -4  -8   0   66.65    1.37
  -4   8   0   66.69    1.34
  -4  -8   0   63.54    1.43
   1  -9   0    4.87    0.31
  -1  -9   0    5.09    0.34
  -3   9   0    3.74    0.23
  -3  -9   0    3.02    0.23
  -3  -9   0    3.69    0.29
   0 -10   0   61.52    1.30
   1   0  -1   13.35    0.28
   1   0  -1   13.73    0.41
   1   0  -1   12.70    0.39
   1   0  -1   13.47    0.22
  -1   0   1   12.97    0.25
   1   0   1   12.76    0.45
   1   0  -1   13.35    0.52
  -1   0   1   12.86    0.30
  -1   0   1   13.20    0.52
  -1   0  -1   12.71    0.46
   1   0  -1   13.35    0.23
   1   0   1   12.98    0.42
   1   0   1   13.13    0.44
  -1   0  -1   13.20    0.28
  -1   0  -1   12.86    0.26
  -1   0   1   13.57    0.41
   1   0   1   13.79    0.29
   1   0   1   13.10    0.39
   1   0  -1   12.37    0.41
   1   0   1   13.33    0.23
  -1   0  -1   13.27    0.31
  -1   0  -1   13.39    0.44
  -1   0   1   13.12    0.32
  -1   0  -1   13.41    0.40
  -1   0  -1   12.85    0.42
   1   0   1   13.06    0.22
  -3   0   1    0.40    0.08
   3   0  -1    0.56    0.17
  -3   0  -1    0.51    0.08
   3   0  -1    0.42    0.06
   3   0   1    0.58    0.21
   3   0   1    0.57    0.17
   3   0   1    0.43    0.10
   3   0   1    0.33    0.15
  -3   0  -1    0.95    0.15
   3   0   1    0.28    0.13
   3   0  -1    0.48    0.22
   3   0  -1    0.51    0.17
   3   0   1    0.39    0.16
   3   0   1    0.54    0.21
   3   0   1    0.52    0.18
  -3   0  -1    0.87    0.11
   3   0  -1    0.52    0.23
   3   0   1    0.44    0.06
  -3   0   1    0.30    0.10
  -3   0   1    0.49    0.08
  -3   0   1    0.47    0.09
  -3   0  -1    0.66    0.09
  -3   0   1    0.65    0.08
   3   0  -1    0.51    0.17
  -3   0  -1    0.44    0.09
   3   0  -1    0.58    0.18
   3   0  -1    0.47    0.09
  -3   0  -1    0.62    0.10
  -3   0   1    0.41    0.07
   3   0  -1    0.55    0.16
   3   0   1    0.42    0.06
   3   0  -1    0.58    0.12
   3   0   1    0.36    0.16
   3   0  -1    0.52    0.07
  -5   0   1    0.32    0.11
  -5   0   1    0.25    0.08
  -5   0   1    0.21    0.10
  -5   0  -1    0.12    0.07
  -5   0  -1    0.21    0.13
  -5   0   1    0.29    0.10
   5   0  -1    0.16    0.07
  -5   0  -1    0.19    0.10
   5   0  -1    0.45    0.17
   5   0   1    0.27    0.08
  -5   0   1    0.26    0.13
   5   0   1    0.05    0.11
  -5   0  -1    0.22    0.10
  -5   0  -1    0.40    0.11
  -7   0  -1    0.54    0.14
  -7   0   1    0.26    0.12
   0  -1   1   56.52    1.18
   0  -1   1   56.74    1.05
   0   1   1   56.38    1.13
   0  -1   1   57.65    0.93
   0  -1   1   56.61    0.97
   0  -1   1   56.50    1.05
   0  -1  -1   55.78    0.96
   0   1   1   56.19    1.13
   0   1  -1   56.06    0.89
   0  -1   1   55.67    0.94
   0  -1  -1   56.97    0.94
   0   1  -1   55.70    1.18
   0   1   1   57.79    0.93
   0   1   1   57.07    0.92
   0   1   1   57.70    1.24
   0  -1  -1   57.53    1.14
   0  -1   1   55.38    1.20
   0   1  -1   56.77    1.04
   0   1  -1   52.51    1.18
   0   1  -1   55.79    0.92
   0  -1  -1   56.73    0.94
   0   1   1   56.33    0.93
   0   1  -1   55.47    1.04
   0  -1  -1   58.30    1.25
   0  -1  -1   57.75    0.94
   0   1   1   57.83    0.95
   0  -1  -1   56.29    1.14
   0   1  -1   56.24    0.95
   2  -1   1   35.02    1.09
   2   1  -1   33.50    0.94
  -2  -1  -1   34.88    0.73
  -2  -1  -1   35.25    0.72
  -2   1   1   34.70    1.22
  -2   1   1   35.83    1.09
   2   1  -1   34.72    0.95
   2  -1   1   34.02    0.96
  -2   1   1   34.12    0.68
   2   1  -1   34.87    1.11
   2  -1   1   33.97    0.70
   2  -1   1   35.34    0.69
   2   1  -1   34.64    0.99
   2   1  -1   33.84    1.13
  -2   1   1   35.72    0.67
   2  -1   1   34.71    0.76
  -2   1   1   33.42    0.77
   2   1  -1   33.60    0.91
  -2  -1  -1   34.86    0.73
   2  -1   1   35.31    0.58
  -2   1   1   34.67    0.67
   2   1  -1   33.95    1.21
   2  -1   1   34.45    0.99
   2  -1   1   33.72    1.07
   2   1  -1   33.93    1.28
  -2  -1  -1   34.87    0.69
  -2  -1   1   35.58    0.72
   2   1   1   34.08    1.15
  -2   1  -1   34.44    0.67
   2   1   1   34.42    0.89
  -2   1  -1   34.52    1.00
  -2   1  -1   34.68    1.09
   2   1   1   34.32    1.14
  -2  -1   1   34.66    0.66
   2   1   1   36.82    1.06
  -2   1  -1   33.84    1.08
   2   1   1   34.47    0.91
   2  -1  -1   34.91    0.72
  -2   1  -1   33.74    0.77
   2  -1  -1   33.84    0.67
   2  -1  -1   32.45    1.00
  -2  -1   1   35.47    0.75
   2  -1  -1   35.83    0.78
   2   1   1   33.37    1.05
   2  -1  -1   32.91    0.75
   2   1   1   35.39    1.18
   2   1   1   34.22    1.14
   2  -1  -1   35.09    1.01
  -2   1  -1   35.41    0.70
   2  -1  -1   35.21    1.21
   2  -1  -1   38.28    0.80
  -2  -1   1   35.88    0.77
   2  -1  -1   35.20    0.64
   2  -1  -1   34.85    1.06
  -2   1  -1   35.20    0.95
  -2   1  -1   35.75    0.68
  -4  -1  -1    9.14    0.44
   4  -1   1    8.60    0.42
  -4  -1  -1    8.51    0.33
  -4  -1  -1    8.64    0.33
  -4  -1  -1    8.81    0.32
   4  -1   1    9.10    0.24
  -4   1   1    8.81    0.36
   4  -1   1    8.22    0.33
  -4  -1  -1    8.69    0.35
  -4   1   1    8.41    0.31
   4   1  -1    8.69    0.38
  -4   1   1    9.12    0.33
  -4   1   1    8.72    0.35
  -4  -1  -1    9.05    0.39
  -4   1   1    8.84    0.46
  -4   1  -1    7.92    0.34
  -4   1  -1    9.08    0.35
   4   1   1    9.39    0.42
  -4  -1   1    8.56    0.29
  -4   1  -1    8.52    0.31
  -4  -1   1    9.01    0.43
  -4  -1   1    8.55    0.34
  -4   1  -1    8.06    0.44
  -4  -1   1    8.89    0.33
  -4  -1   1    8.83    0.33
   4  -1  -1    8.61    0.35
   4  -1  -1    8.27    0.44
  -4   1  -1    8.56    0.31
   4  -1  -1    8.82    0.24
  -4  -1   1    9.26    0.30
  -6   1   1    2.34    0.24
  -6   1   1    2.33    0.20
  -6  -1  -1    2.25    0.25
   6  -1   1    2.23    0.17
  -6   1   1    2.39    0.27
  -6   1  -1    2.38    0.25
  -6   1  -1    2.32    0.27
  -6   1  -1    2.14    0.20
  -6  -1   1    2.50    0.20
   6  -1  -1    2.32    0.26
   6  -1  -1    2.22    0.17
  -1  -2  -1   23.33    0.95
   1   2  -1   23.27    0.49
  -1   2   1   24.13    0.49
   1   2  -1   23.46    0.89
   1   2  -1   23.70    0.49
   1   2  -1   22.35    0.67
  -1   2   1   24.02    0.66
   1  -2   1   22.82    0.70
  -1  -2  -1   23.43    0.54
   1   2  -1   23.82    0.40
  -1   2   1   23.95    0.54
  -1   2   1   23.62    0.53
   1  -2   1   24.30    0.57
   1   2  -1   22.87    0.94
  -1   2   1   23.95    0.80
   1  -2   1   23.29    0.55
   1  -2   1   24.01    0.42
   1  -2   1   22.92    0.85
   1  -2   1   23.43    0.73
   1   2  -1   23.69    0.49
  -1   2   1   23.18    0.95
   1   2  -1   21.57    0.61
  -1  -2  -1   23.85    0.54
  -1   2   1   23.63    0.68
   1  -2  -1   23.24    0.63
   1  -2  -1   24.58    0.46
   1   2   1   23.47    0.90
  -1   2  -1   23.97    0.52
  -1   2  -1   24.32    0.79
  -1   2  -1   24.45    0.56
   1   2   1   24.32    0.48
  -1   2  -1   22.90    0.50
  -1   2  -1   23.80    0.79
   1   2   1   23.69    0.50
  -1  -2   1   23.56    0.71
   1   2   1   22.09    0.49
  -1  -2   1   23.24    0.98
   1  -2  -1   22.85    0.91
   1   2   1   22.92    0.49
  -1  -2   1   24.25    0.58
  -1   2  -1   22.88    0.87
   1  -2  -1   23.33    0.56
   1   2   1   23.63    0.47
   1  -2  -1   22.83    0.68
   1   2   1   22.75    0.78
  -1  -2   1   24.22    0.56
   1   2   1   24.09    0.93
   1   2   1   23.37    0.48
   1  -2  -1   23.28    0.57
  -1   2  -1   23.71    0.71
  -1  -2   1   23.30    0.90
  -1  -2   1   23.48    0.60
  -3  -2  -1   10.30    0.30
   3   2  -1   10.79    0.55
   3  -2   1    9.91    0.39
   3   2  -1   10.32    0.23
  -3   2   1   10.39    0.45
  -3  -2  -1   10.72    0.40
  -3   2   1   10.45    0.34
  -3  -2  -1   11.21    0.33
  -3   2   1   10.66    0.32
  -3  -2  -1   10.60    0.42
   3  -2   1   10.45    0.69
  -3  -2  -1   10.84    0.31
   3   2  -1    9.82    0.33
   3  -2   1   10.08    0.43
   3  -2   1   10.02    0.35
   3   2  -1   10.70    0.57
  -3  -2  -1   10.50    0.32
   3   2  -1   10.71    0.64
  -3   2   1   10.36    0.81
   3   2  -1   10.53    0.24
  -3  -2  -1   10.37    0.35
   3  -2   1    9.76    0.28
   3   2  -1   10.37    0.58
  -3   2   1   10.65    0.35
   3   2   1    9.57    0.23
  -3  -2   1   10.26    0.43
   3  -2  -1   10.21    0.41
  -3  -2   1   10.88    0.43
  -3  -2   1   10.26    0.31
   3   2   1   10.16    0.62
  -3   2  -1   10.34    0.44
  -3   2  -1   11.26    0.76
  -3  -2   1   10.76    0.37
   3   2   1   10.42    0.68
   3   2   1   10.09    0.51
   3  -2  -1   10.19    0.36
   3   2   1   10.26    0.39
   3  -2  -1   10.22    0.29
   3   2   1   10.54    0.53
   3  -2  -1   10.98    0.78
   3   2   1   12.14    0.84
  -3   2  -1   10.23    0.34
   3  -2  -1   10.06    0.44
   3   2   1   10.18    0.23
  -3   2  -1    9.73    0.36
  -3  -2   1   10.75    0.29
  -3   2  -1   10.82    0.34
  -3  -2   1   10.24    0.32
  -3  -2   1   10.51    0.35
  -5   2   1    7.87    0.39
   5  -2   1    8.18    0.31
  -5   2   1    8.17    0.53
   5  -2   1    8.49    0.41
  -5   2   1    8.49    0.34
   5  -2   1    7.60    0.48
   5  -2   1    8.96    0.42
  -5   2   1    7.60    0.34
  -5   2  -1    7.81    0.51
   5  -2  -1    8.04    0.31
   5  -2  -1    8.96    0.43
  -5   2  -1    8.32    0.36
   5  -2  -1    8.96    0.52
   5  -2  -1    8.51    0.43
  -5   2  -1    8.08    0.33
  -5   2  -1    7.99    0.39
  -7   2   1    4.66    0.27
  -7   2   1    4.69    0.30
  -7   2  -1    4.78    0.28
  -7   2  -1    4.94    0.31
   0   3   1  119.57    2.59
   0   3   1  119.44    2.51
   0   3  -1  124.33    1.87
   0  -3  -1  117.22    2.04
   0  -3   1  110.44    2.45
   0  -3  -1  119.43    2.08
   0  -3  -1  118.03    2.84
   0  -3   1  116.95    2.65
   0   3  -1  116.63    1.94
   0   3   1  118.93    1.94
   0   3   1  117.49    2.04
   0  -3   1  119.34    2.03
   0  -3   1  119.91    2.02
   0   3   1  120.34    1.92
   0   3  -1  113.02    2.15
   0  -3  -1  118.36    2.02
   0   3   1  116.51    2.06
   0  -3  -1  117.14    2.59
   0  -3  -1  119.90    1.97
   0  -3   1  114.83    2.11
   0   3  -1  116.16    2.64
   0   3  -1  119.83    2.85
   0   3  -1  117.25    1.89
   0  -3  -1  121.27    2.10
   0  -3  -1  115.58    1.90
   0  -3   1  120.16    2.85
   0  -3   1  118.64    1.99
   0   3   1  120.19    2.87
   0   3   1  117.41    1.88
   0  -3   1  114.77    2.23
   0   3  -1  117.40    2.07
   0  -3  -1  119.34    2.57
   0   3  -1  116.75    2.39
  -2   3   1   75.73    1.32
  -2  -3  -1   77.77    1.99
   2  -3   1   74.68    1.30
   2   3  -1   74.77    1.37
   2  -3   1   73.79    1.38
  -2   3   1   73.72    1.47
  -2   3   1   76.51    2.35
   2   3  -1   70.90    1.59
   2   3  -1   71.73    1.77
  -2  -3  -1   72.19    1.50
   2  -3   1   74.29    1.50
  -2   3   1   73.18    1.80
  -2  -3  -1   75.72    1.46
  -2   3   1   74.52    1.32
   2  -3   1   73.05    1.85
   2  -3   1   73.19    1.53
   2  -3   1   73.29    1.68
   2  -3   1   73.16    2.10
  -2   3   1   73.75    1.38
   2   3  -1   72.08    1.34
  -2  -3  -1   74.77    1.33
  -2  -3  -1   73.13    1.32
  -2  -3  -1   73.58    1.33
   2   3   1   73.50    1.34
  -2   3  -1   72.76    1.31
  -2   3  -1   75.12    1.35
  -2  -3   1   75.80    1.80
  -2   3  -1   74.24    1.47
   2   3   1   72.74    2.26
  -2  -3   1   73.45    1.31
  -2   3  -1   71.69    2.18
   2  -3  -1   75.39    1.84
   2  -3  -1   74.95    2.23
  -2   3  -1   71.85    1.81
  -2  -3   1   72.64    1.31
  -2  -3   1   73.21    1.50
   2   3   1   74.72    1.94
  -2  -3   1   76.53    1.54
   2  -3  -1   73.88    1.38
  -2   3  -1   75.62    1.41
   2   3   1   73.41    1.38
  -2   3  -1   76.27    1.83
   2  -3  -1   73.80    1.51
  -2  -3   1   74.76    1.38
   2  -3  -1   72.72    1.52
   2  -3  -1   74.08    1.31
  -4  -3  -1   29.52    0.93
  -4   3   1   29.42    0.70
  -4  -3  -1   28.58    0.69
  -4   3   1   27.77    0.76
  -4  -3  -1   27.56    0.63
   4   3  -1   28.79    0.74
  -4   3   1   28.47    0.67
   4   3  -1   29.61    0.62
   4  -3   1   29.10    0.68
  -4   3   1   28.91    0.96
  -4  -3  -1   29.25    0.72
   4  -3   1   29.60    0.79
  -4  -3  -1   29.34    0.72
   4  -3   1   28.69    0.94
   4  -3   1   28.22    0.85
  -4   3  -1   27.93    0.73
  -4   3  -1   28.45    0.76
  -4  -3   1   29.73    0.73
  -4  -3   1   29.47    0.75
  -4  -3   1   28.37    0.92
  -4  -3   1   29.21    0.69
   4   3   1   28.19    0.60
  -4  -3   1   29.58    0.71
   4  -3  -1   29.07    0.68
  -4   3  -1   28.79    0.68
   4  -3  -1   29.01    0.95
   4  -3  -1   29.13    0.80
   4   3   1   28.33    0.77
  -4   3  -1   27.46    0.69
  -4  -3   1   28.93    0.63
  -4   3  -1   28.45    0.79
  -4  -3   1   29.22    0.89
   4  -3  -1   29.57    0.89
  -4   3  -1   26.93    0.92
  -6   3   1   11.07    0.52
   6  -3   1   10.76    0.42
   6  -3   1   11.21    0.51
  -6   3   1   10.61    0.43
  -6   3   1   10.47    0.45
  -6   3  -1   11.39    0.47
   6  -3  -1   10.75    0.52
  -6   3  -1   10.88    0.52
   6  -3  -1   10.46    0.41
  -6   3  -1   10.80    0.43
  -1  -4  -1    9.12    0.40
  -1   4   1    9.76    0.33
   1   4  -1    8.35    0.32
   1  -4   1    7.65    0.39
   1   4  -1    7.90    0.35
  -1  -4  -1    7.95    0.36
   1  -4   1    8.23    0.58
   1  -4   1    8.51    0.38
   1  -4   1    8.24    0.49
   1   4  -1    8.20    0.51
   1   4  -1    8.25    0.23
   1  -4   1    8.47    0.29
  -1   4   1    8.45    0.32
   1  -4   1    8.14    0.32
  -1   4   1    8.60    0.58
  -1   4   1    8.61    0.38
  -1   4   1    8.83    0.30
   1   4  -1    8.17    0.29
  -1  -4  -1    8.10    0.27
  -1   4   1    8.57    0.44
  -1  -4  -1    8.78    0.64
  -1  -4  -1    9.56    0.33
   1   4   1    7.83    0.54
  -1   4  -1    8.24    0.33
  -1   4  -1    8.46    0.62
   1   4   1    8.48    0.32
   1   4   1    8.09    0.29
  -1  -4   1    8.35    0.27
  -1   4  -1    8.18    0.30
  -1   4  -1    8.49    0.30
  -1  -4   1    7.91    0.36
   1  -4  -1    7.62    0.31
  -1   4  -1    8.29    0.47
   1  -4  -1    8.28    0.55
  -1   4  -1    8.16    0.39
   1  -4  -1    8.18    0.38
  -1  -4   1    8.75    0.33
  -1  -4   1    7.74    0.57
   1  -4  -1    8.02    0.29
  -1  -4   1    8.82    0.41
   1   4   1    8.04    0.35
   1   4   1    8.09    0.23
   1  -4  -1    8.13    0.39
   1  -4  -1    8.10    0.46
  -3   4   1    8.13    0.44
  -3  -4  -1    8.42    0.32
  -3   4   1    8.08    0.29
   3  -4   1    8.35    0.46
   3  -4   1    7.26    0.36
   3   4  -1    8.58    0.36
  -3  -4  -1    7.53    0.32
  -3   4   1    8.96    0.34
   3  -4   1    8.20    0.32
  -3   4   1    8.46    0.34
  -3   4   1    8.54    0.31
   3  -4   1    8.47    0.44
   3   4  -1    8.12    0.32
  -3  -4  -1    8.43    0.46
  -3  -4  -1    8.09    0.33
  -3  -4  -1    8.65    0.29
   3   4  -1    8.37    0.21
  -3   4   1    8.63    0.38
   3   4  -1    8.36    0.35
  -3   4  -1    8.89    0.36
   3  -4  -1    8.81    0.33
   3   4   1    8.06    0.34
  -3   4  -1    7.95    0.38
  -3  -4   1    8.75    0.33
  -3   4  -1    8.52    0.30
  -3  -4   1    8.89    0.35
  -3   4  -1    8.53    0.31
  -3  -4   1    8.07    0.28
  -3  -4   1    9.24    0.37
  -3  -4   1    9.12    0.46
  -3  -4   1    8.19    0.46
   3  -4  -1    8.82    0.47
  -3   4  -1    7.94    0.42
   3  -4  -1    8.46    0.47
   3   4   1    7.98    0.36
  -3   4  -1    8.43    0.33
   3  -4  -1    8.66    0.39
   5  -4   1    6.71    0.34
   5  -4   1    7.44    0.42
  -5   4   1    7.12    0.40
  -5  -4  -1    7.21    0.37
  -5  -4  -1    7.39    0.31
  -5  -4  -1    7.37    0.35
  -5   4   1    6.81    0.34
  -5   4   1    6.77    0.33
  -5   4  -1    6.75    0.33
  -5  -4   1    6.89    0.36
  -5   4  -1    7.25    0.36
   5  -4  -1    6.77    0.41
  -5  -4   1    7.04    0.30
  -5   4  -1    6.95    0.38
   5  -4  -1    7.24    0.35
  -5  -4   1    6.99    0.37
  -7   4   1    3.87    0.27
  -7   4   1    3.67    0.24
  -7   4  -1    3.73    0.24
  -7   4  -1    3.72    0.27
   0  -5   1   14.29    0.38
   0  -5   1   13.80    0.58
   0  -5  -1   13.86    0.47
   0   5  -1   14.51    0.49
   0  -5  -1   14.72    0.59
   0  -5   1   14.18    0.48
   0  -5   1   14.24    0.50
   0   5  -1   14.16    0.57
   0  -5  -1   14.41    0.39
   0   5  -1   14.41    0.38
   0  -5  -1   14.12    0.51
   0   5   1   14.25    0.48
   0   5   1   13.76    0.44
   0   5   1   15.18    0.58
   0   5   1   15.15    0.38
   0   5  -1   14.73    0.45
   2  -5   1    9.87    0.52
  -2   5   1   10.04    0.32
   2   5  -1    9.15    0.36
   2   5  -1    9.69    0.41
   2   5  -1   10.11    0.29
  -2  -5  -1   10.41    0.50
  -2  -5  -1    9.80    0.37
   2  -5   1   10.19    0.43
  -2  -5  -1    9.47    0.31
  -2   5   1   10.21    0.43
  -2  -5  -1    9.31    0.49
   2   5  -1    9.75    0.45
  -2  -5  -1    9.61    0.35
  -2   5   1   10.39    0.39
  -2  -5   1    9.95    0.37
   2  -5  -1    8.93    0.49
   2  -5  -1   10.09    0.33
  -2  -5   1    9.39    0.49
  -2  -5   1    9.82    0.43
  -2  -5   1    9.23    0.50
   2   5   1   10.08    0.42
  -2   5  -1    9.63    0.38
  -2   5  -1    9.80    0.32
  -2  -5   1    9.74    0.32
  -2   5  -1    9.84    0.43
   2   5   1   10.93    0.39
   2  -5  -1   10.33    0.43
   2   5   1    9.97    0.45
  -2  -5   1    9.88    0.36
   2   5   1    9.68    0.29
  -4  -5  -1    4.51    0.30
   4  -5   1    4.58    0.28
  -4  -5  -1    4.43    0.24
   4  -5   1    4.39    0.33
   4   5  -1    4.77    0.28
  -4   5   1    4.58    0.29
  -4   5   1    4.21    0.26
   4   5  -1    4.56    0.19
  -4  -5  -1    4.48    0.29
  -4   5   1    4.14    0.25
   4  -5  -1    4.41    0.34
  -4   5  -1    4.40    0.26
   4  -5  -1    4.20    0.27
  -4   5  -1    5.28    0.41
  -4   5  -1    5.22    0.30
  -4   5  -1    4.49    0.27
   4   5   1    4.26    0.18
  -4  -5   1    4.53    0.29
  -4  -5   1    4.22    0.24
  -4   5  -1    4.60    0.30
  -4  -5   1    4.34    0.29
   4   5   1    4.33    0.28
  -6   5   1    1.35    0.20
  -6  -5  -1    1.85    0.19
  -6   5   1    1.76    0.21
  -6  -5   1    1.86    0.19
  -6   5  -1    1.74    0.23
  -6   5  -1    1.47    0.19
   1   6  -1    0.30    0.10
  -1   6   1    0.20    0.08
  -1   6   1    0.10    0.09
   1  -6   1    0.02    0.08
  -1  -6  -1    0.37    0.13
  -1  -6  -1    0.21    0.09
  -1  -6  -1    0.21    0.15
   1  -6   1    0.33    0.16
  -1  -6  -1    0.19    0.09
   1  -6   1    0.60    0.15
  -1  -6  -1    0.21    0.12
   1   6  -1    0.25    0.11
   1   6  -1    0.31    0.14
   1   6  -1    0.20    0.08
  -1   6   1    0.14    0.09
  -1  -6  -1    0.25    0.08
  -1  -6   1    0.32    0.10
  -1  -6   1    0.42    0.09
   1   6   1    0.14    0.08
   1  -6  -1    0.51    0.12
   1  -6  -1    0.16    0.11
  -1  -6   1    0.31    0.13
  -1   6  -1    0.29    0.11
  -1   6  -1    0.25    0.08
   1   6   1    0.21    0.10
  -1   6  -1    0.34    0.12
  -1  -6   1    0.21    0.15
   1  -6  -1    0.13    0.12
  -1  -6   1    0.17    0.12
   1   6   1    0.42    0.15
   3   6  -1   -0.02    0.06
   3   6  -1   -0.01    0.08
  -3  -6  -1    0.10    0.10
  -3   6   1    0.06    0.10
   3  -6   1    0.00    0.11
  -3  -6  -1    0.04    0.07
  -3   6   1    0.07    0.08
  -3   6   1    0.12    0.10
  -3  -6  -1    0.15    0.10
  -3  -6   1    0.04    0.09
  -3   6  -1    0.63    0.13
  -3   6  -1    0.23    0.12
   3   6   1    0.08    0.07
  -3   6  -1    0.09    0.10
  -3  -6   1    0.00    0.09
  -3  -6   1    0.02    0.07
   3   6   1    0.10    0.10
   3  -6  -1    0.44    0.16
  -5   6   1    0.21    0.11
  -5  -6  -1    0.08    0.11
  -5  -6  -1    0.19    0.10
  -5  -6  -1    0.30    0.15
   5  -6   1    0.17    0.15
  -5   6   1    0.13    0.12
   5   6  -1    0.18    0.08
  -5   6  -1    0.17    0.12
   5  -6  -1    0.10    0.12
   5   6   1    0.15    0.07
  -5   6  -1    0.13    0.10
  -5  -6   1    0.18    0.14
  -5  -6   1    0.51    0.13
  -5  -6   1    0.01    0.10
   0  -7  -1    6.20    0.48
   0   7   1    5.90    0.35
   0  -7   1    6.41    0.39
   0  -7   1    6.81    0.34
   0  -7   1    6.55    0.50
   0   7  -1    5.83    0.35
   0  -7  -1    5.67    0.31
   0  -7  -1    6.50    0.39
   2  -7   1    4.93    0.28
  -2  -7  -1    5.24    0.27
   2   7  -1    4.70    0.26
  -2   7   1    4.74    0.26
   2   7  -1    5.03    0.32
  -2  -7  -1    5.44    0.33
  -2   7   1    5.27    0.33
  -2  -7  -1    4.96    0.31
   2  -7   1    5.09    0.38
  -2  -7   1    5.17    0.31
   2   7   1    5.04    0.33
  -2   7  -1    4.91    0.33
   2   7   1    5.41    0.26
  -2  -7   1    5.10    0.27
  -2   7  -1    5.66    0.27
   2  -7  -1    5.09    0.37
   2  -7  -1    5.09    0.29
  -2  -7   1    4.97    0.32
   4   7  -1    3.34    0.26
  -4  -7  -1    2.76    0.29
  -4  -7  -1    2.91    0.23
   4   7  -1    3.07    0.20
  -4   7   1    3.09    0.24
  -4  -7  -1    3.41    0.32
   4  -7   1    2.19    0.30
  -4  -7   1    3.03    0.30
   4   7   1    3.31    0.27
  -4  -7   1    3.76    0.35
   4  -7  -1    2.49    0.32
  -4  -7   1    2.72    0.23
   4   7   1    2.90    0.19
  -1   8   1    3.81    0.23
  -1   8   1    3.70    0.30
  -1  -8  -1    3.33    0.22
   1   8  -1    3.57    0.30
   1  -8   1    3.92    0.39
   1  -8   1    3.57    0.27
  -1  -8  -1    3.85    0.30
  -1   8  -1    4.02    0.31
   1  -8  -1    3.52    0.27
   1  -8  -1    3.89    0.37
   1   8   1    3.65    0.30
  -1  -8   1    3.88    0.25
  -1  -8   1    3.73    0.29
  -3  -8  -1    3.68    0.25
   3   8  -1    3.09    0.22
  -3  -8  -1    3.66    0.33
   3   8  -1    3.09    0.27
   3  -8   1    3.52    0.37
  -3  -8  -1    3.15    0.30
  -3   8   1    3.11    0.24
  -3  -8   1    3.09    0.31
  -3   8  -1    3.75    0.29
  -3  -8   1    2.81    0.28
  -3  -8   1    3.40    0.25
   3  -8  -1    3.08    0.36
   3   8   1    3.20    0.23
   3   8   1    3.41    0.29
  -3   8  -1    3.70    0.24
   0   9   1   14.69    0.59
   0   9  -1   14.59    0.59
   0  -9   1   14.04    0.53
   0  -9  -1   13.86    0.54
  -2  -9  -1   12.80    0.44
  -2  -9  -1   13.16    0.53
  -2   9   1   12.37    0.42
  -2  -9   1   12.32    0.45
   2  -9  -1   12.25    0.47
  -2  -9   1   13.24    0.53
   1 -10   1    1.62    0.19
  -1 -10  -1    1.65    0.22
   1 -10  -1    1.73    0.20
  -1 -10   1    1.83    0.22
   0   0   2   97.33    1.70
   0   0   2   99.54    1.67
   0   0   2   99.63    1.67
   0   0  -2   95.55    2.07
   0   0   2   97.89    1.82
   0   0  -2   95.32    1.66
   0   0  -2   95.00    1.95
   0   0  -2   96.70    1.63
   0   0  -2   97.00    1.62
   0   0   2   96.00    1.76
   0   0   2   97.99    1.55
   0   0  -2   99.52    1.63
   0   0  -2   98.17    1.58
  -2   0   2   43.31    0.77
  -2   0  -2   44.38    0.81
  -2   0  -2   44.81    0.81
   2   0   2   43.14    1.25
   2   0   2   44.47    0.79
   2   0   2   42.69    0.76
   2   0  -2   43.97    1.12
   2   0   2   48.31    0.87
  -2   0  -2   45.29    1.29
   2   0  -2   42.96    1.16
  -2   0  -2   44.66    0.91
   2   0   2   43.29    1.10
  -2   0  -2   46.02    1.13
   2   0   2   43.98    1.18
   2   0  -2   44.00    1.14
   2   0  -2   44.71    1.42
   2   0   2   44.59    1.17
   2   0  -2   42.26    1.07
  -2   0   2   44.43    1.41
   2   0   2   44.05    1.22
   2   0  -2   43.63    0.75
   2   0  -2   43.36    1.10
  -2   0   2   45.39    1.16
  -2   0   2   44.44    0.83
   2   0  -2   43.82    0.79
  -2   0   2   46.56    0.92
   2   0  -2   44.36    0.85
  -2   0   2   43.27    0.92
  -2   0  -2   44.09    0.84
   2   0   2   42.82    1.26
   4   0   2   10.48    0.32
  -4   0  -2   11.55    0.38
   4   0  -2   10.83    0.35
   4   0  -2   10.87    0.50
  -4   0  -2   11.73    0.38
  -4   0  -2   10.74    0.50
  -4   0   2   11.27    0.51
  -4   0   2   11.15    0.39
  -4   0  -2   10.89    0.39
  -4   0   2   11.02    0.41
  -4   0  -2   11.25    0.41
   4   0   2   11.34    0.47
  -6   0  -2    3.18    0.31
   6   0   2    3.03    0.16
  -6   0   2    3.50    0.25
  -6   0  -2    2.95    0.23
  -6   0  -2    3.09    0.22
  -6   0   2    3.30    0.27
   6   0  -2    3.31    0.18
   1   1  -2  905.09   13.97
  -1   1   2  976.21   14.22
  -1  -1  -2  833.84   14.52
   1  -1   2  918.12   15.41
   1  -1   2  949.03   14.46
   1   1  -2  804.82   13.97
   1   1  -2  950.32   14.02
   1   1  -2  931.73   16.64
  -1  -1  -2  761.35   16.08
   1  -1   2  866.48   16.24
   1  -1   2  870.39   16.36
  -1   1   2  967.03   14.54
  -1  -1  -2  941.36   16.69
  -1  -1  -2  948.55   14.47
  -1  -1  -2 1000.00   16.72
  -1  -1  -2  846.56   13.95
  -1   1   2  925.16   16.18
   1   1  -2  883.56   17.46
  -1   1   2  948.03   14.00
   1   1  -2  914.25   15.39
  -1  -1  -2  866.85   14.26
   1   1  -2  870.59   16.70
   1  -1   2  878.57   14.25
  -1   1   2  776.54   16.66
   1  -1   2  918.82   15.61
  -1   1  -2  910.66   15.74
  -1   1  -2  846.56   15.99
   1   1   2  786.60   16.93
   1  -1  -2  853.09   14.50
   1   1   2  891.17   14.00
   1  -1  -2  778.02   16.72
   1   1   2  855.61   13.98
  -1  -1   2  906.03   16.55
   1  -1  -2  879.33   15.49
   1  -1  -2  940.54   15.73
  -1  -1   2  927.97   15.28
  -1   1  -2  947.36   14.58
   1   1   2  848.62   15.82
   1  -1  -2  860.21   14.50
  -1   1  -2  915.19   14.35
   1  -1  -2  835.08   15.44
   1   1   2  922.23   14.65
  -1   1  -2  907.84   14.35
  -1  -1   2  921.78   14.09
   1   1   2  950.40   14.42
  -1  -1   2  826.44   14.32
  -1   1  -2  930.19   16.00
   1   1   2  944.32   16.52
   1  -1  -2  818.86   14.06
  -3  -1  -2  343.16    5.55
  -3  -1  -2  355.56    5.42
  -3  -1  -2  343.92    5.48
  -3  -1  -2  340.72    5.45
  -3   1   2  339.65    5.46
   3  -1   2  343.15    5.53
   3   1  -2  363.71    6.14
   3  -1   2  354.91    5.45
   3   1  -2  348.82    6.17
   3  -1   2  334.69    6.20
   3   1  -2  342.92    5.61
  -3   1   2  354.06    5.74
   3   1  -2  351.16    6.85
  -3  -1  -2  361.39    5.49
   3   1  -2  357.14    6.37
   3   1  -2  341.70    6.19
   3   1  -2  335.24    6.06
  -3  -1  -2  355.38    5.59
   3  -1   2  357.35    5.51
   3  -1   2  345.51    6.24
  -3   1   2  342.39    5.42
   3   1  -2  342.42    6.97
   3   1  -2  351.96    6.43
   3  -1   2  355.98    5.66
  -3   1   2  349.93    5.51
  -3   1   2  343.31    5.54
  -3  -1  -2  353.14    5.67
   3   1   2  338.14    6.59
   3  -1  -2  335.65    5.41
   3  -1  -2  343.40    6.74
   3   1   2  356.66    6.49
  -3  -1   2  351.76    5.72
   3  -1  -2  349.59    6.32
  -3   1  -2  349.70    5.73
  -3  -1   2  356.91    5.55
   3  -1  -2  354.46    5.48
  -3   1  -2  341.71    5.56
  -3  -1   2  346.38    5.45
  -3   1  -2  360.25    6.22
  -3  -1   2  353.55    5.42
  -3   1  -2  348.96    5.52
   3   1   2  340.99    6.32
   3  -1  -2  324.22    5.55
   3   1   2  345.66    6.47
  -3  -1   2  352.89    5.47
  -3   1  -2  344.80    5.50
   3   1   2  353.08    6.57
   3  -1  -2  351.21    5.73
  -3  -1   2  346.48    5.64
   3   1   2  331.94    6.05
   3   1   2  350.05    6.01
  -3  -1   2  350.04    5.47
  -3   1  -2  345.45    6.25
  -5   1   2  132.51    2.30
  -5  -1  -2  135.57    2.30
   5  -1   2  133.84    2.43
  -5   1   2  130.44    2.78
   5  -1   2  133.57    2.21
   5  -1   2  130.79    2.39
  -5  -1  -2  132.58    2.30
  -5   1   2  129.21    2.36
   5   1  -2  136.32    2.71
  -5  -1  -2  134.28    2.43
  -5   1   2  131.56    2.49
   5  -1   2  136.09    2.66
   5   1  -2  136.31    2.19
  -5   1   2  136.43    2.49
  -5  -1  -2  133.05    2.39
  -5   1  -2  129.91    2.78
   5  -1  -2  134.30    2.23
  -5  -1   2  131.98    2.69
  -5   1  -2  133.42    2.36
  -5  -1   2  131.56    2.46
   5  -1  -2  131.75    2.43
  -5   1  -2  132.01    2.32
   5  -1  -2  132.18    2.74
   5   1   2  132.67    2.17
  -5   1  -2  133.54    2.38
  -5  -1   2  132.02    2.41
  -5   1  -2  131.05    2.47
  -5  -1   2  132.78    2.33
   5   1   2  133.98    2.76
  -7   1   2   55.71    1.26
  -7   1  -2   56.54    1.21
  -7   1  -2   57.56    1.25
   0   2  -2   59.80    1.57
   0  -2   2   60.77    1.52
   0   2  -2   60.43    1.27
   0  -2  -2   61.79    1.13
   0   2  -2   60.23    1.28
   0   2  -2   61.99    1.13
   0  -2  -2   63.92    1.09
   0  -2  -2   62.30    1.64
   0  -2   2   61.26    1.09
   0   2   2   63.28    1.64
   0   2   2   61.34    1.44
   0  -2   2   58.69    1.57
   0   2   2   63.01    1.07
   0  -2  -2   62.99    1.08
   0   2  -2   59.05    1.06
   0  -2  -2   61.49    1.10
   0   2   2   63.26    1.45
   0  -2  -2   60.96    1.09
   0  -2   2   62.67    1.00
   0   2   2   60.37    1.06
   0   2   2   61.52    1.11
   0  -2   2   62.05    1.13
   0   2   2   62.08    1.47
   0   2  -2   60.55    1.54
   0  -2   2   61.15    1.31
   0  -2  -2   61.91    1.47
   0  -2   2   59.35    1.30
  -2  -2  -2   32.52    0.66
  -2   2   2   34.16    1.15
   2   2  -2   32.77    0.63
  -2  -2  -2   34.09    0.71
   2  -2   2   32.76    1.03
  -2  -2  -2   32.45    0.70
   2  -2   2   32.53    1.05
  -2   2   2   33.91    0.80
  -2  -2  -2   33.68    1.34
   2  -2   2   32.62    0.69
   2  -2   2   32.43    1.07
   2  -2   2   33.65    0.63
  -2  -2  -2   32.95    0.77
  -2  -2  -2   34.30    1.14
  -2   2   2   33.99    0.68
   2   2  -2   33.81    0.91
   2   2  -2   33.19    0.95
   2  -2   2   32.26    1.13
   2  -2   2   32.09    0.75
   2   2  -2   33.16    0.67
  -2   2   2   33.61    1.36
   2   2  -2   33.96    0.96
  -2   2   2   33.87    0.67
   2   2  -2   33.74    0.64
  -2  -2  -2   32.09    0.64
   2  -2   2   33.39    0.79
   2   2  -2   33.20    1.34
   2   2  -2   34.06    1.24
   2   2  -2   30.02    1.31
  -2  -2   2   33.71    0.80
  -2  -2   2   33.44    0.66
   2  -2  -2   34.12    1.04
  -2   2  -2   33.28    0.68
   2   2   2   32.28    0.79
  -2  -2   2   34.50    0.71
   2  -2  -2   32.90    1.30
   2  -2  -2   32.95    0.63
  -2   2  -2   34.24    0.73
  -2   2  -2   33.02    1.13
   2  -2  -2   33.40    1.05
   2   2   2   31.55    0.80
  -2   2  -2   34.43    0.79
  -2  -2   2   34.09    0.95
  -2   2  -2   32.60    1.04
  -2   2  -2   34.44    0.67
  -2   2  -2   32.90    1.16
   2   2   2   32.30    0.64
  -2  -2   2   32.23    0.63
   2   2   2   33.00    0.72
   2  -2  -2   32.94    0.79
  -2  -2   2   33.04    1.26
   2   2   2   31.52    1.26
   2   2   2   34.53    1.31
  -2  -2   2   33.61    0.82
   2   2   2   32.85    0.62
   2  -2  -2   33.11    0.80
  -2   2  -2   32.94    1.04
  -2  -2   2   33.31    0.66
   2  -2  -2   33.44    0.62
   2   2   2   33.83    1.24
   2   2   2   33.17    1.15
   2  -2  -2   32.85    1.13
   4  -2   2    9.89    0.31
   4  -2   2    9.14    0.38
   4  -2   2    9.31    0.47
  -4  -2  -2    9.72    0.36
  -4   2   2    9.89    0.34
  -4  -2  -2    8.78    0.32
   4  -2   2    9.58    0.40
  -4  -2  -2    8.98    0.38
  -4  -2  -2    9.69    0.34
  -4   2   2    9.83    0.38
   4   2  -2    9.34    0.26
  -4   2   2    9.20    0.49
  -4   2   2    8.87    0.31
  -4  -2  -2    9.00    0.28
  -4  -2  -2    9.22    0.44
   4   2  -2    9.70    0.45
  -4  -2   2    9.58    0.35
  -4   2  -2    9.31    0.39
   4  -2  -2    9.53    0.50
  -4   2  -2    9.07    0.37
  -4  -2   2    9.35    0.38
   4  -2  -2   10.04    0.31
  -4  -2   2    9.85    0.35
  -4   2  -2    9.49    0.32
  -4   2  -2   10.04    0.37
   4  -2  -2    9.00    0.40
  -4  -2   2   10.10    0.48
   4   2   2    9.63    0.24
  -4   2  -2    8.89    0.33
  -4   2  -2    8.41    0.46
   4  -2  -2    9.31    0.43
   4   2   2    9.66    0.45
   6  -2   2    2.35    0.19
  -6   2   2    2.47    0.28
  -6   2   2    2.97    0.29
  -6   2   2    2.88    0.22
   6  -2  -2    2.12    0.27
  -6   2  -2    2.49    0.26
  -6   2  -2    2.58    0.22
   6  -2  -2    2.97    0.21
  -6   2  -2    2.71    0.29
   1  -3   2  507.68    7.88
  -1  -3  -2  513.16    8.96
   1  -3   2  492.99    7.90
   1   3  -2  507.06    8.36
   1   3  -2  477.54    7.90
  -1   3   2  469.73    8.85
  -1   3   2  504.95    8.62
  -1  -3  -2  476.56    7.97
   1  -3   2  492.86    8.35
  -1   3   2  503.21    7.77
  -1   3   2  505.39    8.09
  -1  -3  -2  493.81    7.77
  -1   3   2  500.33    8.04
  -1   3   2  495.15    8.96
  -1  -3  -2  500.48    8.50
  -1  -3  -2  497.05    8.07
  -1  -3  -2  490.80    7.70
   1   3  -2  506.77    8.69
   1   3  -2  491.97    7.75
   1  -3   2  501.75    8.14
   1   3  -2  500.40    8.10
  -1   3   2  490.32    7.71
   1  -3   2  509.06    8.39
   1  -3   2  496.75    7.82
   1  -3   2  482.94    8.07
   1   3  -2  484.69    8.27
   1  -3   2  481.65    8.53
   1   3  -2  490.22    8.22
  -1   3   2  498.57    7.94
  -1   3   2  492.42    8.41
  -1  -3   2  491.85    7.69
  -1   3  -2  491.07    8.10
   1  -3  -2  485.95    7.80
   1  -3  -2  491.80    7.59
  -1   3  -2  501.13    7.80
  -1  -3   2  446.31    8.07
   1   3   2  501.13    8.65
   1  -3  -2  486.93    7.65
   1  -3  -2  476.04    8.00
  -1   3  -2  481.54    7.81
   1  -3  -2  484.34    8.00
   1  -3  -2  488.83    8.82
   1   3   2  488.04    8.68
   1   3   2  483.48    7.90
  -1  -3   2  494.59    8.73
  -1   3  -2  489.20    8.31
   1   3   2  493.85    8.23
  -1  -3   2  480.52    7.84
  -1   3  -2  497.90    8.67
  -1  -3   2  469.05    7.71
  -1  -3   2  497.59    8.97
   1  -3  -2  492.11    7.98
   1   3   2  502.45    8.82
   1   3   2  493.52    7.87
   1  -3  -2  505.37    8.45
   1  -3  -2  466.21    7.77
  -1  -3   2  507.32    7.93
  -1  -3   2  472.38    7.76
  -1   3  -2  494.16    7.91
   1   3   2  448.87    8.29
  -1   3  -2  490.38    8.44
  -1   3  -2  494.76    8.28
  -3  -3  -2  247.03    3.99
   3  -3   2  249.02    4.19
  -3   3   2  246.60    3.98
  -3   3   2  246.62    4.31
  -3   3   2  247.45    4.05
   3  -3   2  244.24    4.29
   3  -3   2  243.50    4.08
  -3  -3  -2  243.62    4.26
   3   3  -2  252.62    4.03
  -3  -3  -2  247.66    4.02
  -3   3   2  247.56    4.04
   3   3  -2  237.35    3.96
   3  -3   2  246.52    3.96
   3  -3  -2  248.00    3.98
  -3  -3   2  247.20    4.29
  -3  -3   2  238.75    4.28
  -3  -3   2  242.93    4.00
   3  -3  -2  247.85    4.32
  -3  -3   2  245.32    4.08
  -3   3  -2  248.60    4.13
  -3   3  -2  238.15    4.25
  -3   3  -2  254.51    4.06
   3  -3  -2  244.60    4.09
   3   3   2  244.68    3.95
   3   3   2  249.16    4.10
   3  -3  -2  247.11    4.26
  -3  -3   2  250.88    3.97
  -3   3  -2  243.80    4.02
  -5   3   2  110.06    2.09
  -5   3   2  110.50    2.04
  -5  -3  -2  113.29    2.12
  -5   3   2  112.51    2.22
   5  -3   2  112.70    2.22
   5  -3   2  112.96    2.04
  -5  -3  -2  112.39    1.97
  -5  -3  -2  115.39    2.09
   5   3  -2  113.82    2.39
  -5   3  -2  112.39    2.05
   5  -3  -2  112.72    2.26
  -5   3  -2  108.48    2.08
  -5   3  -2  110.76    2.20
  -5  -3   2  110.34    2.09
   5  -3  -2  110.97    2.05
  -5  -3   2  117.04    2.13
  -7   3   2   47.69    1.13
  -7   3   2   48.08    1.07
  -7   3  -2   48.28    1.09
  -7   3  -2   50.24    1.14
   0  -4   2   26.05    0.89
   0  -4  -2   25.36    0.60
   0   4   2   25.49    0.58
   0  -4   2   25.16    0.63
   0  -4  -2   25.06    0.71
   0   4  -2   26.04    0.53
   0  -4   2   25.32    0.75
   0   4  -2   25.37    0.72
   0  -4   2   24.32    0.99
   0  -4  -2   25.43    0.66
   0   4   2   27.11    1.17
   0   4   2   25.39    0.63
   0   4   2   25.46    0.52
   0  -4  -2   25.67    0.54
   0   4   2   25.91    0.56
   0   4  -2   26.02    0.95
   0  -4   2   26.62    0.53
   0   4  -2   24.56    0.58
   0   4  -2   26.25    1.20
   0   4  -2   25.44    0.79
   0  -4  -2   26.00    1.15
   0   4   2   24.57    0.69
   0   4   2   25.82    1.10
   0   4  -2   25.23    0.63
   0  -4   2   25.50    0.65
   0  -4   2   25.97    1.18
  -2  -4  -2   16.84    0.60
   2   4  -2   15.93    0.44
  -2   4   2   16.54    0.44
  -2   4   2   16.10    0.50
  -2  -4  -2   16.23    0.45
  -2   4   2   16.30    0.55
   2   4  -2   15.97    0.35
  -2  -4  -2   17.15    0.56
  -2   4   2   16.22    0.46
   2   4  -2   16.58    0.49
   2  -4   2   16.18    0.51
  -2  -4  -2   16.03    0.47
   2   4  -2   16.27    0.52
   2  -4   2   15.46    0.60
   2  -4   2   16.47    0.44
   2  -4   2   16.60    0.59
   2  -4  -2   16.01    0.44
  -2  -4   2   15.61    0.45
  -2  -4   2   17.16    0.65
  -2   4  -2   16.83    0.53
  -2  -4   2   15.85    0.60
  -2   4  -2   17.26    0.54
  -2  -4   2   16.41    0.52
  -2   4  -2   16.82    0.43
   2   4   2   16.22    0.51
   2  -4  -2   17.31    0.63
   2  -4  -2   16.25    0.61
   2  -4  -2   16.76    0.51
   2   4   2   16.72    0.52
   2   4   2   16.12    0.35
  -2   4  -2   15.97    0.48
   4   4  -2    6.29    0.18
  -4  -4  -2    6.22    0.43
  -4  -4  -2    6.08    0.31
   4  -4   2    6.69    0.37
  -4  -4  -2    6.26    0.32
   4  -4   2    5.89    0.41
  -4   4   2    6.14    0.44
  -4   4   2    5.94    0.28
   4   4  -2    6.10    0.31
  -4  -4  -2    6.71    0.31
  -4   4   2    5.89    0.29
  -4   4   2    6.38    0.34
  -4  -4  -2    6.48    0.27
   4   4  -2    6.64    0.30
   4  -4   2    5.78    0.29
   4  -4   2    6.69    0.45
   4  -4  -2    6.22    0.37
  -4   4  -2    5.78    0.36
   4  -4  -2    6.14    0.44
   4  -4  -2    5.71    0.30
  -4   4  -2    5.66    0.31
  -4  -4   2    5.85    0.32
   4   4   2    5.62    0.33
  -4   4  -2    6.05    0.30
   4   4   2    6.20    0.28
   4  -4  -2    6.19    0.43
  -4   4  -2    5.52    0.32
  -4   4  -2    5.79    0.41
  -4   4  -2    6.11    0.28
  -4  -4   2    5.81    0.31
  -4  -4   2    6.22    0.34
  -4  -4   2    5.90    0.26
  -6   4   2    2.44    0.22
  -6   4   2    2.60    0.29
   6  -4   2    2.36    0.29
   6  -4   2    2.09    0.23
  -6   4   2    2.08    0.25
  -6  -4  -2    2.36    0.19
  -6   4  -2    2.31    0.21
   6  -4  -2    2.18    0.29
  -6   4  -2    2.23    0.28
  -6   4  -2    1.99    0.24
   6  -4  -2    2.29    0.24
  -1  -5  -2  230.10    3.72
  -1   5   2  225.86    3.86
  -1   5   2  226.18    3.78
  -1  -5  -2  231.57    4.03
   1   5  -2  231.43    3.77
   1   5  -2  228.06    3.65
  -1  -5  -2  230.15    3.73
   1  -5   2  224.65    4.10
   1   5  -2  228.95    3.86
   1   5  -2  228.70    4.02
   1  -5   2  225.75    3.87
  -1  -5  -2  226.83    3.82
  -1  -5  -2  229.92    4.01
  -1  -5   2  227.80    4.13
   1  -5  -2  218.41    4.04
  -1   5  -2  226.18    3.88
  -1  -5   2  226.37    3.72
   1   5   2  227.81    3.78
   1   5   2  227.55    3.87
  -1   5  -2  227.98    3.79
   1   5   2  227.31    3.65
   1  -5  -2  228.26    3.84
  -1  -5   2  231.85    3.72
  -1  -5   2  229.62    4.01
  -1  -5   2  232.84    3.90
   1   5   2  228.31    3.99
   3  -5   2  151.44    2.83
  -3   5   2  153.90    2.96
   3   5  -2  151.92    2.67
  -3  -5  -2  151.54    2.59
   3  -5   2  151.40    3.09
   3  -5   2  154.07    2.66
   3   5  -2  150.95    2.84
  -3   5   2  153.10    2.72
  -3  -5  -2  152.57    2.71
  -3  -5  -2  152.30    2.66
  -3   5   2  154.24    2.68
  -3   5   2  152.35    2.61
   3   5  -2  155.22    2.77
   3   5  -2  157.32    2.51
  -3  -5  -2  148.42    3.05
  -3   5   2  152.91    2.81
  -3  -5   2  147.98    3.06
  -3   5  -2  151.69    2.61
   3   5   2  153.71    2.73
  -3  -5   2  151.38    2.71
   3  -5  -2  152.95    2.59
  -3   5  -2  150.62    2.75
  -3  -5   2  153.22    2.69
   3  -5  -2  154.10    3.11
   3  -5  -2  153.93    2.67
  -3   5  -2  154.61    2.65
   3   5   2  150.61    2.80
   3   5   2  155.10    2.49
  -3   5  -2  155.24    2.60
  -3  -5   2  156.24    3.10
  -3   5  -2  149.71    2.84
   3   5   2  154.00    2.82
  -3  -5   2  153.00    2.81
   3  -5  -2  150.64    2.83
  -3  -5   2  151.75    2.59
  -5   5   2   81.72    1.64
  -5   5   2   81.49    1.76
   5   5  -2   83.47    1.43
   5  -5   2   83.78    1.67
  -5  -5  -2   81.88    1.60
  -5  -5  -2   81.89    1.72
  -5   5   2   83.43    1.66
  -5   5  -2   80.28    1.66
   5   5   2   83.68    1.70
  -5  -5   2   83.81    1.72
  -5  -5   2   81.23    1.59
   5  -5  -2   84.97    1.70
  -5  -5   2   84.27    1.75
  -5   5  -2   83.10    1.75
   5  -5  -2   81.69    1.86
   5   5   2   83.32    1.42
   0   6   2    9.83    0.40
   0   6   2   10.34    0.45
   0   6   2    9.67    0.32
   0   6   2    9.52    0.33
   0  -6   2   11.04    0.58
   0  -6   2    9.82    0.36
   0  -6  -2   10.53    0.48
   0  -6  -2   10.19    0.35
   0   6  -2    9.76    0.34
   0  -6  -2    9.56    0.37
   0   6  -2   10.14    0.45
   0   6  -2    9.90    0.41
   0  -6  -2    9.28    0.42
   0  -6   2    9.98    0.45
   0  -6   2   10.13    0.32
   0  -6  -2   10.08    0.53
   2   6  -2    8.02    0.47
  -2  -6  -2    7.96    0.49
  -2   6   2    7.08    0.30
  -2   6   2    7.50    0.40
  -2  -6  -2    7.46    0.34
   2   6  -2    7.57    0.29
  -2  -6  -2    7.29    0.35
   2  -6   2    7.94    0.53
   2   6  -2    7.54    0.39
  -2   6   2    7.66    0.36
  -2  -6  -2    7.41    0.30
   2  -6   2    7.11    0.41
   2   6  -2    7.43    0.35
   2   6   2    7.58    0.29
   2   6   2    7.56    0.40
  -2  -6   2    7.38    0.41
  -2  -6   2    7.43    0.31
  -2  -6   2    7.36    0.51
   2  -6  -2    7.24    0.33
  -2  -6   2    7.46    0.49
  -2   6  -2    7.12    0.37
   2  -6  -2    7.26    0.49
  -2   6  -2    7.72    0.29
   2   6   2    7.49    0.45
  -2  -6   2    6.95    0.34
  -2  -6   2    7.86    0.36
   2   6   2    7.34    0.36
   2  -6  -2    7.68    0.41
  -2   6  -2    7.90    0.42
   4   6  -2    3.88    0.26
  -4  -6  -2    3.81    0.29
   4  -6   2    3.86    0.39
  -4   6   2    3.99    0.26
  -4  -6  -2    4.11    0.25
   4   6  -2    4.03    0.21
  -4  -6  -2    4.30    0.30
  -4   6  -2    3.97    0.26
  -4  -6   2    3.48    0.24
  -4   6  -2    3.57    0.29
   4   6   2    3.67    0.20
  -4  -6   2    3.47    0.32
  -4  -6   2    3.74    0.29
   4  -6  -2    3.35    0.35
  -4   6  -2    2.96    0.24
   4   6   2    4.13    0.29
  -6   6   2    1.55    0.18
  -6  -6  -2    1.58    0.18
  -6   6   2    1.70    0.21
  -6   6  -2    1.92    0.21
  -6   6  -2    1.89    0.22
  -6  -6   2    2.04    0.20
  -1  -7  -2  129.81    2.32
  -1  -7  -2  127.93    2.22
   1  -7   2  127.64    2.28
   1  -7   2  123.59    2.52
  -1  -7  -2  129.45    2.67
  -1   7   2  124.32    2.39
  -1   7   2  127.74    2.22
   1   7  -2  124.82    2.25
  -1  -7  -2  125.06    2.33
   1   7  -2  124.60    2.40
  -1  -7   2  128.11    2.30
  -1   7  -2  122.59    2.41
   1  -7  -2  127.78    2.31
   1   7   2  124.82    2.40
   1   7   2  124.99    2.24
  -1  -7   2  128.57    2.53
   1  -7  -2  126.33    2.78
   1  -7  -2  124.72    2.48
  -1  -7   2  126.76    2.24
  -1  -7   2  126.12    2.32
  -1  -7   2  131.56    2.84
  -3  -7  -2   92.24    1.78
   3   7  -2   96.40    1.90
   3  -7   2   95.66    2.08
   3   7  -2   93.93    1.74
  -3   7   2   91.67    1.78
  -3  -7  -2   92.76    1.88
   3  -7  -2   93.78    1.78
  -3   7  -2   94.24    1.76
   3   7   2   95.18    1.73
   3  -7  -2   93.31    2.04
   3   7   2   92.29    1.91
  -3   7  -2   92.05    1.94
  -3  -7   2   93.98    1.90
  -3  -7   2   92.64    1.80
  -5  -7  -2   54.01    1.18
  -5   7   2   57.04    1.20
  -5  -7   2   55.08    1.18
  -5  -7   2   55.04    1.26
  -5   7  -2   53.92    1.17
   0   8   2    4.86    0.33
   0  -8   2    4.74    0.38
   0  -8   2    4.70    0.31
   0   8  -2    4.62    0.33
   0  -8  -2    4.99    0.32
  -2  -8  -2    3.97    0.25
   2   8  -2    3.95    0.30
  -2  -8  -2    3.11    0.30
  -2   8   2    4.34    0.27
   2  -8   2    4.42    0.37
  -2  -8  -2    4.35    0.30
  -2   8   2    4.12    0.31
   2   8   2    3.83    0.25
   2   8   2    3.76    0.30
   2  -8  -2    4.48    0.29
  -2  -8   2    4.45    0.32
  -2   8  -2    3.85    0.31
   2  -8  -2    4.29    0.41
  -2  -8   2    4.19    0.26
  -2  -8   2    4.41    0.30
  -4  -8  -2    2.61    0.22
  -4   8   2    2.46    0.21
  -4  -8  -2    2.37    0.26
  -4  -8   2    2.56    0.22
  -4  -8   2    2.49    0.27
  -1  -9  -2   71.82    1.54
   1  -9   2   70.99    1.46
  -1  -9   2   71.46    1.52
   1  -9  -2   70.45    1.50
  -3   9   2   53.95    1.12
  -3  -9  -2   52.73    1.13
  -3  -9   2   53.56    1.23
  -3  -9   2   55.35    1.16
   0 -10   2    2.79    0.24
   0 -10  -2    3.06    0.25
  -1   0  -3  168.13    2.84
   1   0  -3  171.55    3.13
   1   0  -3  170.99    2.74
   1   0  -3  170.85    2.64
   1   0  -3  168.79    3.27
  -1   0   3  169.38    2.92
  -1   0  -3  168.32    2.78
   1   0  -3  174.86    2.95
  -1   0  -3  165.99    3.17
  -1   0   3  174.79    2.86
  -1   0   3  168.08    3.54
   1   0   3  169.92    2.82
   1   0  -3  167.99    2.73
  -1   0   3  171.94    2.98
   1   0  -3  170.22    2.73
  -1   0   3  165.76    3.28
   1   0   3  167.93    3.03
  -1   0  -3  170.50    2.91
   1   0   3  170.64    3.19
   1   0   3  177.19    2.74
   1   0   3  165.23    2.80
   1   0   3  167.41    2.84
   1   0   3  171.37    2.92
   1   0   3  175.47    2.80
  -1   0   3  167.96    2.76
   1   0   3  166.77    2.75
   1   0   3  173.69    3.06
   1   0  -3  171.13    2.98
   3   0   3   70.28    2.03
  -3   0   3   72.15    1.24
  -3   0  -3   71.03    1.31
  -3   0   3   71.44    1.24
  -3   0  -3   72.22    1.80
   3   0   3   70.57    1.29
  -3   0   3   73.70    1.88
   3   0  -3   71.36    1.37
  -3   0   3   73.06    1.30
   3   0  -3   70.55    1.31
   3   0   3   69.69    1.78
   3   0   3   70.20    1.25
   3   0   3   72.96    1.39
  -3   0  -3   74.71    2.09
   3   0  -3   70.11    1.80
   3   0  -3   73.10    2.30
  -3   0   3   71.22    1.47
   3   0   3   70.22    1.79
  -3   0  -3   72.00    1.48
  -3   0  -3   71.21    1.30
   3   0  -3   71.26    1.73
  -3   0  -3   71.46    1.30
  -3   0   3   70.56    1.34
   3   0   3   76.96    1.87
   3   0  -3   69.77    1.68
  -3   0   3   74.83    2.32
  -3   0   3   70.07    1.48
   3   0  -3   69.77    1.23
  -3   0  -3   71.19    1.36
  -3   0  -3   71.52    1.27
  -5   0  -3   22.09    0.59
  -5   0  -3   22.47    0.70
   5   0   3   22.09    0.45
   5   0   3   22.34    0.87
   5   0  -3   22.73    0.62
  -5   0   3   22.12    0.84
   5   0  -3   22.77    0.47
  -5   0   3   21.70    0.61
  -5   0   3   21.76    0.66
  -5   0  -3   21.12    0.58
   5   0   3   22.55    0.61
  -5   0   3   21.67    0.70
   5   0  -3   22.54    0.85
  -5   0  -3   23.09    0.64
  -5   0  -3   22.69    0.68
  -7   0  -3    9.08    0.38
  -7   0   3    8.78    0.40
  -7   0  -3    8.61    0.37
   0   1   3   96.43    1.66
   0  -1  -3  100.72    2.02
   0  -1  -3   98.50    1.68
   0   1   3   99.08    1.65
   0   1  -3   99.62    2.04
   0  -1   3   96.04    1.67
   0   1   3  100.97    1.91
   0  -1  -3  101.94    1.57
   0   1  -3   99.42    1.58
   0   1  -3   97.57    1.66
   0   1   3  100.16    1.62
   0  -1   3   96.53    1.60
   0   1  -3   93.40    1.92
   0   1  -3   97.37    1.86
   0  -1   3   98.10    1.86
   0  -1  -3   94.60    1.90
   0  -1   3   98.70    1.96
   0  -1   3  100.77    1.65
   0   1   3   98.79    1.91
   0   1  -3   99.85    1.61
   0   1  -3   99.18    1.86
   0  -1  -3   99.10    1.90
   0  -1   3   94.72    1.63
   0   1   3   96.87    2.01
   0   1   3   99.55    1.57
   0  -1  -3   98.17    1.66
   2   1  -3   57.60    1.42
  -2   1   3   59.45    1.52
  -2   1   3   59.33    1.08
   2  -1   3   58.25    0.96
  -2   1   3   57.61    1.04
  -2  -1  -3   58.10    1.29
  -2   1   3   60.10    1.00
   2  -1   3   55.57    1.54
  -2  -1  -3   59.13    1.09
   2   1  -3   58.16    1.00
   2   1  -3   58.71    1.32
   2   1  -3   58.80    0.98
  -2  -1  -3   58.42    1.03
  -2  -1  -3   57.96    1.10
   2  -1   3   58.59    1.12
   2   1  -3   58.01    1.26
   2  -1   3   58.64    1.59
  -2   1   3   56.57    1.17
  -2  -1  -3   60.16    1.05
   2   1  -3   58.68    1.14
  -2  -1  -3   56.62    1.71
   2   1  -3   57.38    1.53
   2  -1   3   60.00    1.12
   2  -1   3   56.71    1.29
   2   1  -3   56.88    1.87
  -2  -1  -3   59.04    1.04
   2   1  -3   57.19    1.00
   2   1  -3   59.71    1.81
  -2   1   3   58.26    1.82
   2  -1   3   58.41    1.45
   2  -1   3   57.45    1.08
  -2   1  -3   58.58    1.32
  -2  -1   3   58.56    1.57
  -2  -1   3   59.92    1.20
   2   1   3   57.79    1.29
   2   1   3   58.41    1.70
  -2  -1   3   58.35    1.10
   2   1   3   57.98    1.58
  -2   1  -3   59.45    1.10
  -2   1  -3   59.16    1.05
  -2   1  -3   60.36    1.06
   2   1   3   58.29    0.99
   2   1   3   55.17    1.47
   2   1   3   58.46    1.15
  -2   1  -3   57.16    1.45
  -2  -1   3   60.08    1.09
   2   1   3   58.73    1.52
  -2   1  -3   58.70    0.93
  -2   1  -3   59.41    1.57
   2  -1  -3   59.05    1.47
  -2  -1   3   58.63    1.02
   2  -1  -3   57.41    1.06
   2  -1  -3   59.46    0.98
   2  -1  -3   60.06    1.19
   2  -1  -3   59.58    1.07
   2  -1  -3   60.83    1.81
   2  -1  -3   58.02    1.13
   2  -1  -3   57.64    1.47
   2   1   3   57.34    1.00
  -2   1  -3   58.38    1.57
   2  -1  -3   55.93    1.43
  -2   1  -3   65.51    1.19
  -2  -1   3   57.59    1.43
   4  -1   3   28.64    0.69
  -4  -1  -3   27.16    0.73
  -4   1   3   27.89    0.65
   4   1  -3   26.69    0.60
  -4   1   3   27.60    0.74
   4  -1   3   26.81    0.69
  -4  -1  -3   28.40    0.69
  -4  -1  -3   28.08    0.68
  -4   1   3   27.22    0.87
  -4   1   3   26.79    0.70
   4   1  -3   27.90    0.77
   4  -1   3   28.30    0.80
   4  -1   3   27.92    0.55
   4  -1  -3   27.37    0.88
  -4  -1   3   28.15    0.87
  -4  -1   3   26.74    0.66
  -4   1  -3   27.23    0.70
   4   1   3   27.48    0.86
  -4   1  -3   26.98    0.64
  -4   1  -3   27.00    0.87
  -4  -1   3   28.01    0.73
   4   1   3   27.90    0.58
  -4   1  -3   27.83    0.63
   4  -1  -3   28.05    0.57
   4  -1  -3   27.00    0.74
  -4  -1   3   27.29    0.82
  -4   1  -3   27.08    0.68
  -4  -1   3   28.45    0.65
  -4   1  -3   27.52    0.74
  -6   1   3   17.42    0.59
  -6   1   3   18.20    0.65
  -6  -1  -3   17.63    0.62
  -6  -1  -3   17.69    0.54
   6  -1   3   18.00    0.48
  -6   1  -3   17.94    0.58
  -6  -1   3   17.50    0.65
   6  -1  -3   17.04    0.66
  -6   1  -3   17.89    0.66
  -6   1  -3   18.26    0.57
   6  -1  -3   17.62    0.49
  -6  -1   3   17.58    0.56
  -1  -2  -3  313.19    5.51
  -1   2   3  318.30    5.45
  -1   2   3  293.42    5.76
   1   2  -3  305.95    5.24
   1  -2   3  322.93    4.86
   1   2  -3  319.07    5.62
   1  -2   3  320.01    4.96
  -1   2   3  326.47    4.93
   1   2  -3  301.84    5.22
   1  -2   3  310.71    5.28
   1  -2   3  298.68    4.92
   1   2  -3  310.57    4.96
  -1   2   3  308.47    5.41
   1  -2   3  301.21    5.32
  -1   2   3  310.84    5.18
  -1   2   3  309.39    5.21
  -1  -2  -3  304.58    4.92
   1   2  -3  318.69    4.90
   1   2  -3  309.02    5.79
  -1  -2  -3  309.98    4.95
   1   2  -3  309.05    5.32
  -1  -2  -3  311.24    4.90
   1  -2   3  303.31    5.33
  -1  -2  -3  308.81    4.93
  -1   2   3  321.12    5.67
  -1  -2  -3  317.67    5.69
   1  -2   3  299.12    5.48
   1   2   3  304.92    5.63
  -1  -2   3  308.45    5.87
   1  -2  -3  305.83    5.78
   1  -2  -3  309.97    4.95
  -1   2  -3  300.98    5.26
  -1  -2   3  300.91    5.19
  -1  -2   3  307.69    4.81
   1  -2  -3  312.37    4.99
  -1  -2   3  296.74    5.00
  -1   2  -3  308.45    5.40
  -1   2  -3  321.17    5.34
  -1  -2   3  304.88    5.62
   1   2   3  308.94    4.91
   1   2   3  310.08    4.91
   1   2   3  309.12    5.60
   1  -2  -3  318.55    5.17
  -1   2  -3  313.61    4.84
   1   2   3  312.35    5.64
  -1   2  -3  304.12    5.57
  -1   2  -3  324.21    4.92
   1   2   3  309.14    5.04
  -1  -2   3  310.04    4.96
  -1   2  -3  301.31    5.08
   1  -2  -3  315.97    5.14
  -1  -2   3  299.92    4.86
   1   2   3  310.85    4.88
   1   2   3  308.50    5.49
  -1   2  -3  318.17    4.98
   1  -2  -3  305.68    5.14
  -1   2  -3  300.44    5.23
  -1  -2   3  306.82    5.14
   1  -2  -3  313.25    5.44
   3  -2   3  125.77    2.35
  -3  -2  -3  128.62    2.13
   3  -2   3  125.52    2.08
  -3  -2  -3  124.18    2.23
  -3  -2  -3  128.09    2.19
   3   2  -3  124.69    2.09
  -3  -2  -3  124.77    2.17
  -3  -2  -3  123.90    2.32
   3  -2   3  125.98    2.27
  -3   2   3  125.90    2.22
  -3   2   3  129.07    2.14
  -3  -2  -3  125.43    2.12
  -3   2   3  122.70    2.40
   3  -2   3  128.30    2.19
   3   2  -3  125.88    2.13
  -3   2   3  124.50    2.19
   3   2  -3  128.80    2.78
   3  -2  -3  124.85    2.10
   3   2   3  127.03    3.09
  -3   2  -3  121.67    2.37
   3  -2  -3  128.49    2.35
  -3  -2   3  130.28    2.23
   3  -2  -3  125.58    2.41
   3   2   3  129.57    3.16
   3   2   3  129.57    2.08
   3   2   3  122.46    2.31
  -3  -2   3  125.15    2.15
  -3  -2   3  125.72    2.23
  -3   2  -3  124.25    2.18
  -3  -2   3  130.35    2.09
  -3   2  -3  127.10    2.19
  -3   2  -3  128.31    2.27
  -3  -2   3  124.97    2.40
  -5   2   3   47.46    1.16
  -5  -2  -3   47.10    1.00
   5  -2   3   48.86    1.32
  -5   2   3   48.28    1.02
   5  -2   3   48.79    0.99
   5  -2   3   49.10    1.17
  -5  -2  -3   47.78    1.10
  -5   2   3   46.87    1.40
  -5   2   3   48.49    1.08
   5  -2   3   48.49    1.13
   5  -2  -3   48.41    1.01
  -5   2  -3   48.78    1.04
  -5  -2   3   49.68    1.08
   5  -2  -3   49.43    1.21
   5  -2  -3   48.89    1.22
   5  -2  -3   46.24    1.38
  -5   2  -3   46.91    1.15
  -5  -2   3   49.66    1.17
  -5   2  -3   47.80    1.06
  -5   2  -3   47.10    1.39
   5   2   3   48.70    1.17
  -5   2  -3   49.34    1.11
  -7   2   3   18.32    0.61
  -7   2  -3   18.90    0.58
  -7   2  -3   18.37    0.60
   0   3  -3  134.10    2.59
   0  -3  -3  149.77    2.34
   0   3  -3  131.98    3.12
   0   3  -3  134.71    2.38
   0   3  -3  133.02    3.06
   0   3   3  136.62    2.16
   0  -3   3  135.34    2.17
   0  -3   3  130.42    2.65
   0  -3   3  137.29    2.14
   0   3   3  138.05    2.27
   0  -3  -3  136.23    2.32
   0   3   3  135.97    2.26
   0   3   3  137.46    3.24
   0  -3  -3  137.63    2.25
   0  -3   3  135.45    2.36
   0   3  -3  133.50    2.27
   0   3   3  138.42    2.92
   0  -3   3  131.26    3.10
   0  -3   3  134.39    2.66
   0   3   3  135.96    2.22
   0  -3  -3  136.75    3.22
   0  -3   3  137.27    3.05
   0  -3  -3  137.56    2.19
   0   3  -3  132.81    2.22
   0  -3  -3  135.02    2.35
   0   3   3  135.33    2.88
   0  -3   3  136.07    2.31
   0  -3   3  134.69    2.42
   0   3  -3  134.74    2.60
   0   3  -3  137.16    2.17
   0   3   3  131.22    2.84
   0   3   3  133.04    2.35
   0  -3  -3  135.53    2.95
   0  -3   3  133.98    2.28
   0  -3  -3  136.48    2.24
   2   3  -3   96.04    1.55
   2  -3   3   98.74    1.86
   2  -3   3   94.67    1.90
  -2  -3  -3   96.82    1.68
   2  -3   3   97.25    2.40
  -2  -3  -3   97.69    1.72
   2  -3   3   96.18    2.29
   2  -3   3   96.17    1.66
   2   3  -3   97.46    1.76
  -2  -3  -3  101.56    1.76
  -2   3   3   97.48    1.70
  -2  -3  -3   97.58    1.88
  -2   3   3   99.23    1.89
   2  -3   3   95.15    1.75
  -2  -3  -3   96.92    2.50
  -2   3   3   97.37    1.73
   2   3  -3   96.02    1.66
   2   3  -3   97.36    1.71
   2   3  -3   97.22    2.15
  -2   3   3   98.42    1.68
  -2  -3  -3  103.31    2.88
   2   3   3   97.94    1.73
   2   3   3   98.39    2.69
   2  -3  -3   97.41    1.68
  -2   3  -3   96.01    1.83
  -2   3  -3   98.76    1.68
   2  -3  -3  100.63    1.66
   2  -3  -3   99.47    2.22
   2  -3  -3   96.18    1.92
   2   3   3   96.23    2.48
   2  -3  -3   97.59    1.75
   2  -3  -3   97.73    1.91
  -2   3  -3   96.18    1.79
  -2   3  -3   95.75    2.52
  -2  -3   3   95.04    1.69
  -2  -3   3   97.97    1.97
   2   3   3   97.40    1.78
  -2  -3   3   98.78    1.92
  -2  -3   3   96.99    1.79
  -2   3  -3  100.18    2.50
   2   3   3  100.66    1.77
  -2   3  -3   97.81    1.73
   2  -3  -3   96.06    2.23
  -2  -3   3  100.78    2.10
  -4   3   3   59.11    1.52
   4  -3   3   62.33    1.40
  -4  -3  -3   58.91    1.20
  -4  -3  -3   59.81    1.24
   4  -3   3   59.35    1.29
  -4  -3  -3   59.34    1.12
  -4   3   3   58.03    1.18
  -4  -3  -3   59.33    1.46
  -4  -3  -3   59.35    1.12
   4  -3   3   57.82    1.46
   4   3  -3   58.95    1.17
  -4   3   3   59.32    1.28
   4   3  -3   58.93    1.45
  -4   3   3   59.54    1.16
   4  -3   3   57.07    1.16
  -4  -3   3   58.81    1.23
  -4  -3   3   58.70    1.21
   4   3   3   60.65    1.12
  -4   3  -3   58.30    1.26
   4  -3  -3   59.81    1.19
   4  -3  -3   56.85    1.50
  -4   3  -3   57.94    1.26
  -4   3  -3   58.66    1.19
  -4   3  -3   60.95    1.17
   4   3   3   58.52    1.31
  -4  -3   3   59.51    1.30
  -4   3  -3   58.46    1.50
   4  -3  -3   59.96    1.33
  -4  -3   3   59.65    1.11
   4  -3  -3   59.58    1.44
  -4   3  -3   58.97    1.34
  -4  -3   3   59.45    1.49
  -6   3   3   32.71    0.96
  -6   3   3   32.64    0.83
   6  -3   3   32.19    0.81
  -6   3   3   32.72    0.88
   6  -3  -3   32.81    0.83
   6  -3  -3   33.16    0.99
  -6   3  -3   32.14    0.84
  -6   3  -3   32.14    0.96
  -6   3  -3   32.91    0.88
  -1   4   3  143.67    2.46
  -1  -4  -3  140.99    2.38
   1  -4   3  144.24    2.57
  -1   4   3  143.73    2.40
  -1  -4  -3  142.57    2.59
   1  -4   3  141.54    2.48
   1   4  -3  139.46    2.39
  -1  -4  -3  137.99    2.40
   1   4  -3  142.78    2.46
   1  -4   3  144.08    2.67
   1   4  -3  140.05    2.30
   1  -4   3  145.97    3.02
   1   4  -3  141.32    2.58
  -1  -4  -3  140.31    2.55
  -1   4   3  145.61    2.50
  -1   4   3  144.83    2.34
   1  -4   3  146.61    3.34
  -1   4  -3  138.75    3.55
   1  -4  -3  141.93    2.45
  -1  -4   3  141.30    2.37
   1   4   3  142.56    2.49
  -1  -4   3  144.40    2.71
  -1   4  -3  146.64    2.41
   1   4   3  143.14    2.56
   1   4   3  142.23    2.30
  -1   4  -3  141.87    2.49
  -1  -4   3  142.23    2.59
   1  -4  -3  145.40    2.31
   1  -4  -3  145.39    2.64
   1  -4  -3  146.09    2.46
  -1   4  -3  142.35    2.93
  -1   4  -3  140.19    2.42
  -1  -4   3  142.60    2.51
   1   4   3  141.53    2.42
  -1   4  -3  145.08    3.40
   1  -4  -3  139.95    2.61
  -3   4   3   80.36    1.59
   3   4  -3   80.33    1.49
   3   4  -3   84.15    1.35
  -3  -4  -3   80.76    1.50
  -3  -4  -3   77.33    1.79
   3  -4   3   82.68    1.65
  -3   4   3   80.97    1.56
   3  -4   3   84.52    1.78
   3   4  -3   82.52    1.57
  -3   4   3   82.39    1.48
   3  -4   3   81.34    1.51
  -3   4   3   81.13    1.48
   3  -4   3   82.04    1.85
  -3  -4  -3   79.94    1.54
  -3  -4  -3   80.17    1.57
  -3  -4  -3   82.01    1.46
  -3   4   3   80.62    1.80
   3   4  -3   78.44    1.61
  -3  -4   3   80.23    1.55
   3  -4  -3   82.18    1.47
  -3   4  -3   82.72    1.54
   3  -4  -3   79.52    1.84
   3   4   3   78.86    1.63
  -3  -4   3   80.90    1.45
  -3  -4   3   83.10    1.54
   3   4   3   80.51    1.58
   3  -4  -3   83.81    1.84
  -3  -4   3   81.23    1.65
  -3   4  -3   80.59    1.68
  -3   4  -3   82.55    1.76
   3  -4  -3   80.08    1.64
  -3  -4   3   83.30    1.87
  -3   4  -3   80.49    1.46
  -3   4  -3   81.53    1.60
  -3   4  -3   80.47    1.49
  -3  -4   3   78.22    1.82
   3  -4  -3   81.80    1.53
   5  -4   3   37.33    0.92
  -5  -4  -3   38.02    0.97
   5   4  -3   39.28    0.70
  -5   4   3   39.04    0.95
   5  -4   3   37.58    1.05
  -5  -4  -3   38.46    0.96
  -5   4   3   38.52    0.92
  -5  -4  -3   38.99    0.87
  -5   4   3   38.57    1.04
   5  -4  -3   38.17    0.94
  -5   4  -3   36.84    0.94
  -5  -4   3   39.14    0.97
  -5   4  -3   36.21    1.00
  -5  -4   3   38.95    0.86
  -5   4  -3   38.04    1.00
   5  -4  -3   38.47    1.09
  -5   4  -3   37.70    0.91
  -5  -4   3   37.97    0.99
  -7   4   3   15.71    0.50
  -7   4   3   16.05    0.55
  -7   4  -3   15.35    0.50
  -7   4  -3   15.53    0.54
   0   5   3   22.81    0.65
   0  -5  -3   23.86    0.64
   0  -5   3   23.13    0.80
   0   5   3   22.97    0.75
   0  -5  -3   24.77    0.72
   0   5  -3   23.68    0.62
   0  -5  -3   23.54    0.56
   0   5   3   23.63    0.53
   0  -5  -3   23.66    0.76
   0  -5   3   24.91    0.70
   0  -5   3   23.86    0.68
   0  -5   3   23.70    0.54
   0   5  -3   23.85    0.55
   0   5  -3   23.96    0.79
   0   5   3   23.64    0.61
   0   5  -3   22.78    0.66
  -2  -5  -3   21.91    0.79
  -2   5   3   22.55    0.57
  -2  -5  -3   22.01    0.53
   2  -5   3   21.90    0.82
  -2  -5  -3   21.68    0.60
   2  -5   3   22.27    0.69
   2   5  -3   24.17    0.61
  -2   5   3   22.52    0.71
  -2   5   3   23.07    0.62
   2   5  -3   21.87    0.51
   2   5  -3   21.85    0.64
  -2  -5  -3   22.55    0.59
   2   5  -3   22.16    0.74
  -2   5   3   22.32    0.55
  -2   5   3   23.06    0.67
  -2   5  -3   22.64    0.64
   2   5   3   22.43    0.52
   2   5   3   22.84    0.51
   2   5   3   22.01    0.72
  -2   5  -3   22.93    0.55
  -2  -5   3   22.46    0.55
   2  -5  -3   23.22    0.68
   2  -5  -3   22.60    0.81
  -2  -5   3   22.50    0.60
  -2   5  -3   21.94    0.69
  -2  -5   3   22.87    0.61
   2  -5  -3   22.85    0.57
   2   5   3   22.47    0.68
  -2  -5   3   23.78    0.82
  -2  -5   3   22.46    0.85
  -2  -5   3   22.58    0.71
  -2   5  -3   22.13    0.53
   2   5   3   22.26    0.63
  -4   5   3   18.88    0.62
  -4  -5  -3   18.41    0.53
   4   5  -3   17.96    0.44
   4  -5   3   18.01    0.57
  -4   5   3   18.15    0.55
  -4   5   3   18.54    0.55
  -4  -5  -3   18.47    0.61
   4  -5   3   17.35    0.66
  -4  -5  -3   17.60    0.58
  -4   5  -3   16.61    0.62
  -4   5  -3   19.10    0.61
   4  -5  -3   16.58    0.66
   4   5   3   18.57    0.61
  -4   5  -3   17.69    0.56
  -4  -5   3   18.55    0.62
   4   5   3   18.33    0.43
  -4  -5   3   18.31    0.60
  -4  -5   3   18.43    0.53
  -4   5  -3   18.48    0.55
   4  -5  -3   17.73    0.58
  -6   5   3   10.30    0.44
  -6   5   3   10.62    0.43
  -6  -5  -3   11.21    0.40
  -6   5  -3   10.19    0.42
  -6   5  -3   10.63    0.45
  -6  -5   3   10.35    0.47
  -1  -6  -3   32.74    1.00
   1   6  -3   31.62    0.82
   1   6  -3   32.21    0.73
   1   6  -3   31.11    0.88
  -1   6   3   31.04    0.81
   1  -6   3   31.50    1.08
  -1  -6  -3   33.12    0.79
  -1   6   3   31.37    0.72
  -1  -6  -3   32.34    0.70
   1  -6   3   31.79    0.73
   1   6  -3   32.71    1.04
  -1   6   3   32.29    0.89
   1  -6   3   32.47    0.92
  -1  -6  -3   31.75    0.77
   1  -6  -3   33.47    0.88
   1  -6  -3   32.38    0.77
   1   6   3   31.89    1.00
   1   6   3   31.85    0.69
   1  -6  -3   33.33    1.05
   1   6   3   31.88    0.72
   1   6   3   31.68    0.88
  -1  -6   3   33.05    1.10
  -1   6  -3   30.74    0.88
   1   6   3   31.11    0.82
  -1  -6   3   33.60    1.00
  -1  -6   3   32.98    0.78
  -1  -6   3   31.81    0.72
  -1  -6   3   32.75    0.93
  -1   6  -3   31.69    0.84
  -1  -6   3   33.11    0.78
  -3  -6  -3   21.97    0.59
  -3  -6  -3   21.07    0.67
   3   6  -3   22.34    0.66
  -3   6   3   21.53    0.61
   3   6  -3   21.69    0.55
   3  -6   3   22.53    0.78
  -3  -6  -3   21.99    0.66
  -3  -6   3   21.36    0.60
   3   6   3   21.44    0.68
  -3  -6   3   21.07    0.68
  -3   6  -3   21.99    0.71
  -3   6  -3   22.28    0.59
   3  -6  -3   21.96    0.61
   3   6   3   21.49    0.54
  -3  -6   3   21.30    0.67
  -3  -6   3   21.08    0.75
  -3   6  -3   21.28    0.60
   3  -6  -3   21.16    0.75
  -5  -6  -3   11.99    0.44
  -5  -6  -3   12.12    0.51
  -5   6   3   11.71    0.46
   5  -6   3   10.93    0.55
  -5   6   3   12.45    0.46
   5   6  -3   12.31    0.38
  -5   6   3   11.32    0.49
  -5  -6   3   12.96    0.54
   5   6   3   12.12    0.36
   5  -6  -3   12.42    0.59
  -5   6  -3   11.74    0.47
  -5  -6   3   11.59    0.44
  -5  -6   3   11.68    0.51
   5   6   3   11.64    0.48
  -5   6  -3   12.15    0.45
   0  -7  -3   16.24    0.54
   0  -7   3   15.24    0.46
   0  -7   3   15.61    0.52
   0   7  -3   15.41    0.57
   0  -7   3   14.97    0.63
   0   7   3   14.79    0.45
   0   7   3   15.11    0.56
  -2   7   3   14.39    0.48
  -2   7   3   13.95    0.54
  -2  -7  -3   13.84    0.52
   2   7  -3   13.86    0.46
  -2  -7  -3   13.81    0.53
   2  -7   3   14.37    0.63
  -2  -7  -3   15.28    0.47
   2   7  -3   13.97    0.54
  -2  -7   3   13.94    0.53
  -2  -7   3   14.90    0.64
  -2   7  -3   14.33    0.57
   2   7   3   13.86    0.45
  -2  -7   3   14.50    0.48
  -2   7  -3   14.18    0.44
   2   7   3   15.12    0.57
   2  -7  -3   14.42    0.62
  -2  -7   3   14.37    0.54
   2  -7  -3   14.96    0.51
  -4  -7  -3   11.36    0.44
  -4  -7  -3   11.47    0.51
  -4  -7  -3   11.55    0.49
  -4   7   3   10.78    0.44
   4   7  -3   10.87    0.39
   4  -7   3   11.11    0.57
   4   7   3   10.97    0.38
  -4  -7   3   10.71    0.43
  -4  -7   3   11.47    0.50
   4  -7  -3   11.44    0.57
   4   7   3   11.35    0.50
  -4   7  -3   12.51    0.54
  -4  -7   3   10.96    0.51
  -4   7  -3   11.45    0.42
   1   8  -3   40.32    1.08
  -1  -8  -3   40.29    1.03
   1  -8   3   41.48    0.98
  -1   8   3   40.72    0.92
  -1  -8  -3   42.79    1.01
  -1   8   3   41.76    1.09
   1  -8   3   40.71    1.19
  -1  -8   3   39.97    1.02
   1   8   3   40.77    1.09
   1  -8  -3   40.79    1.01
  -1  -8   3   43.22    1.21
  -1  -8   3   41.04    0.95
   3   8  -3   32.27    0.88
  -3   8   3   30.26    0.79
   3  -8   3   30.86    1.00
   3   8  -3   31.22    0.79
  -3  -8  -3   30.86    0.88
  -3  -8  -3   30.13    0.79
  -3  -8  -3   29.76    0.86
  -3  -8   3   30.33    0.88
  -3   8  -3   30.03    0.74
  -3  -8   3   31.42    0.88
  -3  -8   3   29.94    0.79
   3   8   3   30.89    0.77
   3  -8  -3   29.43    0.97
  -3   8  -3   28.52    0.89
   3  -8  -3   30.99    0.79
   3   8   3   31.47    0.91
   0  -9  -3   22.23    0.71
   0  -9   3   22.49    0.68
  -2  -9  -3   20.37    0.57
  -2   9   3   19.87    0.56
  -2  -9  -3   19.31    0.65
  -2  -9   3   18.96    0.58
   2  -9  -3   18.93    0.60
  -2  -9   3   19.00    0.65
  -1 -10  -3   24.74    0.71
   1 -10  -3   24.03    0.68
  -1 -10   3   24.81    0.70
   0   0  -4  168.21    3.00
   0   0  -4  155.00    2.84
   0   0   4  153.05    2.95
   0   0   4  154.03    2.70
   0   0   4  156.09    2.82
   0   0  -4  153.25    2.66
   0   0  -4  161.10    2.55
   0   0  -4  159.68    2.60
   0   0  -4  158.36    2.77
   0   0   4  158.96    2.59
   0   0   4  155.13    2.77
   0   0   4  162.64    2.51
   0   0   4  159.62    2.55
   0   0  -4  161.74    2.71
   2   0   4  114.57    2.08
   2   0  -4  114.40    2.26
  -2   0   4  118.27    1.80
  -2   0  -4  116.78    2.31
  -2   0   4  113.31    2.02
   2   0   4  110.36    2.51
   2   0   4  114.80    2.48
  -2   0   4  114.16    2.83
   2   0  -4  116.37    1.89
  -2   0   4  114.11    1.89
  -2   0   4  117.34    1.95
  -2   0  -4  113.64    1.90
  -2   0  -4  114.65    1.90
   2   0   4  117.78    1.97
   2   0   4  113.18    2.64
  -2   0   4  119.78    2.29
  -2   0  -4  115.73    1.91
  -2   0   4  114.98    2.26
   2   0  -4  113.49    2.80
  -2   0   4  117.03    2.08
  -2   0   4  113.93    2.40
   2   0   4  117.70    2.11
   2   0  -4  115.86    1.99
  -2   0  -4  117.87    2.65
   2   0   4  114.62    2.30
   2   0   4  118.96    1.92
   2   0   4  103.35    1.90
   2   0  -4  108.57    1.96
  -2   0  -4  114.69    1.96
   2   0  -4  116.08    2.24
   2   0  -4  113.26    2.38
   4   0   4   34.14    1.02
   4   0   4   35.69    0.80
  -4   0  -4   35.26    0.83
   4   0  -4   36.91    0.63
   4   0  -4   35.24    0.83
   4   0  -4   35.84    1.03
  -4   0  -4   36.04    0.89
  -4   0   4   34.47    0.77
  -4   0   4   33.62    0.99
  -4   0  -4   34.49    0.82
  -4   0  -4   35.71    0.75
   4   0   4   36.13    0.61
  -4   0   4   35.14    0.82
  -4   0   4   35.66    0.88
   6   0   4   13.47    0.36
  -6   0   4   13.74    0.50
  -6   0   4   13.31    0.57
  -6   0  -4   13.05    0.55
  -6   0  -4   13.40    0.47
  -6   0  -4   12.82    0.46
   6   0  -4   13.78    0.39
  -6   0   4   13.54    0.54
   1   1  -4  444.28    7.63
   1  -1   4  435.87    7.60
   1  -1   4  436.64    7.25
   1  -1   4  439.75    7.81
  -1   1   4  452.12    8.11
  -1  -1  -4  430.96    9.09
  -1  -1  -4  457.88    7.38
  -1   1   4  453.95    7.28
   1   1  -4  420.96    7.23
  -1   1   4  445.60    7.55
   1  -1   4  480.62    7.69
  -1  -1  -4  447.74    8.31
   1  -1   4  464.44    7.38
   1   1  -4  434.24    7.11
   1   1  -4  457.21    7.08
  -1   1   4  468.62    6.99
   1   1  -4  433.36    7.86
  -1  -1  -4  434.26    7.10
  -1  -1  -4  488.73    7.82
   1   1  -4  435.37    9.01
   1   1  -4  455.90    9.35
  -1   1   4  462.26    8.85
  -1   1   4  439.72    7.71
   1   1  -4  436.21    7.52
  -1   1   4  438.34    7.74
   1  -1   4  404.60    7.53
   1  -1   4  428.53    8.32
  -1  -1  -4  473.42    7.72
  -1   1  -4  428.94    8.54
  -1   1  -4  417.00    8.22
   1  -1  -4  443.63    7.74
   1  -1  -4  452.25    7.65
   1  -1  -4  449.30    7.86
   1  -1  -4  451.86    8.18
  -1   1  -4  443.23    7.44
   1   1   4  434.94    7.19
  -1   1  -4  445.51    7.67
  -1   1  -4  465.09    7.17
   1   1   4  448.36    8.19
   1   1   4  452.62    7.43
   1  -1  -4  432.99    7.96
  -1   1  -4  441.82    7.84
   1   1   4  430.34    9.07
   1   1   4  459.97    7.53
  -1  -1   4  388.93    7.27
  -1  -1   4  451.39    7.40
   1   1   4  444.74    7.95
  -1  -1   4  450.08    7.27
  -1   1  -4  448.75    7.14
   1  -1  -4  422.23    7.49
  -1  -1   4  440.55    8.01
   1  -1  -4  448.86    7.14
   1   1   4  450.64    8.62
  -3  -1  -4  167.42    2.88
   3   1  -4  169.60    2.72
   3   1  -4  173.48    2.72
   3   1  -4  170.70    3.65
   3  -1   4  168.19    2.91
  -3   1   4  162.61    2.86
   3  -1   4  167.91    2.67
   3   1  -4  171.04    3.56
  -3  -1  -4  164.74    2.80
  -3   1   4  174.01    3.61
   3   1  -4  165.42    2.79
   3   1  -4  168.45    2.94
   3  -1   4  165.39    3.71
   3  -1   4  167.28    2.83
  -3   1   4  163.66    3.03
  -3  -1  -4  171.50    2.80
   3   1  -4  166.04    3.32
  -3  -1  -4  168.21    2.88
  -3  -1  -4  172.24    2.72
   3   1  -4  171.04    3.24
   3  -1   4  172.06    2.78
  -3   1   4  165.44    2.82
   3  -1  -4  171.70    3.51
  -3  -1   4  172.62    2.77
  -3   1  -4  166.94    3.03
   3   1   4  171.13    2.81
   3   1   4  171.58    3.36
   3   1   4  169.72    2.74
  -3   1  -4  168.43    2.82
   3  -1  -4  165.03    2.92
  -3  -1   4  171.40    3.07
  -3  -1   4  170.27    2.88
   3  -1  -4  164.13    3.04
  -3  -1   4  171.24    2.78
   3   1   4  163.65    2.79
   3  -1  -4  166.35    2.69
  -3   1  -4  169.93    2.83
   3  -1  -4  172.06    2.84
   3   1   4  172.88    3.31
  -3   1  -4  170.56    3.69
  -3   1  -4  168.74    2.90
   3   1   4  170.99    3.02
  -3  -1   4  171.27    2.95
  -5   1   4   61.17    1.64
  -5  -1  -4   63.62    1.42
  -5   1   4   62.24    1.30
   5  -1   4   62.57    1.67
   5  -1   4   62.02    1.15
  -5   1   4   63.10    1.43
   5   1  -4   62.14    1.61
   5  -1   4   63.48    1.40
  -5  -1  -4   61.93    1.33
  -5   1   4   62.01    1.38
  -5  -1  -4   61.97    1.24
  -5  -1  -4   62.17    1.35
   5   1  -4   64.38    1.23
   5   1   4   62.97    1.64
   5  -1  -4   61.85    1.65
  -5   1  -4   62.88    1.34
   5  -1  -4   64.99    1.41
   5   1   4   64.54    1.19
   5  -1  -4   64.34    1.19
  -5   1  -4   61.93    1.25
  -5   1  -4   62.98    1.43
  -5  -1   4   61.02    1.26
  -5   1  -4   62.22    1.26
  -5  -1   4   62.50    1.28
  -5   1  -4   61.77    1.38
  -5  -1   4   62.46    1.41
  -5  -1   4   64.83    1.33
  -7   1   4   25.84    0.75
  -7  -1  -4   25.28    0.68
  -7   1  -4   24.48    0.70
  -7  -1   4   24.77    0.70
  -7   1  -4   27.14    0.73
   0   2   4  420.34    6.81
   0   2  -4  397.60    6.86
   0   2   4  396.19    6.71
   0  -2  -4  372.98    6.53
   0  -2   4  391.31    6.68
   0  -2  -4  411.55    6.85
   0   2   4  385.24    8.01
   0   2  -4  374.77    6.84
   0  -2  -4  393.14    6.89
   0   2  -4  394.64    6.88
   0   2  -4  378.49    6.97
   0   2   4  416.52    7.07
   0   2  -4  405.07    7.02
   0  -2   4  388.51    6.27
   0   2   4  400.30    6.76
   0   2   4  407.87    6.68
   0  -2   4  405.35    6.65
   0  -2  -4  408.69    7.04
   0  -2  -4  404.56    6.76
   0   2  -4  403.81    6.61
   0   2  -4  385.77    6.32
   0  -2  -4  407.79    6.76
   0   2   4  409.72    6.87
   0  -2   4  391.14    6.92
   0  -2   4  369.54    6.89
   0  -2  -4  416.69    6.32
   0  -2   4  402.44    6.56
   0  -2   4  410.26    6.65
  -2   2   4  244.56    4.63
   2   2  -4  235.12    3.94
   2   2  -4  245.64    3.85
  -2   2   4  238.50    5.10
   2   2  -4  237.52    5.12
  -2   2   4  237.47    3.83
  -2  -2  -4  240.58    3.96
   2   2  -4  239.19    3.70
   2   2  -4  243.80    4.76
  -2   2   4  231.89    4.01
   2  -2   4  244.25    4.67
   2   2  -4  236.54    4.38
  -2  -2  -4  241.47    3.89
   2  -2   4  236.54    4.21
   2  -2   4  235.79    3.93
   2  -2   4  229.61    4.56
   2   2  -4  230.88    3.97
  -2  -2  -4  244.87    3.84
   2  -2   4  234.76    3.96
   2   2  -4  242.76    3.78
   2  -2   4  242.25    3.84
  -2  -2  -4  243.67    4.68
   2   2  -4  239.77    3.86
  -2  -2  -4  242.18    3.79
   2  -2   4  242.00    3.77
   2  -2   4  244.66    4.49
  -2  -2  -4  254.38    4.91
   2   2  -4  242.60    5.03
  -2   2   4  244.29    3.79
  -2   2   4  236.73    3.86
  -2  -2  -4  246.78    3.78
   2  -2  -4  239.29    3.79
  -2  -2   4  242.55    4.83
   2   2   4  244.75    3.84
   2   2   4  238.27    3.96
  -2  -2   4  243.88    3.82
  -2  -2   4  233.24    4.07
   2  -2  -4  233.29    4.37
  -2   2  -4  244.53    3.85
  -2   2  -4  230.73    4.43
   2   2   4  239.37    4.93
   2  -2  -4  238.28    4.56
   2   2   4  241.84    3.99
   2   2   4  239.59    4.92
   2  -2  -4  237.00    4.02
   2  -2  -4  237.41    4.40
   2  -2  -4  237.60    4.02
   2   2   4  228.52    3.85
  -2  -2   4  232.71    3.89
   2  -2  -4  244.31    3.84
  -2  -2   4  239.83    4.35
   2   2   4  235.75    3.98
   2  -2  -4  241.40    5.07
  -2   2  -4  230.61    4.31
  -2   2  -4  241.68    3.91
   2   2   4  241.50    4.67
   2   2   4  234.78    3.79
   2   2   4  237.53    4.68
  -2   2  -4  235.25    3.98
  -2   2  -4  236.62    4.56
  -2   2  -4  243.55    4.71
  -2  -2   4  240.78    3.82
  -2   2  -4  240.01    3.82
  -4  -2  -4   96.91    1.69
  -4  -2  -4   93.58    1.84
  -4  -2  -4   94.77    1.63
   4  -2   4   92.96    1.77
   4  -2   4   93.98    1.95
   4   2  -4   93.72    1.70
  -4   2   4   91.43    2.07
  -4   2   4   92.31    1.66
   4  -2   4   95.25    1.85
  -4  -2  -4   97.44    1.94
  -4  -2  -4   96.00    1.74
  -4  -2  -4   93.01    1.76
   4  -2   4   95.28    1.64
  -4   2   4   95.78    1.69
  -4   2   4   92.53    1.71
  -4  -2  -4   93.72    1.65
   4   2  -4   92.82    1.93
  -4   2   4   94.42    1.85
  -4   2   4   91.97    1.79
  -4  -2   4   94.28    1.74
   4  -2  -4   93.22    1.94
   4  -2  -4   92.73    2.06
  -4  -2   4   94.16    1.66
  -4   2  -4   91.46    2.03
  -4   2  -4   91.82    1.86
  -4  -2   4   93.15    1.83
   4  -2  -4   93.87    1.67
  -4  -2   4   92.79    1.72
  -4   2  -4   91.71    1.78
   4   2   4   96.02    1.63
  -4   2  -4   92.37    1.77
  -4   2  -4   91.38    1.69
   4   2   4   95.86    1.99
  -4   2  -4   93.42    1.67
  -4  -2   4   94.94    2.05
   6  -2   4   39.18    0.87
  -6  -2  -4   39.86    0.91
  -6   2   4   39.52    0.91
  -6   2   4   37.71    1.06
  -6   2   4   37.86    0.98
  -6   2  -4   37.13    0.93
  -6   2  -4   37.80    0.96
   6  -2  -4   40.29    0.91
  -6   2  -4   38.25    1.06
   6  -2  -4   38.22    1.08
  -6  -2   4   40.23    1.07
   1  -3   4   88.84    1.60
   1  -3   4   89.05    2.25
   1  -3   4   89.69    2.10
   1  -3   4   88.43    1.73
   1   3  -4   86.89    1.96
  -1  -3  -4   89.71    1.60
   1   3  -4   89.26    1.68
  -1   3   4   88.30    2.60
   1  -3   4   88.54    2.06
   1   3  -4   88.18    2.44
   1   3  -4   89.17    1.53
  -1   3   4   92.35    1.70
  -1   3   4   90.71    1.53
   1  -3   4   89.05    2.29
   1   3  -4   91.11    1.70
   1   3  -4   88.20    2.54
  -1  -3  -4   91.28    1.54
   1  -3   4   91.42    1.61
  -1  -3  -4   91.66    2.54
   1  -3   4   88.65    1.51
  -1   3   4   90.56    1.89
  -1  -3  -4   92.50    2.33
   1  -3   4   86.83    1.73
  -1   3   4   88.40    1.67
  -1   3   4   91.01    1.57
  -1   3   4   87.54    2.22
  -1  -3  -4   88.75    1.55
   1   3  -4   90.17    1.57
  -1   3   4   92.90    1.92
  -1   3   4   90.25    1.52
  -1  -3  -4   87.27    1.69
   1   3  -4   89.12    1.47
   1  -3  -4   90.29    1.69
   1  -3  -4   89.96    1.85
   1  -3  -4   90.50    1.75
  -1  -3   4   89.99    1.64
  -1   3  -4   92.93    1.52
   1   3   4   90.52    1.65
  -1  -3   4   88.18    2.43
  -1  -3   4   87.37    1.76
  -1   3  -4   88.69    2.04
  -1  -3   4   88.58    1.78
  -1  -3   4   89.71    1.54
  -1   3  -4   86.68    2.27
   1  -3  -4   91.48    1.61
  -1   3  -4   93.05    2.42
  -1  -3   4   89.04    1.71
   1   3   4   91.79    1.62
   1   3   4   91.47    2.42
  -1   3  -4   90.84    1.57
   1   3   4   90.02    2.45
   1  -3  -4   91.12    1.53
   1  -3  -4   89.81    1.49
   1  -3  -4   95.39    2.31
   1   3   4   87.38    1.61
  -1  -3   4   89.14    2.01
  -1   3  -4   92.24    2.08
   1  -3  -4   91.46    1.86
   1  -3  -4   89.13    2.54
  -1   3  -4   88.05    1.62
  -1  -3   4   89.37    2.63
   1   3   4   91.65    2.27
  -1   3  -4   92.64    1.76
   1  -3  -4   90.92    1.57
   1   3   4   94.04    2.45
  -3  -3  -4   39.48    1.03
  -3   3   4   39.77    0.89
   3   3  -4   38.81    0.88
   3  -3   4   38.13    0.90
  -3  -3  -4   40.32    0.84
  -3  -3  -4   38.89    0.88
   3   3  -4   39.67    1.04
  -3   3   4   40.09    1.08
   3  -3   4   41.76    1.01
   3   3  -4   40.47    0.84
   3   3  -4   39.66    0.67
   3  -3   4   39.57    0.82
   3   3  -4   39.57    0.79
   3  -3   4   38.10    1.03
  -3   3  -4   40.22    0.96
   3  -3  -4   39.53    0.84
  -3   3  -4   40.14    0.87
   3  -3  -4   36.44    1.05
  -3  -3   4   39.75    0.87
  -3   3  -4   40.73    1.05
  -3   3  -4   39.41    0.90
  -3  -3   4   39.51    1.10
   3   3   4   37.96    0.92
   3  -3  -4   38.88    0.93
  -3  -3   4   39.87    0.94
   3   3   4   39.64    0.84
   3  -3  -4   39.66    1.06
   5  -3   4   16.20    0.59
  -5  -3  -4   16.01    0.48
  -5   3   4   16.38    0.51
  -5  -3  -4   16.08    0.56
  -5   3   4   15.97    0.60
  -5   3   4   15.69    0.54
   5  -3   4   15.59    0.50
  -5  -3  -4   16.20    0.47
  -5  -3   4   15.40    0.59
  -5  -3   4   16.71    0.57
   5  -3  -4   16.19    0.64
   5  -3  -4   15.37    0.51
  -5   3  -4   15.41    0.53
  -5   3  -4   16.29    0.60
  -5   3  -4   16.05    0.58
  -5   3  -4   16.75    0.52
  -5  -3   4   15.63    0.56
  -7   3   4    6.95    0.36
  -7   3  -4    7.24    0.37
  -7   3  -4    7.08    0.34
   0   4  -4  180.14    2.89
   0   4   4  186.97    3.01
   0   4  -4  175.47    3.03
   0   4  -4  175.98    2.96
   0   4   4  188.32    3.94
   0  -4   4  179.55    3.05
   0   4   4  177.11    3.02
   0  -4   4  174.36    3.57
   0  -4   4  179.67    3.07
   0   4  -4  181.74    3.45
   0   4  -4  181.12    3.45
   0  -4  -4  179.50    2.91
   0  -4  -4  177.05    3.09
   0   4  -4  178.91    3.21
   0  -4   4  178.85    2.89
   0   4   4  179.39    3.16
   0   4   4  176.41    2.95
   0  -4   4  175.24    3.23
   0   4   4  182.57    3.87
   0  -4   4  178.37    3.57
   0  -4  -4  181.41    2.96
   0   4   4  177.79    2.87
   0  -4  -4  182.13    3.11
  -2  -4  -4  129.04    2.53
   2   4  -4  133.31    2.32
   2  -4   4  131.72    2.37
   2   4  -4  131.89    2.44
  -2  -4  -4  132.92    2.28
   2   4  -4  131.22    2.15
  -2   4   4  134.65    2.27
   2  -4   4  131.70    2.57
  -2   4   4  134.26    2.50
   2   4  -4  132.18    2.25
   2  -4   4  130.93    2.24
  -2   4   4  136.99    2.28
  -2   4   4  133.34    2.33
   2  -4   4  130.23    2.48
  -2  -4  -4  132.08    2.31
   2  -4  -4  134.51    2.58
   2  -4  -4  133.63    2.27
  -2  -4   4  131.84    2.64
  -2   4  -4  133.62    2.41
   2   4   4  130.13    2.39
  -2  -4   4  132.17    2.42
   2  -4  -4  134.16    2.36
  -2  -4   4  130.82    2.56
   2  -4  -4  134.96    2.56
  -2  -4   4  131.06    2.28
  -2   4  -4  131.08    2.41
   2   4   4  131.08    2.38
  -2   4  -4  131.16    2.33
  -2   4  -4  134.37    2.23
  -4   4   4   69.83    1.37
   4  -4   4   68.88    1.38
   4  -4   4   68.04    1.72
   4   4  -4   69.60    1.47
  -4  -4  -4   70.19    1.42
  -4  -4  -4   70.13    1.46
  -4   4   4   69.09    1.36
  -4   4   4   68.21    1.47
  -4  -4  -4   68.87    1.31
   4   4  -4   68.08    1.70
   4  -4   4   68.92    1.51
  -4   4   4   69.77    1.76
   4   4  -4   70.10    1.18
  -4  -4  -4   70.05    1.72
  -4  -4  -4   69.19    1.33
   4  -4  -4   67.48    1.53
   4   4   4   69.73    1.53
  -4   4  -4   67.48    1.34
  -4   4  -4   67.23    1.44
   4  -4  -4   68.38    1.40
  -4  -4   4   67.77    1.30
  -4   4  -4   68.97    1.58
  -4  -4   4   70.93    1.76
  -4   4  -4   67.38    1.38
   4  -4  -4   66.30    1.74
  -4  -4   4   69.29    1.42
  -4   4  -4   66.53    1.47
  -4  -4   4   67.52    1.44
   4  -4  -4   73.21    1.75
  -4  -4   4   68.87    1.52
   4   4   4   70.89    1.40
   4  -4  -4   71.14    1.34
  -6   4   4   33.85    0.88
  -6   4   4   31.02    0.82
  -6  -4  -4   31.86    0.76
   6  -4   4   31.43    0.82
  -6   4   4   31.37    0.94
  -6   4  -4   32.36    0.87
  -6  -4   4   31.36    0.87
  -6   4  -4   31.53    0.93
  -6   4  -4   31.28    0.82
   6  -4  -4   30.64    0.83
  -1  -5  -4  112.24    1.97
   1   5  -4  112.46    2.01
  -1   5   4  116.33    2.03
   1   5  -4  111.75    2.09
  -1   5   4  112.58    2.09
  -1  -5  -4  113.66    1.99
  -1   5   4  112.39    1.93
   1  -5   4  111.81    2.13
  -1  -5  -4  114.60    2.26
   1  -5   4  110.68    2.34
   1   5  -4  112.36    1.92
   1   5  -4  110.82    2.27
  -1   5  -4  112.99    2.05
   1   5   4  111.64    2.22
   1  -5  -4  112.69    2.07
  -1  -5   4  117.12    1.93
  -1  -5   4  112.29    2.15
   1  -5  -4  113.87    2.10
  -1  -5   4  112.46    2.38
  -1  -5   4  113.55    2.24
   1   5   4  109.21    2.11
   1  -5  -4  114.19    2.27
  -1  -5   4  113.20    1.97
  -1   5  -4  108.98    2.11
   1  -5  -4  111.25    1.97
   1   5   4  111.33    2.03
   1   5   4  111.77    1.90
  -1  -5   4  113.45    1.98
  -3  -5  -4   72.22    1.38
  -3  -5  -4   75.14    1.45
   3  -5   4   71.04    1.43
   3   5  -4   74.55    1.50
   3   5  -4   72.96    1.43
  -3  -5  -4   76.25    1.36
   3  -5   4   73.44    1.83
   3  -5   4   72.74    1.60
  -3   5   4   73.51    1.47
  -3   5   4   74.64    1.74
  -3  -5  -4   73.18    1.80
   3   5  -4   73.21    1.31
  -3   5   4   71.09    1.40
  -3  -5  -4   73.98    1.49
   3   5  -4   73.19    1.66
  -3   5  -4   72.74    1.63
   3  -5  -4   72.80    1.40
   3   5   4   72.29    1.58
  -3  -5   4   71.43    1.86
   3   5   4   72.71    1.60
   3  -5  -4   72.33    1.80
   3  -5  -4   73.73    1.46
  -3  -5   4   71.59    1.50
  -3   5  -4   74.59    1.42
  -3  -5   4   71.99    1.39
  -3  -5   4   72.56    1.47
   3  -5  -4   73.77    1.60
  -3  -5   4   71.37    1.61
  -3   5  -4   74.75    1.38
   3   5   4   73.38    1.29
  -3   5  -4   71.18    1.53
  -5   5   4   37.96    1.04
   5   5  -4   38.86    0.77
  -5   5   4   37.03    0.93
  -5   5   4   39.49    0.95
  -5  -5  -4   38.29    0.90
  -5  -5  -4   37.03    0.98
   5  -5   4   37.71    1.08
   5  -5   4   38.94    0.96
  -5   5  -4   38.13    0.96
  -5   5  -4   36.82    1.00
  -5  -5   4   36.46    1.01
  -5  -5   4   38.30    0.89
  -5   5  -4   36.73    1.03
   5  -5  -4   38.87    1.13
   5   5   4   38.26    0.75
  -5   5  -4   38.06    0.92
   5  -5  -4   39.41    0.98
  -5  -5   4   39.65    1.02
   5   5   4   38.79    1.00
   0   6   4   30.01    0.67
   0  -6  -4   29.54    0.70
   0  -6   4   29.90    0.71
   0  -6  -4   30.92    0.91
   0   6  -4   28.53    0.78
   0   6   4   29.91    0.84
   0   6  -4   30.38    0.85
   0  -6   4   27.90    0.84
   0   6   4   29.25    0.77
   0  -6  -4   29.89    0.74
   0  -6   4   26.88    1.00
   0  -6   4   29.91    0.67
  -2  -6  -4   24.02    0.67
   2  -6   4   24.12    0.95
   2   6  -4   24.35    0.90
   2   6  -4   23.33    0.73
  -2  -6  -4   23.39    0.60
   2   6  -4   23.47    0.68
   2  -6   4   23.62    0.78
  -2  -6  -4   23.52    0.68
  -2  -6  -4   23.80    0.90
   2   6  -4   23.70    0.60
  -2   6   4   24.87    0.76
  -2   6   4   24.05    0.62
  -2   6   4   24.60    0.70
   2   6   4   24.50    0.85
  -2  -6   4   23.87    0.80
  -2   6  -4   23.92    0.58
   2   6   4   23.29    0.77
   2   6   4   24.03    0.58
   2  -6  -4   24.89    0.93
  -2  -6   4   23.83    0.68
  -2   6  -4   24.35    0.79
   2   6   4   24.17    0.58
  -2  -6   4   24.16    0.69
  -2  -6   4   25.01    0.98
   2  -6  -4   24.05    0.76
   2   6   4   24.11    0.71
   2  -6  -4   23.97    0.64
  -2   6  -4   24.60    0.73
  -2  -6   4   23.15    0.61
  -4  -6  -4   14.67    0.57
   4   6  -4   14.55    0.43
   4  -6   4   14.50    0.63
  -4   6   4   14.69    0.51
  -4  -6  -4   14.96    0.55
  -4  -6  -4   14.29    0.49
  -4  -6   4   14.69    0.58
   4   6   4   14.98    0.42
   4   6   4   14.62    0.57
  -4   6  -4   14.18    0.48
  -4  -6   4   14.67    0.57
   4  -6  -4   14.95    0.64
  -4   6  -4   14.95    0.60
  -4  -6   4   14.56    0.49
   4  -6  -4   14.80    0.49
  -4   6  -4   16.00    0.54
  -6  -6  -4    8.28    0.34
  -6   6   4    8.48    0.36
  -6   6  -4    7.68    0.34
  -6  -6   4    8.04    0.40
  -6  -6   4    7.79    0.33
  -1  -7  -4   61.58    1.33
  -1   7   4   61.92    1.24
   1  -7   4   62.38    1.26
   1   7  -4   61.30    1.27
  -1  -7  -4   61.85    1.21
   1   7  -4   62.41    1.38
   1  -7   4   61.91    1.51
  -1  -7  -4   61.67    1.31
  -1   7   4   62.00    1.38
   1  -7  -4   64.98    1.46
  -1  -7   4   60.54    1.31
   1   7   4   61.00    1.39
  -1  -7   4   59.70    1.50
  -1   7  -4   59.24    1.39
   1  -7  -4   60.58    1.31
  -1  -7   4   63.50    1.31
   1   7   4   61.25    1.24
   1   7   4   60.42    1.20
  -1  -7   4   61.72    1.25
  -3  -7  -4   43.07    1.00
   3   7  -4   44.57    1.00
  -3  -7  -4   45.87    1.10
   3  -7   4   44.56    1.26
  -3   7   4   44.37    1.03
   3   7  -4   45.95    1.10
   3   7   4   45.71    1.15
  -3  -7   4   45.66    1.14
  -3  -7   4   43.82    1.03
   3   7   4   44.55    0.97
  -3  -7   4   44.26    1.11
   3  -7  -4   44.40    1.22
   3  -7  -4   45.40    1.04
  -3   7  -4   45.36    0.99
  -3   7  -4   43.91    1.16
  -5   7   4   24.74    0.70
   5  -7   4   25.96    0.71
  -5  -7  -4   25.46    0.69
  -5   7  -4   25.66    0.68
  -5  -7   4   26.52    0.69
  -5  -7   4   24.47    0.76
   0  -8  -4   49.74    1.18
   0   8   4   50.48    1.24
   0  -8   4   48.82    1.35
   0   8   4   49.33    1.05
   0  -8   4   50.14    1.14
   0   8  -4   48.02    1.23
  -2  -8  -4   44.28    1.08
   2  -8   4   44.32    1.26
  -2   8   4   43.06    0.99
   2   8  -4   42.31    1.00
  -2  -8  -4   43.89    0.98
  -2  -8  -4   41.40    1.07
   2   8  -4   43.48    1.10
   2   8   4   43.23    0.99
  -2  -8   4   43.47    1.01
   2  -8  -4   44.59    1.05
  -2  -8   4   41.17    1.07
   2  -8  -4   44.19    1.20
  -2  -8   4   43.06    1.07
  -2   8  -4   42.19    1.14
   2   8   4   42.73    1.13
  -4  -8  -4   28.98    0.75
  -4  -8  -4   26.26    0.77
  -4   8   4   27.23    0.73
  -4   8  -4   28.49    0.70
  -4  -8   4   28.03    0.75
  -1   9   4   12.44    0.43
  -1  -9  -4   11.65    0.50
   1   9  -4   11.69    0.41
  -1  -9   4   11.79    0.48
   1  -9  -4   11.15    0.48
  -3  -9  -4    8.34    0.41
  -3   9   4    9.66    0.37
  -3  -9  -4    9.68    0.37
  -3  -9   4    9.50    0.38
  -3  -9   4    9.10    0.42
   3  -9  -4    9.06    0.37
   0 -10  -4   27.81    0.76
   0 -10   4   27.04    0.71
   1   0  -5  254.44    4.36
  -1   0   5  244.94    4.27
  -1   0  -5  232.54    4.55
   1   0   5  238.86    4.60
  -1   0  -5  244.23    4.03
   1   0   5  250.14    4.21
   1   0   5  244.82    4.07
   1   0  -5  248.40    4.00
  -1   0  -5  247.60    4.35
   1   0   5  238.71    3.92
   1   0   5  256.45    3.95
   1   0  -5  258.60    4.39
  -1   0  -5  246.19    4.04
  -1   0  -5  245.70    4.07
   1   0   5  243.14    4.35
   1   0  -5  244.97    4.65
   1   0  -5  247.16    4.28
  -1   0   5  246.98    3.96
  -1   0   5  242.01    4.66
  -1   0   5  237.77    3.96
   1   0  -5  250.51    3.96
  -1   0   5  250.24    4.34
  -1   0  -5  244.74    4.21
  -1   0   5  250.30    4.70
  -3   0  -5   96.76    1.69
  -3   0   5  100.26    2.28
   3   0   5   95.45    1.73
   3   0   5   96.02    1.54
   3   0  -5   99.69    1.55
   3   0  -5   95.75    2.17
   3   0  -5   96.50    1.64
  -3   0   5   96.26    1.70
  -3   0   5   98.38    1.90
   3   0   5   96.61    1.94
   3   0  -5   95.37    1.79
   3   0  -5   98.23    1.82
  -3   0  -5   94.54    2.64
  -3   0   5   95.50    1.94
  -3   0  -5   96.18    1.72
  -3   0  -5   94.34    1.71
   3   0   5   99.57    2.68
  -3   0  -5   96.90    1.79
  -3   0   5   93.72    1.77
   3   0   5   97.50    1.73
  -5   0  -5   52.86    1.22
   5   0   5   53.30    0.96
   5   0  -5   53.69    1.19
  -5   0  -5   52.29    1.09
  -5   0   5   51.60    1.44
  -5   0  -5   52.90    1.11
  -5   0  -5   52.75    1.19
  -5   0   5   51.57    1.26
   5   0  -5   50.38    1.45
   5   0  -5   52.79    0.99
  -5   0   5   54.43    1.14
  -5   0  -5   54.91    1.29
  -5   0   5   52.95    1.13
   5   0   5   53.83    1.16
  -5   0   5   53.69    1.20
   5   0   5   53.67    1.50
  -7   0   5   25.94    0.74
  -7   0  -5   26.22    0.71
   0   1   5  404.55    7.57
   0   1  -5  375.04    6.44
   0  -1  -5  387.31    6.31
   0  -1   5  350.51    6.66
   0   1   5  412.09    6.55
   0  -1   5  402.44    6.36
   0  -1   5  381.71    6.84
   0   1  -5  383.86    6.78
   0   1  -5  403.89    7.23
   0   1   5  392.39    6.87
   0   1  -5  371.01    7.63
   0  -1  -5  410.61    6.88
   0  -1   5  394.89    6.11
   0  -1  -5  391.19    6.27
   0   1   5  396.18    6.59
   0  -1  -5  381.63    8.56
   0  -1   5  391.03    6.79
   0  -1  -5  379.95    6.43
   0  -1   5  402.18    6.51
   0   1  -5  386.14    6.08
   0  -1   5  369.84    6.75
   0   1   5  396.83    6.67
   0  -1  -5  398.98    7.04
   0  -1  -5  406.32    6.71
   0   1  -5  372.33    7.30
   0  -1  -5  399.80    7.15
   0   1  -5  380.85    6.40
   2   1  -5  218.86    4.14
  -2  -1  -5  230.26    3.51
  -2   1   5  226.32    3.46
  -2   1   5  226.11    4.17
  -2  -1  -5  217.78    3.62
   2  -1   5  214.71    4.26
   2  -1   5  224.41    3.48
   2  -1   5  223.25    3.67
  -2   1   5  223.21    4.77
   2  -1   5  221.25    3.62
   2   1  -5  222.43    3.46
  -2  -1  -5  221.68    4.59
  -2   1   5  223.65    3.60
   2   1  -5  223.88    4.72
   2  -1   5  228.48    3.75
   2   1  -5  229.04    3.46
  -2   1   5  222.44    3.74
   2  -1   5  206.75    4.21
  -2  -1  -5  221.74    3.57
   2  -1   5  229.24    4.16
  -2  -1  -5  238.44    4.18
   2   1  -5  212.56    4.82
   2  -1   5  219.36    4.49
   2   1  -5  216.37    3.68
  -2  -1  -5  229.34    3.91
  -2  -1  -5  221.02    4.33
   2   1  -5  221.61    3.64
  -2  -1  -5  228.98    3.56
   2   1  -5  213.53    3.73
   2   1  -5  224.47    3.70
   2   1  -5  230.16    3.58
  -2  -1  -5  219.27    3.62
  -2   1   5  222.45    3.57
   2   1  -5  222.65    4.29
   2   1   5  227.20    3.47
   2  -1  -5  218.85    3.73
   2  -1  -5  225.28    3.64
   2   1   5  222.68    3.73
   2  -1  -5  218.70    4.12
  -2   1  -5  226.16    3.64
   2   1   5  229.98    3.92
   2  -1  -5  222.44    3.75
   2   1   5  227.89    3.59
  -2  -1   5  227.35    4.17
   2   1   5  218.40    4.53
  -2  -1   5  229.57    3.56
  -2   1  -5  215.74    3.47
   2   1   5  228.26    4.39
   2   1   5  219.56    3.99
   2   1   5  224.77    3.44
  -2  -1   5  220.03    3.63
   2  -1  -5  222.42    4.11
   2  -1  -5  223.94    4.73
   2   1   5  219.30    3.62
  -2  -1   5  214.95    3.77
   2  -1  -5  215.86    3.50
  -2   1  -5  215.19    4.11
   2  -1  -5  223.82    3.51
  -2  -1   5  224.17    4.31
   2  -1  -5  225.82    4.11
  -2   1  -5  226.46    3.56
  -2   1  -5  226.13    3.58
  -2   1  -5  224.35    4.46
  -2  -1   5  223.64    3.65
  -4   1   5   79.57    1.81
  -4   1   5   79.64    1.49
   4   1  -5   80.54    1.68
  -4   1   5   79.65    1.48
  -4  -1  -5   81.45    1.55
   4  -1   5   80.21    1.38
  -4  -1  -5   80.61    1.45
   4  -1   5   77.79    1.82
  -4   1   5   78.50    1.62
   4  -1   5   80.47    1.49
  -4  -1  -5   78.71    1.63
   4  -1   5   79.60    1.63
  -4  -1  -5   80.50    1.55
   4   1  -5   81.25    1.54
  -4   1   5   80.30    1.56
   4  -1   5   78.85    1.61
  -4  -1   5   77.13    1.80
  -4  -1   5   80.81    1.73
  -4   1  -5   80.17    1.57
  -4  -1   5   80.16    1.51
  -4  -1   5   80.94    1.51
   4   1   5   79.06    1.80
   4   1   5   80.73    1.47
  -4  -1   5   80.35    1.47
  -4   1  -5   76.92    1.63
  -4   1  -5   81.62    1.47
  -4   1  -5   79.75    1.56
   4  -1  -5   82.90    1.67
  -4  -1   5   80.88    1.49
   4  -1  -5   76.40    1.80
   4  -1  -5   81.05    1.41
  -4  -1   5   77.33    1.61
  -4   1  -5   79.84    1.45
   6   1  -5   33.46    0.68
  -6   1   5   31.83    0.93
  -6  -1  -5   32.05    0.91
  -6  -1  -5   31.42    0.81
  -6  -1  -5   33.61    0.90
  -6   1   5   31.36    0.85
   6  -1   5   32.49    0.73
  -6   1  -5   31.43    0.94
  -6   1  -5   33.30    0.84
  -6  -1   5   31.66    0.95
   6  -1  -5   31.40    0.75
  -6   1  -5   30.74    0.82
  -6  -1   5   31.89    0.83
   6   1   5   33.08    0.64
   1   2  -5   59.92    1.78
   1   2  -5   59.20    1.83
   1  -2   5   59.56    1.07
  -1  -2  -5   58.63    1.17
  -1   2   5   60.21    1.87
   1   2  -5   59.68    1.48
  -1  -2  -5   59.86    1.05
  -1   2   5   59.71    1.14
   1  -2   5   58.32    1.17
   1   2  -5   60.39    0.99
  -1   2   5   61.22    1.31
   1   2  -5   60.09    1.17
   1   2  -5   59.12    1.17
   1   2  -5   58.26    1.04
   1  -2   5   59.47    1.20
  -1   2   5   60.10    1.59
  -1  -2  -5   59.32    1.04
  -1  -2  -5   59.52    1.69
   1  -2   5   60.48    1.48
  -1  -2  -5   56.49    1.62
   1   2  -5   59.72    1.75
  -1   2   5   58.81    1.05
  -1   2   5   60.34    1.03
   1  -2   5   56.58    1.41
  -1  -2  -5   60.86    1.05
   1  -2   5   57.91    1.72
   1  -2   5   59.85    1.50
  -1   2   5   60.74    1.27
  -1  -2  -5   61.50    0.98
  -1   2   5   59.53    1.19
  -1  -2  -5   61.96    1.80
  -1   2   5   59.15    1.06
   1  -2   5   57.62    1.14
   1  -2   5   58.45    1.02
   1  -2  -5   60.21    1.58
   1   2   5   60.17    1.75
   1   2   5   58.29    1.06
   1   2   5   57.03    1.63
   1  -2  -5   57.50    1.85
  -1   2  -5   59.96    1.23
   1   2   5   57.39    1.64
  -1   2  -5   58.79    1.44
  -1   2  -5   57.74    1.49
  -1   2  -5   60.28    1.07
   1   2   5   60.71    1.19
  -1  -2   5   60.36    1.24
  -1  -2   5   60.63    1.05
  -1   2  -5   60.14    1.05
  -1  -2   5   60.12    1.12
   1  -2  -5   58.28    1.22
   1  -2  -5   58.77    1.36
  -1  -2   5   57.78    1.50
  -1  -2   5   58.31    1.74
   1   2   5   60.43    1.13
  -1   2  -5   58.55    1.78
  -1  -2   5   60.75    1.03
  -1   2  -5   59.48    1.44
   1  -2  -5   60.69    1.16
   1  -2  -5   60.28    1.34
   1  -2  -5   60.17    1.13
   1  -2  -5   61.31    1.05
  -3  -2  -5   32.10    0.84
   3   2  -5   30.80    0.85
  -3   2   5   32.11    0.78
  -3  -2  -5   31.57    0.79
   3  -2   5   31.90    0.84
  -3  -2  -5   31.11    0.67
  -3   2   5   32.16    0.74
   3   2  -5   31.24    0.74
   3  -2   5   32.33    0.72
  -3  -2  -5   30.97    0.73
  -3   2   5   31.93    0.92
   3  -2   5   31.69    0.65
  -3  -2  -5   32.29    0.70
   3   2  -5   31.78    0.52
   3   2   5   32.33    0.53
  -3   2  -5   31.57    0.80
   3   2   5   32.12    0.88
  -3  -2   5   33.03    0.77
  -3   2  -5   31.89    0.75
  -3  -2   5   32.09    0.94
  -3  -2   5   32.77    0.72
   3  -2  -5   31.75    0.68
   3  -2  -5   30.67    0.87
  -3   2  -5   31.47    0.73
   3  -2  -5   31.85    0.92
  -3  -2   5   31.48    0.79
   3   2   5   33.16    0.71
  -5  -2  -5   21.64    0.73
  -5   2   5   20.57    0.69
  -5   2   5   21.30    0.57
  -5  -2  -5   21.31    0.54
  -5   2   5   21.01    0.60
   5   2  -5   22.04    0.59
  -5  -2  -5   21.61    0.65
  -5  -2  -5   20.93    0.58
   5  -2   5   21.05    0.55
  -5   2   5   20.40    0.62
  -5  -2  -5   21.35    0.66
  -5  -2   5   21.06    0.87
   5  -2  -5   21.11    0.73
   5  -2  -5   20.65    0.87
   5   2   5   21.06    0.51
  -5  -2   5   21.09    0.58
  -5   2  -5   21.00    0.66
  -5   2  -5   20.19    0.72
   5  -2  -5   21.27    0.59
  -5  -2   5   21.14    0.64
  -5  -2   5   21.12    0.63
  -5  -2   5   21.07    0.71
  -5   2  -5   21.75    0.60
  -5   2  -5   21.16    0.62
  -5   2  -5   20.21    0.68
  -7   2   5   11.38    0.47
   0  -3   5  109.29    1.75
   0  -3  -5  104.37    1.95
   0  -3   5  105.34    1.86
   0  -3  -5  105.27    1.92
   0  -3   5  103.27    2.00
   0   3  -5  105.65    2.30
   0  -3  -5  107.44    1.81
   0  -3   5  102.41    2.13
   0   3  -5  108.82    1.87
   0   3  -5  107.68    2.08
   0   3   5  105.28    2.79
   0   3   5  103.24    1.72
   0   3  -5  106.06    1.74
   0   3   5  107.82    1.76
   0   3   5  105.49    1.83
   0   3   5  104.88    1.78
   0  -3   5  104.05    1.76
   0  -3  -5  107.56    2.57
   0   3   5  108.82    2.50
   0  -3   5  106.85    2.74
   0  -3  -5  108.16    1.85
   0  -3  -5  106.30    1.77
   0   3  -5  106.38    1.84
   0   3   5  109.37    1.91
   0   3  -5  107.30    2.00
   0   3  -5  106.15    1.79
   0   3   5  107.41    2.54
   0  -3   5  106.27    1.94
   0  -3   5  102.76    2.35
   0   3  -5  106.74    2.74
   0  -3   5  103.92    2.67
   0   3   5  105.61    2.47
   0   3   5  103.29    1.93
   0  -3  -5  105.45    2.82
   0  -3  -5  105.74    1.85
   2  -3   5   67.08    1.39
  -2   3   5   66.94    1.44
  -2   3   5   66.90    1.25
  -2  -3  -5   65.84    1.22
   2   3  -5   67.17    1.36
   2  -3   5   65.34    1.20
  -2  -3  -5   66.04    1.42
   2  -3   5   68.12    1.47
  -2  -3  -5   69.02    2.27
   2   3  -5   66.38    1.42
   2   3  -5   66.30    1.23
  -2   3   5   67.93    1.24
  -2  -3  -5   67.43    1.27
   2  -3   5   67.51    2.02
   2  -3   5   64.54    1.42
   2   3  -5   68.17    1.18
   2   3  -5   67.13    1.11
   2   3  -5   69.02    1.79
   2  -3   5   65.58    1.28
  -2  -3   5   65.98    1.35
  -2   3  -5   69.48    1.23
  -2  -3   5   67.26    1.72
   2   3   5   68.10    1.21
   2   3   5   67.75    1.31
  -2  -3   5   66.71    1.53
   2  -3  -5   66.15    1.44
  -2   3  -5   70.07    2.16
   2  -3  -5   56.85    1.23
   2  -3  -5   67.73    1.30
  -2   3  -5   67.37    1.35
  -2   3  -5   65.64    1.27
   2  -3  -5   67.47    1.48
   2   3   5   66.71    2.07
  -2  -3   5   67.25    1.25
   2   3   5   68.07    1.37
   2  -3  -5   66.86    1.24
   2   3   5   66.66    1.33
  -4   3   5   26.90    0.69
  -4  -3  -5   27.29    0.75
   4  -3   5   27.81    0.67
  -4   3   5   27.11    0.97
   4  -3   5   28.22    0.96
  -4   3   5   27.55    0.67
  -4  -3  -5   28.24    0.65
   4  -3   5   27.94    0.91
   4   3  -5   27.70    0.91
   4  -3   5   27.85    0.92
   4   3  -5   27.80    0.75
   4   3  -5   28.09    0.51
  -4  -3  -5   27.13    0.69
  -4  -3  -5   27.06    0.64
  -4   3   5   27.40    0.77
   4  -3   5   28.61    0.77
  -4  -3  -5   27.31    0.90
  -4  -3   5   28.62    0.63
   4  -3  -5   27.57    0.70
   4  -3  -5   27.92    0.81
  -4   3  -5   27.49    0.70
   4   3   5   28.12    0.67
  -4   3  -5   27.56    0.83
  -4  -3   5   28.08    0.72
   4  -3  -5   28.25    0.98
  -4  -3   5   26.45    0.95
  -4  -3   5   27.39    0.74
  -4   3  -5   26.86    0.76
  -4   3  -5   27.61    0.75
  -4   3  -5   27.37    0.66
   4  -3  -5   28.94    0.68
   4  -3  -5   27.80    0.92
  -4  -3   5   27.46    0.81
   4   3   5   27.12    0.80
  -6  -3  -5   12.38    0.50
  -6   3   5   12.38    0.45
   6  -3   5   12.32    0.44
  -6   3   5   13.14    0.51
  -6   3   5   10.38    0.51
  -6  -3   5   11.32    0.49
   6  -3  -5   12.02    0.57
  -6   3  -5   11.91    0.46
   6  -3  -5   12.08    0.46
  -6   3  -5   12.28    0.55
  -6   3  -5   11.50    0.48
   1   4  -5   29.33    0.61
   1  -4   5   29.22    0.74
   1  -4   5   30.54    0.88
   1  -4   5   30.89    1.35
   1   4  -5   30.00    0.85
  -1   4   5   30.23    0.66
   1  -4   5   29.69    1.15
  -1   4   5   29.69    0.71
   1   4  -5   29.33    0.66
  -1   4   5   30.16    0.78
  -1  -4  -5   29.87    0.82
  -1  -4  -5   28.92    0.66
   1   4  -5   30.03    0.71
  -1   4   5   30.65    0.65
  -1   4  -5   29.82    0.70
   1  -4  -5   30.28    0.70
   1   4   5   30.14    0.80
  -1   4  -5   30.33    1.11
  -1  -4   5   30.36    0.67
   1   4   5   30.08    0.60
   1  -4  -5   30.37    0.62
  -1  -4   5   30.19    0.77
   1  -4  -5   29.93    0.74
  -1   4  -5   30.56    0.76
  -1  -4   5   30.85    0.91
  -1   4  -5   31.38    1.40
   1  -4  -5   29.87    0.81
   1   4   5   30.17    0.75
  -3  -4  -5   24.86    0.58
   3  -4   5   23.84    0.85
  -3   4   5   24.34    0.59
   3  -4   5   23.31    0.83
   3  -4   5   23.69    0.70
   3  -4   5   24.91    0.62
   3   4  -5   23.16    0.73
  -3  -4  -5   23.28    0.57
  -3  -4  -5   24.35    0.67
   3   4  -5   23.02    0.81
  -3   4   5   23.39    0.66
   3   4  -5   23.65    0.50
   3  -4   5   23.25    0.79
  -3  -4  -5   23.09    0.81
  -3   4   5   23.81    0.83
  -3  -4  -5   23.57    0.63
  -3   4   5   24.46    0.58
   3  -4  -5   23.22    0.62
  -3  -4   5   23.91    0.74
  -3   4  -5   24.12    0.57
  -3   4  -5   24.47    0.74
  -3   4  -5   23.61    0.68
  -3  -4   5   23.37    0.65
  -3   4  -5   24.06    0.61
   3  -4  -5   24.27    0.60
   3   4   5   24.05    0.68
  -3   4  -5   23.79    0.63
  -3  -4   5   24.21    0.90
   3  -4  -5   25.35    0.87
  -3  -4   5   23.18    0.57
  -3  -4   5   24.40    0.64
   3  -4  -5   23.80    0.85
   3  -4  -5   24.26    0.71
   3   4   5   24.04    0.72
   5  -4   5   17.99    0.65
  -5  -4  -5   16.38    0.60
   5   4  -5   18.19    0.41
  -5   4   5   17.46    0.65
  -5   4   5   17.14    0.55
  -5  -4  -5   17.07    0.58
   5  -4   5   16.94    0.55
  -5   4   5   15.17    0.55
  -5  -4  -5   16.26    0.51
  -5  -4   5   16.73    0.65
  -5  -4   5   16.56    0.61
  -5  -4   5   17.06    0.61
  -5   4  -5   16.58    0.62
  -5   4  -5   17.07    0.63
  -5   4  -5   17.18    0.58
  -5  -4   5   17.20    0.50
   5  -4  -5   17.28    0.69
   5  -4  -5   16.51    0.57
  -5   4  -5   17.32    0.55
  -7   4   5    9.18    0.36
  -7   4   5    8.64    0.39
  -7   4  -5    8.92    0.37
  -7   4  -5    8.71    0.39
   0  -5   5   99.11    2.16
   0  -5  -5   98.80    1.76
   0  -5   5   98.57    1.94
   0   5  -5  101.46    2.14
   0   5  -5  102.18    1.93
   0   5   5   98.79    1.82
   0  -5   5  101.15    1.74
   0   5  -5  100.12    1.75
   0   5  -5   98.79    1.91
   0   5   5  101.35    2.07
   0  -5  -5  102.66    2.01
   0  -5  -5   99.76    1.79
   0   5   5   99.84    1.73
   0   5   5  100.75    1.73
   0   5   5   98.37    1.89
   0   5  -5  100.39    1.84
   0  -5  -5  101.09    2.00
  -2   5   5   80.88    1.73
   2  -5   5   78.67    1.65
  -2  -5  -5   79.52    1.53
   2   5  -5   77.32    1.42
  -2  -5  -5   80.35    1.43
  -2  -5  -5   79.32    1.49
   2   5  -5   77.83    1.78
  -2   5   5   78.39    1.58
  -2   5   5   81.61    1.51
  -2  -5  -5   79.70    1.82
  -2   5   5   77.67    1.46
   2   5  -5   78.40    1.50
   2  -5   5   75.95    1.85
   2   5  -5   78.99    1.58
  -2   5   5   80.70    1.53
  -2  -5   5   77.92    1.92
  -2  -5   5   79.74    1.70
   2   5   5   80.45    1.40
  -2  -5   5   79.73    1.55
  -2  -5   5   79.84    1.51
   2   5   5   78.72    1.71
   2  -5  -5   79.12    1.62
   2   5   5   78.83    1.57
  -2   5  -5   78.51    1.66
   2  -5  -5   80.38    1.49
  -2  -5   5   77.90    1.45
   2   5   5   78.97    1.66
   2   5   5   79.81    1.44
  -2   5  -5   78.84    1.41
   2  -5  -5   79.87    1.83
  -2   5  -5   79.44    1.59
   4  -5   5   44.15    1.03
  -4   5   5   46.09    1.01
   4  -5   5   44.94    1.18
  -4  -5  -5   45.51    0.99
  -4  -5  -5   44.18    1.08
  -4   5   5   44.23    1.02
   4   5  -5   46.00    0.90
  -4   5   5   44.08    1.10
  -4  -5  -5   44.76    1.11
  -4  -5   5   45.45    0.99
  -4   5  -5   44.52    1.14
  -4  -5   5   43.93    1.10
  -4   5  -5   44.84    0.99
  -4   5  -5   46.43    1.08
   4  -5  -5   44.50    1.19
  -4   5  -5   45.39    1.05
  -4  -5   5   44.37    1.20
   4  -5  -5   46.22    1.06
   4  -5  -5   44.76    1.00
  -4  -5   5   44.69    1.08
   4   5   5   45.28    0.88
  -6   5   5   21.02    0.63
  -6   5   5   21.48    0.65
  -6  -5  -5   20.67    0.59
  -6   5  -5   21.62    0.68
  -6   5  -5   21.80    0.63
  -6  -5   5   21.31    0.69
  -1  -6  -5   51.15    1.36
   1   6  -5   50.62    1.21
  -1  -6  -5   52.15    1.00
  -1   6   5   51.90    1.14
   1   6  -5   51.30    1.44
   1   6  -5   52.38    1.31
   1   6  -5   49.57    1.05
   1  -6   5   47.62    1.43
  -1  -6  -5   48.61    1.09
   1  -6   5   52.22    1.27
  -1   6   5   51.97    1.04
  -1   6   5   50.84    1.21
   1   6  -5   52.04    1.14
  -1  -6  -5   50.88    1.10
   1  -6  -5   51.38    1.10
  -1  -6   5   51.10    1.04
  -1  -6   5   51.38    1.09
  -1   6  -5   49.68    1.24
   1   6   5   51.87    1.24
   1  -6  -5   52.34    1.19
  -1  -6   5   52.77    1.29
   1   6   5   52.10    1.03
   1   6   5   51.48    1.16
  -1  -6   5   50.07    1.47
   1   6   5   50.62    1.02
   1   6   5   53.08    1.38
  -1   6  -5   50.88    1.17
   1  -6  -5   51.53    1.38
  -1  -6   5   50.20    1.09
   3   6  -5   43.01    0.99
   3  -6   5   42.75    0.98
  -3  -6  -5   41.88    1.04
   3  -6   5   41.26    1.14
  -3  -6  -5   42.02    1.00
  -3   6   5   41.48    0.96
  -3  -6  -5   40.95    0.92
   3   6  -5   40.40    0.89
   3   6   5   42.25    1.06
  -3   6  -5   41.20    1.08
  -3  -6   5   40.68    1.01
  -3   6  -5   40.63    0.90
   3  -6  -5   41.40    0.97
   3  -6  -5   41.08    1.13
   3   6   5   40.87    0.87
  -3  -6   5   39.66    1.03
  -3  -6   5   42.53    1.18
  -3  -6   5   41.53    0.95
  -5  -6  -5   25.92    0.79
   5   6  -5   26.37    0.63
   5  -6   5   25.84    0.86
  -5  -6  -5   26.08    0.71
  -5   6   5   26.35    0.74
   5   6   5   25.90    0.60
   5  -6  -5   24.15    0.86
  -5  -6   5   26.60    0.80
  -5   6  -5   25.19    0.81
  -5   6  -5   26.18    0.71
   5   6   5   26.08    0.78
  -5  -6   5   26.55    0.70
   0  -7   5   53.90    1.15
   0  -7  -5   53.67    1.20
   0   7  -5   53.42    1.26
   0  -7   5   54.37    1.39
   0   7   5   53.37    1.25
   0   7   5   54.82    1.12
  -2  -7  -5   47.33    1.13
  -2   7   5   46.27    1.04
   2   7  -5   44.88    1.03
  -2  -7  -5   46.05    1.11
  -2  -7  -5   48.14    1.02
   2  -7   5   45.12    1.26
   2   7  -5   47.03    1.12
   2   7   5   47.39    0.98
  -2   7  -5   44.78    1.17
   2  -7  -5   46.86    1.22
  -2  -7   5   47.41    1.11
  -2  -7   5   45.69    1.11
  -2  -7   5   47.66    1.05
  -2  -7   5   48.20    1.30
   2  -7  -5   45.80    1.08
   2   7   5   46.85    1.01
   2   7   5   47.72    1.18
  -4  -7  -5   29.71    0.78
   4   7  -5   29.36    0.74
  -4   7   5   30.27    0.80
   4  -7   5   29.06    0.97
  -4  -7  -5   28.88    0.83
  -4  -7  -5   31.23    0.89
   4   7   5   30.42    0.88
  -4  -7   5   29.01    0.86
   4   7   5   28.27    0.70
   4  -7  -5   30.34    0.78
  -4   7  -5   29.78    0.89
  -4  -7   5   30.04    0.79
  -4  -7   5   30.89    0.90
   4  -7  -5   30.29    0.97
  -4   7  -5   29.82    0.75
  -1  -8  -5   11.57    0.46
   1   8  -5   11.52    0.51
  -1  -8  -5   11.47    0.50
  -1   8   5   11.35    0.43
   1  -8   5   12.09    0.60
  -1   8   5   11.62    0.51
  -1  -8   5   11.12    0.48
   1   8   5   11.61    0.52
   1  -8  -5   11.73    0.49
  -1   8  -5   11.94    0.53
   1   8   5   11.96    0.41
  -1  -8   5   11.59    0.59
  -3  -8  -5    9.98    0.40
  -3  -8  -5    9.47    0.45
  -3   8   5    9.52    0.40
   3  -8  -5   10.03    0.42
  -3  -8   5    9.56    0.41
  -3  -8   5    9.97    0.46
   0  -9  -5   14.76    0.57
   0   9   5   15.31    0.48
   0  -9   5   15.08    0.53
  -2  -9  -5   12.98    0.52
   2   9  -5   13.08    0.44
  -2   9   5   13.44    0.46
   2  -9  -5   13.51    0.50
  -2  -9   5   12.52    0.50
   0   0   6  770.74   13.27
   0   0  -6  699.22   12.48
   0   0   6  691.96   11.85
   0   0  -6  687.95   13.01
   0   0  -6  710.04   11.66
   0   0  -6  717.49   14.74
   0   0   6  746.35   14.93
   0   0   6  760.32   12.19
   0   0   6  799.89   12.78
   0   0  -6  744.62   12.73
   0   0  -6  754.22   12.45
   0   0   6  774.06   13.80
   0   0  -6  749.74   13.14
   0   0   6  708.99   13.35
   2   0  -6  476.31    7.75
   2   0   6  471.93    7.78
  -2   0   6  475.44    7.66
   2   0  -6  479.32    7.94
  -2   0   6  465.18    8.61
  -2   0  -6  476.32    7.42
   2   0   6  457.84    7.59
  -2   0  -6  448.87    7.55
  -2   0  -6  468.91    7.26
   2   0   6  469.40    7.32
  -2   0   6  472.91    8.74
  -2   0   6  434.75    7.45
   2   0   6  473.54    7.42
   2   0  -6  466.81    7.46
  -2   0  -6  469.46    8.40
  -2   0   6  465.74    7.41
  -2   0  -6  443.06    7.39
   2   0  -6  464.82    7.38
   2   0  -6  469.76    8.57
   2   0   6  447.35    8.33
  -2   0   6  485.05    7.97
   2   0   6  469.61    8.12
   2   0   6  461.13    8.03
   2   0  -6  475.93    8.36
   2   0   6  480.05    7.47
  -2   0   6  437.97    7.29
   2   0  -6  484.15    7.61
  -2   0   6  469.93    7.38
   2   0  -6  455.77    7.41
  -2   0  -6  471.08    7.78
   4   0  -6  189.37    3.29
  -4   0  -6  181.63    3.27
   4   0  -6  187.47    3.05
  -4   0   6  181.35    3.10
   4   0  -6  182.58    3.48
   4   0   6  183.42    3.18
  -4   0   6  183.46    3.09
  -4   0   6  181.62    3.42
  -4   0  -6  185.00    3.18
   4   0  -6  184.87    2.96
  -4   0  -6  183.15    3.17
   4   0   6  185.46    2.93
   4   0   6  182.26    3.49
   4   0  -6  186.78    3.27
  -4   0   6  186.85    3.15
  -4   0  -6  184.78    3.05
  -4   0   6  184.33    3.25
  -4   0  -6  189.15    3.04
  -6   0   6   79.11    1.79
  -6   0  -6   78.84    1.73
  -6   0  -6   80.02    1.56
  -6   0  -6   79.12    1.59
  -6   0   6   77.31    1.58
  -6   0   6   78.60    1.63
   6   0  -6   81.92    1.48
  -6   0  -6   80.11    1.69
  -6   0   6   79.75    1.70
   6   0   6   80.41    1.43
   1   1  -6   50.64    1.02
  -1   1   6   49.29    0.96
  -1   1   6   47.71    1.04
   1   1  -6   49.50    1.04
   1  -1   6   50.34    1.02
  -1  -1  -6   48.80    1.40
  -1  -1  -6   50.87    1.55
  -1   1   6   51.29    0.99
  -1   1   6   49.42    1.30
   1   1  -6   48.46    1.65
   1   1  -6   49.06    1.33
   1  -1   6   49.31    1.58
  -1   1   6   50.82    0.81
  -1  -1  -6   50.38    0.90
   1  -1   6   50.92    0.96
  -1  -1  -6   49.36    1.13
   1   1  -6   50.14    0.85
   1   1  -6   50.53    1.48
  -1  -1  -6   52.07    1.00
  -1  -1  -6   51.74    0.88
  -1   1   6   48.81    1.24
   1  -1   6   49.98    1.03
   1   1  -6   51.15    0.84
  -1  -1  -6   50.38    1.30
   1  -1   6   49.86    1.28
   1  -1   6   48.84    1.30
  -1   1   6   51.30    1.26
  -1   1   6   47.68    0.91
   1  -1   6   49.54    0.87
  -1  -1  -6   50.23    0.94
   1   1  -6   51.35    1.57
  -1   1   6   51.35    1.63
  -1   1  -6   49.48    1.32
  -1   1  -6   51.54    1.60
  -1  -1   6   49.33    0.97
   1  -1  -6   51.03    0.89
  -1  -1   6   51.28    1.06
  -1   1  -6   48.49    0.94
  -1  -1   6   50.61    0.91
  -1  -1   6   52.63    0.95
  -1   1  -6   50.23    0.90
   1   1   6   51.44    0.93
   1  -1  -6   50.88    1.08
   1   1   6   50.79    1.07
  -1   1  -6   50.75    0.94
  -1   1  -6   49.52    0.94
  -1  -1   6   49.01    1.32
  -1   1  -6   49.95    0.93
  -1  -1   6   52.99    1.50
   1   1   6   50.42    1.15
   1   1   6   49.21    1.51
   1   1   6   50.78    1.29
   1  -1  -6   50.33    1.26
   1   1   6   51.88    1.43
   1   1   6   49.90    0.99
   1  -1  -6   51.70    1.01
   1  -1  -6   48.71    1.62
   1  -1  -6   49.81    1.28
  -1   1  -6   52.84    1.08
   1  -1  -6   49.88    0.90
  -1   1  -6   52.26    0.91
   1  -1  -6   51.75    1.22
  -3  -1  -6   17.72    0.54
   3  -1   6   18.43    0.41
   3  -1   6   18.75    0.46
  -3   1   6   18.22    0.64
   3  -1   6   17.90    0.56
  -3   1   6   18.15    0.50
  -3  -1  -6   18.83    0.50
   3   1  -6   18.52    0.56
  -3  -1  -6   19.50    0.51
   3   1  -6   18.91    0.60
  -3  -1  -6   19.09    0.79
  -3  -1  -6   18.56    0.43
  -3   1   6   18.07    0.54
  -3  -1  -6   18.77    0.56
   3  -1   6   18.37    0.65
   3   1  -6   18.85    0.35
   3  -1   6   18.39    0.54
   3  -1  -6   18.81    0.44
   3   1   6   18.67    0.51
  -3   1  -6   18.25    0.50
   3  -1  -6   18.73    0.55
   3   1   6   19.08    0.36
  -3  -1   6   18.54    0.47
   3  -1  -6   18.26    0.61
   3   1   6   18.92    0.79
  -3   1  -6   18.88    0.56
  -3  -1   6   18.41    0.58
   3   1   6   18.22    0.63
  -3  -1   6   19.20    0.49
  -3  -1   6   18.36    0.66
  -3  -1   6   17.76    0.54
   3  -1  -6   18.46    0.44
   3  -1  -6   18.60    0.86
   3  -1  -6   18.85    0.66
  -3   1  -6   18.70    0.51
  -5   1   6    5.61    0.36
  -5  -1  -6    5.59    0.32
  -5   1   6    5.03    0.29
  -5   1   6    5.58    0.33
   5   1  -6    5.76    0.21
  -5  -1  -6    5.27    0.27
   5  -1   6    5.54    0.45
  -5   1   6    5.12    0.42
   5   1  -6    5.58    0.32
   5   1  -6    5.38    0.44
  -5  -1  -6    4.97    0.31
   5  -1   6    5.68    0.35
  -5  -1  -6    5.75    0.36
   5  -1   6    4.98    0.23
  -5   1   6    5.37    0.30
  -5   1  -6    4.52    0.33
   5   1   6    4.93    0.42
   5  -1  -6    6.00    0.39
  -5   1  -6    4.97    0.32
  -5  -1   6    5.36    0.30
  -5  -1   6    5.40    0.35
  -5   1  -6    4.94    0.31
  -5   1  -6    5.23    0.28
  -5  -1   6    5.45    0.29
  -5   1  -6    4.82    0.26
   5   1   6    5.62    0.19
   5   1   6    5.48    0.28
   5  -1  -6    5.51    0.45
   5  -1  -6    5.67    0.26
  -5  -1   6    5.36    0.31
  -7   1   6    2.07    0.23
  -7  -1  -6    1.70    0.19
  -7   1  -6    1.64    0.20
  -7  -1   6    1.62    0.20
  -7   1  -6    2.33    0.24
   0  -2  -6  544.07   10.22
   0   2   6  550.49    8.98
   0  -2   6  565.40    8.66
   0   2   6  520.41    9.35
   0  -2   6  539.70    9.43
   0  -2   6  554.25    8.75
   0   2  -6  549.67    9.66
   0  -2  -6  583.26    9.14
   0  -2   6  582.02    9.31
   0  -2  -6  536.14    8.79
   0  -2  -6  571.68    8.79
   0   2   6  587.67    9.48
   0  -2  -6  575.18    9.38
   0   2   6  541.81   10.05
   0   2   6  579.65    9.08
   0   2  -6  529.70    9.12
   0   2  -6  560.57    9.23
   0  -2  -6  593.83    9.20
   0   2  -6  516.25    8.66
   0   2   6  588.70    9.13
   0  -2   6  538.72    9.67
   0   2  -6  541.68    8.86
   0   2   6  582.97    9.72
   0  -2   6  573.67    9.31
   0  -2   6  556.08    9.16
   0   2  -6  531.30    9.42
   0   2  -6  556.33    8.83
   0   2   6  588.72    9.40
   2  -2   6  382.18    5.91
   2   2  -6  371.06    6.09
   2  -2   6  376.61    5.85
   2  -2   6  382.60    6.12
  -2  -2  -6  394.70    6.10
   2  -2   6  365.67    6.10
   2  -2   6  373.59    7.05
   2   2  -6  382.02    7.05
  -2  -2  -6  398.43    6.97
   2   2  -6  368.27    6.03
   2  -2   6  367.39    6.73
  -2   2   6  388.33    5.81
   2   2  -6  373.42    6.65
   2   2  -6  374.06    5.92
  -2  -2  -6  377.61    5.99
  -2  -2  -6  374.99    5.92
  -2   2   6  372.99    6.14
  -2  -2  -6  364.63    6.05
  -2   2   6  378.21    5.92
   2  -2   6  374.77    6.04
  -2   2   6  374.13    5.94
  -2  -2  -6  373.64    5.87
   2   2  -6  381.66    5.91
  -2   2   6  380.44    6.81
   2  -2  -6  380.11    6.71
   2   2   6  380.82    6.12
   2   2   6  375.19    6.72
   2  -2  -6  367.53    5.88
  -2   2  -6  376.57    7.13
   2   2   6  368.31    5.98
   2  -2  -6  367.52    6.16
  -2  -2   6  372.87    6.61
   2   2   6  372.85    6.11
   2  -2  -6  368.65    5.83
   2  -2  -6  386.96    6.58
   2  -2  -6  365.06    6.11
  -2   2  -6  369.81    5.90
   2  -2  -6  371.11    5.98
  -2   2  -6  378.93    5.94
  -2  -2   6  383.83    5.92
  -2  -2   6  361.51    6.20
   2   2   6  376.25    5.90
  -2  -2   6  378.36    7.06
   2  -2  -6  385.26    6.58
  -2  -2   6  356.58    5.99
  -2   2  -6  372.56    6.00
  -2   2  -6  373.40    6.72
  -2  -2   6  375.87    5.91
  -4   2   6  165.06    2.91
   4   2  -6  163.70    2.91
  -4   2   6  167.79    2.74
   4  -2   6  169.52    3.04
   4  -2   6  159.64    3.05
  -4  -2  -6  169.75    2.77
   4   2  -6  160.65    3.08
  -4  -2  -6  161.65    2.89
   4  -2   6  166.79    2.84
   4  -2   6  161.84    3.22
  -4   2   6  160.88    2.96
   4   2  -6  169.60    2.58
  -4  -2  -6  161.58    2.98
  -4   2   6  160.84    2.79
  -4  -2  -6  165.15    2.75
  -4   2   6  160.20    3.20
  -4   2   6  163.11    2.80
   4  -2   6  162.22    2.73
  -4  -2  -6  165.39    3.03
  -4  -2  -6  165.28    2.72
   4  -2  -6  163.78    3.10
  -4   2  -6  161.51    3.00
  -4  -2   6  161.12    2.97
  -4   2  -6  161.97    2.76
  -4  -2   6  166.13    2.83
  -4  -2   6  163.88    2.84
   4   2   6  167.51    2.58
  -4  -2   6  165.19    2.76
  -4  -2   6  163.34    3.23
   4   2   6  162.36    2.80
   4   2   6  165.91    3.18
  -4   2  -6  162.76    2.89
  -4   2  -6  162.85    2.90
   4  -2  -6  162.82    3.23
  -4   2  -6  167.21    2.80
   4  -2  -6  161.46    2.77
  -6  -2  -6   74.91    1.61
   6   2  -6   75.36    1.32
  -6  -2  -6   76.19    1.50
  -6   2   6   73.85    1.58
   6  -2   6   71.33    1.43
  -6   2   6   71.73    1.66
   6  -2  -6   74.15    1.49
   6  -2  -6   73.27    1.72
  -6  -2   6   74.81    1.50
  -6   2  -6   74.77    1.67
  -6   2  -6   75.12    1.53
  -6  -2   6   75.63    1.56
  -6   2  -6   74.21    1.54
  -6  -2   6   74.81    1.70
  -6   2  -6   76.71    1.63
  -1   3   6   28.90    0.76
   1  -3   6   28.67    1.26
  -1   3   6   29.07    0.62
  -1  -3  -6   28.19    0.62
   1   3  -6   28.80    0.63
  -1   3   6   29.75    0.63
   1   3  -6   28.45    0.74
  -1  -3  -6   28.16    0.61
   1  -3   6   28.34    0.68
   1  -3   6   27.02    0.76
  -1   3   6   28.91    0.90
   1   3  -6   28.44    0.59
   1   3  -6   27.99    0.56
   1   3  -6   26.87    1.32
  -1   3   6   29.14    0.74
   1  -3   6   27.32    1.08
   1   3  -6   27.48    0.76
   1  -3   6   28.12    1.00
   1  -3   6   28.54    0.66
  -1  -3  -6   28.06    0.75
   1   3  -6   28.50    1.03
  -1  -3  -6   28.63    1.31
  -1   3   6   30.21    0.93
  -1   3   6   28.57    0.58
   1  -3  -6   28.80    0.61
  -1   3  -6   29.23    0.98
   1   3   6   28.32    0.73
   1  -3  -6   29.16    0.58
  -1  -3   6   26.92    1.03
  -1   3  -6   29.42    0.62
  -1   3  -6   28.49    0.57
   1  -3  -6   28.35    0.81
  -1   3  -6   28.73    0.69
   1   3   6   28.54    1.25
   1   3   6   28.12    0.72
   1   3   6   29.43    1.27
   1  -3  -6   29.47    0.87
   1   3   6   29.41    0.61
  -1  -3   6   27.89    0.69
   1   3   6   29.14    0.68
   1  -3  -6   28.67    0.63
   1  -3  -6   28.52    0.87
   1  -3  -6   29.10    0.73
  -1   3  -6   28.70    1.31
   1   3   6   29.31    1.28
  -1   3  -6   29.62    0.64
  -1  -3   6   28.75    0.62
  -1   3  -6   27.61    1.11
   1  -3  -6   28.68    0.70
  -1   3  -6   28.20    1.04
  -1   3  -6   28.76    0.81
  -1  -3   6   28.65    0.83
   3   3  -6   13.23    0.49
   3  -3   6   12.67    0.55
  -3  -3  -6   12.38    0.37
  -3  -3  -6   13.46    0.55
   3   3  -6   13.50    0.30
  -3   3   6   12.45    0.37
   3  -3   6   12.56    0.55
   3  -3   6   12.83    0.38
  -3  -3  -6   13.48    0.41
  -3  -3  -6   13.16    0.36
   3  -3   6   13.19    0.54
  -3   3   6   12.75    0.44
   3   3  -6   13.08    0.55
  -3   3   6   12.78    0.57
  -3  -3  -6   12.18    0.43
   3  -3   6   13.17    0.45
   3  -3  -6   13.11    0.58
  -3  -3   6   12.42    0.59
  -3  -3   6   12.14    0.48
   3   3   6   13.30    0.49
  -3   3  -6   12.24    0.39
  -3   3  -6   13.45    0.43
  -3  -3   6   12.37    0.42
   3   3   6   12.85    0.53
  -3  -3   6   12.98    0.42
   3   3   6   12.44    0.43
  -3   3  -6   12.55    0.45
  -3   3  -6   12.96    0.36
   3  -3  -6   12.66    0.57
  -3   3  -6   11.74    0.47
   3  -3  -6   13.15    0.47
   3  -3  -6   13.32    0.40
   3  -3  -6   12.55    0.40
  -5  -3  -6    4.45    0.24
  -5   3   6    4.02    0.30
   5   3  -6    4.43    0.17
   5  -3   6    4.26    0.25
  -5   3   6    3.80    0.26
  -5   3   6    4.15    0.25
  -5  -3  -6    4.82    0.31
  -5  -3  -6    3.82    0.24
  -5   3  -6    4.57    0.31
  -5  -3   6    4.44    0.31
   5  -3  -6    4.46    0.28
  -5  -3   6    4.19    0.29
  -5  -3   6    3.72    0.31
  -5   3  -6    4.08    0.28
  -5   3  -6    4.36    0.26
  -5   3  -6    4.36    0.31
   5  -3  -6    3.98    0.27
   5  -3  -6    4.70    0.35
  -7   3   6    1.69    0.22
  -7   3  -6    1.22    0.17
  -7   3  -6    1.49    0.21
   0  -4   6  286.71    4.97
   0   4  -6  287.40    4.58
   0   4  -6  293.35    4.75
   0  -4  -6  291.03    4.76
   0   4  -6  282.76    4.64
   0   4   6  296.80    4.58
   0   4   6  289.53    5.65
   0   4   6  287.93    4.70
   0   4  -6  281.01    4.71
   0  -4  -6  289.21    4.61
   0   4   6  292.31    4.77
   0   4   6  291.83    4.55
   0   4  -6  288.62    4.96
   0   4   6  300.23    5.71
   0   4   6  287.48    4.86
   0  -4  -6  283.68    4.82
   0   4   6  288.55    4.63
   0  -4   6  287.33    4.58
   0  -4   6  291.82    4.75
   2  -4   6  225.27    3.82
  -2   4   6  225.33    3.66
  -2  -4  -6  221.11    3.65
  -2   4   6  220.07    3.58
   2   4  -6  220.14    3.90
  -2  -4  -6  216.67    3.92
   2   4  -6  219.76    3.52
  -2  -4  -6  222.24    3.55
   2   4  -6  221.78    3.59
   2  -4   6  223.43    3.74
   2   4  -6  228.51    3.66
   2  -4   6  215.13    3.96
  -2   4   6  220.56    3.91
  -2  -4  -6  220.03    3.68
   2  -4   6  223.31    3.99
   2   4  -6  218.00    3.92
   2  -4   6  221.31    3.60
   2  -4  -6  222.53    3.64
  -2  -4   6  218.92    3.66
  -2  -4   6  221.80    3.56
  -2  -4   6  217.73    3.82
  -2  -4   6  213.86    4.07
   2  -4  -6  216.65    3.70
   2  -4  -6  230.94    4.03
   2   4   6  219.20    3.80
  -2  -4   6  229.17    3.64
  -2   4  -6  215.81    3.78
   2   4   6  214.54    3.76
   2  -4  -6  213.66    3.91
  -2   4  -6  222.36    3.70
   2  -4  -6  222.60    3.61
  -2   4  -6  224.66    3.59
  -4  -4  -6  118.05    2.16
  -4   4   6  121.12    2.69
   4  -4   6  120.07    2.22
  -4   4   6  125.03    2.22
  -4  -4  -6  124.08    2.34
  -4  -4  -6  123.04    2.27
   4  -4   6  122.08    2.60
  -4  -4  -6  123.93    2.17
   4   4  -6  127.08    2.43
   4  -4   6  122.67    2.64
  -4   4   6  123.91    2.35
   4   4  -6  121.78    2.60
  -4  -4  -6  127.49    2.64
   4  -4   6  126.57    2.66
   4  -4   6  125.15    2.37
  -4   4   6  122.92    2.20
   4   4  -6  123.64    2.05
  -4  -4   6  122.64    2.28
   4  -4  -6  126.98    2.65
  -4  -4   6  120.48    2.44
  -4   4  -6  124.44    2.18
  -4  -4   6  120.19    2.71
  -4  -4   6  123.81    2.15
   4   4   6  123.88    2.28
   4  -4  -6  117.00    2.65
  -4  -4   6  122.00    2.32
  -4   4  -6  123.53    2.25
   4  -4  -6  119.95    2.41
   4   4   6  125.12    2.43
  -4   4  -6  124.10    2.37
  -4   4  -6  121.52    2.46
  -4   4  -6  128.19    2.32
   4  -4  -6  120.85    2.26
   4  -4  -6  120.69    2.19
  -6   4   6   62.43    1.30
   6   4  -6   63.40    1.13
   6  -4   6   60.34    1.30
  -6  -4  -6   58.71    1.23
  -6   4   6   63.55    1.48
  -6   4   6   62.47    1.35
  -6  -4  -6   61.33    1.39
  -6   4  -6   58.54    1.29
   6  -4  -6   60.06    1.32
  -6   4  -6   60.99    1.43
  -6  -4   6   61.41    1.38
  -6   4  -6   58.43    1.34
  -1   5   6   12.76    0.38
   1  -5   6   13.38    0.50
   1   5  -6   12.20    0.52
   1   5  -6   12.49    0.42
  -1  -5  -6   11.99    0.41
   1   5  -6   12.44    0.46
  -1  -5  -6   12.69    0.41
   1  -5   6   11.69    0.58
   1   5  -6   12.55    0.59
  -1  -5  -6   12.45    0.55
  -1   5   6   12.85    0.46
  -1   5   6   13.33    0.42
   1   5  -6   11.95    0.37
  -1  -5  -6   12.52    0.35
  -1  -5   6   12.66    0.38
  -1   5  -6   12.98    0.49
  -1  -5   6   12.48    0.41
   1   5   6   12.89    0.55
  -1  -5   6   12.32    0.50
  -1  -5   6   12.27    0.61
  -1  -5   6   12.53    0.40
   1   5   6   13.04    0.36
   1  -5  -6   13.49    0.56
   1   5   6   11.71    0.47
   1  -5  -6   13.18    0.45
   1   5   6   12.74    0.38
   1  -5  -6   12.98    0.49
   1   5   6   12.58    0.44
  -1   5  -6   13.84    0.46
   1  -5  -6   13.06    0.37
   1  -5  -6   12.95    0.41
  -3  -5  -6    6.73    0.47
   3  -5   6    7.20    0.50
  -3   5   6    7.49    0.47
  -3  -5  -6    6.63    0.35
  -3  -5  -6    7.50    0.30
  -3  -5  -6    7.05    0.30
   3  -5   6    6.67    0.39
  -3   5   6    7.45    0.32
   3   5  -6    7.19    0.27
  -3  -5  -6    7.50    0.34
  -3  -5  -6    6.91    0.34
  -3   5   6    7.02    0.35
   3   5  -6    7.23    0.46
   3   5  -6    6.96    0.44
   3   5   6    7.19    0.26
   3  -5  -6    7.38    0.40
  -3   5  -6    6.49    0.32
  -3  -5   6    7.26    0.35
  -3  -5   6    7.13    0.30
   3   5   6    6.80    0.39
  -3  -5   6    7.55    0.43
  -3   5  -6    7.52    0.42
  -3  -5   6    6.99    0.52
   3  -5  -6    7.18    0.33
  -3   5  -6    7.40    0.29
  -3  -5   6    7.55    0.36
   3   5   6    6.44    0.38
  -3   5  -6    7.73    0.39
  -5   5   6    3.58    0.26
   5  -5   6    3.37    0.26
  -5   5   6    3.64    0.26
  -5   5   6    3.20    0.28
  -5  -5  -6    3.22    0.23
  -5  -5  -6    2.97    0.28
   5   5  -6    3.44    0.20
   5  -5   6    3.49    0.34
  -5   5  -6    2.93    0.30
  -5  -5   6    3.38    0.33
  -5  -5   6    2.59    0.28
   5  -5  -6    3.26    0.36
   5   5   6    3.28    0.17
  -5   5  -6    3.03    0.27
   5  -5  -6    3.29    0.27
  -5  -5   6    3.18    0.22
  -5   5  -6    3.70    0.28
  -5   5  -6    3.26    0.24
   0  -6   6  149.19    2.88
   0  -6  -6  153.32    2.65
   0  -6  -6  157.86    2.96
   0   6   6  152.51    2.82
   0   6   6  154.28    2.73
   0  -6  -6  156.20    2.69
   0   6   6  155.00    2.60
   0  -6   6  149.01    3.15
   0   6  -6  150.11    2.82
   0  -6   6  154.25    2.62
   0   6  -6  153.51    2.75
   2   6  -6  131.76    2.70
   2   6  -6  128.59    2.36
  -2  -6  -6  128.36    2.25
   2  -6   6  133.23    2.87
   2   6  -6  133.14    2.30
  -2  -6  -6  130.92    2.37
   2   6  -6  130.66    2.45
  -2   6   6  127.66    2.30
   2   6  -6  129.85    2.77
   2  -6   6  129.65    2.56
  -2  -6  -6  132.57    2.78
  -2  -6  -6  129.36    2.39
  -2  -6   6  129.37    2.60
   2   6   6  133.34    2.68
  -2   6  -6  124.29    2.55
   2  -6  -6  130.19    2.34
   2   6   6  131.44    2.25
  -2   6  -6  130.66    2.46
   2   6   6  129.47    2.26
  -2  -6   6  130.93    2.37
   2  -6  -6  129.85    2.49
   2  -6  -6  131.46    2.75
  -2  -6   6  127.42    2.29
   2   6   6  130.25    2.44
  -2  -6   6  129.37    2.40
  -2  -6   6  126.91    2.89
   4  -6   6   80.92    1.68
   4   6  -6   81.97    1.56
  -4  -6  -6   84.24    1.63
  -4   6   6   82.51    1.66
  -4   6   6   85.00    1.74
  -4  -6  -6   84.37    1.76
   4  -6   6   82.05    1.86
  -4  -6   6   80.97    1.88
   4   6   6   83.48    1.77
  -4  -6   6   85.15    1.79
   4  -6  -6   84.35    1.64
  -4   6  -6   81.98    1.80
  -4  -6   6   82.53    1.74
  -4  -6   6   81.25    1.62
   4   6   6   83.38    1.52
   4  -6  -6   83.70    1.87
  -4   6  -6   84.73    1.61
  -6  -6  -6   41.61    0.94
  -6   6   6   41.74    0.97
   6  -6   6   43.00    1.02
  -6   6  -6   45.20    0.97
  -6  -6   6   43.64    1.04
   1  -7   6    6.29    0.42
  -1  -7  -6    6.04    0.33
  -1  -7  -6    5.98    0.34
  -1   7   6    6.28    0.35
  -1   7   6    5.77    0.30
   1   7  -6    5.99    0.34
  -1  -7   6    5.51    0.32
   1   7   6    6.01    0.29
  -1   7  -6    6.45    0.37
  -1  -7   6    6.46    0.43
  -1  -7   6    6.12    0.31
   1   7   6    6.05    0.29
   1   7   6    6.13    0.36
   1  -7  -6    5.71    0.33
  -3   7   6    4.19    0.28
  -3  -7  -6    4.36    0.31
  -3  -7  -6    3.97    0.25
   3   7  -6    4.28    0.26
  -3  -7  -6    4.63    0.32
   3  -7   6    4.38    0.42
   3   7   6    3.97    0.30
   3  -7  -6    4.34    0.34
  -3  -7   6    3.76    0.38
  -3  -7   6    3.86    0.26
   3  -7  -6    4.55    0.30
  -3  -7   6    4.18    0.31
  -3  -7   6    4.16    0.31
  -3   7  -6    4.18    0.32
   3   7   6    3.66    0.23
  -5  -7  -6    1.95    0.20
   5  -7   6    2.63    0.26
  -5   7   6    2.28    0.21
  -5  -7   6    2.41    0.27
  -5  -7   6    2.36    0.21
  -5   7  -6    2.28    0.19
   0  -8   6   88.74    1.73
   0   8   6   85.91    1.84
   0   8  -6   90.29    1.65
   0  -8  -6   89.60    1.80
   0  -8   6   88.30    2.02
   0   8  -6   86.14    1.85
   0   8   6   89.41    1.69
   2   8  -6   78.97    1.66
  -2  -8  -6   76.82    1.65
   2   8  -6   79.08    1.59
  -2  -8  -6   78.94    1.52
  -2  -8  -6   78.90    1.66
   2  -8   6   79.42    1.85
  -2   8   6   78.86    1.57
  -2   8  -6   79.04    1.73
   2   8   6   77.71    1.72
  -2  -8   6   79.43    1.65
  -2  -8   6   78.09    1.83
  -2  -8   6   77.39    1.57
   2   8   6   76.88    1.53
   2  -8  -6   77.00    1.61
  -2  -8   6   77.50    1.64
  -4   8   6   50.63    1.13
  -4  -8  -6   51.70    1.12
  -4  -8   6   54.14    1.22
  -4  -8   6   52.20    1.14
  -1  -9  -6    3.74    0.30
   1   9  -6    3.48    0.25
  -1   9   6    3.61    0.24
   1  -9  -6    4.16    0.30
  -1  -9   6    3.80    0.28
  -3  -9  -6    3.03    0.21
   3   9  -6    2.77    0.21
  -3  -9  -6    2.97    0.27
  -3   9   6    2.78    0.21
   3  -9  -6    3.18    0.24
  -3  -9   6    2.54    0.26
  -1   0   7  134.89    2.87
  -1   0   7  138.93    3.13
   1   0   7  134.87    2.40
  -1   0   7  137.05    2.27
   1   0   7  137.94    2.68
   1   0  -7  129.31    2.18
   1   0  -7  138.82    2.43
   1   0  -7  137.54    2.86
  -1   0   7  133.15    2.73
  -1   0   7  133.51    2.34
   1   0   7  139.96    2.80
  -1   0  -7  132.77    2.36
   1   0  -7  137.38    3.11
   1   0  -7  134.21    2.20
   1   0  -7  136.94    2.36
   1   0   7  135.59    2.23
   1   0   7  135.67    2.33
  -1   0  -7  139.19    2.24
  -1   0   7  138.48    2.22
  -1   0  -7  136.85    2.29
   1   0  -7  128.85    2.45
  -1   0  -7  130.26    2.66
  -1   0  -7  137.61    2.78
  -1   0  -7  136.78    2.20
   1   0  -7  131.68    2.72
   1   0   7  139.04    2.17
  -1   0   7  129.26    2.47
  -1   0  -7  131.46    3.09
  -1   0   7  139.46    2.39
  -1   0  -7  135.68    2.36
   3   0  -7   55.30    1.05
  -3   0  -7   54.85    1.17
  -3   0   7   55.94    1.32
   3   0   7   55.20    0.96
   3   0   7   54.28    1.31
   3   0  -7   54.59    1.23
  -3   0   7   53.63    1.26
  -3   0   7   53.40    1.07
   3   0   7   55.23    1.15
  -3   0  -7   52.95    1.09
   3   0  -7   56.24    1.23
  -3   0   7   54.16    1.16
   3   0  -7   56.26    0.98
  -3   0  -7   53.58    1.10
   5   0  -7   19.33    0.50
  -5   0  -7   19.75    0.71
  -5   0  -7   20.53    0.66
  -5   0  -7   19.67    0.55
   5   0  -7   19.74    0.85
  -5   0   7   20.47    0.71
   5   0   7   19.18    0.85
   5   0   7   20.24    0.48
   5   0   7   18.81    0.62
  -5   0   7   18.71    0.58
  -5   0   7   18.40    0.80
  -5   0   7   19.43    0.60
   5   0  -7   19.71    0.68
  -5   0   7   20.37    0.64
  -5   0  -7   18.76    0.56
  -5   0  -7   19.30    0.64
  -7   0  -7    6.88    0.34
  -7   0   7    6.49    0.35
   0  -1  -7   20.24    0.88
   0   1  -7   19.92    0.78
   0   1   7   22.00    0.54
   0  -1   7   20.50    0.80
   0  -1  -7   22.01    0.81
   0  -1   7   20.29    0.52
   0   1  -7   20.90    0.97
   0   1   7   22.02    0.91
   0  -1  -7   19.18    0.67
   0   1  -7   21.91    0.61
   0  -1   7   20.05    0.55
   0   1  -7   19.29    0.77
   0  -1  -7   20.57    0.54
   0  -1  -7   20.50    0.58
   0   1   7   20.76    0.79
   0   1  -7   20.73    0.44
   0  -1  -7   20.76    0.42
   0   1  -7   20.76    0.84
   0   1  -7   20.28    0.52
   0  -1  -7   20.67    0.86
   0  -1   7   20.67    0.61
   0   1   7   19.89    0.46
   0   1   7   20.29    0.58
   0   1   7   21.34    0.69
   0  -1   7   20.96    0.59
   0  -1  -7   20.56    0.44
   0  -1   7   20.52    0.53
   0  -1   7   20.76    0.96
  -2   1   7   12.89    0.39
  -2  -1  -7   12.98    0.33
   2   1  -7   13.42    0.38
   2  -1   7   13.36    0.45
   2  -1   7   12.73    0.32
   2   1  -7   13.31    0.46
   2  -1   7   13.72    0.87
  -2  -1  -7   13.34    0.57
   2  -1   7   12.95    0.70
   2   1  -7   13.15    0.30
  -2   1   7   12.90    0.47
  -2   1   7   12.90    0.93
  -2   1   7   13.70    0.67
   2  -1   7   12.59    0.48
  -2   1   7   13.02    0.37
  -2  -1  -7   13.23    0.41
  -2   1   7   13.25    0.68
  -2  -1  -7   13.59    0.37
   2   1  -7   13.62    0.37
   2  -1   7   13.88    0.74
   2   1  -7   12.98    0.97
   2  -1   7   13.45    0.33
   2   1  -7   12.87    0.69
   2   1  -7   13.29    0.75
  -2  -1  -7   14.67    0.79
  -2   1   7   12.37    0.47
   2   1  -7   13.42    0.47
  -2  -1  -7   13.06    0.42
  -2  -1  -7   14.02    0.60
  -2   1   7   12.83    0.47
   2  -1   7   13.42    0.39
   2  -1   7   12.74    0.66
   2  -1  -7   13.39    0.34
  -2   1  -7   13.33    0.34
   2   1   7   13.24    0.42
   2   1   7   13.33    0.57
  -2  -1   7   12.72    0.73
   2   1   7   13.31    0.86
   2   1   7   12.79    0.38
  -2   1  -7   13.28    0.38
  -2  -1   7   13.06    0.34
   2   1   7   13.30    0.54
   2   1   7   12.75    0.48
  -2  -1   7   13.40    0.70
  -2   1  -7   12.70    0.66
   2  -1  -7   13.24    0.44
  -2   1  -7   13.14    0.37
   2  -1  -7   13.56    0.48
  -2   1  -7   13.18    0.84
  -2  -1   7   13.72    0.51
   2  -1  -7   13.33    0.35
  -2  -1   7   13.39    0.37
  -2   1  -7   13.67    0.42
  -2  -1   7   12.83    0.43
   2  -1  -7   12.68    0.62
   2  -1  -7   14.17    0.51
  -2  -1   7   13.24    0.41
   2  -1  -7   13.72    0.68
   4  -1   7    9.81    0.31
  -4  -1  -7    9.51    0.39
   4   1  -7    9.45    0.43
   4   1  -7    9.74    0.47
  -4   1   7    9.95    0.37
  -4   1   7    9.92    0.44
  -4  -1  -7    9.77    0.31
  -4   1   7   10.05    0.40
   4   1  -7    9.56    0.27
  -4   1   7   10.16    0.36
  -4  -1  -7    9.75    0.34
  -4  -1  -7   10.02    0.40
  -4  -1  -7    9.67    0.44
   4  -1   7    9.99    0.54
   4   1  -7   10.49    0.37
   4  -1   7    9.47    0.44
  -4   1   7    9.94    0.53
  -4   1  -7    9.96    0.40
  -4  -1   7   10.19    0.37
   4  -1  -7    9.94    0.54
   4   1   7    9.54    0.26
  -4  -1   7    9.69    0.48
  -4  -1   7    9.41    0.43
   4   1   7   10.50    0.54
  -4   1  -7    9.97    0.35
   4  -1  -7    9.84    0.33
  -4   1  -7   10.23    0.34
   4   1   7   10.34    0.39
  -4  -1   7   10.43    0.55
  -4   1  -7    9.95    0.44
   4  -1  -7    9.86    0.48
  -4  -1   7    9.34    0.35
  -4   1  -7    9.45    0.40
  -4  -1   7   10.03    0.38
  -6   1   7    6.29    0.42
  -6   1   7    6.87    0.40
  -6  -1  -7    6.46    0.33
  -6   1   7    7.19    0.36
   6   1  -7    6.98    0.28
  -6   1   7    6.60    0.36
   6  -1   7    6.52    0.29
  -6  -1  -7    6.60    0.38
  -6  -1   7    6.62    0.35
  -6  -1   7    7.40    0.44
   6  -1  -7    6.44    0.31
  -6   1  -7    6.68    0.34
  -6  -1   7    7.09    0.38
  -6   1  -7    6.41    0.40
  -6   1  -7    7.17    0.39
  -6   1  -7    7.10    0.35
   1   2  -7   34.33    1.35
   1   2  -7   31.36    1.30
  -1   2   7   32.23    1.17
  -1   2   7   33.00    0.83
   1  -2   7   31.83    1.01
   1  -2   7   32.82    0.68
  -1  -2  -7   32.74    1.24
   1   2  -7   32.21    1.11
   1   2  -7   32.37    0.83
   1  -2   7   32.08    0.78
   1   2  -7   33.11    0.79
  -1  -2  -7   32.42    1.21
   1   2  -7   31.64    1.36
  -1   2   7   32.72    0.62
   1  -2   7   31.84    1.01
   1  -2   7   31.72    0.80
   1   2  -7   33.21    0.64
  -1   2   7   32.28    0.68
  -1  -2  -7   32.78    1.32
  -1   2   7   32.25    1.00
   1   2  -7   33.13    0.62
  -1  -2  -7   31.71    0.70
   1  -2   7   32.93    1.12
  -1   2   7   33.56    0.99
   1  -2   7   33.57    1.38
   1  -2   7   31.54    0.78
  -1  -2  -7   32.38    0.66
  -1  -2  -7   32.63    0.66
  -1   2   7   32.18    0.66
  -1   2   7   32.25    0.76
  -1  -2  -7   32.78    0.77
  -1  -2  -7   32.29    0.79
  -1   2   7   34.74    1.46
  -1   2  -7   32.22    1.35
  -1   2  -7   33.89    0.86
   1   2   7   36.51    0.79
  -1  -2   7   32.37    1.14
   1  -2  -7   33.36    0.99
   1  -2  -7   32.69    0.86
   1   2   7   32.03    0.78
   1  -2  -7   33.02    0.67
   1  -2  -7   33.21    0.65
  -1  -2   7   32.15    0.73
  -1  -2   7   32.96    0.67
   1  -2  -7   32.51    0.76
  -1   2  -7   33.03    0.67
  -1   2  -7   33.43    1.13
   1   2   7   33.20    1.31
  -1  -2   7   32.17    1.31
   1  -2  -7   33.03    1.42
   1   2   7   33.77    0.85
  -1   2  -7   33.43    0.72
   1  -2  -7   33.40    0.97
   1   2   7   32.76    0.69
  -1   2  -7   33.42    0.69
   1   2   7   32.90    1.20
   1  -2  -7   32.36    1.15
   1   2   7   33.06    1.25
   1  -2  -7   33.38    0.78
  -1  -2   7   31.30    0.69
  -1   2  -7   31.20    0.64
  -1  -2   7   32.53    0.84
  -1   2  -7   32.30    0.97
  -1   2  -7   31.70    0.93
   3  -2   7   12.42    0.35
   3  -2   7   12.30    0.47
   3  -2   7   12.46    0.39
  -3  -2  -7   12.84    0.49
  -3  -2  -7   12.77    0.42
   3  -2   7   12.98    0.52
  -3  -2  -7   12.57    0.37
  -3   2   7   12.50    0.55
  -3   2   7   13.20    0.43
  -3  -2  -7   12.38    0.46
  -3   2   7   12.81    0.45
   3   2  -7   13.13    0.53
   3   2  -7   12.66    0.29
   3  -2   7   12.12    0.54
   3   2  -7   12.62    0.48
  -3   2  -7   12.66    0.47
  -3  -2   7   11.85    0.56
   3  -2  -7   13.14    0.45
  -3  -2   7   12.43    0.47
   3   2   7   12.50    0.43
   3   2   7   12.18    0.53
   3  -2  -7   13.05    0.55
  -3   2  -7   12.30    0.41
  -3   2  -7   12.47    0.43
   3  -2  -7   12.77    0.39
   3   2   7   12.13    0.41
   3  -2  -7   12.58    0.55
  -3  -2   7   13.01    0.42
   5   2  -7    3.79    0.18
   5  -2   7    4.23    0.24
  -5  -2  -7    3.93    0.22
  -5   2   7    4.36    0.31
   5   2  -7    4.37    0.28
  -5   2   7    4.04    0.27
  -5  -2  -7    3.83    0.24
  -5  -2  -7    3.93    0.29
  -5   2   7    4.40    0.29
  -5   2  -7    3.60    0.29
  -5  -2   7    3.92    0.25
   5  -2  -7    4.19    0.26
  -5   2  -7    3.76    0.28
  -5  -2   7    4.27    0.33
   5   2   7    4.18    0.29
  -5  -2   7    4.00    0.30
  -5   2  -7    3.75    0.24
  -5   2  -7    4.14    0.27
  -7  -2  -7    1.58    0.19
  -7   2   7    1.45    0.21
  -7   2  -7    1.40    0.19
  -7   2  -7    1.42    0.20
   0  -3   7    0.69    0.25
   0   3  -7    0.57    0.09
   0  -3  -7    0.85    0.11
   0   3   7    0.57    0.09
   0  -3   7    0.46    0.10
   0  -3   7    0.56    0.11
   0   3  -7    0.67    0.23
   0   3   7    0.46    0.19
   0   3   7    0.53    0.24
   0   3  -7    0.52    0.13
   0  -3  -7    0.53    0.08
   0   3   7    0.42    0.06
   0   3  -7    0.58    0.09
   0   3   7    0.69    0.21
   0   3  -7    0.53    0.09
   0  -3   7    0.57    0.14
   0   3  -7    0.57    0.13
   0  -3   7    0.63    0.15
   0   3   7    0.54    0.12
   0   3  -7    0.46    0.17
   0   3   7    0.70    0.13
   0  -3  -7    0.58    0.12
   0   3  -7    0.73    0.12
   0   3   7    0.62    0.09
   0  -3   7    0.57    0.21
   0  -3   7    0.90    0.10
  -2   3   7    0.24    0.10
   2   3  -7    0.62    0.09
   2  -3   7    0.38    0.09
  -2  -3  -7    0.28    0.09
   2  -3   7    0.13    0.06
   2  -3   7    0.35    0.12
   2  -3   7    0.30    0.11
  -2  -3  -7    0.21    0.07
  -2  -3  -7    0.15    0.09
   2   3  -7    0.18    0.10
  -2   3   7    0.21    0.07
   2  -3   7    0.12    0.10
   2   3  -7    0.27    0.06
  -2  -3   7    0.24    0.07
   2  -3  -7    0.14    0.05
   2   3   7    0.18    0.08
   2  -3  -7    0.27    0.13
  -2   3  -7    0.55    0.11
   2  -3  -7    0.08    0.07
   2   3   7    0.22    0.08
   2  -3  -7    0.27    0.08
   2   3   7    0.04    0.06
  -2  -3   7    0.16    0.09
   2   3   7    0.42    0.21
  -2  -3   7    0.04    0.09
  -2   3  -7    0.21    0.07
  -2   3  -7    0.54    0.11
   2  -3  -7    0.25    0.10
   2  -3  -7    0.29    0.08
   2   3   7    0.15    0.12
  -4   3   7    0.42    0.16
  -4  -3  -7    0.07    0.07
   4  -3   7    0.23    0.09
  -4  -3  -7    0.01    0.10
  -4   3   7    0.08    0.07
  -4   3   7    0.16    0.09
   4  -3   7    0.06    0.11
   4   3  -7    0.19    0.13
   4  -3   7    0.19    0.11
  -4   3   7    0.35    0.12
   4   3  -7    0.23    0.06
  -4  -3  -7    0.10    0.08
  -4  -3  -7    0.12    0.08
  -4  -3  -7    0.15    0.07
   4  -3   7    0.28    0.14
   4  -3   7    0.25    0.14
   4   3  -7    0.10    0.12
   4  -3  -7    0.30    0.11
   4   3   7    0.10    0.08
   4  -3  -7    0.04    0.09
  -4   3  -7    0.23    0.09
  -4   3  -7    0.03    0.08
  -4  -3   7    0.10    0.10
  -4  -3   7    0.12    0.11
   4  -3  -7    0.22    0.14
  -4   3  -7    0.03    0.09
   4  -3  -7    0.39    0.17
  -4   3  -7    0.11    0.09
  -4  -3   7    0.09    0.14
   4   3   7    0.20    0.10
  -4   3  -7    0.15    0.10
  -4  -3   7   -0.06    0.08
   4  -3  -7    0.27    0.14
  -6   3   7    0.39    0.14
  -6  -3  -7    0.62    0.15
  -6  -3  -7    0.62    0.12
  -6  -3  -7    0.31    0.13
  -6   3   7    0.26    0.14
   6   3  -7    0.55    0.11
   6  -3   7    0.43    0.12
  -6   3  -7    0.31    0.14
   6  -3  -7    0.48    0.17
  -6   3  -7    0.29    0.13
  -6   3  -7    0.29    0.13
   6  -3  -7    0.53    0.14
  -6  -3   7    0.28    0.15
  -6  -3   7    0.74    0.18
  -6   3  -7    0.38    0.13
   1  -4   7   14.91    0.50
  -1   4   7   15.24    0.43
   1   4  -7   16.20    0.62
   1  -4   7   15.80    0.62
   1   4  -7   16.07    0.47
  -1  -4  -7   15.35    0.57
   1   4  -7   16.34    0.41
  -1   4   7   15.79    0.57
  -1  -4  -7   15.60    0.44
   1   4  -7   15.96    0.56
  -1   4   7   16.35    0.47
  -1  -4  -7   16.38    0.46
   1   4  -7   15.78    0.43
  -1   4   7   15.87    0.43
   1   4   7   15.69    0.56
  -1   4  -7   15.02    0.50
   1   4   7   16.01    0.53
   1   4   7   15.76    0.39
  -1  -4   7   15.97    0.54
   1  -4  -7   15.52    0.53
  -1   4  -7   15.41    0.46
   1  -4  -7   15.98    0.55
  -1  -4   7   16.48    0.66
  -1  -4   7   14.96    0.44
   1  -4  -7   15.89    0.46
   1  -4  -7   16.04    0.41
   1   4   7   15.47    0.50
  -3  -4  -7    7.00    0.44
   3  -4   7    8.02    0.48
  -3  -4  -7    8.08    0.31
  -3  -4  -7    7.81    0.36
   3   4  -7    7.43    0.45
  -3   4   7    7.73    0.31
   3   4  -7    7.50    0.26
   3  -4   7    7.40    0.37
   3  -4   7    7.26    0.31
   3  -4   7    7.81    0.47
  -3  -4  -7    8.12    0.30
  -3   4   7    7.79    0.30
   3   4  -7    7.60    0.43
  -3   4   7    7.20    0.46
  -3  -4  -7    7.62    0.33
   3  -4   7    8.34    0.46
  -3   4   7    7.67    0.36
   3   4   7    7.34    0.37
  -3   4  -7    8.06    0.37
  -3  -4   7    8.39    0.43
   3  -4  -7    8.43    0.51
  -3  -4   7    7.53    0.29
   3  -4  -7    7.59    0.34
   3  -4  -7    7.74    0.47
  -3   4  -7    7.74    0.40
  -3   4  -7    7.72    0.29
  -3  -4   7    7.65    0.36
  -3   4  -7    7.76    0.34
  -3  -4   7    7.76    0.34
   3  -4  -7    8.08    0.33
  -3  -4   7    8.40    0.53
   3  -4  -7    8.28    0.40
   3   4   7    7.12    0.38
  -3   4  -7    7.70    0.33
  -5   4   7    3.05    0.32
  -5  -4  -7    3.03    0.22
  -5   4   7    3.07    0.25
   5   4  -7    3.06    0.18
  -5  -4  -7    3.07    0.28
  -5  -4  -7    3.00    0.27
  -5   4   7    3.02    0.23
  -5  -4  -7    3.60    0.26
   5  -4   7    3.61    0.26
  -5  -4   7    2.83    0.33
   5  -4  -7    3.26    0.26
  -5   4  -7    3.16    0.23
  -5  -4   7    3.18    0.30
  -5  -4   7    3.13    0.31
   5  -4  -7    3.09    0.29
  -5   4  -7    2.85    0.30
  -5   4  -7    3.14    0.26
   5  -4  -7    3.58    0.37
  -5   4  -7    3.16    0.27
   0   5  -7    8.35    0.37
   0  -5   7    7.70    0.48
   0  -5   7    7.48    0.38
   0  -5  -7    8.11    0.31
   0   5   7    7.94    0.36
   0   5   7    8.18    0.33
   0   5   7    8.15    0.28
   0   5  -7    8.24    0.38
   0  -5  -7    8.18    0.42
   0   5   7    7.71    0.29
   0   5  -7    8.16    0.30
   0   5  -7    7.89    0.33
   0  -5  -7    8.14    0.32
  -2  -5  -7    7.99    0.29
  -2  -5  -7    7.90    0.33
   2   5  -7    7.49    0.35
   2   5  -7    7.98    0.32
   2   5  -7    7.66    0.47
   2   5  -7    7.65    0.30
   2  -5   7    8.05    0.50
  -2   5   7    7.86    0.44
  -2  -5  -7    7.73    0.34
   2  -5   7    7.76    0.41
  -2   5   7    7.59    0.31
  -2  -5  -7    7.46    0.46
  -2   5   7    7.88    0.34
   2  -5   7    7.69    0.33
   2   5  -7    7.92    0.46
  -2  -5   7    8.20    0.36
   2   5   7    7.48    0.39
   2   5   7    7.54    0.42
   2  -5  -7    7.89    0.34
  -2  -5   7    7.84    0.30
  -2   5  -7    7.22    0.36
   2  -5  -7    7.62    0.46
  -2  -5   7    8.62    0.45
  -2  -5   7    8.15    0.54
   2  -5  -7    7.70    0.37
  -2   5  -7    7.71    0.40
   2   5   7    8.00    0.28
  -2  -5   7    8.22    0.35
  -4  -5  -7    6.59    0.36
  -4   5   7    6.71    0.38
  -4   5   7    6.60    0.33
   4  -5   7    6.86    0.34
   4  -5   7    6.84    0.41
  -4  -5  -7    7.06    0.32
  -4  -5  -7    6.18    0.37
  -4  -5  -7    6.04    0.30
   4   5  -7    6.91    0.28
  -4  -5   7    6.14    0.36
  -4   5  -7    6.25    0.38
  -4   5  -7    6.67    0.36
   4  -5  -7    7.14    0.43
  -4   5  -7    6.72    0.31
   4   5   7    6.50    0.26
  -4  -5   7    6.28    0.37
  -4  -5   7    6.53    0.31
  -4  -5   7    7.13    0.45
   4  -5  -7    6.77    0.36
   4  -5  -7    6.43    0.33
   6  -5   7    4.00    0.30
  -6   5   7    3.93    0.26
  -6   5   7    3.76    0.27
  -6  -5  -7    3.81    0.24
  -6   5  -7    4.05    0.26
  -6  -5   7    4.09    0.31
  -1   6   7   28.74    0.71
   1   6  -7   28.67    0.71
  -1   6   7   29.39    0.77
  -1  -6  -7   29.89    0.75
  -1   6   7   29.80    0.83
  -1  -6  -7   28.93    0.98
   1   6  -7   29.10    0.83
   1   6  -7   30.91    0.94
   1  -6   7   29.64    0.90
   1   6  -7   29.24    1.06
  -1  -6  -7   29.96    0.66
   1  -6   7   28.13    1.05
  -1  -6  -7   29.35    0.76
   1   6  -7   28.87    0.77
  -1   6  -7   27.99    0.80
   1   6   7   29.81    0.69
   1   6   7   29.92    0.71
   1   6   7   28.61    0.86
  -1  -6   7   29.53    0.72
  -1   6  -7   28.99    0.88
  -1  -6   7   29.54    1.09
   1  -6  -7   29.03    0.75
  -1   6  -7   29.08    0.67
   1   6   7   29.43    0.80
  -1  -6   7   28.75    0.90
  -1  -6   7   28.39    0.74
   1   6   7   28.69    0.98
  -1  -6   7   30.02    0.74
   3  -6   7   20.45    0.63
   3   6  -7   19.51    0.56
  -3  -6  -7   19.23    0.56
   3  -6   7   19.73    0.75
  -3  -6  -7   20.03    0.66
  -3   6   7   18.96    0.59
  -3  -6  -7   19.33    0.62
  -3   6  -7   19.80    0.54
  -3  -6   7   20.33    0.65
  -3  -6   7   20.32    0.78
  -3   6  -7   18.82    0.68
   3   6   7   20.47    0.57
   3  -6  -7   20.26    0.62
   3  -6  -7   20.21    0.72
  -3  -6   7   19.60    0.67
   3   6   7   19.27    0.53
  -3  -6   7   19.55    0.58
   3   6   7   20.50    0.69
  -5  -6  -7   10.37    0.41
   5  -6   7   10.22    0.45
  -5   6   7   10.13    0.43
  -5  -6   7   10.11    0.40
  -5   6  -7   10.20    0.40
  -5  -6   7   10.71    0.49
   0  -7   7    5.81    0.31
   0  -7   7    6.37    0.43
   0  -7  -7    5.52    0.29
   0   7   7    5.89    0.34
   0  -7  -7    5.79    0.33
   0   7  -7    5.44    0.34
   0   7   7    5.75    0.29
   0   7  -7    5.58    0.29
  -2  -7  -7    5.45    0.33
  -2  -7  -7    5.83    0.34
   2   7  -7    5.36    0.32
   2   7  -7    5.57    0.30
  -2   7   7    5.10    0.30
  -2  -7  -7    5.70    0.28
   2  -7   7    4.92    0.39
  -2  -7   7    5.40    0.30
  -2  -7   7    5.19    0.33
   2  -7  -7    5.14    0.32
   2   7   7    5.21    0.34
   2   7   7    5.14    0.27
  -2   7  -7    5.16    0.35
   2   7   7    5.28    0.29
  -2  -7   7    5.65    0.34
  -2  -7   7    4.56    0.38
   4  -7   7    3.85    0.28
  -4  -7  -7    3.94    0.26
  -4  -7  -7    3.87    0.29
  -4   7   7    4.16    0.28
   4  -7  -7    3.81    0.27
  -4  -7   7    3.18    0.31
  -4   7  -7    4.26    0.25
  -4  -7   7    3.63    0.26
  -1  -8  -7    4.93    0.34
   1   8  -7    5.28    0.34
  -1   8   7    4.77    0.29
  -1  -8  -7    5.29    0.32
   1  -8   7    5.66    0.43
   1   8  -7    4.94    0.29
   1   8   7    5.18    0.29
  -1   8  -7    4.87    0.34
  -1  -8   7    5.52    0.42
   1  -8  -7    4.89    0.33
   1   8   7    5.22    0.34
  -1  -8   7    4.11    0.31
  -3  -8  -7    3.45    0.28
  -3  -8  -7    3.71    0.24
  -3  -8   7    3.58    0.30
  -3  -8   7    3.44    0.26
   3  -8  -7    3.68    0.27
   0   9   7    0.12    0.09
   0  -9  -7   -0.09    0.11
  -2  -9  -7    0.19    0.13
   2   9  -7   -0.06    0.09
  -2   9   7    0.07    0.09
  -2  -9   7   -0.01    0.12
   2  -9  -7    0.04    0.12
   0   0   8   63.67    1.13
   0   0  -8   60.48    1.62
   0   0  -8   60.49    1.06
   0   0  -8   61.29    1.20
   0   0  -8   61.43    1.44
   0   0   8   60.33    1.81
   0   0  -8   61.39    1.04
   0   0   8   60.96    1.20
   0   0  -8   60.56    1.79
   0   0   8   58.61    1.46
   0   0  -8   58.80    1.27
   0   0  -8   59.53    1.52
   0   0   8   60.31    1.26
   0   0   8   61.54    1.62
   0   0   8   58.07    1.52
   0   0   8   60.17    1.10
  -2   0  -8   35.74    0.74
   2   0  -8   35.28    0.72
  -2   0   8   36.05    0.74
   2   0   8   36.03    1.14
   2   0   8   34.39    1.26
   2   0   8   33.74    0.82
  -2   0   8   36.13    1.00
  -2   0  -8   35.68    0.80
  -2   0  -8   34.44    1.13
   2   0   8   35.39    1.49
   2   0  -8   35.11    0.87
  -2   0   8   35.94    0.79
   2   0  -8   35.38    0.97
  -2   0   8   35.83    0.92
   2   0  -8   37.07    1.22
  -2   0   8   34.43    1.15
  -2   0   8   35.43    0.89
   2   0  -8   34.98    0.69
   2   0   8   34.02    0.92
  -2   0  -8   35.26    0.78
  -2   0  -8   35.41    0.67
   2   0  -8   35.19    0.91
   4   0  -8   11.44    0.52
  -4   0   8   11.28    0.42
   4   0   8   12.30    0.33
  -4   0   8   12.30    0.43
  -4   0   8   11.90    0.41
   4   0  -8   12.12    0.40
   4   0   8   11.84    0.60
  -4   0  -8   11.60    0.45
  -4   0   8   11.87    0.57
   4   0  -8   11.92    0.53
  -4   0  -8   11.61    0.49
   4   0   8   11.98    0.47
  -4   0   8   11.53    0.49
   4   0  -8   12.20    0.36
  -4   0  -8   11.92    0.35
  -4   0  -8   11.75    0.37
  -4   0  -8   12.59    0.46
  -4   0  -8   11.10    0.37
  -6   0   8    4.07    0.39
  -6   0   8    3.68    0.29
  -6   0   8    3.79    0.28
  -6   0  -8    3.44    0.30
   6   0   8    3.60    0.20
  -6   0   8    3.73    0.29
  -6   0  -8    3.38    0.28
  -6   0  -8    3.26    0.25
   6   0  -8    3.41    0.22
  -1  -1  -8  561.18    8.57
  -1   1   8  546.47    8.65
   1   1  -8  519.89    9.75
  -1   1   8  540.57    8.99
   1   1  -8  534.58    8.93
   1   1  -8  545.78    8.57
  -1   1   8  551.74    8.51
   1  -1   8  535.46    8.57
  -1   1   8  545.76    9.12
   1  -1   8  558.01    9.36
   1  -1   8  555.83    9.05
   1  -1   8  561.66    8.74
   1   1  -8  566.71    9.55
   1   1  -8  561.63    9.19
   1   1  -8  530.17    8.68
  -1   1   8  542.18    8.79
  -1  -1  -8  513.12    8.38
  -1  -1  -8  547.73    8.49
   1  -1   8  560.26    9.14
  -1   1   8  556.02    8.42
  -1  -1  -8  548.78    9.05
   1   1  -8  525.15    8.67
  -1   1   8  541.55    9.67
  -1  -1  -8  530.60    8.63
  -1   1   8  544.80    8.63
   1  -1   8  550.98    8.65
  -1   1   8  546.27    8.60
  -1  -1  -8  556.57    8.88
  -1   1   8  561.18    9.10
   1  -1   8  534.36    8.99
  -1  -1  -8  564.38    9.29
   1  -1   8  512.12    9.64
  -1  -1  -8  520.75    9.56
   1   1  -8  530.05    8.59
   1   1  -8  525.31    9.53
   1   1   8  537.79    8.62
  -1  -1   8  523.79    8.45
  -1   1  -8  532.57    9.04
  -1   1  -8  540.84    8.76
  -1   1  -8  543.96    8.67
  -1  -1   8  555.06    9.52
   1   1   8  519.62    9.53
   1  -1  -8  521.32    8.67
   1  -1  -8  556.28    9.05
   1  -1  -8  515.84    8.77
   1  -1  -8  549.87    9.08
   1  -1  -8  544.69    8.75
   1  -1  -8  542.51    9.73
  -1   1  -8  531.58    9.00
   1   1   8  547.63    9.03
   1   1   8  543.03    9.38
  -1  -1   8  561.49    8.72
   1   1   8  557.14    9.26
   1   1   8  550.65    8.86
  -1  -1   8  552.84    9.18
  -1   1  -8  524.85    9.67
  -1  -1   8  546.53    9.19
  -1   1  -8  552.30    8.97
   1  -1  -8  570.35    9.80
   1   1   8  534.41    9.15
  -1   1  -8  551.50    8.95
  -1   1  -8  536.41    9.14
   1  -1  -8  543.42    9.26
  -1  -1   8  524.97    8.61
  -3  -1  -8  262.00    4.47
  -3  -1  -8  264.03    4.38
   3  -1   8  273.61    4.54
  -3   1   8  267.39    4.66
  -3  -1  -8  267.23    4.45
   3   1  -8  267.67    4.32
   3   1  -8  270.05    4.20
   3   1  -8  269.27    4.58
  -3  -1  -8  269.27    4.25
   3  -1   8  265.54    4.68
  -3   1   8  270.72    4.38
   3  -1   8  268.10    4.24
  -3   1   8  260.47    4.43
   3   1  -8  261.10    4.56
  -3  -1   8  262.46    4.46
  -3   1  -8  275.58    4.50
   3   1   8  263.29    4.44
  -3  -1   8  274.16    4.32
  -3  -1   8  272.53    4.55
  -3   1  -8  269.50    4.38
  -3   1  -8  269.44    4.39
   3  -1  -8  271.74    4.65
   3  -1  -8  264.58    4.28
   3  -1  -8  270.76    4.28
   3  -1  -8  274.33    4.50
   3  -1  -8  264.09    4.66
   3   1   8  267.83    4.69
  -3  -1   8  254.79    4.67
  -5   1   8  125.12    2.37
  -5  -1  -8  125.76    2.13
  -5   1   8  121.68    2.27
   5   1  -8  123.60    2.10
  -5  -1  -8  122.49    2.36
  -5   1   8  121.74    2.26
  -5   1   8  122.54    2.46
  -5  -1  -8  122.51    2.22
   5  -1   8  124.12    2.14
  -5   1  -8  124.65    2.22
  -5  -1   8  124.20    2.25
  -5   1  -8  121.29    2.37
  -5  -1   8  122.76    2.29
  -5   1  -8  119.87    2.36
   5  -1  -8  121.69    2.19
  -5   1  -8  122.18    2.22
  -5  -1   8  120.80    2.45
  -7  -1  -8   54.79    1.19
  -7   1   8   56.77    1.27
  -7  -1   8   56.62    1.23
  -7   1  -8   54.88    1.21
   0  -2  -8    0.46    0.08
   0   2   8    0.51    0.12
   0  -2   8    0.24    0.17
   0   2   8    0.29    0.15
   0   2  -8    0.25    0.06
   0   2   8    0.60    0.09
   0   2   8    0.71    0.12
   0   2  -8    0.26    0.13
   0   2   8    0.40    0.11
   0   2   8    0.34    0.07
   0  -2  -8    0.28    0.17
   0  -2   8    0.39    0.11
   0  -2   8    0.36    0.18
   0   2  -8    0.36    0.07
   0  -2  -8    0.33    0.16
   0   2  -8    0.34    0.07
   0  -2  -8    0.44    0.06
   0  -2   8    0.40    0.10
   0   2  -8    0.28    0.06
   0   2  -8    0.34    0.10
   0  -2   8    0.23    0.08
   0   2  -8    0.37    0.11
   0   2   8    0.45    0.21
   0  -2  -8    0.35    0.06
   0  -2   8    0.57    0.12
   0   2  -8    0.34    0.20
   0   2  -8    0.36    0.16
   0   2  -8    0.24    0.14
   0   2   8    0.22    0.14
   0  -2  -8    0.30    0.10
   0  -2   8    0.45    0.11
   0  -2  -8    0.31    0.09
   0  -2   8    0.38    0.10
   0  -2  -8    0.48    0.13
   2  -2   8    0.15    0.09
   2   2  -8    0.11    0.05
   2  -2   8    0.07    0.06
  -2  -2  -8    0.17    0.07
   2   2  -8    0.40    0.12
  -2   2   8    0.31    0.11
  -2  -2  -8    0.53    0.12
   2  -2   8    0.17    0.09
  -2   2   8    0.11    0.07
  -2  -2  -8    0.56    0.09
   2  -2   8    0.16    0.06
  -2  -2  -8    0.19    0.08
   2   2  -8    0.12    0.09
  -2   2   8    0.14    0.06
   2  -2   8    0.22    0.09
   2  -2  -8    0.12    0.10
  -2  -2   8    0.11    0.06
  -2   2  -8    0.18    0.07
  -2   2  -8    0.54    0.09
  -2  -2   8    0.17    0.06
   2  -2  -8    0.15    0.08
   2  -2  -8    0.02    0.05
   2   2   8    0.16    0.09
   2   2   8    0.29    0.08
   2   2   8    0.25    0.12
  -2  -2   8    0.22    0.08
  -2   2  -8    0.08    0.06
   2  -2  -8    0.14    0.09
   2  -2  -8    0.16    0.07
  -2  -2   8    0.43    0.14
  -4  -2  -8    0.63    0.11
  -4   2   8    0.47    0.14
   4  -2   8    0.50    0.10
   4  -2   8    0.55    0.16
   4  -2   8    0.53    0.18
   4   2  -8    0.62    0.18
  -4  -2  -8    0.53    0.14
  -4   2   8    0.60    0.14
   4   2  -8    0.56    0.09
  -4   2   8    0.46    0.13
   4   2  -8    0.78    0.18
  -4   2   8    0.63    0.19
  -4   2   8    0.44    0.11
  -4  -2  -8    0.84    0.13
  -4  -2  -8    0.28    0.11
  -4   2  -8    0.66    0.16
  -4   2  -8    0.50    0.13
   4   2   8    0.64    0.14
  -4  -2   8    0.58    0.11
   4  -2  -8    0.71    0.14
   4   2   8    0.38    0.12
   4   2   8    0.54    0.18
  -4   2  -8    0.45    0.12
  -4  -2   8    0.36    0.16
   4  -2  -8    0.63    0.18
  -4   2  -8    0.45    0.10
  -4  -2   8    0.66    0.14
   4  -2  -8    0.58    0.18
  -4   2  -8    0.47    0.12
  -4  -2   8    0.55    0.15
   6  -2   8    0.56    0.13
  -6   2   8    0.50    0.14
   6   2  -8    0.64    0.13
  -6  -2  -8    0.66    0.14
  -6  -2  -8    0.73    0.17
  -6   2   8    0.63    0.17
  -6   2  -8    0.74    0.17
  -6   2  -8    0.47    0.13
   6  -2  -8    0.52    0.17
  -6  -2   8    0.64    0.14
  -6  -2   8    0.70    0.20
  -6  -2   8    0.35    0.15
   6  -2  -8    0.66    0.14
  -6   2  -8    0.65    0.17
   6  -2  -8    0.73    0.16
  -6   2  -8    0.64    0.16
   1  -3   8  569.60    8.95
   1   3  -8  569.70    8.62
   1  -3   8  569.86    8.94
   1   3  -8  544.16    8.61
   1   3  -8  543.84    8.88
  -1   3   8  561.43    8.70
   1   3  -8  554.16    8.99
  -1  -3  -8  567.10    8.68
  -1   3   8  575.35    8.65
   1  -3   8  549.07    9.36
  -1  -3  -8  566.32    8.93
   1  -3   8  578.69    8.64
   1   3  -8  575.34    8.67
   1  -3   8  569.59    8.74
  -1  -3  -8  530.28    8.86
  -1   3   8  549.59    8.94
   1  -3   8  564.77    8.83
   1  -3  -8  552.58    9.01
   1  -3  -8  547.78    8.64
   1   3   8  550.66    8.87
   1  -3  -8  573.92    9.15
   1  -3  -8  546.66    8.67
  -1  -3   8  518.46    8.99
   1  -3  -8  555.86    8.67
  -1   3  -8  547.26    8.77
  -1   3  -8  550.56    8.70
  -1   3  -8  540.73    8.71
  -1  -3   8  525.32    8.79
   1   3   8  579.74   10.09
   1  -3  -8  564.07    8.88
   1  -3  -8  544.01    8.82
  -1  -3   8  559.07    8.68
   1  -3  -8  573.16    9.18
   1   3   8  537.32    8.75
   1   3   8  579.74    8.70
   1   3   8  571.47    8.94
  -3   3   8  334.18    5.43
  -3   3   8  349.76    5.58
  -3   3   8  341.46    5.90
   3   3  -8  346.27    5.35
  -3  -3  -8  345.32    5.49
   3  -3   8  347.16    5.76
   3   3  -8  337.76    5.76
   3   3  -8  337.94    5.83
   3  -3   8  344.09    5.45
  -3  -3  -8  342.15    5.42
   3  -3   8  342.28    5.85
   3  -3   8  351.96    5.55
  -3  -3  -8  343.29    5.43
  -3  -3  -8  338.64    5.57
  -3   3   8  342.17    5.42
  -3  -3  -8  339.55    5.79
   3  -3   8  337.83    5.85
  -3  -3   8  334.35    5.98
  -3  -3   8  348.01    5.39
   3   3   8  347.21    5.84
  -3   3  -8  344.99    5.48
   3  -3  -8  334.68    5.46
  -3   3  -8  334.57    5.68
   3   3   8  350.20    5.52
  -3  -3   8  342.90    5.56
  -3  -3   8  352.91    5.45
  -3  -3   8  339.21    5.49
   3  -3  -8  328.79    5.84
  -3   3  -8  347.56    5.53
   3  -3  -8  339.05    5.61
   3  -3  -8  333.90    5.50
   3  -3  -8  349.33    5.94
   3   3   8  336.85    5.62
  -3   3  -8  337.80    5.40
   3   3   8  332.71    5.67
  -3   3  -8  339.71    5.59
  -3  -3   8  330.30    5.69
   5  -3   8  176.87    3.05
  -5  -3  -8  176.61    3.23
  -5   3   8  173.65    3.24
   5   3  -8  174.42    3.11
  -5   3   8  177.68    3.03
  -5   3   8  179.18    3.12
   5   3  -8  179.46    2.90
  -5  -3  -8  176.11    3.04
  -5  -3  -8  176.73    3.00
   5  -3  -8  178.56    3.06
   5  -3  -8  178.03    3.33
   5  -3  -8  174.70    3.12
  -5   3  -8  174.42    3.22
  -5  -3   8  178.02    3.35
  -5  -3   8  171.09    3.15
  -5   3  -8  174.42    3.23
  -5   3  -8  172.47    3.04
  -5   3  -8  175.14    3.11
  -7   3   8   78.18    1.60
   7  -3   8   80.37    1.61
  -7   3  -8   78.32    1.55
  -7  -3   8   79.16    1.58
   0   4   8    0.47    0.10
   0   4   8    0.15    0.09
   0   4   8    0.11    0.06
   0  -4  -8    0.23    0.07
   0   4  -8    0.06    0.10
   0   4   8    0.40    0.08
   0  -4   8   -0.01    0.09
   0  -4   8    0.16    0.09
   0   4   8    0.16    0.09
   0  -4  -8    0.13    0.09
   0   4  -8    0.13    0.07
   0   4  -8    0.35    0.08
   0   4  -8    0.16    0.07
   0  -4   8    0.19    0.07
   0   4  -8    0.59    0.13
   0   4   8    0.41    0.07
   2   4  -8    0.04    0.10
  -2  -4  -8    0.30    0.09
  -2  -4  -8    0.41    0.14
   2  -4   8    0.35    0.11
  -2  -4  -8    0.24    0.09
  -2   4   8    0.23    0.08
   2  -4   8    0.34    0.12
   2   4  -8    0.26    0.13
  -2   4   8    0.39    0.14
   2   4  -8    0.18    0.07
  -2   4   8    0.26    0.09
  -2  -4  -8    0.37    0.09
   2  -4   8    0.31    0.13
   2  -4   8    0.26    0.08
   2  -4   8    0.25    0.09
  -2  -4  -8    0.23    0.07
   2  -4  -8    0.30    0.10
  -2  -4   8    0.40    0.08
  -2  -4   8    0.28    0.12
  -2   4  -8    0.34    0.11
   2  -4  -8    0.46    0.14
   2  -4  -8    0.32    0.10
  -2  -4   8    0.30    0.10
   2   4   8    0.20    0.09
  -2  -4   8    0.25    0.15
   2   4   8    0.20    0.10
   2  -4  -8    0.37    0.10
  -2   4  -8    0.28    0.09
  -2  -4   8    0.13    0.08
  -4  -4  -8    0.95    0.18
  -4   4   8    0.73    0.14
   4  -4   8    0.62    0.19
   4  -4   8    0.91    0.15
   4  -4   8    0.93    0.18
  -4  -4  -8    0.85    0.16
   4  -4   8    0.85    0.23
  -4  -4  -8    1.02    0.16
  -4   4   8    0.85    0.17
   4   4  -8    0.67    0.11
   4  -4   8    0.92    0.23
  -4   4   8    0.60    0.13
  -4  -4  -8    0.83    0.13
   4  -4  -8    0.98    0.19
  -4  -4   8    0.92    0.13
  -4   4  -8    0.72    0.12
  -4   4  -8    0.71    0.16
  -4   4  -8    0.77    0.15
   4  -4  -8    0.60    0.14
   4  -4  -8    0.71    0.15
  -4  -4   8    0.43    0.15
  -4   4  -8    1.04    0.18
   4  -4  -8    0.84    0.24
  -4  -4   8    0.76    0.17
  -4  -4   8    0.90    0.17
  -6  -4  -8    0.70    0.15
  -6   4   8    0.46    0.15
  -6   4   8    0.45    0.12
  -6  -4  -8    0.55    0.12
  -6  -4   8    0.34    0.16
  -6   4  -8    0.43    0.13
  -1   5   8  196.16    3.28
   1   5  -8  200.16    3.60
   1  -5   8  199.94    3.78
   1  -5   8  196.31    3.31
  -1   5   8  204.32    3.42
  -1   5   8  205.65    3.60
   1   5  -8  199.55    3.29
   1  -5   8  198.95    3.52
   1   5  -8  204.61    3.35
  -1   5   8  208.29    3.34
  -1  -5  -8  198.23    3.67
   1   5  -8  198.37    3.42
  -1  -5  -8  200.02    3.23
  -1  -5  -8  200.32    3.37
  -1   5   8  201.15    3.33
  -1  -5  -8  197.82    3.32
   1   5  -8  200.35    3.80
  -1   5  -8  196.28    3.40
   1  -5  -8  193.09    3.51
   1   5   8  197.69    3.48
   1  -5  -8  195.74    3.33
  -1   5  -8  195.77    3.24
   1   5   8  201.75    3.29
  -1   5  -8  193.90    3.50
  -1  -5   8  188.99    3.33
   1   5   8  196.47    3.25
  -1  -5   8  197.08    3.55
   1   5   8  197.51    3.39
   1   5   8  204.50    3.67
  -1  -5   8  192.27    3.81
  -1  -5   8  199.00    3.29
  -1  -5   8  198.18    3.30
   1  -5  -8  201.08    3.29
   3   5  -8  141.08    2.90
  -3  -5  -8  137.75    2.93
   3  -5   8  137.62    2.52
   3   5  -8  137.79    2.89
  -3   5   8  141.68    2.48
   3   5  -8  138.82    2.41
  -3   5   8  144.84    2.60
  -3  -5  -8  139.86    2.56
  -3  -5  -8  140.35    2.45
  -3   5   8  141.51    2.92
  -3  -5  -8  134.78    2.43
   3  -5   8  143.18    2.96
  -3  -5  -8  143.65    2.63
   3  -5   8  140.80    2.67
   3  -5  -8  142.18    2.93
  -3   5  -8  138.37    2.73
   3  -5  -8  142.69    2.67
  -3  -5   8  138.28    2.45
   3   5   8  142.27    2.74
  -3   5  -8  137.87    2.63
  -3  -5   8  141.42    3.10
   3   5   8  140.98    2.72
  -3  -5   8  139.81    2.77
  -3  -5   8  140.17    2.55
   3  -5  -8  142.57    2.52
   3   5   8  147.37    2.40
  -3  -5   8  135.26    2.59
  -3   5  -8  140.40    2.40
  -5   5   8   78.89    1.76
  -5  -5  -8   80.26    1.59
  -5  -5  -8   79.36    1.75
   5  -5   8   82.33    1.64
  -5  -5  -8   81.25    1.69
  -5  -5  -8   79.26    1.56
  -5   5   8   80.99    1.63
   5   5  -8   83.56    1.51
  -5   5   8   82.34    1.62
   5  -5   8   80.22    1.70
   5  -5  -8   80.60    1.60
   5  -5  -8   82.01    1.68
  -5  -5   8   80.25    1.74
  -5   5  -8   81.84    1.59
  -5  -5   8   79.14    1.86
   5  -5  -8   79.71    1.83
  -5   5  -8   78.76    1.76
  -5  -5   8   81.17    1.73
  -5   5  -8   82.01    1.71
   5   5   8   81.50    1.45
  -5  -5   8   81.33    1.56
   0   6   8   11.19    0.39
   0   6  -8   11.27    0.45
   0  -6  -8   11.84    0.42
   0  -6   8   10.06    0.62
   0  -6   8   10.71    0.38
   0   6   8   11.76    0.44
   0  -6   8    9.86    0.50
   0   6  -8   11.05    0.49
   0   6  -8   10.73    0.37
   0  -6  -8   10.69    0.42
   0  -6  -8   11.15    0.55
   0   6   8   10.26    0.46
  -2  -6  -8    8.57    0.38
  -2  -6  -8    8.32    0.39
   2  -6   8    8.36    0.46
   2   6  -8    7.88    0.34
   2   6  -8    9.19    0.38
  -2  -6  -8    8.43    0.33
  -2   6   8    7.96    0.35
   2  -6   8    8.85    0.39
   2   6   8    8.65    0.36
   2   6   8    8.62    0.42
  -2  -6   8    8.50    0.40
  -2  -6   8    8.57    0.36
   2  -6  -8    8.57    0.43
  -2  -6   8    8.51    0.39
  -2   6  -8    9.08    0.43
  -2  -6   8    8.82    0.49
   2  -6  -8    7.73    0.37
   2   6   8    8.84    0.33
   4  -6   8    5.01    0.33
  -4  -6  -8    4.94    0.28
   4  -6   8    4.73    0.37
  -4  -6  -8    4.91    0.32
  -4   6   8    4.94    0.30
  -4   6   8    4.33    0.31
   4   6  -8    4.81    0.27
   4   6   8    4.54    0.23
  -4   6  -8    4.62    0.33
   4  -6  -8    5.03    0.37
  -4  -6   8    4.36    0.33
  -4   6  -8    4.75    0.26
   4   6   8    4.87    0.28
  -4  -6   8    4.89    0.34
   4   6   8    4.33    0.32
  -4  -6   8    3.97    0.40
   4  -6  -8    4.55    0.30
  -4  -6   8    4.51    0.28
   1  -7   8  112.43    2.43
  -1   7   8  118.15    2.15
   1   7  -8  118.26    2.10
   1   7  -8  116.19    2.24
  -1  -7  -8  116.30    2.20
   1   7   8  118.51    2.12
  -1   7  -8  116.99    2.30
  -1  -7   8  118.46    2.18
   1   7   8  117.51    2.28
  -1  -7   8  115.11    2.46
   1  -7  -8  117.01    2.22
   3  -7   8   89.46    2.01
  -3  -7  -8   90.92    1.80
   3   7  -8   90.81    1.75
  -3   7   8   90.73    1.77
  -3  -7  -8   90.18    1.71
  -3  -7   8   86.87    1.76
  -3  -7   8   88.68    1.87
  -3  -7   8   91.50    1.84
   3   7   8   89.67    1.69
   3   7   8   91.94    1.69
   3  -7  -8   86.26    1.92
   3   7   8   89.40    1.90
  -3  -7   8   89.80    2.03
   3  -7  -8   88.51    1.78
  -5  -7  -8   54.84    1.16
  -5   7   8   55.87    1.19
   5  -7   8   55.64    1.21
  -5   7  -8   54.73    1.12
  -5  -7   8   55.55    1.26
   0   8  -8    0.22    0.12
   0  -8  -8    0.42    0.15
   0   8   8    0.56    0.14
   0   8  -8    0.17    0.12
   0  -8   8    0.62    0.21
   0   8   8    0.34    0.13
   2   8  -8    0.22    0.12
  -2  -8  -8    0.09    0.09
  -2  -8  -8    0.26    0.12
  -2  -8  -8    0.26    0.14
  -2   8   8    0.14    0.11
   2  -8   8    0.15    0.16
   2   8   8    0.46    0.13
  -2   8  -8    0.18    0.13
   2   8   8    0.18    0.12
  -2  -8   8    0.43    0.18
  -2  -8   8    0.61    0.17
   2  -8  -8    0.22    0.14
  -4  -8  -8    0.10    0.09
   4   8  -8    0.09    0.09
  -4   8   8    0.15    0.09
  -4  -8   8    0.38    0.15
   4  -8  -8    0.19    0.12
   1   9  -8  114.78    2.05
  -1  -9  -8  117.37    2.20
  -1   9   8  112.64    2.07
  -1  -9   8  107.85    2.10
   1   9   8  114.57    2.04
  -1   0  -9   90.10    1.52
   1   0  -9   89.35    1.72
   1   0  -9   90.55    1.55
  -1   0   9   90.99    1.69
  -1   0   9   89.14    2.33
   1   0  -9   92.70    1.82
   1   0  -9   95.88    2.59
  -1   0   9   89.11    2.14
   1   0   9   87.33    1.59
   1   0   9   85.81    2.51
   1   0   9   90.71    1.79
  -1   0   9   85.72    1.57
  -1   0  -9   87.78    2.11
  -1   0  -9   90.56    1.53
  -1   0   9   92.00    2.49
   1   0  -9   91.70    1.87
   1   0   9   87.64    1.78
  -1   0   9   87.27    1.89
  -1   0  -9   86.71    1.81
  -1   0   9   85.07    1.75
   1   0  -9   90.42    1.54
  -1   0  -9   89.50    2.14
  -1   0  -9   86.66    1.67
  -1   0  -9   91.33    1.58
   1   0  -9   87.74    2.13
  -1   0   9   91.45    1.57
   1   0   9   91.85    2.19
   1   0   9   88.99    2.09
   1   0   9   88.45    1.71
  -1   0  -9   90.31    2.54
   1   0   9   92.27    1.50
   1   0  -9   93.13    2.33
  -3   0  -9   41.08    0.92
   3   0  -9   41.74    0.87
   3   0  -9   40.71    1.09
   3   0  -9   41.39    0.82
   3   0  -9   41.39    1.06
   3   0   9   40.56    1.14
  -3   0  -9   40.16    0.97
   3   0   9   40.88    0.79
   3   0   9   40.49    1.00
  -3   0   9   40.94    1.09
  -3   0   9   40.58    0.97
  -3   0  -9   41.03    0.92
  -3   0   9   40.20    0.89
  -3   0   9   39.89    1.11
  -5   0  -9   14.97    0.58
  -5   0   9   14.76    0.53
  -5   0  -9   15.31    0.58
  -5   0  -9   15.55    0.51
   5   0   9   15.36    0.43
  -5   0   9   16.82    0.66
  -5   0   9   16.17    0.58
  -5   0  -9   15.79    0.49
  -5   0   9   15.66    0.55
   5   0  -9   15.56    0.48
  -7   0   9    5.68    0.33
  -7   0  -9    5.44    0.30
   0   1  -9    9.93    0.44
   0  -1   9    9.58    0.31
   0  -1  -9   10.07    0.39
   0   1   9    9.31    0.50
   0   1  -9    9.77    0.29
   0   1  -9    9.96    0.63
   0  -1   9   10.50    0.44
   0   1   9    9.91    0.32
   0  -1   9    9.11    0.59
   0  -1   9    9.45    0.72
   0   1  -9   10.18    0.61
   0  -1  -9    9.95    0.42
   0   1  -9   10.37    0.28
   0   1   9   10.06    0.66
   0  -1  -9    9.33    0.52
   0   1   9   10.00    0.59
   0   1   9   10.00    0.68
   0  -1   9    9.69    0.41
   0  -1  -9   10.29    0.27
   0   1   9    9.72    0.28
   0   1  -9   10.17    0.38
   0  -1  -9    9.74    0.29
   0   1   9   10.32    0.43
   0  -1   9   10.19    0.36
   0  -1   9   10.18    0.30
   0   1   9   10.00    0.38
   0  -1   9    9.42    0.44
   0  -1  -9   10.16    0.67
   0  -1  -9   10.41    0.68
   0   1  -9   10.13    0.73
   0   1  -9    9.01    0.57
   0  -1  -9   10.11    0.58
   2   1  -9    8.32    0.29
  -2  -1  -9    8.24    0.48
  -2   1   9    8.83    0.32
  -2  -1  -9    8.27    0.30
   2   1  -9    8.07    0.42
  -2  -1  -9    7.89    0.26
   2   1  -9    9.25    0.69
  -2  -1  -9    7.84    0.35
   2   1  -9    8.36    0.39
  -2   1   9    8.06    0.41
  -2   1   9    8.57    0.55
   2  -1   9    8.29    0.31
   2   1  -9    8.38    0.26
   2  -1   9    8.17    0.41
  -2   1   9    8.39    0.31
   2  -1   9    8.32    0.38
  -2  -1  -9    8.38    0.33
  -2   1   9    8.73    0.40
   2  -1  -9    8.09    0.29
  -2  -1   9    7.99    0.33
   2  -1  -9    8.79    0.38
   2  -1  -9    8.15    0.42
   2   1   9    8.25    0.42
   2   1   9    8.43    0.37
  -2  -1   9    8.67    0.42
   2   1   9    7.98    0.31
  -2  -1   9    8.27    0.37
   2  -1  -9    8.30    0.52
  -2  -1   9    8.59    0.66
   2   1   9    7.99    0.49
  -2  -1   9    8.20    0.28
  -2   1  -9    8.99    0.31
   2  -1  -9    8.12    0.28
  -2   1  -9    9.11    0.34
   4   1  -9    7.48    0.28
  -4   1   9    7.49    0.34
   4  -1   9    7.73    0.50
   4   1  -9    8.41    0.47
   4   1  -9    8.45    0.35
  -4   1   9    6.98    0.46
   4   1  -9    7.87    0.44
  -4  -1  -9    7.42    0.28
  -4   1   9    7.40    0.32
  -4  -1  -9    7.38    0.40
   4  -1   9    7.75    0.29
  -4   1   9    7.88    0.40
  -4  -1  -9    7.64    0.37
   4  -1   9    7.17    0.40
  -4  -1  -9    7.49    0.31
  -4   1   9    7.17    0.35
   4   1   9    8.03    0.39
  -4   1  -9    7.50    0.31
  -4  -1   9    7.31    0.40
  -4  -1   9    7.87    0.44
   4   1   9    8.41    0.38
  -4   1  -9    7.21    0.36
  -4  -1   9    8.11    0.36
  -4  -1   9    7.26    0.32
   4   1   9    7.69    0.50
   4  -1  -9    7.77    0.32
  -4   1  -9    7.29    0.40
  -4   1  -9    7.47    0.36
  -4  -1   9    7.10    0.32
   4  -1  -9    8.61    0.49
  -4  -1   9    7.73    0.50
  -4   1  -9    7.67    0.30
   4  -1  -9    7.74    0.49
   6  -1   9    5.22    0.26
  -6   1   9    4.59    0.31
  -6  -1  -9    5.15    0.30
  -6   1   9    5.29    0.33
  -6   1   9    5.50    0.39
  -6   1   9    5.48    0.36
   6   1  -9    5.07    0.27
  -6  -1  -9    5.21    0.35
  -6  -1   9    4.95    0.31
  -6  -1   9    5.12    0.33
  -6   1  -9    4.62    0.33
   6  -1  -9    4.63    0.28
  -6  -1   9    5.60    0.40
  -6   1  -9    5.03    0.30
   6   1   9    5.06    0.35
  -6   1  -9    5.47    0.37
  -6   1  -9    4.78    0.30
  -1   2   9   21.15    0.52
   1  -2   9   19.92    0.59
   1  -2   9   19.60    0.49
   1   2  -9   19.96    0.67
  -1  -2  -9   19.97    0.67
  -1  -2  -9   19.64    0.48
  -1  -2  -9   19.96    0.52
  -1   2   9   19.74    0.95
   1  -2   9   20.40    0.81
   1   2  -9   19.07    0.48
   1  -2   9   19.87    0.50
  -1  -2  -9   19.52    0.98
   1  -2   9   20.02    0.81
  -1   2   9   20.74    0.82
   1  -2   9   19.31    0.61
  -1   2   9   20.56    0.66
  -1   2   9   20.41    0.47
  -1  -2  -9   19.54    0.61
   1   2  -9   20.14    1.13
   1   2  -9   21.04    1.11
   1   2  -9   19.25    0.61
   1  -2   9   20.40    0.62
  -1   2   9   20.20    0.88
   1   2  -9   19.64    0.46
   1   2  -9   20.66    0.45
  -1  -2  -9   20.12    0.48
   1  -2  -9   20.28    0.49
   1  -2  -9   20.37    0.61
   1   2   9   20.13    0.53
   1  -2  -9   20.26    0.94
  -1   2  -9   20.08    0.53
   1   2   9   21.95    1.01
   1  -2  -9   20.43    0.83
  -1  -2   9   19.27    0.55
  -1   2  -9   20.27    0.49
  -1   2  -9   20.09    0.44
   1   2   9   20.16    0.67
   1  -2  -9   19.56    0.67
   1  -2  -9   20.18    0.84
  -1  -2   9   20.31    0.66
  -1  -2   9   19.89    0.45
   1   2   9   19.84    0.68
   1  -2  -9   20.74    0.57
   1   2   9   18.84    0.58
  -1   2  -9   19.84    0.53
   1  -2  -9   20.61    0.50
  -1  -2   9   19.79    0.55
  -3  -2  -9    8.06    0.35
  -3  -2  -9    7.79    0.39
   3  -2   9    7.82    0.43
   3   2  -9    7.62    0.43
  -3   2   9    8.99    0.37
  -3  -2  -9    8.07    0.30
  -3   2   9    8.39    0.31
  -3   2   9    8.61    0.38
  -3  -2  -9    8.26    0.28
   3  -2   9    7.52    0.44
   3   2  -9    8.50    0.27
  -3   2   9    7.93    0.33
  -3   2   9    8.44    0.47
   3  -2   9    7.70    0.29
   3   2  -9    7.81    0.43
  -3  -2  -9    7.87    0.38
  -3  -2  -9    8.20    0.29
  -3  -2   9    8.64    0.32
  -3  -2   9    8.37    0.33
   3  -2  -9    7.85    0.44
   3  -2  -9    8.14    0.48
  -3   2  -9    8.29    0.36
  -3   2  -9    8.08    0.34
  -3   2  -9    8.32    0.28
   3  -2  -9    9.02    0.40
  -3  -2   9    7.89    0.47
   3   2   9    8.58    0.36
   3  -2  -9    8.49    0.29
  -3  -2   9    8.39    0.40
   3  -2  -9    8.54    0.33
  -3   2  -9    8.18    0.31
  -3   2  -9    7.86    0.38
   3   2   9    7.49    0.37
   3   2   9    8.29    0.47
  -5   2   9    2.39    0.25
   5   2  -9    2.70    0.19
  -5  -2  -9    3.26    0.23
  -5   2   9    2.16    0.28
  -5  -2  -9    2.64    0.19
  -5   2   9    2.69    0.23
   5  -2   9    2.60    0.20
  -5  -2  -9    2.82    0.29
   5   2  -9    2.88    0.27
  -5   2   9    2.96    0.31
  -5   2  -9    2.38    0.20
  -5  -2   9    2.17    0.29
  -5   2  -9    2.60    0.28
  -5   2  -9    2.49    0.27
   5  -2  -9    2.49    0.25
  -5  -2   9    2.96    0.29
   5   2   9    2.62    0.27
  -5   2  -9    2.62    0.23
  -5  -2   9    2.45    0.22
  -7   2   9    1.36    0.20
   7  -2   9    0.95    0.18
  -7  -2  -9    1.01    0.17
  -7  -2   9    0.90    0.18
  -7   2  -9    0.85    0.15
   0   3  -9    1.36    0.13
   0   3   9    1.08    0.13
   0  -3  -9    1.15    0.17
   0  -3  -9    0.96    0.11
   0   3  -9    1.48    0.13
   0   3  -9    1.34    0.15
   0   3  -9    1.15    0.31
   0   3   9    1.25    0.19
   0  -3   9    1.96    0.24
   0   3   9    1.13    0.10
   0  -3  -9    1.26    0.11
   0  -3   9    1.68    0.18
   0   3  -9    1.38    0.22
   0   3   9    1.23    0.13
   0   3   9    1.48    0.34
   0   3   9    1.13    0.17
   0   3  -9    1.09    0.29
   0  -3   9    1.30    0.16
  -2  -3  -9    0.61    0.11
   2  -3   9    0.46    0.10
  -2  -3  -9    0.70    0.11
   2  -3   9    0.58    0.15
   2   3  -9    0.32    0.13
  -2   3   9    0.46    0.10
   2  -3   9    0.34    0.10
   2  -3   9    0.69    0.16
   2   3  -9    0.49    0.14
   2  -3   9    0.34    0.08
  -2  -3  -9    0.68    0.15
  -2  -3  -9    0.57    0.11
   2  -3   9    0.51    0.14
  -2   3   9    0.45    0.14
   2   3  -9    0.61    0.09
   2  -3  -9    0.60    0.14
   2  -3  -9    0.42    0.10
   2   3   9    0.48    0.11
   2  -3  -9    0.88    0.16
   2  -3  -9    0.80    0.18
  -2  -3   9    0.35    0.10
   2   3   9    1.68    0.26
  -2   3  -9    0.62    0.13
  -2   3  -9    0.83    0.13
  -2   3  -9    0.52    0.10
   2   3   9    0.67    0.14
  -2  -3   9    0.36    0.15
  -2  -3   9    0.42    0.12
   2  -3  -9    0.46    0.09
   2  -3  -9    0.56    0.11
   2  -3  -9    0.65    0.12
   4  -3   9    0.05    0.12
  -4  -3  -9    0.37    0.10
   4   3  -9    0.13    0.13
   4   3  -9    0.07    0.07
  -4   3   9    0.03    0.07
   4  -3   9    0.01    0.07
   4   3  -9    0.03    0.12
  -4   3   9    0.00    0.11
   4  -3   9    0.04    0.12
  -4  -3  -9    0.17    0.09
  -4   3   9    0.17    0.09
  -4  -3  -9    0.10    0.09
  -4  -3  -9    0.15    0.13
  -4  -3  -9    0.01    0.09
  -4   3   9    0.05    0.09
  -4   3  -9    0.12    0.07
   4  -3  -9    0.32    0.17
   4  -3  -9    0.04    0.09
  -4  -3   9    0.03    0.10
  -4   3  -9   -0.02    0.07
   4  -3  -9   -0.03    0.12
  -4  -3   9    0.07    0.13
  -4   3  -9   -0.06    0.08
   4  -3  -9    0.19    0.12
  -4   3  -9    0.05    0.10
   4   3   9    0.05    0.10
  -4  -3   9    0.10    0.08
   4   3   9    0.18    0.10
  -4  -3   9    0.07    0.11
  -4   3  -9    0.07    0.09
  -4  -3   9    0.07    0.10
   4  -3  -9    0.22    0.11
   6   3  -9    0.14    0.10
   6  -3   9    0.12    0.09
  -6   3   9    0.22    0.13
  -6  -3  -9    0.25    0.13
  -6   3   9    0.07    0.11
  -6  -3  -9    0.28    0.10
  -6  -3  -9    0.35    0.14
   6  -3  -9    0.11    0.11
  -6  -3   9    0.14    0.14
  -6   3  -9    0.18    0.12
  -6   3  -9    0.30    0.14
   6  -3  -9    0.19    0.14
  -6  -3   9    0.19    0.15
   6  -3  -9    0.11    0.12
  -6   3  -9    0.42    0.14
  -6   3  -9    0.26    0.11
  -1  -4  -9   10.29    0.48
  -1   4   9   10.36    0.37
   1  -4   9    9.68    0.35
  -1   4   9    9.92    0.32
   1  -4   9    9.77    0.50
   1   4  -9    9.88    0.33
  -1  -4  -9    9.79    0.36
   1  -4   9    9.75    0.41
   1   4  -9   10.07    0.36
   1   4  -9   10.52    0.54
  -1   4   9   10.05    0.48
   1   4  -9   10.29    0.47
  -1  -4  -9    9.90    0.36
   1   4  -9   10.01    0.33
   1   4   9    9.97    0.31
  -1  -4   9   11.21    0.56
   1  -4  -9   10.95    0.45
  -1   4  -9   10.32    0.42
  -1  -4   9   10.42    0.45
   1   4   9   10.52    0.41
   1   4   9   10.22    0.47
   1  -4  -9   10.35    0.45
   1  -4  -9   10.06    0.35
  -1  -4   9   10.43    0.33
   1   4   9   10.18    0.35
  -1  -4   9   10.13    0.36
  -1   4  -9   10.80    0.38
   1   4   9   10.13    0.46
   1  -4  -9   10.82    0.35
  -3   4   9    5.41    0.27
   3   4  -9    5.19    0.40
  -3   4   9    4.87    0.40
   3   4  -9    5.52    0.24
   3  -4   9    4.99    0.39
  -3  -4  -9    5.08    0.27
   3  -4   9    5.54    0.40
  -3  -4  -9    5.27    0.29
   3  -4   9    5.55    0.32
   3  -4   9    5.24    0.30
  -3  -4  -9    5.49    0.40
  -3  -4  -9    5.19    0.31
   3  -4   9    5.47    0.27
   3   4  -9    5.01    0.39
  -3  -4  -9    5.47    0.25
  -3   4   9    4.80    0.30
  -3  -4   9    5.38    0.26
  -3  -4   9    5.20    0.31
  -3   4  -9    5.14    0.23
  -3   4  -9    5.16    0.29
  -3   4  -9    5.46    0.32
   3  -4  -9    5.24    0.32
   3  -4  -9    5.10    0.29
   3   4   9    5.91    0.36
  -3   4  -9    5.01    0.33
   3   4   9    5.65    0.35
   3  -4  -9    5.35    0.30
  -3  -4   9    5.52    0.45
  -3  -4   9    5.70    0.38
   3  -4  -9    4.97    0.39
  -3  -4   9    5.55    0.30
  -5  -4  -9    2.37    0.28
  -5   4   9    2.20    0.27
   5  -4   9    2.52    0.25
  -5  -4  -9    2.27    0.20
  -5   4   9    1.67    0.22
  -5  -4  -9    2.18    0.23
   5   4  -9    2.42    0.18
   5   4  -9    2.28    0.26
  -5   4   9    2.29    0.21
  -5   4  -9    2.10    0.26
   5  -4  -9    2.46    0.26
   5  -4  -9    2.35    0.24
  -5   4  -9    2.37    0.27
  -5  -4   9    1.79    0.28
  -5  -4   9    2.49    0.28
   5  -4  -9    2.18    0.30
  -5   4  -9    2.36    0.21
   0   5  -9    6.27    0.30
   0  -5   9    6.43    0.37
   0  -5  -9    6.04    0.28
   0  -5  -9    5.98    0.38
   0  -5   9    5.58    0.29
   0   5  -9    6.11    0.33
   0  -5  -9    6.03    0.28
   0   5   9    5.86    0.28
   0   5   9    5.87    0.31
   0   5   9    5.95    0.27
   0   5  -9    5.71    0.26
   0  -5   9    6.15    0.44
  -2  -5  -9    6.01    0.26
  -2  -5  -9    6.01    0.43
   2  -5   9    5.39    0.34
  -2   5   9    6.01    0.42
  -2  -5  -9    5.73    0.29
   2   5  -9    6.47    0.43
  -2  -5  -9    5.69    0.31
  -2   5   9    6.11    0.29
   2   5  -9    5.47    0.27
  -2   5   9    5.79    0.31
   2  -5   9    6.01    0.44
   2  -5   9    5.68    0.31
   2   5  -9    5.81    0.44
  -2  -5   9    5.74    0.39
  -2  -5   9    7.44    0.34
   2  -5  -9    6.38    0.32
  -2   5  -9    6.44    0.37
   2  -5  -9    5.82    0.33
  -2  -5   9    5.83    0.28
   2   5   9    6.18    0.26
  -2  -5   9    5.82    0.32
  -2  -5   9    6.62    0.51
   2   5   9    5.86    0.39
  -2   5  -9    6.04    0.33
  -4   5   9    5.12    0.29
   4   5  -9    5.05    0.27
  -4   5   9    5.22    0.34
  -4  -5  -9    4.79    0.33
  -4  -5  -9    4.82    0.27
  -4  -5  -9    5.19    0.28
  -4  -5  -9    4.80    0.31
   4  -5   9    5.32    0.36
   4  -5   9    5.13    0.33
  -4  -5   9    4.61    0.33
  -4   5  -9    4.69    0.34
   4  -5  -9    4.64    0.35
   4  -5  -9    5.24    0.32
  -4  -5   9    5.07    0.28
  -4  -5   9    4.73    0.33
  -4   5  -9    4.61    0.26
  -4  -5   9    4.85    0.39
   6  -5   9    2.42    0.26
  -6  -5  -9    3.02    0.21
  -6   5   9    3.55    0.25
  -6   5   9    2.86    0.21
  -6   5  -9    2.96    0.22
  -6  -5   9    3.04    0.30
   1   6  -9   22.77    0.61
   1   6  -9   23.80    0.65
   1   6  -9   24.20    0.68
   1  -6   9   23.33    0.80
   1   6  -9   22.90    0.72
   1  -6   9   23.20    0.97
  -1   6   9   22.92    0.63
  -1  -6  -9   23.91    0.90
  -1  -6  -9   23.46    0.68
  -1  -6  -9   22.41    0.66
  -1   6  -9   24.15    0.73
   1   6   9   23.81    0.71
   1   6   9   22.70    0.62
   1  -6  -9   22.61    0.66
  -1  -6   9   24.58    0.84
  -1   6  -9   23.27    0.77
  -1  -6   9   22.56    0.64
  -1  -6   9   23.55    0.66
   1   6   9   23.76    0.61
   1   6   9   23.96    0.77
  -1  -6   9   23.03    0.98
  -1   6  -9   23.64    0.60
  -3   6   9   16.75    0.55
   3   6  -9   16.30    0.53
  -3   6   9   16.30    0.58
  -3  -6  -9   18.22    0.53
  -3  -6  -9   16.74    0.61
   3  -6   9   16.71    0.58
   3  -6   9   15.55    0.66
  -3  -6   9   16.21    0.71
   3   6   9   16.49    0.63
  -3   6  -9   15.76    0.62
   3   6   9   18.64    0.55
   3  -6  -9   19.44    0.61
   3  -6  -9   15.61    0.63
  -3  -6   9   16.62    0.59
  -3  -6   9   16.32    0.61
  -3  -6   9   16.26    0.54
   3   6   9   16.73    0.49
  -5  -6  -9    8.44    0.37
  -5   6   9    8.95    0.39
   5  -6   9    8.28    0.42
  -5  -6   9    8.29    0.43
  -5   6  -9    9.31    0.36
   5  -6  -9    8.76    0.39
   0  -7  -9    4.26    0.30
   0  -7   9    3.79    0.40
   0   7  -9    4.09    0.30
   0   7   9    4.55    0.30
   0   7   9    4.08    0.26
   0   7  -9    3.91    0.26
   0  -7  -9    3.72    0.26
   2   7  -9    4.03    0.28
   2  -7   9    4.59    0.43
  -2  -7  -9    3.46    0.23
  -2   7   9    3.95    0.27
  -2  -7  -9    3.81    0.29
  -2  -7  -9    3.68    0.28
  -2  -7   9    4.70    0.38
  -2  -7   9    4.13    0.30
   2  -7  -9    3.97    0.29
   2   7   9    3.39    0.28
   2   7   9    3.46    0.23
  -2  -7   9    3.53    0.29
  -2   7  -9    3.83    0.30
   2   7   9    4.03    0.26
  -4   7   9    2.95    0.24
   4  -7   9    2.90    0.26
  -4  -7  -9    2.60    0.21
   4  -7  -9    3.01    0.28
  -4  -7   9    3.05    0.30
  -1   8   9    3.58    0.26
  -1  -8  -9    3.81    0.30
   1   8  -9    3.59    0.26
  -1  -8  -9    3.35    0.27
   1   8  -9    3.71    0.28
   1  -8   9    3.22    0.38
   1   8   9    3.47    0.25
  -1   8  -9    3.11    0.28
  -1  -8   9    3.95    0.28
   1  -8  -9    3.45    0.29
  -1  -8   9    4.61    0.45
  -3   8   9    2.64    0.22
  -3  -8  -9    2.72    0.26
   3   8  -9    2.57    0.22
  -3  -8  -9    2.53    0.20
   3  -8  -9    2.37    0.24
  -3  -8   9    2.61    0.28
   0  -9  -9    0.22    0.14
   0   9   9    0.50    0.12
  -2   9   9    0.21    0.11
   2   9  -9    0.12    0.10
  -2  -9  -9    0.03    0.11
  -2  -9   9    0.19    0.13
   2  -9  -9    0.07    0.11
   0   0 -10  454.09    7.23
   0   0  10  453.20    8.32
   0   0  10  453.85    7.91
   0   0  10  461.09    7.08
   0   0  10  463.12    7.66
   0   0  10  453.48    7.08
   0   0  10  455.25    7.22
   0   0 -10  443.19    7.77
   0   0 -10  453.00    7.02
   0   0 -10  460.77    8.01
   0   0 -10  437.91    7.59
   0   0 -10  434.99    7.33
   0   0  10  451.77    7.75
   0   0 -10  441.62    7.09
   0   0 -10  441.30    8.26
   0   0  10  453.45    7.32
   2   0  10  311.88    4.94
   2   0 -10  304.37    4.84
   2   0 -10  303.67    5.11
  -2   0 -10  302.87    4.98
  -2   0  10  305.36    4.90
   2   0  10  309.84    5.22
  -2   0 -10  300.66    4.88
   2   0 -10  305.07    4.87
  -2   0  10  305.71    5.16
  -2   0 -10  301.20    4.95
   2   0 -10  304.90    5.21
   2   0  10  303.75    5.07
  -2   0  10  306.64    5.16
  -2   0 -10  305.33    4.80
  -2   0  10  301.25    4.94
  -4   0  10  152.26    2.72
   4   0 -10  151.55    2.59
  -4   0 -10  154.10    2.58
  -4   0 -10  149.72    2.75
  -4   0 -10  151.54    2.61
   4   0 -10  151.32    2.97
   4   0  10  156.76    3.18
  -4   0  10  146.67    2.82
   4   0  10  149.55    2.85
  -4   0  10  149.61    2.67
   4   0 -10  155.26    2.92
  -4   0  10  148.44    3.03
   4   0 -10  153.27    2.63
  -4   0 -10  153.00    2.56
  -4   0  10  151.69    2.66
  -4   0 -10  150.73    2.86
  -6   0  10   70.84    1.51
  -6   0  10   68.55    1.67
  -6   0  10   71.64    1.52
   6   0  10   70.84    1.62
  -6   0 -10   70.78    1.46
  -6   0 -10   70.74    1.60
   6   0 -10   68.95    1.40
  -1  -1 -10   24.44    0.54
  -1   1  10   24.18    0.55
   1   1 -10   24.01    0.78
   1   1 -10   23.92    0.70
  -1   1  10   25.65    1.27
   1  -1  10   26.21    0.98
  -1   1  10   22.93    0.95
   1  -1  10   23.88    0.60
  -1  -1 -10   23.33    0.68
  -1  -1 -10   22.21    0.88
   1  -1  10   25.07    0.70
   1   1 -10   24.01    1.19
   1   1 -10   26.13    1.23
  -1   1  10   23.82    0.95
   1   1 -10   24.38    1.29
  -1  -1 -10   24.10    0.96
  -1   1  10   23.80    1.05
   1   1 -10   23.97    0.56
  -1  -1 -10   23.60    0.54
  -1   1  10   23.99    0.63
  -1  -1 -10   24.24    0.58
  -1  -1 -10   24.58    1.06
  -1   1  10   22.31    0.73
   1  -1  10   23.61    0.73
   1  -1  10   25.23    0.94
   1   1 -10   24.24    0.55
   1  -1  10   24.60    0.53
   1  -1  10   24.66    0.59
  -1   1  10   23.38    0.59
   1   1  10   23.46    0.68
  -1   1 -10   23.59    0.52
   1  -1 -10   27.16    1.06
  -1  -1  10   24.46    0.71
   1   1  10   24.63    0.61
   1   1  10   24.89    0.91
  -1  -1  10   22.61    0.69
  -1   1 -10   24.55    0.55
   1  -1 -10   24.79    1.28
  -1   1 -10   24.00    0.58
   1  -1 -10   23.95    0.98
  -1  -1  10   23.69    1.19
  -1  -1  10   23.35    0.56
   1   1  10   24.39    0.77
  -1  -1  10   25.26    0.60
   1  -1 -10   24.01    0.93
   1   1  10   24.39    0.94
   1  -1 -10   25.29    0.79
   1  -1 -10   23.40    0.69
   1   1  10   24.56    1.06
   1  -1 -10   24.07    0.56
   1  -1 -10   25.06    0.56
  -1   1 -10   22.86    0.63
  -3  -1 -10   10.36    0.32
   3  -1  10   12.49    0.51
  -3  -1 -10   11.27    0.45
  -3   1  10   10.56    0.42
   3   1 -10   10.81    0.53
  -3   1  10   11.07    0.38
   3   1 -10   10.43    0.38
  -3   1  10   10.10    0.36
  -3  -1 -10   10.86    0.44
  -3   1  10   10.27    0.52
   3   1 -10   10.16    0.50
  -3  -1 -10   10.33    0.33
   3  -1  10   10.12    0.32
  -3  -1 -10   10.28    0.33
  -3  -1 -10   11.64    0.41
   3   1 -10   10.88    0.34
   3  -1  10   10.95    0.55
  -3   1  10   10.00    0.39
   3   1  10   10.10    0.53
  -3  -1  10   10.42    0.48
   3  -1 -10   10.59    0.36
   3  -1 -10    9.98    0.45
   3   1  10    9.86    0.40
  -3   1 -10   10.36    0.33
   3  -1 -10   10.14    0.35
  -3  -1  10   10.79    0.38
  -3   1 -10   10.17    0.35
  -3   1 -10   10.17    0.44
  -3  -1  10   10.25    0.44
   3   1  10   10.20    0.45
  -3  -1  10   10.31    0.36
  -3  -1  10   10.91    0.37
   3  -1 -10   10.38    0.51
  -3   1 -10   10.47    0.40
  -3   1 -10   10.74    0.32
   3  -1 -10   10.88    0.55
  -3  -1  10   10.61    0.55
  -3   1 -10   10.62    0.40
  -5  -1 -10    3.58    0.24
   5   1 -10    3.11    0.22
  -5   1  10    3.21    0.25
  -5  -1 -10    3.49    0.21
  -5   1  10    3.36    0.28
  -5   1  10    3.21    0.27
  -5  -1 -10    3.11    0.27
  -5   1  10    3.10    0.34
   5  -1  10    3.15    0.21
  -5   1 -10    3.53    0.25
  -5  -1  10    3.45    0.29
  -5   1 -10    3.15    0.32
   5  -1 -10    3.43    0.24
  -5   1 -10    3.41    0.23
  -5   1 -10    3.21    0.28
  -5  -1  10    3.92    0.27
   5   1  10    3.79    0.30
  -5  -1  10    3.12    0.34
  -7   1  10    1.63    0.22
  -7  -1 -10    1.20    0.17
  -7  -1  10    1.20    0.18
  -7  -1  10    1.41    0.20
  -7   1 -10    1.44    0.19
   0  -2 -10  365.51    5.93
   0   2 -10  354.89    6.69
   0   2 -10  354.84    5.86
   0  -2 -10  370.94    6.86
   0   2  10  358.24    6.15
   0   2  10  368.07    7.04
   0   2  10  350.01    5.88
   0   2 -10  357.00    5.66
   0  -2 -10  367.90    7.05
   0  -2 -10  364.66    5.61
   0  -2 -10  359.31    5.68
   0   2 -10  353.06    6.63
   0  -2  10  356.01    5.73
   0  -2  10  357.83    5.88
   0   2  10  356.33    5.72
   0   2 -10  362.58    5.63
   0   2  10  363.42    6.85
   0  -2  10  372.06    5.67
   0  -2  10  349.21    5.89
   0   2 -10  358.67    5.68
   0  -2 -10  368.09    6.23
   0   2  10  357.95    5.66
   0   2 -10  353.76    5.65
   0   2  10  356.50    5.99
  -2   2  10  259.65    4.23
  -2  -2 -10  255.96    4.19
  -2  -2 -10  253.53    4.26
  -2   2  10  261.62    4.21
   2   2 -10  259.22    4.45
   2   2 -10  257.38    4.17
   2  -2  10  259.51    4.14
   2  -2  10  262.95    4.31
   2  -2  10  254.70    4.19
  -2   2  10  254.51    4.53
   2  -2  10  260.66    4.44
   2   2 -10  256.26    4.53
   2  -2  10  259.28    4.48
   2   2 -10  255.46    4.10
  -2  -2 -10  254.61    4.39
  -2  -2 -10  259.13    4.15
   2  -2 -10  259.57    4.57
   2   2  10  251.26    4.36
   2  -2 -10  250.66    4.39
  -2  -2  10  242.60    4.50
  -2  -2  10  262.23    4.29
  -2   2 -10  257.24    4.20
   2   2  10  256.43    4.22
  -2   2 -10  257.50    4.29
  -2  -2  10  249.77    4.29
   2   2  10  260.07    4.53
   2  -2 -10  260.09    4.14
   2  -2 -10  251.65    4.17
   2  -2 -10  255.61    4.36
  -4  -2 -10  135.05    2.38
   4  -2  10  133.66    2.37
  -4  -2 -10  136.47    2.35
   4  -2  10  137.78    2.91
  -4   2  10  136.51    2.42
  -4  -2 -10  134.50    2.64
   4  -2  10  136.12    2.73
  -4   2  10  134.34    2.60
  -4   2  10  134.62    2.55
   4   2 -10  136.32    2.32
   4   2 -10  138.82    2.75
  -4   2  10  136.89    2.92
  -4   2  10  132.38    2.44
   4   2 -10  136.66    2.77
   4   2 -10  137.76    2.45
  -4  -2 -10  135.66    2.54
   4  -2 -10  141.93    2.88
  -4  -2  10  132.89    2.64
  -4  -2  10  138.11    2.44
  -4   2 -10  134.72    2.36
  -4   2 -10  137.48    2.55
  -4  -2  10  130.87    2.91
  -4  -2  10  134.94    2.47
   4   2  10  136.65    2.53
   4   2  10  140.66    2.91
   4   2  10  134.97    2.58
  -4   2 -10  134.16    2.65
   4  -2 -10  135.46    2.44
   4  -2 -10  134.96    2.88
  -4   2 -10  137.05    2.53
  -4   2 -10  135.57    2.42
  -6  -2 -10   66.82    1.30
   6   2 -10   66.14    1.29
  -6  -2 -10   65.78    1.37
  -6   2  10   64.59    1.43
  -6   2  10   65.26    1.55
  -6  -2 -10   64.61    1.51
   6  -2 -10   64.63    1.36
  -6  -2  10   64.26    1.39
  -6  -2  10   66.91    1.62
  -6  -2  10   65.01    1.45
  -6   2 -10   65.33    1.52
   6  -2 -10   64.77    1.39
   6  -2 -10   64.05    1.58
   1   3 -10   14.96    0.41
   1   3 -10   14.90    0.42
   1  -3  10   14.65    0.54
   1  -3  10   14.44    0.57
   1   3 -10   14.86    0.56
  -1  -3 -10   15.16    0.43
   1   3 -10   15.11    0.43
   1  -3  10   15.43    0.42
  -1   3  10   14.82    0.46
  -1  -3 -10   15.53    0.45
   1  -3  10   14.86    0.47
  -1  -3 -10   15.39    0.58
  -1   3  10   14.86    0.60
   1   3 -10   14.54    0.63
   1  -3 -10   15.11    0.56
  -1  -3  10   14.78    0.51
   1   3  10   15.00    0.59
   1   3  10   15.77    0.57
   1   3  10   14.65    0.45
  -1  -3  10   14.33    0.61
   1  -3 -10   15.13    0.43
  -1   3 -10   14.75    0.44
   1   3  10   14.60    0.47
   1  -3 -10   14.67    0.49
  -1   3 -10   14.61    0.48
  -3  -3 -10    7.51    0.29
   3   3 -10    7.29    0.28
  -3  -3 -10    7.47    0.44
  -3   3  10    7.15    0.35
  -3   3  10    7.55    0.30
   3  -3  10    7.26    0.45
  -3   3  10    7.29    0.29
   3  -3  10    7.06    0.46
  -3  -3 -10    7.67    0.32
  -3   3  10    6.85    0.46
  -3  -3 -10    7.35    0.30
   3   3 -10    7.29    0.45
   3  -3  10    7.79    0.35
  -3  -3 -10    7.47    0.36
   3  -3  10    7.27    0.30
   3   3 -10    7.44    0.46
   3  -3  10    7.05    0.33
  -3   3 -10    7.73    0.40
   3   3  10    7.43    0.40
   3   3  10    7.35    0.48
  -3   3 -10    7.14    0.36
  -3  -3  10    7.65    0.32
  -3  -3  10    6.95    0.40
  -3   3 -10    7.55    0.28
  -3  -3  10    7.56    0.51
  -3  -3  10    7.53    0.29
   3  -3 -10    7.99    0.35
  -3   3 -10    7.04    0.33
  -3   3 -10    7.16    0.27
   3  -3 -10    7.54    0.45
  -3  -3  10    7.52    0.34
  -3  -3  10    6.98    0.35
   3   3  10    7.94    0.36
   3  -3 -10    7.24    0.49
   3   3  10    7.41    0.40
   3  -3 -10    7.80    0.33
   5   3 -10    3.00    0.29
  -5   3  10    3.00    0.25
   5  -3  10    3.14    0.23
  -5  -3 -10    2.66    0.29
  -5  -3 -10    3.00    0.24
  -5  -3 -10    2.63    0.21
  -5   3  10    3.12    0.32
   5   3 -10    3.74    0.23
  -5   3 -10    2.67    0.30
   5  -3 -10    2.81    0.33
  -5   3 -10    2.98    0.30
  -5  -3  10    2.80    0.23
   5  -3 -10    3.37    0.27
  -5   3 -10    3.16    0.23
  -5  -3  10    3.16    0.36
  -5  -3  10    2.47    0.28
   5  -3 -10    3.36    0.30
  -7   3  10    1.10    0.18
  -7  -3 -10    1.30    0.18
  -7   3 -10    1.50    0.18
  -7  -3  10    1.15    0.19
   0  -4  10  218.41    3.61
   0   4 -10  218.64    3.61
   0  -4 -10  223.24    3.63
   0   4  10  222.64    3.92
   0   4 -10  219.30    3.79
   0   4 -10  217.03    3.69
   0   4  10  222.85    3.67
   0   4  10  221.16    3.63
   0   4  10  215.51    3.56
   0   4  10  219.89    3.59
   0  -4 -10  221.46    3.92
   0  -4  10  210.51    3.99
   0   4 -10  219.13    3.56
   0   4 -10  219.22    3.59
   0   4  10  219.57    3.53
   0  -4 -10  218.20    3.58
   0   4 -10  218.83    3.54
   0  -4  10  214.05    3.76
  -2  -4 -10  177.98    2.92
  -2   4  10  176.68    2.96
   2  -4  10  180.18    3.12
   2   4 -10  172.79    3.34
   2  -4  10  178.67    3.03
  -2   4  10  175.13    3.07
   2   4 -10  175.58    3.44
   2   4 -10  177.79    2.96
   2  -4  10  179.00    3.35
  -2   4  10  172.39    3.37
  -2  -4 -10  176.11    3.04
  -2  -4 -10  176.52    3.37
  -2  -4 -10  174.75    3.07
  -2  -4 -10  181.28    2.97
  -2   4 -10  180.16    2.91
  -2   4 -10  172.64    3.17
   2   4  10  172.51    3.16
  -2  -4  10  175.65    3.00
   2   4  10  177.19    3.28
  -2  -4  10  178.86    2.95
   2  -4 -10  172.97    3.00
   2  -4 -10  177.86    3.07
  -2  -4  10  175.64    3.00
   2  -4 -10  184.15    2.96
   2  -4 -10  175.12    3.28
  -2   4 -10  173.57    3.09
  -2  -4  10  177.68    3.53
  -2  -4  10  174.14    3.06
  -2  -4  10  174.94    3.23
   2  -4 -10  181.16    3.20
  -4  -4 -10  109.39    2.16
   4  -4  10  107.21    2.08
  -4  -4 -10  106.87    1.97
   4  -4  10  109.22    2.01
   4   4 -10  105.77    1.92
  -4   4  10  105.36    2.16
  -4   4  10  105.91    1.98
  -4  -4 -10  108.05    2.07
  -4   4  10  110.21    2.01
  -4  -4 -10  106.08    1.98
  -4   4 -10  107.78    1.95
  -4  -4  10  107.33    1.94
   4  -4 -10  109.21    2.08
  -4  -4  10  105.63    2.28
   4  -4 -10  105.53    2.02
  -4   4 -10  110.58    2.10
   4  -4 -10  104.11    2.18
  -4   4 -10  106.23    2.16
  -4  -4  10  104.85    2.08
  -6   4  10   55.52    1.23
  -6  -4 -10   54.74    1.16
   6  -4  10   55.98    1.27
  -6  -4 -10   54.43    1.17
  -6  -4  10   55.26    1.28
  -6   4 -10   55.87    1.19
   6  -4 -10   55.39    1.18
   1   5 -10    7.47    0.31
   1   5 -10    7.54    0.35
  -1   5  10    7.07    0.30
  -1   5  10    7.22    0.43
   1   5 -10    7.28    0.32
  -1  -5 -10    7.48    0.34
  -1  -5 -10    7.33    0.27
   1  -5  10    7.44    0.40
  -1  -5 -10    7.37    0.32
   1   5 -10    7.27    0.43
  -1  -5 -10    6.88    0.44
  -1   5  10    7.95    0.34
   1  -5  10    7.23    0.49
   1   5 -10    6.98    0.29
   1  -5  10    7.91    0.35
  -1  -5  10    6.86    0.41
   1   5  10    7.17    0.31
   1   5  10    7.45    0.29
   1  -5 -10    7.32    0.42
   1   5  10    7.41    0.45
   1   5  10    7.19    0.34
  -1  -5  10    7.16    0.31
  -1   5 -10    7.58    0.39
   1   5  10    7.23    0.37
  -1  -5  10    6.94    0.49
  -1   5 -10    7.60    0.35
  -1  -5  10    7.00    0.33
   1  -5 -10    7.25    0.31
   1  -5 -10    7.81    0.34
  -1   5 -10    7.40    0.29
  -3  -5 -10    4.57    0.25
   3  -5  10    4.14    0.31
  -3  -5 -10    4.66    0.27
   3  -5  10    5.52    0.33
  -3   5  10    4.54    0.27
  -3   5  10    4.73    0.31
  -3  -5 -10    4.85    0.30
  -3  -5 -10    4.59    0.31
   3   5 -10    3.63    0.24
  -3  -5  10    4.01    0.40
   3   5  10    4.42    0.23
   3  -5 -10    4.51    0.32
  -3   5 -10    4.48    0.31
   3  -5 -10    4.22    0.28
  -3  -5  10    4.66    0.31
  -3  -5  10    4.80    0.27
  -3  -5  10    4.45    0.31
  -5  -5 -10    2.22    0.22
  -5   5  10    2.48    0.25
  -5   5  10    1.93    0.21
  -5  -5 -10    1.95    0.24
   5   5 -10    2.55    0.21
   5   5 -10    2.01    0.24
  -5  -5 -10    2.35    0.26
  -5  -5 -10    1.95    0.21
  -5   5  10    2.29    0.28
   5  -5  10    1.70    0.24
  -5   5 -10    2.17    0.26
   5   5  10    2.14    0.16
  -5   5 -10    2.49    0.21
  -5  -5  10    2.45    0.30
  -5  -5  10    2.55    0.34
   5  -5 -10    2.63    0.31
   5  -5 -10    2.36    0.25
   0   6 -10  128.43    2.42
   0   6  10  131.24    2.33
   0  -6 -10  133.37    2.40
   0   6 -10  130.99    2.53
   0  -6  10  129.99    2.63
   0  -6 -10  132.02    2.39
   0  -6 -10  135.27    2.72
   0   6 -10  132.19    2.30
   0   6  10  132.11    2.41
   2  -6  10  111.44    2.32
   2  -6  10  113.72    2.13
  -2  -6 -10  112.14    2.10
  -2  -6 -10  110.22    2.17
  -2  -6 -10  111.84    2.01
  -2   6  10  114.07    2.09
   2   6 -10  111.65    2.09
  -2   6 -10  113.53    2.23
   2   6  10  114.48    2.03
   2   6  10  111.24    2.20
   2   6  10  113.92    2.06
   2  -6 -10  113.48    2.14
  -2  -6  10  115.36    2.13
  -2  -6  10  113.91    2.17
  -2  -6  10  109.62    2.37
  -4   6  10   75.25    1.53
   4  -6  10   77.73    1.71
   4  -6  10   74.47    1.59
  -4   6  10   74.60    1.62
   4   6 -10   73.01    1.48
  -4  -6 -10   74.13    1.49
   4   6  10   72.69    1.47
  -4  -6  10   71.82    1.59
   4   6  10   75.63    1.42
   4  -6 -10   75.19    1.54
  -4  -6  10   73.07    1.79
  -4   6 -10   72.75    1.42
   4  -6 -10   71.82    1.67
  -4   6 -10   76.61    1.67
  -1   7  10    4.16    0.28
  -1  -7 -10    4.41    0.29
   1  -7  10    4.67    0.38
  -1  -7 -10    4.09    0.29
   1   7 -10    4.48    0.30
   1   7 -10    4.09    0.28
   1   7  10    4.41    0.27
  -1   7 -10    4.55    0.26
  -1  -7  10    4.64    0.44
   1  -7 -10    4.56    0.32
  -1  -7  10    4.13    0.28
   1   7  10    3.87    0.29
  -1   7 -10    4.23    0.31
   3  -7  10    2.62    0.31
   3   7 -10    3.38    0.25
   3   7 -10    3.39    0.25
   3  -7  10    3.07    0.30
  -3  -7 -10    2.90    0.22
  -3  -7 -10    2.27    0.25
  -3   7  10    3.66    0.26
  -3   7 -10    3.10    0.28
   3  -7 -10    3.52    0.28
  -3  -7  10    2.51    0.32
   3   7  10    3.03    0.27
   3   7  10    2.56    0.22
  -3  -7  10    2.89    0.29
   3   7  10    3.25    0.21
  -5  -7 -10    1.40    0.17
   0   8  10   79.88    1.58
   0   8 -10   79.16    1.69
   0  -8 -10   79.40    1.66
   0   8 -10   79.55    1.54
  -2  -8 -10   69.17    1.46
   2   8 -10   65.16    1.37
  -2   8  10   66.84    1.40
  -2  -8  10   66.88    1.44
   2   8  10   68.97    1.36
   2  -8 -10   69.48    1.47
  -1   9  10    2.59    0.21
   1   9 -10    2.96    0.22
  -1  -9 -10    3.01    0.26
   1   9  10    2.90    0.21
   1  -9 -10    2.52    0.26
   1   0 -11   91.59    2.49
  -1   0  11   90.96    2.62
  -1   0  11   87.22    1.70
   1   0 -11   88.79    1.56
   1   0  11   86.51    1.61
  -1   0 -11   89.53    2.23
   1   0 -11   86.77    1.56
  -1   0 -11   84.80    1.53
   1   0 -11   87.50    1.76
  -1   0 -11   88.57    1.53
  -1   0  11   90.43    1.57
   1   0 -11   91.37    1.90
  -1   0  11   86.64    2.49
  -1   0 -11   88.12    1.58
   1   0  11   85.74    1.84
  -1   0  11   87.12    1.84
   1   0  11   88.52    2.24
  -1   0 -11   85.55    1.72
   1   0  11   85.19    1.75
  -1   0  11   86.16    1.60
  -3   0 -11   62.52    1.16
   3   0 -11   61.98    1.46
   3   0  11   60.56    1.56
   3   0 -11   61.86    1.23
  -3   0  11   59.96    1.51
  -3   0 -11   61.40    1.16
  -3   0  11   63.39    1.28
  -3   0  11   62.18    1.22
  -3   0  11   60.43    1.50
   3   0  11   61.00    1.31
  -3   0  11   60.93    1.23
   3   0  11   59.54    1.40
   3   0 -11   62.79    1.21
  -3   0  11   62.92    1.35
   3   0 -11   63.42    1.56
  -3   0 -11   61.30    1.35
  -5   0 -11   40.75    1.06
  -5   0  11   37.86    1.01
  -5   0  11   36.76    0.96
  -5   0 -11   38.96    0.85
   5   0  11   36.73    1.04
  -5   0  11   37.98    1.11
   5   0 -11   39.90    0.92
  -5   0  11   36.64    0.95
  -5   0 -11   37.40    0.91
  -7   0 -11   19.44    0.58
   0   1 -11  162.36    3.52
   0  -1 -11  161.47    3.75
   0   1 -11  161.15    3.01
   0  -1  11  158.57    2.63
   0   1  11  164.10    3.45
   0   1 -11  163.23    2.60
   0  -1  11  158.66    2.89
   0   1  11  158.84    3.77
   0  -1 -11  155.67    2.58
   0  -1 -11  159.97    3.67
   0  -1 -11  159.60    3.28
   0  -1  11  159.72    2.66
   0   1  11  156.84    2.82
   0   1 -11  157.92    2.62
   0   1 -11  156.90    3.57
   0  -1 -11  156.21    2.85
   0   1 -11  152.17    2.80
   0   1  11  156.65    3.24
   0   1  11  163.46    3.65
   0   1  11  159.07    2.70
   0   1 -11  153.69    2.61
   0  -1 -11  160.05    3.38
   0  -1  11  159.76    2.78
   0   1 -11  157.97    2.55
   0   1  11  156.53    2.95
   0  -1 -11  154.54    2.63
  -2  -1 -11  108.28    2.11
   2  -1  11  107.24    2.24
  -2   1  11  109.85    2.00
   2   1 -11  110.64    2.30
   2   1 -11  110.62    2.19
  -2  -1 -11  108.48    1.95
   2  -1  11  108.47    1.99
  -2   1  11  113.73    2.18
  -2  -1 -11  110.60    1.91
  -2  -1 -11  109.48    2.02
  -2   1  11  110.12    2.27
   2   1 -11  109.14    1.91
  -2   1  11  110.47    1.99
   2  -1  11  112.19    2.19
   2   1 -11  108.12    1.95
  -2  -1  11  108.04    1.94
   2   1  11  108.28    2.28
  -2   1 -11  112.31    2.03
  -2  -1  11  110.43    2.17
   2  -1 -11  110.18    1.94
   2   1  11  109.91    2.01
  -2   1 -11  112.59    1.97
   2  -1 -11  107.35    2.28
  -2  -1  11  111.19    2.04
   2  -1 -11  110.41    1.93
   2   1  11  108.62    2.13
   2  -1 -11  113.39    2.18
  -2   1 -11  111.21    2.04
  -2  -1  11  110.32    2.23
  -4  -1 -11   53.05    1.32
   4  -1  11   54.50    1.38
  -4   1  11   52.39    1.51
   4   1 -11   53.26    1.42
  -4  -1 -11   53.74    1.24
  -4   1  11   52.15    1.28
  -4   1  11   53.24    1.16
  -4   1  11   54.05    1.25
   4  -1  11   51.65    1.54
   4   1 -11   54.50    1.44
  -4  -1 -11   52.68    1.11
   4   1 -11   54.53    1.10
  -4  -1 -11   53.87    1.08
   4   1 -11   54.11    1.17
  -4   1  11   53.06    1.17
  -4  -1  11   53.98    1.32
   4  -1 -11   53.22    1.14
  -4  -1  11   53.74    1.18
   4  -1 -11   56.10    1.49
   4   1  11   53.98    1.31
  -4  -1  11   53.84    1.17
   4   1  11   54.06    1.25
  -4  -1  11   54.21    1.53
  -4   1 -11   53.81    1.24
  -4   1 -11   52.99    1.10
   4  -1 -11   52.15    1.49
  -4   1 -11   53.49    1.32
  -4  -1  11   54.77    1.18
  -4   1 -11   54.17    1.07
   4   1  11   55.01    1.56
   6   1 -11   24.23    0.66
  -6   1  11   22.60    0.83
  -6   1  11   23.18    0.74
   6  -1  11   24.97    0.70
  -6  -1 -11   24.36    0.80
  -6  -1 -11   23.55    0.69
  -6   1  11   23.78    0.73
  -6   1  11   23.07    0.79
  -6  -1  11   25.01    0.75
   6  -1 -11   24.06    0.69
   6   1  11   23.45    0.79
  -6  -1  11   23.68    0.86
  -6   1 -11   24.29    0.80
  -6  -1  11   23.46    0.73
  -6   1 -11   24.58    0.70
   1  -2  11   27.96    0.76
   1  -2  11   27.44    0.66
  -1  -2 -11   27.67    0.81
   1   2 -11   27.21    0.80
   1   2 -11   28.66    0.65
   1  -2  11   27.60    0.82
  -1   2  11   28.11    0.69
  -1  -2 -11   27.85    0.63
  -1  -2 -11   27.50    0.64
   1   2 -11   26.91    0.63
  -1   2  11   27.35    0.87
  -1  -2 -11   28.50    0.68
   1  -2  11   28.07    0.65
   1   2 -11   28.29    0.92
   1  -2  11   27.18    0.82
  -1   2 -11   27.22    0.68
   1  -2 -11   28.20    0.90
   1   2  11   26.91    0.78
  -1   2 -11   28.47    0.65
   1   2  11   27.60    0.69
  -1   2 -11   28.22    0.59
   1  -2 -11   27.73    0.65
   1  -2 -11   27.52    0.81
   1  -2 -11   28.66    0.65
   1   2  11   27.91    0.88
  -1  -2  11   27.49    0.62
  -1  -2  11   27.71    0.77
   1  -2 -11   28.92    0.73
  -1  -2  11   28.34    0.85
  -1   2 -11   28.32    0.73
  -1  -2  11   27.61    0.71
   3  -2  11   22.15    0.85
   3   2 -11   21.49    0.83
  -3   2  11   22.10    0.59
  -3  -2 -11   21.59    0.75
  -3   2  11   22.31    0.67
  -3  -2 -11   22.24    0.58
  -3  -2 -11   21.05    0.69
  -3   2  11   22.33    0.68
   3   2 -11   22.95    0.63
  -3  -2 -11   22.31    0.57
  -3   2  11   23.12    0.62
  -3   2  11   22.67    0.86
   3  -2  11   22.65    0.79
   3   2 -11   22.32    0.80
   3  -2  11   22.40    0.60
  -3  -2 -11   21.94    0.64
  -3  -2 -11   23.05    0.56
   3   2 -11   22.56    0.56
   3  -2 -11   22.51    0.88
   3   2  11   22.43    0.74
  -3  -2  11   23.15    0.88
   3  -2 -11   22.23    0.62
   3  -2 -11   22.29    0.81
   3  -2 -11   24.03    0.58
  -3   2 -11   22.78    0.54
  -3   2 -11   21.93    0.65
   3   2  11   22.31    0.85
  -3  -2  11   22.58    0.62
   3   2  11   22.19    0.67
   3  -2 -11   24.07    0.75
  -3   2 -11   22.31    0.55
  -3  -2  11   22.07    0.72
  -3  -2  11   21.90    0.62
  -3   2 -11   22.06    0.71
  -5   2  11   15.82    0.57
  -5  -2 -11   15.17    0.61
  -5   2  11   14.98    0.62
   5   2 -11   15.99    0.50
   5   2 -11   16.64    0.57
  -5   2  11   15.93    0.67
  -5  -2 -11   15.13    0.49
  -5   2  11   17.97    0.59
  -5  -2 -11   15.82    0.53
  -5  -2  11   15.33    0.55
   5  -2 -11   15.05    0.55
  -5  -2  11   15.63    0.67
   5   2  11   15.17    0.60
  -5   2 -11   18.00    0.54
  -5  -2  11   16.01    0.60
  -5   2 -11   15.82    0.63
  -7   2  11    8.56    0.39
  -7  -2 -11    8.36    0.36
   7  -2  11    8.71    0.38
  -7  -2  11    8.29    0.39
  -7   2 -11    8.53    0.36
   0  -3 -11   48.85    1.22
   0  -3 -11   49.54    0.95
   0   3 -11   50.06    1.00
   0  -3 -11   48.86    1.01
   0   3 -11   49.58    0.97
   0   3 -11   49.37    0.98
   0   3 -11   50.08    1.34
   0   3  11   49.47    1.21
   0   3  11   48.81    1.05
   0  -3  11   48.98    1.24
   0   3 -11   49.88    1.03
   0   3  11   49.43    1.00
   0   3  11   49.35    0.93
   0   3  11   50.85    1.28
   0  -3  11   49.55    1.09
   0   3 -11   49.82    1.16
  -2   3  11   36.10    0.77
   2   3 -11   36.72    0.75
   2   3 -11   36.92    0.85
  -2   3  11   36.23    1.11
   2  -3  11   37.96    1.06
   2  -3  11   37.17    1.01
   2   3 -11   35.55    0.79
   2   3 -11   37.16    1.07
  -2  -3 -11   36.40    1.04
  -2   3  11   40.04    0.91
   2  -3  11   36.36    0.86
   2  -3  11   37.06    1.06
   2   3 -11   36.40    1.12
  -2  -3 -11   39.71    0.88
  -2  -3 -11   36.08    0.78
   2  -3  11   36.47    0.84
   2  -3  11   35.70    0.83
  -2  -3 -11   35.87    0.84
  -2  -3 -11   37.04    0.77
   2  -3 -11   36.81    0.80
  -2  -3  11   37.02    0.97
  -2  -3  11   35.36    0.84
  -2   3 -11   36.04    0.93
   2   3  11   37.43    1.10
  -2  -3  11   37.37    0.82
   2   3  11   36.19    1.00
   2  -3 -11   36.92    0.85
  -2   3 -11   36.30    0.77
   2   3  11   36.27    0.93
  -2   3 -11   30.32    0.84
   2  -3 -11   35.66    0.81
   2  -3 -11   37.41    1.00
   2  -3 -11   37.46    0.87
   2  -3 -11   39.41    1.18
   2  -3 -11   36.89    1.00
   2   3  11   37.35    0.88
  -2  -3  11   37.50    1.16
   4  -3  11   19.33    0.62
  -4  -3 -11   18.74    0.57
  -4   3  11   19.68    0.69
   4   3 -11   19.51    0.55
   4   3 -11   19.24    0.63
  -4  -3 -11   19.27    0.67
  -4  -3 -11   19.90    0.56
  -4  -3 -11   20.23    0.60
  -4   3  11   20.19    0.60
   4  -3  11   19.26    0.57
   4  -3 -11   18.89    0.69
   4   3  11   20.10    0.65
  -4   3 -11   20.35    0.56
  -4  -3  11   19.47    0.75
  -4  -3  11   18.39    0.63
   4  -3 -11   18.48    0.60
  -4   3 -11   20.09    0.67
   4  -3 -11   19.49    0.62
  -4   3 -11   20.00    0.68
  -4  -3  11   19.96    0.61
  -6   3  11    8.95    0.42
   6  -3  11    9.75    0.45
  -6  -3 -11   10.13    0.38
  -6  -3 -11    9.41    0.41
  -6  -3  11    8.90    0.45
   6  -3 -11    9.23    0.41
  -6   3 -11   10.04    0.41
  -1   4  11   20.75    0.53
   1  -4  11   20.10    0.58
  -1  -4 -11   21.78    0.78
   1  -4  11   22.07    0.66
  -1   4  11   21.49    0.79
  -1  -4 -11   21.57    0.58
   1   4 -11   21.09    0.74
   1   4 -11   21.57    0.86
   1   4 -11   21.29    0.53
   1   4 -11   20.98    0.56
   1   4 -11   21.20    0.57
  -1  -4 -11   20.93    0.50
  -1  -4 -11   20.98    0.55
  -1   4  11   20.53    0.60
  -1  -4 -11   20.37    0.59
   1  -4  11   21.09    0.79
  -1  -4  11   20.56    0.68
  -1   4 -11   21.01    0.65
   1  -4 -11   21.48    0.57
   1   4  11   22.14    0.60
   1   4  11   22.46    0.77
  -1  -4  11   21.04    0.58
  -1  -4  11   21.21    0.83
   1   4  11   21.36    0.52
  -1  -4  11   21.14    0.54
  -1   4 -11   22.60    0.61
  -1   4 -11   21.50    0.53
   1  -4 -11   21.48    0.74
   1   4  11   20.69    0.63
   1   4  11   20.49    0.54
   1   4  11   21.49    0.76
   1  -4 -11   21.98    0.58
   3  -4  11   18.31    0.58
  -3  -4 -11   17.77    0.61
   3  -4  11   18.13    0.60
  -3   4  11   16.95    0.61
   3   4 -11   18.16    0.78
  -3  -4 -11   17.77    0.53
  -3   4  11   18.15    0.53
   3   4 -11   18.05    0.52
  -3   4  11   16.59    0.78
   3  -4  11   17.65    0.58
  -3  -4 -11   18.25    0.52
  -3  -4 -11   17.92    0.58
   3   4 -11   17.50    0.79
  -3  -4 -11   17.65    0.76
  -3  -4  11   17.94    0.70
  -3   4 -11   17.71    0.48
   3  -4 -11   17.57    0.75
  -3   4 -11   18.18    0.68
   3  -4 -11   17.92    0.58
  -3  -4  11   18.15    0.58
   3  -4 -11   17.50    0.56
   3   4  11   17.44    0.67
  -3   4 -11   18.33    0.62
  -3  -4  11   17.80    0.55
   3   4  11   18.11    0.70
   3  -4 -11   18.71    0.63
  -3  -4  11   18.71    0.87
   5  -4  11   12.59    0.53
   5   4 -11   12.40    0.44
  -5   4  11   12.23    0.56
  -5  -4 -11   12.76    0.47
   5  -4  11   13.20    0.54
  -5  -4 -11   12.94    0.46
  -5  -4 -11   11.69    0.54
   5   4 -11   13.02    0.53
  -5   4  11   13.28    0.49
  -5  -4  11   11.45    0.52
  -5  -4  11   13.20    0.63
  -5   4 -11   11.87    0.54
   5  -4 -11   12.91    0.59
  -5   4 -11   12.96    0.46
   5  -4 -11   12.16    0.49
   5  -4 -11   12.40    0.51
   0   5 -11   63.96    1.40
   0  -5 -11   61.75    1.29
   0  -5 -11   66.77    1.34
   0  -5 -11   65.44    1.59
   0   5 -11   64.95    1.25
   0   5 -11   63.43    1.32
   0  -5  11   64.80    1.70
   0   5  11   64.17    1.27
   0   5  11   64.99    1.30
   0  -5  11   64.54    1.49
   0  -5  11   65.41    1.31
  -2   5  11   54.95    1.22
  -2  -5 -11   54.50    1.22
   2  -5  11   55.62    1.52
   2  -5  11   54.45    1.30
   2   5 -11   53.84    1.46
  -2  -5 -11   51.72    1.48
   2   5 -11   56.27    1.61
  -2   5  11   52.47    1.12
  -2   5  11   53.69    1.48
   2  -5  11   52.27    1.18
  -2  -5 -11   52.86    1.20
  -2  -5 -11   52.84    1.08
   2   5 -11   53.40    1.09
   2   5 -11   52.81    1.14
   2   5  11   53.11    1.13
  -2  -5  11   54.64    1.17
   2   5  11   53.50    1.31
  -2  -5  11   52.56    1.60
   2   5  11   52.69    1.08
  -2   5 -11   54.58    1.07
  -2  -5  11   54.61    1.22
  -2  -5  11   53.63    1.37
   2   5  11   54.59    1.44
   2  -5 -11   53.06    1.17
  -2   5 -11   53.70    1.32
  -2   5 -11   52.71    1.24
   4   5 -11   33.15    0.78
  -4  -5 -11   32.91    0.95
  -4  -5 -11   33.45    0.83
  -4  -5 -11   31.96    0.82
  -4   5  11   32.84    0.95
   4   5 -11   32.39    0.91
   4   5 -11   33.18    0.82
  -4   5  11   33.00    0.84
   4  -5  11   31.66    0.90
  -4  -5 -11   32.70    0.91
  -4   5 -11   32.56    0.78
   4  -5 -11   33.00    0.87
  -4  -5  11   34.67    1.08
   4  -5 -11   32.15    0.97
  -4  -5  11   32.32    0.91
  -4   5 -11   31.62    0.94
  -6   5  11   17.84    0.53
  -6  -5 -11   16.80    0.51
  -6   5 -11   17.09    0.51
  -6  -5  11   17.15    0.59
   6  -5 -11   17.21    0.52
  -1  -6 -11   37.92    0.97
   1  -6  11   36.54    1.09
  -1   6  11   37.88    0.90
   1  -6  11   38.09    0.94
   1   6 -11   39.66    0.89
   1   6 -11   39.29    0.94
   1   6 -11   39.88    0.93
   1   6 -11   39.45    0.94
  -1  -6 -11   38.72    0.94
  -1  -6  11   39.72    1.15
   1  -6 -11   38.14    0.95
   1   6  11   39.50    0.88
   1   6  11   39.16    0.91
   1   6  11   40.25    0.99
  -1   6 -11   38.99    1.00
  -1   6 -11   39.03    0.87
  -1  -6  11   39.02    0.91
   1  -6 -11   38.93    0.91
  -3  -6 -11   28.80    0.86
  -3   6  11   32.38    0.89
  -3   6  11   30.75    0.81
   3  -6  11   30.23    0.95
  -3  -6 -11   31.51    0.78
   3  -6  11   31.16    0.87
   3   6 -11   30.80    0.81
   3   6 -11   31.33    0.78
   3  -6 -11   31.12    0.85
  -3  -6  11   31.83    0.87
  -3  -6  11   31.12    1.02
   3   6  11   31.34    0.80
   3   6  11   29.16    0.89
   3   6  11   30.02    0.74
  -3   6 -11   31.34    0.93
   5   6 -11   19.81    0.54
   5  -6  11   18.99    0.64
  -5  -6 -11   18.40    0.57
  -5   6  11   19.04    0.58
   5  -6 -11   18.55    0.58
  -5  -6  11   19.60    0.66
   5   6  11   20.01    0.56
  -5   6 -11   19.39    0.54
   0   7  11   39.96    0.96
   0  -7 -11   40.40    1.02
   0   7 -11   41.01    1.04
   0   7 -11   40.97    0.94
   0  -7 -11   41.02    0.99
   0  -7  11   40.40    1.20
   2   7 -11   35.68    0.92
  -2  -7 -11   34.65    0.91
  -2   7  11   34.21    0.88
   2   7 -11   35.83    0.87
   2   7 -11   36.86    0.93
  -2  -7 -11   37.69    0.99
   2  -7  11   34.44    1.08
  -2  -7 -11   36.38    0.83
  -2  -7  11   35.27    0.92
   2   7  11   35.46    0.85
  -2   7 -11   35.64    1.01
   2   7  11   35.46    0.87
  -2  -7  11   37.32    1.14
   2  -7 -11   35.48    0.94
   2   7  11   34.82    0.97
  -4  -7 -11   23.60    0.65
   4   7 -11   22.79    0.63
   4  -7  11   24.17    0.71
  -4   7  11   22.67    0.67
   4   7  11   24.54    0.63
  -4  -7  11   23.31    0.73
   4  -7 -11   23.57    0.68
   1   8 -11    8.74    0.38
  -1   8  11    8.96    0.39
  -1  -8 -11    9.14    0.43
  -1  -8  11    7.95    0.50
   1  -8 -11    8.79    0.43
   1   8  11    9.10    0.38
  -3   8  11    6.92    0.34
  -3  -8 -11    7.35    0.32
   3   8 -11    6.97    0.33
  -3  -8  11    7.19    0.37
   3  -8 -11    7.19    0.36
   3   8  11    7.43    0.32
   0   9  11   12.09    0.43
   0   9 -11   12.16    0.40
   0  -9 -11   11.92    0.48
   2   9 -11    9.92    0.38
  -2  -9 -11   11.09    0.43
  -2   9  11   10.95    0.40
   2   9  11   11.25    0.38
   2  -9 -11   10.63    0.43
  -2  -9  11   11.21    0.42
   0   0 -12   58.10    1.31
   0   0 -12   61.10    1.91
   0   0  12   59.37    1.63
   0   0 -12   58.81    1.60
   0   0 -12   59.95    1.08
   0   0 -12   57.48    1.12
   0   0  12   60.28    1.83
   0   0  12   61.26    1.18
   0   0  12   57.20    1.17
   0   0  12   57.53    1.39
   2   0 -12   40.43    1.15
  -2   0  12   39.45    0.89
  -2   0 -12   38.44    0.96
  -2   0 -12   37.74    0.79
   2   0  12   39.00    1.03
  -2   0  12   39.90    1.06
   2   0 -12   37.99    0.84
  -2   0  12   39.36    0.90
  -2   0 -12   39.52    0.91
   2   0  12   37.74    0.90
   2   0  12   37.64    1.12
  -2   0 -12   39.12    0.85
  -2   0  12   39.21    1.10
   2   0 -12   38.53    0.85
   2   0 -12   36.97    1.03
  -4   0 -12   19.23    0.70
   4   0 -12   19.49    0.75
  -4   0  12   17.82    0.57
  -4   0 -12   18.50    0.54
  -4   0  12   19.68    0.70
  -4   0  12   17.46    0.78
   4   0 -12   18.54    0.56
   4   0  12   17.77    0.71
  -4   0 -12   18.55    0.52
  -4   0 -12   17.92    0.62
   4   0  12   17.88    0.84
   4   0  12   18.84    0.65
   4   0 -12   19.34    0.58
  -4   0  12   17.87    0.58
   4   0 -12   19.17    0.81
  -4   0  12   17.79    0.61
  -6   0 -12    9.15    0.40
   6   0  12    9.09    0.48
  -6   0  12    9.03    0.44
  -6   0 -12    8.88    0.46
   6   0 -12    9.21    0.39
  -6   0  12    8.53    0.43
   1   1 -12  156.26    2.92
   1   1 -12  158.61    3.10
  -1  -1 -12  160.89    3.39
  -1  -1 -12  163.39    2.71
   1   1 -12  157.27    2.68
   1   1 -12  157.50    2.67
  -1   1  12  160.01    3.04
   1  -1  12  160.31    2.94
   1  -1  12  162.56    3.01
   1  -1  12  158.83    2.73
  -1   1  12  162.44    2.80
  -1  -1 -12  159.34    2.92
  -1   1  12  160.76    2.76
  -1  -1 -12  159.69    2.67
  -1   1  12  164.17    2.66
  -1  -1 -12  160.15    2.64
  -1   1 -12  160.88    2.84
  -1  -1  12  158.75    2.96
   1  -1 -12  160.49    3.07
  -1   1 -12  159.94    2.72
  -1  -1  12  158.49    2.72
   1   1  12  157.45    2.76
   1  -1 -12  160.49    2.68
  -1   1 -12  156.09    2.63
   1  -1 -12  157.46    2.93
   1   1  12  161.94    2.93
  -1  -1  12  157.56    2.90
   1   1  12  154.01    3.04
  -1  -1  12  157.26    2.70
  -1   1 -12  158.75    2.65
   1  -1 -12  160.94    2.68
  -3  -1 -12   95.64    1.70
   3  -1  12   88.91    2.13
  -3  -1 -12   96.45    1.70
  -3   1  12   91.76    2.13
  -3  -1 -12   93.28    1.90
   3  -1  12   93.45    1.73
  -3  -1 -12   96.12    1.70
   3   1 -12   93.82    1.78
   3   1 -12   97.49    2.08
   3  -1  12   97.72    2.05
  -3   1  12   93.08    1.85
   3   1 -12   94.12    1.73
   3  -1  12   90.10    1.84
   3   1 -12   93.37    2.12
  -3  -1 -12   94.80    1.81
  -3   1  12   94.71    1.87
  -3   1  12   96.78    1.76
  -3   1  12   96.77    1.77
  -3  -1  12   94.52    1.77
   3  -1 -12   93.10    1.76
  -3   1 -12   95.60    1.92
  -3   1 -12   93.78    1.68
   3  -1 -12   97.69    1.75
   3   1  12   94.75    1.86
  -3  -1  12   94.91    1.77
   3   1  12   93.30    2.18
  -3  -1  12   93.88    2.03
  -3  -1  12   94.22    1.91
  -3  -1  12   94.41    1.76
   3  -1 -12   96.22    2.01
  -3   1 -12   95.68    1.68
   3   1  12   95.61    1.98
   3  -1 -12   95.46    2.18
  -3   1 -12   95.03    1.82
   3  -1 -12   92.18    2.06
  -3  -1  12   92.85    2.14
   5  -1  12   47.73    1.07
  -5   1  12   45.59    1.19
   5  -1  12   44.08    1.19
  -5  -1 -12   44.14    1.04
  -5   1  12   46.64    1.11
  -5  -1 -12   46.54    1.19
   5   1 -12   44.73    1.02
  -5  -1 -12   46.60    1.00
   5   1 -12   48.56    1.08
  -5   1  12   47.16    1.12
  -5   1  12   47.06    1.26
  -5  -1  12   45.85    1.11
  -5   1 -12   47.52    1.05
   5   1  12   44.49    1.19
  -5  -1  12   44.55    1.11
  -5   1 -12   45.16    1.18
   5  -1 -12   44.87    1.06
  -5  -1  12   45.98    1.26
  -7  -1 -12   20.49    0.59
  -7   1  12   20.17    0.64
   7  -1 -12   20.67    0.58
  -7  -1  12   20.63    0.63
  -7  -1  12   20.34    0.62
   0  -2 -12  131.15    2.31
   0   2 -12  136.96    2.24
   0   2  12  135.15    2.54
   0  -2 -12  133.98    2.57
   0  -2  12  133.19    2.52
   0   2 -12  131.82    2.27
   0  -2  12  133.29    2.53
   0   2 -12  136.40    2.29
   0  -2  12  135.35    2.30
   0   2 -12  137.53    2.74
   0   2 -12  134.50    2.50
   0  -2  12  135.23    2.35
   0   2  12  136.75    2.28
   0   2  12  133.67    2.37
   0   2  12  131.69    2.64
   2  -2  12   98.06    2.15
   2  -2  12   98.83    1.82
   2  -2  12  101.27    1.88
   2   2 -12   99.98    2.11
   2   2 -12   99.68    1.85
  -2  -2 -12  105.08    1.86
   2   2 -12  100.12    2.23
  -2   2  12   98.29    1.91
  -2   2  12  100.38    1.81
  -2   2  12  103.62    1.87
  -2  -2 -12  103.01    1.77
  -2  -2 -12  103.19    1.93
  -2  -2 -12  103.31    1.77
  -2  -2 -12   96.51    2.06
  -2  -2 -12   99.03    1.83
   2   2 -12  100.12    1.81
  -2   2  12  100.10    2.22
   2  -2  12  101.91    2.12
  -2   2 -12  100.53    1.94
  -2   2 -12  101.75    1.87
  -2  -2  12  102.41    1.81
   2   2  12   99.76    2.05
   2  -2 -12  104.25    2.25
   2   2  12  102.00    1.91
  -2  -2  12   99.65    2.17
  -2   2 -12  102.38    1.76
   2  -2 -12   99.72    2.05
  -2  -2  12  101.64    1.96
   2  -2 -12  103.16    1.82
   2  -2 -12  101.50    1.85
  -2  -2  12   98.66    1.84
   2   2  12  100.22    2.21
   2  -2 -12  102.03    2.04
  -4   2  12   54.91    1.23
   4  -2  12   58.03    1.50
  -4   2  12   56.11    1.35
  -4  -2 -12   54.87    1.14
  -4   2  12   55.96    1.20
   4  -2  12   55.41    1.31
  -4   2  12   55.18    1.33
   4   2 -12   56.61    1.25
   4   2 -12   54.42    1.15
  -4  -2 -12   54.60    1.16
  -4  -2 -12   52.92    1.28
   4  -2  12   54.30    1.20
   4  -2 -12   54.68    1.22
  -4  -2  12   55.45    1.24
  -4   2 -12   56.80    1.31
  -4   2 -12   55.37    1.11
   4  -2 -12   55.89    1.59
  -4  -2  12   55.70    1.23
  -4   2 -12   55.42    1.14
  -4  -2  12   55.15    1.40
   4   2  12   57.66    1.63
   4   2  12   55.77    1.31
  -6  -2 -12   26.64    0.73
  -6  -2 -12   26.61    0.68
  -6   2  12   26.85    0.79
   6  -2  12   26.21    0.76
  -6  -2  12   25.59    0.76
   6  -2 -12   26.09    0.74
  -6   2 -12   26.06    0.72
  -6  -2  12   24.77    0.78
  -1  -3 -12   40.09    0.84
   1   3 -12   39.74    1.09
   1   3 -12   40.11    0.89
  -1   3  12   40.72    0.95
   1  -3  12   39.60    0.90
   1  -3  12   40.76    1.09
   1   3 -12   40.94    0.83
   1   3 -12   41.69    1.24
  -1  -3 -12   41.32    0.81
   1  -3  12   41.22    0.95
  -1  -3 -12   41.03    0.88
   1  -3  12   38.98    1.06
  -1   3  12   40.99    0.83
  -1  -3 -12   40.85    0.92
   1   3 -12   42.33    0.89
   1  -3  12   42.02    0.89
  -1   3  12   41.16    1.18
  -1  -3 -12   41.06    1.13
   1  -3 -12   41.59    1.11
   1   3  12   42.06    0.95
  -1  -3  12   41.94    1.19
  -1  -3  12   41.16    1.00
  -1  -3  12   40.47    0.90
   1  -3 -12   43.65    0.88
  -1   3 -12   40.99    0.96
   1   3  12   41.23    0.95
  -1   3 -12   41.76    0.84
  -1   3 -12   41.06    0.90
   1   3  12   40.69    1.09
   1  -3 -12   41.41    0.90
   1   3  12   42.12    1.18
   3  -3  12   24.23    0.69
  -3  -3 -12   25.09    0.69
  -3   3  12   24.59    0.97
   3   3 -12   23.86    0.90
  -3  -3 -12   26.33    0.90
  -3   3  12   25.21    0.76
   3  -3  12   25.51    0.93
  -3  -3 -12   25.80    0.74
   3   3 -12   25.18    0.59
  -3  -3 -12   25.11    0.65
  -3   3  12   25.25    0.62
   3  -3  12   25.50    0.92
   3   3 -12   23.69    0.94
   3   3 -12   25.58    0.66
  -3  -3 -12   26.20    0.64
  -3   3  12   25.88    0.65
   3   3 -12   25.61    0.72
   3  -3  12   26.07    0.74
  -3   3 -12   25.57    0.80
  -3   3 -12   24.71    0.61
   3   3  12   24.73    0.83
  -3  -3  12   25.92    1.00
  -3   3 -12   25.68    0.60
   3   3  12   25.63    0.81
   3   3  12   25.66    0.74
   3  -3 -12   24.51    0.68
  -3  -3  12   25.30    0.70
   3  -3 -12   24.42    0.70
   3  -3 -12   27.29    1.02
   3  -3 -12   23.42    0.86
   3   3  12   25.67    0.97
  -3   3 -12   24.93    0.74
  -3  -3  12   25.37    0.70
  -3  -3  12   25.60    0.83
   5   3 -12   13.27    0.47
  -5  -3 -12   13.55    0.47
   5  -3  12   12.69    0.53
  -5   3  12   13.55    0.52
   5   3 -12   13.01    0.53
  -5  -3 -12   12.85    0.48
  -5  -3 -12   12.63    0.56
  -5   3  12   13.23    0.59
   5  -3  12   13.16    0.57
  -5  -3  12   14.78    0.52
   5  -3 -12   14.07    0.54
  -5  -3  12   13.84    0.56
  -5   3 -12   13.91    0.48
  -5  -3  12   14.06    0.65
  -5   3 -12   13.20    0.57
   5  -3 -12   12.69    0.59
   5  -3 -12   13.43    0.51
   0  -4 -12   86.57    1.63
   0   4 -12   90.24    1.66
   0  -4 -12   89.15    1.97
   0  -4  12   85.10    1.67
   0  -4 -12   89.51    1.70
   0   4  12   89.73    2.00
   0   4  12   98.18    1.75
   0   4 -12   87.50    1.72
   0   4  12   86.76    1.61
   0  -4  12   89.43    2.04
   0   4 -12   89.06    1.85
   0   4 -12   88.14    1.61
   0  -4  12   91.46    1.82
   0   4 -12   91.49    1.63
  -2  -4 -12   71.59    1.48
   2  -4  12   75.07    1.75
   2   4 -12   70.38    1.45
  -2  -4 -12   73.02    1.36
  -2   4  12   67.98    1.76
   2   4 -12   72.67    1.35
  -2  -4 -12   72.92    1.77
  -2   4  12   71.58    1.38
   2   4 -12   70.69    1.85
  -2  -4 -12   71.74    1.47
   2  -4  12   71.74    1.46
  -2  -4 -12   73.02    1.40
  -2   4  12   72.03    1.51
   2   4 -12   70.81    1.41
   2   4 -12   71.16    1.74
   2  -4  12   72.80    1.52
  -2  -4  12   72.54    1.64
  -2  -4  12   71.94    1.42
  -2  -4  12   72.89    1.45
   2  -4 -12   71.09    1.43
  -2   4 -12   72.86    1.35
  -2   4 -12   70.90    1.58
   2   4  12   71.99    1.57
  -2  -4  12   71.56    1.89
  -2   4 -12   72.61    1.51
   2   4  12   74.88    1.48
   2  -4 -12   74.29    1.41
   2   4  12   71.53    1.70
   2  -4 -12   74.51    1.65
   4   4 -12   45.57    0.93
   4  -4  12   44.07    1.11
  -4  -4 -12   44.06    1.00
   4   4 -12   42.69    1.08
   4   4 -12   43.80    1.00
  -4   4  12   44.14    0.99
  -4  -4 -12   43.02    1.13
  -4   4  12   42.24    1.15
  -4   4  12   44.56    1.01
   4  -4  12   43.57    1.08
  -4  -4 -12   43.68    1.01
  -4  -4 -12   44.27    1.07
  -4  -4  12   42.47    1.02
   4  -4 -12   41.83    1.14
  -4   4 -12   43.41    1.14
  -4   4 -12   44.94    0.96
   4  -4 -12   46.30    1.06
  -4  -4  12   42.05    1.23
  -4  -4  12   44.02    1.09
   4  -4 -12   43.32    1.08
  -6  -4 -12   21.36    0.62
   6  -4  12   21.83    0.68
  -6  -4 -12   21.73    0.60
  -6   4  12   22.51    0.66
  -6  -4  12   22.66    0.70
  -6   4 -12   22.52    0.62
   6  -4 -12   21.46    0.63
  -1   5  12   77.33    1.83
   1  -5  12   73.52    1.50
   1   5 -12   75.52    1.48
   1  -5  12   74.13    1.65
  -1  -5 -12   74.95    1.53
  -1  -5 -12   76.35    1.37
   1  -5  12   73.33    1.87
  -1   5  12   72.89    1.44
   1   5 -12   73.61    1.42
  -1  -5 -12   73.28    1.45
  -1  -5 -12   74.73    1.83
  -1   5  12   77.29    1.54
   1   5 -12   72.06    1.47
   1   5 -12   74.67    1.74
   1   5  12   73.85    1.41
   1   5  12   71.77    1.44
  -1  -5  12   72.63    1.92
  -1  -5  12   75.64    1.70
   1  -5 -12   74.40    1.49
   1  -5 -12   76.13    1.48
  -1  -5  12   73.72    1.47
   1   5  12   74.25    1.59
   1  -5 -12   75.96    1.75
  -1   5 -12   75.84    1.41
  -1   5 -12   75.04    1.62
   1   5  12   76.84    1.53
  -1  -5  12   75.74    1.44
  -1   5 -12   73.17    1.53
  -3  -5 -12   55.05    1.28
  -3  -5 -12   53.45    1.13
  -3  -5 -12   53.16    1.25
   3  -5  12   53.95    1.25
  -3   5  12   55.30    1.30
   3   5 -12   54.22    1.12
   3   5 -12   54.71    1.18
   3  -5  12   53.83    1.30
  -3  -5 -12   53.43    1.16
   3   5 -12   52.46    1.24
  -3   5  12   53.36    1.16
  -3   5 -12   52.16    1.28
   3  -5 -12   54.16    1.21
  -3  -5  12   53.21    1.22
   3   5  12   50.97    1.09
  -3  -5  12   54.12    1.42
   5  -5  12   30.07    0.87
  -5  -5 -12   28.94    0.76
  -5   5  12   30.86    0.77
  -5  -5 -12   31.05    0.79
   5  -5 -12   30.75    0.82
  -5   5 -12   31.37    0.76
   0  -6 -12   17.34    0.58
   0   6 -12   17.19    0.58
   0  -6 -12   17.07    0.57
   0   6  12   16.92    0.54
   0  -6  12   16.94    0.70
   0   6 -12   17.97    0.54
   2  -6  12   14.41    0.62
   2  -6  12   14.15    0.55
  -2   6  12   14.32    0.50
   2   6 -12   14.16    0.52
  -2  -6 -12   13.16    0.44
   2   6 -12   14.71    0.54
  -2  -6 -12   14.85    0.56
   2   6 -12   15.10    0.50
   2   6  12   13.74    0.55
   2   6  12   13.93    0.46
  -2   6 -12   14.25    0.57
  -2  -6  12   14.52    0.66
   2  -6 -12   14.50    0.54
  -2  -6  12   14.64    0.53
   2   6  12   15.37    0.51
  -2   6 -12   15.52    0.46
   4   6 -12    9.35    0.41
   4   6 -12    9.23    0.45
   4   6 -12    9.08    0.37
  -4  -6 -12   10.29    0.41
   4  -6  12    9.81    0.46
  -4   6  12    9.63    0.41
  -4  -6  12    9.71    0.46
   4   6  12    9.64    0.40
   4   6  12    9.49    0.35
  -4  -6  12    9.95    0.54
   4   6  12    9.13    0.46
   4  -6 -12    9.81    0.44
   1   7 -12   46.29    1.05
  -1  -7 -12   46.95    1.14
   1  -7  12   46.04    1.30
  -1  -7 -12   45.38    1.10
  -1   7  12   46.52    1.07
   1   7  12   47.70    1.07
  -1   7 -12   47.72    1.02
  -1  -7  12   46.46    1.32
  -1   7 -12   47.59    1.17
   1  -7 -12   46.33    1.13
   1   7  12   46.69    1.14
  -3  -7 -12   36.31    0.85
   3  -7  12   35.17    0.92
  -3   7  12   35.11    0.88
   3   7 -12   34.38    0.85
   3  -7 -12   34.11    0.91
   3   7  12   35.76    0.86
  -3  -7  12   33.89    0.92
   0   8 -12   32.29    0.79
   0   8  12   33.20    0.83
   0  -8 -12   33.15    0.89
  -2   8  12   28.49    0.75
   2   8 -12   28.01    0.73
  -2  -8 -12   28.12    0.77
   2  -8 -12   27.44    0.79
  -2  -8  12   27.61    0.76
   2   8  12   28.07    0.72
  -1  -9 -12   10.10    0.42
   1   9 -12   10.37    0.37
  -1   9  12   10.82    0.40
   1  -9 -12   10.97    0.44
   1   9  12   10.46    0.38
  -1   0  13   57.84    1.11
   1   0 -13   54.31    1.10
   1   0  13   54.75    1.31
   1   0 -13   54.41    1.10
   1   0  13   52.13    1.39
  -1   0  13   54.92    1.15
  -1   0 -13   56.12    1.11
  -1   0 -13   54.18    1.08
  -1   0 -13   55.08    1.27
   1   0  13   53.83    1.16
  -1   0  13   56.63    1.24
   1   0 -13   55.02    1.32
  -1   0 -13   57.71    1.07
  -1   0  13   55.89    1.39
   1   0 -13   55.59    1.43
   3   0 -13   30.35    0.77
   3   0 -13   31.07    0.98
  -3   0  13   31.63    1.02
  -3   0 -13   30.78    0.87
  -3   0  13   32.35    0.87
   3   0  13   32.50    0.74
   3   0 -13   32.32    1.08
  -3   0 -13   30.03    0.70
   3   0 -13   31.47    0.77
  -3   0  13   30.76    0.77
  -3   0 -13   31.25    0.71
  -3   0 -13   31.44    0.81
  -3   0  13   31.18    1.03
  -3   0  13   31.26    0.77
   3   0  13   30.27    0.95
   3   0  13   28.72    1.05
   3   0  13   31.27    0.86
  -3   0  13   30.56    0.81
   5   0 -13   15.23    0.53
  -5   0 -13   15.30    0.48
   5   0  13   14.96    0.63
  -5   0 -13   14.71    0.60
  -5   0  13   15.06    0.59
  -5   0  13   14.34    0.55
  -5   0  13   14.83    0.65
  -5   0  13   14.37    0.55
  -5   0 -13   15.23    0.52
   0   1 -13   26.56    0.80
   0  -1 -13   27.26    0.66
   0   1 -13   27.09    0.64
   0  -1  13   26.72    0.84
   0  -1  13   28.09    0.76
   0  -1  13   28.12    0.64
   0  -1 -13   27.43    0.82
   0   1  13   26.50    0.88
   0  -1  13   28.11    0.68
   0   1  13   28.26    0.71
   2   1 -13   25.04    0.83
  -2  -1 -13   24.37    0.63
  -2   1  13   25.65    0.62
   2  -1  13   24.85    0.69
  -2  -1 -13   23.42    0.61
  -2   1  13   24.50    0.61
  -2  -1 -13   24.56    0.58
  -2   1  13   24.45    0.88
  -2  -1 -13   23.19    0.77
   2  -1  13   24.91    0.89
   2  -1  13   24.30    0.61
  -2  -1 -13   24.09    0.56
  -2   1  13   24.27    0.69
   2   1 -13   23.94    0.63
   2  -1  13   25.43    0.82
   2   1 -13   24.68    0.91
   2   1 -13   25.11    0.65
  -2   1  13   25.24    0.67
  -2  -1 -13   24.66    0.69
   2  -1 -13   24.62    0.64
  -2  -1  13   24.57    0.64
  -2  -1  13   24.60    0.70
  -2  -1  13   24.31    0.83
  -2   1 -13   25.75    0.65
   2   1  13   23.99    0.89
  -2  -1  13   24.99    0.83
   2   1  13   24.69    0.70
  -2  -1  13   25.10    0.62
  -2  -1  13   25.33    0.65
   2  -1 -13   25.58    0.92
   2  -1 -13   25.50    0.82
  -2   1 -13   25.30    0.58
   2   1  13   23.72    0.79
   2  -1 -13   24.82    0.65
  -2   1 -13   24.96    0.70
   4   1 -13   19.33    0.58
  -4   1  13   19.62    0.68
  -4  -1 -13   19.27    0.66
  -4  -1 -13   18.88    0.56
   4  -1  13   19.73    0.59
  -4   1  13   19.11    0.62
   4   1 -13   18.80    0.61
  -4   1  13   19.37    0.70
  -4   1  13   19.69    0.88
  -4  -1 -13   19.54    0.55
   4   1 -13   18.96    0.79
  -4   1  13   18.63    0.60
   4  -1  13   18.50    0.67
  -4  -1  13   18.50    0.61
  -4   1 -13   18.48    0.53
  -4  -1  13   19.38    0.62
  -4  -1  13   20.27    0.73
   4  -1 -13   19.51    0.57
   4   1  13   19.57    0.69
  -4   1 -13   18.71    0.54
   4  -1 -13   20.05    0.61
  -4   1 -13   19.30    0.67
  -6   1  13   12.73    0.52
  -6  -1 -13   12.22    0.47
  -6   1  13   11.85    0.50
  -6   1 -13   12.28    0.47
  -6  -1  13   12.35    0.51
  -6  -1  13   11.86    0.50
   1  -2  13  100.61    2.11
   1   2 -13  100.15    1.72
   1   2 -13  101.03    2.27
  -1  -2 -13   99.90    1.82
  -1   2  13   98.08    2.18
  -1   2  13   97.77    1.89
  -1  -2 -13  101.76    1.84
   1  -2  13   99.76    1.84
   1  -2  13  100.13    1.81
   1   2 -13   99.25    1.81
   1   2 -13   98.56    1.81
  -1  -2 -13   99.35    2.08
   1  -2  13  103.45    1.98
   1   2 -13   97.16    2.06
  -1  -2 -13   99.24    1.77
  -1  -2  13   99.67    1.81
   1   2  13   99.59    2.05
  -1   2 -13  100.01    1.74
  -1  -2  13  102.34    2.03
  -1  -2  13   99.16    1.79
   1   2  13  101.76    1.89
  -1   2 -13  101.53    1.75
   1   2  13  100.77    2.19
  -1  -2  13  100.00    1.89
  -1   2 -13  102.22    1.80
  -1   2 -13  101.20    1.95
  -1   2 -13   98.91    1.86
  -1  -2  13  100.88    2.11
   1  -2 -13   99.45    2.08
   1  -2 -13   99.48    1.82
  -3   2  13   63.99    1.29
  -3   2  13   63.37    1.39
   3  -2  13   64.87    1.62
  -3  -2 -13   63.83    1.25
   3  -2  13   64.12    1.69
  -3  -2 -13   64.91    1.46
   3  -2  13   64.75    1.32
   3   2 -13   69.83    1.75
  -3  -2 -13   64.96    1.55
  -3  -2 -13   62.76    1.36
   3   2 -13   63.28    1.35
  -3  -2 -13   62.97    1.29
  -3   2  13   63.18    1.71
   3   2 -13   61.62    1.61
   3  -2  13   63.42    1.39
  -3  -2 -13   63.57    1.25
  -3   2  13   62.43    1.32
   3   2 -13   63.47    1.29
  -3   2  13   63.94    1.43
   3  -2 -13   63.19    1.59
   3   2  13   62.95    1.53
   3  -2 -13   64.50    1.28
   3  -2 -13   62.89    1.34
   3   2  13   63.29    1.40
  -3   2 -13   64.33    1.24
   3  -2 -13   63.93    1.73
  -3   2 -13   64.22    1.21
   3  -2 -13   64.27    1.52
  -3   2 -13   64.33    1.47
  -3   2 -13   63.57    1.38
  -3  -2  13   62.91    1.34
  -3  -2  13   65.05    1.32
   3   2  13   63.56    1.71
  -3  -2  13   62.83    1.46
  -3  -2  13   64.77    1.69
  -5   2  13   32.01    0.97
  -5   2  13   33.10    1.01
  -5  -2 -13   33.03    0.95
   5  -2  13   33.02    0.98
   5  -2  13   32.43    0.87
   5   2 -13   31.67    0.86
  -5  -2 -13   30.64    0.82
   5   2 -13   32.12    0.82
  -5  -2 -13   30.29    0.79
  -5   2  13   33.23    0.89
  -5  -2  13   31.57    0.90
  -5  -2  13   31.31    1.01
  -5  -2  13   31.94    0.88
   5   2  13   32.26    0.95
  -5   2 -13   31.51    0.81
  -5   2 -13   31.61    0.95
   5  -2 -13   32.05    0.88
   0   3  13   66.90    1.35
   0   3 -13   66.32    1.29
   0  -3  13   61.77    1.27
   0  -3  13   63.89    1.53
   0   3 -13   64.38    1.24
   0  -3 -13   63.40    1.53
   0   3  13   63.84    1.61
   0  -3  13   65.20    1.36
   0   3  13   63.23    1.20
   0   3 -13   62.75    1.44
   0   3 -13   63.78    1.20
   0  -3 -13   65.63    1.29
  -2   3  13   55.41    1.55
   2   3 -13   54.76    1.57
   2   3 -13   57.22    1.09
   2   3 -13   56.47    1.21
  -2  -3 -13   56.80    1.13
   2   3 -13   56.13    1.17
  -2  -3 -13   57.35    1.21
   2  -3  13   57.84    1.48
  -2  -3 -13   56.66    1.21
   2   3 -13   54.18    1.45
   2  -3  13   57.56    1.22
  -2   3  13   56.00    1.10
   2  -3  13   57.13    1.20
  -2   3  13   56.58    1.28
  -2  -3 -13   58.51    1.12
  -2  -3 -13   57.33    1.47
   2   3  13   56.46    1.42
  -2   3 -13   57.29    1.11
  -2  -3  13   57.97    1.34
  -2  -3  13   58.11    1.22
   2  -3 -13   56.81    1.40
   2   3  13   53.58    1.27
  -2  -3  13   56.45    1.16
  -2   3 -13   56.63    1.30
  -2  -3  13   59.04    1.56
   2  -3 -13   57.79    1.17
   2   3  13   57.01    1.25
  -2   3 -13   56.17    1.22
   2  -3 -13   55.75    1.16
   2   3  13   58.10    1.53
   4   3 -13   38.65    0.93
   4  -3  13   39.76    1.00
  -4   3  13   41.06    0.96
  -4   3  13   38.36    1.08
  -4  -3 -13   39.00    0.94
   4   3 -13   39.74    1.02
  -4  -3 -13   38.48    1.04
   4  -3  13   38.93    1.05
  -4  -3 -13   41.63    0.98
  -4  -3 -13   41.15    0.94
  -4  -3  13   40.97    1.18
  -4  -3  13   39.65    1.00
   4  -3 -13   40.58    1.01
   4   3  13   40.15    1.05
  -4   3 -13   38.56    0.88
  -4   3 -13   40.53    1.07
  -4  -3  13   39.47    1.01
   4  -3 -13   39.18    0.97
   4  -3 -13   39.15    1.08
  -6  -3 -13   21.91    0.60
   6  -3  13   20.87    0.67
  -6  -3 -13   20.51    0.62
  -6   3  13   21.51    0.66
   6  -3 -13   20.65    0.63
  -6   3 -13   21.61    0.61
  -6  -3  13   21.99    0.70
   1  -4  13   70.53    1.43
  -1  -4 -13   71.11    1.29
  -1  -4 -13   69.75    1.72
   1   4 -13   69.04    1.65
   1   4 -13   70.17    1.33
  -1  -4 -13   68.09    1.43
   1  -4  13   70.80    1.71
   1   4 -13   68.14    1.39
  -1   4  13   69.99    1.47
  -1   4  13   68.64    1.74
  -1   4  13   70.33    1.34
   1  -4  13   70.56    1.51
   1   4 -13   68.67    1.39
  -1  -4 -13   70.34    1.39
   1  -4 -13   70.12    1.66
   1  -4 -13   70.88    1.38
   1   4  13   70.18    1.32
  -1  -4  13   70.19    1.80
   1   4  13   72.00    1.45
  -1  -4  13   70.19    1.40
   1  -4 -13   70.13    1.41
   1   4  13   71.26    1.72
   1   4  13   70.30    1.70
   1   4  13   69.31    1.46
  -1   4 -13   69.86    1.42
   1   4  13   69.68    1.35
  -1  -4  13   71.06    1.57
  -1   4 -13   69.77    1.33
  -1   4 -13   68.55    1.48
   3   4 -13   48.49    1.09
   3   4 -13   48.64    1.15
  -3  -4 -13   48.88    1.14
  -3   4  13   48.45    1.21
  -3  -4 -13   47.33    1.17
   3   4 -13   48.66    1.01
  -3   4  13   48.15    1.04
  -3  -4 -13   49.05    1.08
   3  -4  13   46.70    1.14
  -3  -4 -13   48.78    1.05
   3  -4 -13   47.51    1.10
  -3  -4  13   48.42    1.31
  -3  -4  13   47.21    1.12
  -3  -4  13   48.66    1.12
  -3   4 -13   52.59    1.02
   3  -4 -13   49.02    1.17
  -3   4 -13   48.88    1.19
   5   4 -13   27.21    0.81
   5  -4  13   26.28    0.80
   5   4 -13   26.84    0.74
  -5  -4 -13   27.54    0.74
  -5   4  13   26.92    0.87
  -5  -4 -13   26.14    0.73
  -5   4  13   28.18    0.76
  -5  -4 -13   26.52    0.84
   5  -4  13   28.04    0.84
   5  -4 -13   26.90    0.77
  -5   4 -13   26.43    0.70
   5  -4 -13   26.26    0.86
  -5  -4  13   25.94    0.81
  -5   4 -13   27.67    0.85
   0  -5  13   17.52    0.57
   0   5 -13   17.83    0.56
   0  -5  13   17.95    0.68
   0  -5 -13   17.96    0.58
   0   5  13   18.09    0.54
   0   5  13   18.70    0.59
   0  -5 -13   19.42    0.57
   0   5 -13   18.97    0.54
   0  -5  13   18.61    0.83
   0  -5 -13   18.40    0.77
  -2   5  13   16.56    0.52
  -2  -5 -13   17.02    0.50
   2   5 -13   17.09    0.52
   2  -5  13   16.72    0.59
  -2  -5 -13   17.74    0.60
   2   5 -13   16.85    0.58
   2   5 -13   17.62    0.57
  -2   5  13   16.35    0.60
   2  -5  13   16.99    0.64
  -2   5 -13   16.90    0.50
   2   5  13   16.72    0.50
  -2  -5  13   16.59    0.55
  -2   5 -13   16.84    0.61
  -2  -5  13   16.65    0.55
   2  -5 -13   17.11    0.57
  -2  -5  13   17.60    0.71
   2   5  13   16.77    0.53
  -4   5  13   12.93    0.56
  -4  -5 -13   12.09    0.46
   4   5 -13   13.06    0.49
  -4   5  13   12.55    0.46
   4   5 -13   12.80    0.53
   4   5 -13   13.23    0.44
  -4  -5 -13   12.79    0.53
   4  -5  13   12.78    0.54
  -4  -5 -13   12.55    0.54
  -4  -5 -13   12.00    0.46
   4   5  13   12.84    0.42
  -4  -5  13   13.67    0.64
  -4  -5  13   12.72    0.53
  -4   5 -13   12.68    0.55
   4  -5 -13   11.99    0.49
   1  -6  13   20.66    0.77
  -1   6  13   20.90    0.62
   1  -6  13   20.82    0.65
  -1  -6 -13   20.63    0.67
   1   6 -13   21.65    0.61
  -1  -6 -13   20.58    0.63
   1   6  13   20.46    0.65
   1  -6 -13   21.54    0.66
  -1  -6  13   19.65    0.78
   1  -6 -13   21.26    0.63
  -1   6 -13   19.98    0.58
   1   6  13   19.34    0.60
  -1   6 -13   20.16    0.67
  -3   6  13   15.28    0.53
  -3  -6 -13   15.52    0.59
   3   6 -13   15.90    0.52
   3   6 -13   14.35    0.54
   3   6 -13   15.94    0.59
  -3  -6 -13   16.07    0.51
   3  -6  13   15.31    0.59
   3  -6  13   16.03    0.65
  -3   6  13   15.14    0.59
   3   6  13   16.17    0.54
  -3  -6  13   15.74    0.58
   3  -6 -13   14.41    0.55
  -3   6 -13   15.24    0.60
   3   6  13   15.11    0.59
   3   6  13   15.63    0.49
  -3  -6  13   14.54    0.68
   5  -6  13    9.27    0.42
  -5   6  13    9.34    0.36
  -5  -6 -13    8.88    0.36
   5   6  13    9.58    0.36
   5  -6 -13    9.37    0.39
   0   7 -13   11.30    0.47
   0   7 -13   12.10    0.44
   0  -7 -13   11.64    0.49
   0  -7 -13   11.71    0.47
   0   7  13   11.66    0.46
   0  -7  13   11.57    0.60
  -2  -7 -13   11.08    0.48
  -2   7  13   11.23    0.45
   2  -7  13   10.53    0.46
   2   7 -13   10.06    0.42
   2  -7  13   10.20    0.55
  -2  -7 -13   10.69    0.38
  -2  -7  13   10.14    0.44
   2  -7 -13   10.68    0.47
  -2  -7  13   11.63    0.59
   2   7  13    9.80    0.46
  -2   7 -13   10.75    0.49
   2   7  13   10.43    0.43
   4  -7  13    7.61    0.39
   4   7 -13    6.86    0.32
  -4   7  13    7.95    0.35
  -4  -7 -13    7.83    0.34
   4   7  13    8.36    0.34
  -4  -7  13    8.03    0.40
   4  -7 -13    7.60    0.36
   1   8 -13   27.72    0.74
  -1   8  13   29.65    0.78
  -1  -8 -13   30.22    0.81
   1  -8 -13   28.96    0.82
   1   8  13   30.09    0.76
  -1   8 -13   29.01    0.70
  -3  -8 -13   23.96    0.59
   3   8 -13   22.11    0.61
  -3   8  13   22.33    0.63
   3   8  13   23.13    0.60
  -3  -8  13   23.20    0.66
   3  -8 -13   21.82    0.65
   0  -9 -13   14.84    0.51
   0   9 -13   14.84    0.44
   0   9  13   15.82    0.48
   0   0  14   17.65    0.70
   0   0  14   18.07    0.55
   0   0 -14   18.34    0.50
   0   0 -14   17.42    0.64
  -2   0 -14   13.14    0.43
   2   0  14   12.02    0.63
  -2   0 -14   12.55    0.39
  -2   0  14   12.25    0.46
  -2   0 -14   12.57    0.38
  -2   0  14   11.73    0.59
  -2   0 -14   12.17    0.36
  -2   0  14   12.82    0.42
  -2   0 -14   12.12    0.51
   2   0 -14   12.40    0.43
  -2   0  14   12.35    0.45
  -2   0  14   12.12    0.55
  -2   0  14   12.18    0.41
   2   0  14   12.57    0.41
   2   0 -14   11.67    0.55
   2   0 -14   12.63    0.66
   2   0 -14   12.67    0.44
  -2   0 -14   12.58    0.47
   2   0  14   12.03    0.55
   2   0  14   12.58    0.48
   4   0 -14    5.89    0.33
  -4   0 -14    5.48    0.34
  -4   0  14    5.31    0.33
   4   0 -14    6.14    0.33
  -4   0  14    5.32    0.34
   4   0  14    4.98    0.36
  -4   0 -14    5.63    0.29
  -4   0  14    5.83    0.39
  -4   0 -14    5.69    0.28
  -4   0  14    5.41    0.32
  -6   0  14    2.23    0.26
  -6   0  14    2.76    0.29
  -6   0 -14    2.46    0.22
  -1  -1 -14  208.54    3.46
  -1  -1 -14  211.49    3.82
   1  -1  14  207.88    3.50
   1   1 -14  207.55    3.53
   1   1 -14  214.17    4.02
  -1   1  14  214.30    3.63
   1   1 -14  213.99    3.54
  -1  -1 -14  211.55    3.43
   1  -1  14  213.21    3.60
   1  -1  14  210.56    3.93
  -1   1  14  211.78    3.96
  -1  -1 -14  213.42    3.53
   1   1 -14  207.68    3.81
  -1  -1 -14  214.84    3.54
  -1   1 -14  212.94    3.48
  -1   1 -14  213.89    3.44
   1  -1 -14  205.28    3.81
  -1   1 -14  211.47    3.48
   1  -1 -14  208.92    3.53
   1   1  14  216.47    3.83
   1   1  14  209.69    3.96
  -1  -1  14  215.07    3.88
  -1  -1  14  214.86    3.57
   1   1  14  214.93    3.63
  -1  -1  14  208.50    3.76
  -1   1 -14  209.95    3.73
  -1  -1  14  213.95    3.57
  -1  -1  14  212.84    3.52
  -1   1 -14  219.91    3.56
  -3   1  14  142.54    2.60
   3   1 -14  139.31    2.51
  -3   1  14  138.74    2.97
   3  -1  14  139.47    3.00
   3   1 -14  138.62    2.84
   3   1 -14  138.39    2.48
   3  -1  14  141.59    2.47
  -3  -1 -14  140.16    2.64
   3  -1  14  138.81    2.61
  -3   1  14  144.46    2.50
  -3  -1 -14  137.94    2.54
  -3   1  14  141.29    2.50
   3   1 -14  141.08    2.97
  -3   1  14  139.17    2.60
  -3  -1 -14  139.31    2.41
  -3  -1 -14  139.13    2.42
   3  -1  14  141.04    2.83
   3   1  14  135.55    2.98
   3  -1 -14  137.08    2.82
  -3   1 -14  141.33    2.55
   3  -1 -14  142.31    3.01
  -3   1 -14  139.52    2.65
  -3   1 -14  140.31    2.39
   3   1  14  138.17    2.61
  -3   1 -14  139.25    2.40
  -3  -1  14  139.12    2.49
  -3  -1  14  138.04    2.64
   3  -1 -14  138.29    2.48
  -3  -1  14  136.69    2.51
   3  -1 -14  137.26    2.50
   3   1  14  139.75    2.78
   3  -1 -14  138.97    2.79
  -3  -1  14  136.27    2.90
  -3  -1  14  139.01    2.52
  -5  -1 -14   76.12    1.69
   5   1 -14   75.17    1.54
  -5   1  14   75.70    1.60
  -5   1  14   74.03    1.59
  -5  -1 -14   75.66    1.53
   5   1 -14   76.55    1.56
   5  -1  14   74.49    1.72
   5  -1  14   79.23    1.56
  -5   1  14   74.54    1.69
  -5  -1 -14   74.89    1.49
  -5   1  14   72.79    1.74
  -5  -1  14   76.04    1.78
  -5   1 -14   77.11    1.52
  -5  -1  14   71.04    1.59
   5  -1 -14   73.71    1.58
  -5   1 -14   75.11    1.46
  -5  -1  14   74.92    1.60
  -5   1 -14   75.75    1.69
   5   1  14   74.82    1.72
   0   2 -14   15.02    0.58
   0  -2  14   15.50    0.59
   0   2  14   13.37    0.64
   0  -2  14   15.35    0.61
   0   2 -14   15.04    0.41
   0  -2 -14   14.85    0.62
   0  -2  14   14.83    0.46
   0   2 -14   15.55    0.46
   0  -2  14   15.01    0.48
   0  -2  14   14.59    0.46
   0  -2 -14   14.80    0.47
   0   2  14   15.02    0.51
   2   2 -14   10.72    0.63
   2   2 -14   10.77    0.34
   2   2 -14   10.42    0.40
   2  -2  14   10.65    0.44
   2   2 -14   11.04    0.43
  -2  -2 -14   10.88    0.40
  -2   2  14   10.11    0.59
  -2   2  14   11.17    0.38
   2   2 -14   10.00    0.54
   2  -2  14   10.66    0.58
  -2  -2 -14   10.91    0.54
  -2  -2 -14   11.09    0.45
  -2   2  14   10.60    0.45
   2  -2  14   10.67    0.40
  -2  -2 -14   10.85    0.37
  -2  -2 -14   10.77    0.40
  -2  -2 -14   11.15    0.36
   2  -2 -14   11.06    0.41
  -2  -2  14   10.76    0.47
   2   2  14   10.26    0.46
  -2   2 -14   13.52    0.50
   2   2  14   10.52    0.62
   2  -2 -14   10.97    0.53
  -2  -2  14   11.18    0.42
  -2   2 -14   11.68    0.37
  -2  -2  14   10.72    0.39
   2   2  14   11.28    0.54
  -2  -2  14   10.30    0.56
   2  -2 -14   10.87    0.42
   4  -2  14    6.12    0.38
  -4   2  14    4.89    0.35
  -4   2  14    4.92    0.30
   4   2 -14    5.35    0.31
  -4  -2 -14    5.09    0.34
  -4  -2 -14    5.37    0.29
  -4   2  14    5.30    0.36
  -4   2  14    5.60    0.34
   4   2 -14    5.14    0.33
   4  -2  14    5.12    0.32
  -4  -2 -14    5.34    0.29
  -4   2 -14    5.41    0.27
   4   2  14    4.78    0.35
  -4   2 -14    5.43    0.34
  -4  -2  14    5.31    0.34
  -4  -2  14    5.65    0.40
  -4   2 -14    5.13    0.27
   4  -2 -14    5.16    0.32
  -4  -2  14    5.44    0.33
  -6   2  14    2.02    0.24
  -6  -2 -14    2.20    0.23
  -6  -2 -14    2.48    0.20
   6  -2  14    2.14    0.25
  -6   2 -14    2.46    0.21
   6  -2 -14    2.23    0.24
  -6  -2  14    2.01    0.24
  -6  -2  14    2.19    0.26
  -1  -3 -14  167.82    2.83
  -1   3  14  164.16    3.32
  -1  -3 -14  164.70    2.78
   1   3 -14  164.75    3.18
   1  -3  14  171.77    2.93
   1  -3  14  163.76    2.88
   1   3 -14  163.38    2.87
  -1  -3 -14  158.83    3.20
  -1   3  14  165.33    2.97
  -1  -3 -14  169.83    2.75
  -1  -3 -14  165.03    2.90
  -1   3  14  165.36    2.76
   1   3 -14  166.01    2.87
   1   3 -14  165.14    3.44
   1  -3  14  171.68    3.15
   1   3 -14  167.95    2.77
   1   3  14  161.54    3.17
   1  -3 -14  162.68    3.20
  -1  -3  14  166.40    3.01
   1   3  14  163.93    2.91
   1  -3 -14  166.55    2.81
   1   3  14  163.39    2.93
  -1   3 -14  163.09    2.93
   1   3  14  164.47    3.28
  -1  -3  14  163.47    2.87
   1  -3 -14  166.73    2.88
  -1  -3  14  173.14    3.31
  -1   3 -14  162.50    2.78
  -1   3 -14  179.10    2.88
  -3   3  14  114.83    2.10
   3   3 -14  114.39    2.21
  -3  -3 -14  115.21    2.22
   3   3 -14  113.68    2.15
  -3  -3 -14  115.88    2.18
  -3  -3 -14  116.72    2.52
  -3   3  14  116.34    2.31
  -3  -3 -14  113.58    2.10
   3  -3  14  117.25    2.61
   3  -3  14  114.41    2.18
   3   3 -14  118.91    2.03
  -3  -3 -14  117.37    2.10
   3  -3  14  116.14    2.24
   3  -3 -14  113.61    2.18
  -3   3 -14  118.97    2.07
   3  -3 -14  115.30    2.23
   3   3  14  119.41    2.64
  -3  -3  14  114.68    2.20
  -3  -3  14  116.76    2.38
   3   3  14  113.02    2.23
  -3   3 -14  117.86    2.25
   3  -3 -14  118.10    2.11
  -3  -3  14  116.60    2.17
   3  -3 -14  115.67    2.15
  -5  -3 -14   66.31    1.53
  -5  -3 -14   62.83    1.37
   5  -3  14   67.46    1.46
   5   3 -14   65.12    1.38
   5  -3  14   65.95    1.54
  -5   3  14   65.07    1.57
  -5  -3 -14   66.04    1.36
  -5   3  14   66.18    1.43
   5   3 -14   69.51    1.47
  -5  -3  14   64.36    1.62
  -5   3 -14   66.25    1.54
   5  -3 -14   66.39    1.42
   5  -3 -14   65.06    1.46
  -5   3 -14   67.39    1.35
  -5  -3  14   66.82    1.48
  -5  -3  14   64.15    1.43
   5  -3 -14   61.89    1.53
   0   4  14    9.22    0.34
   0  -4  14    9.42    0.55
   0  -4 -14    8.89    0.35
   0  -4 -14    8.92    0.39
   0  -4 -14    8.57    0.51
   0   4  14    9.16    0.40
   0   4 -14    9.05    0.34
   0  -4  14    8.66    0.38
   0   4  14    9.35    0.54
   0  -4  14    8.37    0.43
  -2  -4 -14    7.22    0.35
  -2  -4 -14    7.03    0.30
  -2  -4 -14    7.06    0.36
   2   4 -14    7.59    0.32
  -2  -4 -14    7.24    0.32
   2   4 -14    7.81    0.58
  -2   4  14    6.93    0.31
   2   4 -14    7.66    0.50
  -2  -4 -14    7.48    0.49
   2   4 -14    6.82    0.36
  -2   4  14    6.84    0.38
   2   4 -14    7.58    0.36
   2  -4  14    7.73    0.39
  -2   4  14    7.25    0.51
  -2   4 -14    7.19    0.40
  -2  -4  14    7.59    0.35
  -2  -4  14    6.90    0.35
   2  -4 -14    7.81    0.46
   2   4  14    7.71    0.40
  -2  -4  14    7.11    0.42
   2  -4 -14    6.66    0.34
  -2   4 -14    7.03    0.36
   2   4  14    7.38    0.36
   2  -4 -14    7.25    0.33
  -2  -4  14    7.49    0.54
   2   4  14    7.58    0.48
  -2   4 -14    7.75    0.31
   4   4 -14    3.81    0.28
  -4  -4 -14    3.80    0.27
   4  -4  14    3.63    0.31
  -4  -4 -14    3.97    0.31
  -4  -4 -14    4.10    0.26
   4  -4  14    4.37    0.32
   4   4 -14    3.99    0.32
  -4  -4 -14    3.98    0.28
  -4   4  14    3.96    0.32
  -4  -4  14    4.72    0.33
  -4  -4  14    3.76    0.28
  -4   4 -14    3.88    0.31
  -4  -4  14    4.89    0.46
   4  -4 -14    3.65    0.31
   4  -4 -14    4.09    0.30
  -4   4 -14    4.29    0.24
  -6  -4 -14    2.05    0.19
  -6  -4 -14    2.10    0.18
  -6   4  14    1.92    0.21
   6  -4  14    2.00    0.24
   6  -4 -14    2.24    0.22
  -6  -4  14    1.73    0.22
  -6   4 -14    2.01    0.20
  -1   5  14  113.64    2.09
   1   5 -14  116.67    2.15
  -1  -5 -14  115.48    2.22
   1   5 -14  115.59    2.09
   1  -5  14  115.43    2.18
   1  -5  14  117.66    2.32
  -1   5  14  117.42    2.23
   1   5  14  112.33    2.10
  -1   5 -14  116.08    2.19
  -1  -5  14  117.48    2.39
   1  -5 -14  113.54    2.15
   1   5  14  119.08    2.16
  -1   5 -14  113.02    2.06
  -1  -5  14  115.63    2.15
   1  -5 -14  116.70    2.15
  -3   5  14   87.75    1.67
   3   5 -14   84.99    1.78
   3   5 -14   85.30    1.73
   3  -5  14   85.69    1.78
  -3  -5 -14   84.00    1.78
  -3   5  14   85.34    1.84
  -3  -5 -14   88.35    1.66
   3   5 -14   86.63    1.64
  -3  -5 -14   85.99    1.80
  -3   5 -14   87.04    1.83
   3   5  14   83.83    1.62
  -3  -5  14   86.02    1.75
  -3  -5  14   84.50    1.97
   3  -5 -14   83.87    1.74
  -5  -5 -14   49.56    1.09
   5  -5  14   49.31    1.18
  -5  -5  14   49.46    1.18
   5  -5 -14   50.54    1.13
   0  -6  14    5.76    0.33
   0   6  14    5.24    0.30
   0  -6 -14    5.77    0.33
   0  -6 -14    5.85    0.33
   0  -6  14    6.47    0.43
   0   6 -14    5.46    0.30
   2   6 -14    4.37    0.31
  -2  -6 -14    5.27    0.33
   2  -6  14    4.65    0.35
   2   6 -14    4.87    0.32
  -2  -6 -14    4.44    0.25
  -2   6  14    4.66    0.28
   2   6 -14    4.44    0.29
   2  -6  14    4.57    0.36
   2   6  14    4.53    0.29
   2   6  14    4.28    0.25
   2  -6 -14    4.53    0.31
  -2  -6  14    4.70    0.31
  -2  -6  14    4.46    0.43
  -2   6 -14    4.11    0.31
  -2   6 -14    4.65    0.26
   2   6  14    4.65    0.30
  -4  -6 -14    3.16    0.23
   4  -6  14    3.35    0.30
   4   6 -14    2.95    0.23
  -4   6  14    3.42    0.24
   4  -6 -14    2.41    0.25
   4   6  14    2.67    0.23
  -4  -6  14    3.00    0.30
  -1  -7 -14   75.33    1.53
  -1  -7 -14   75.46    1.60
  -1   7  14   73.27    1.51
   1   7 -14   72.55    1.48
  -1   7 -14   75.97    1.46
  -1  -7  14   74.15    1.78
   1  -7 -14   72.76    1.56
   1   7  14   72.96    1.50
   3  -7  14   56.62    1.26
  -3   7  14   55.20    1.21
  -3  -7 -14   57.07    1.16
   3   7 -14   56.33    1.19
  -3  -7  14   56.75    1.26
   3   7  14   56.95    1.20
   3  -7 -14   56.03    1.25
   0  -8 -14    3.85    0.28
   0   8 -14    4.04    0.25
   0   8  14    4.13    0.27
  -2   8  14    3.29    0.23
   2   8 -14    3.04    0.23
   2  -8 -14    3.23    0.26
   2   8  14    3.40    0.23
   1   0  15    0.10    0.13
  -1   0 -15    0.05    0.05
  -1   0 -15    0.12    0.07
  -1   0 -15   -0.03    0.05
  -1   0 -15    0.03    0.06
   1   0  15    0.04    0.10
   1   0 -15   -0.04    0.06
  -1   0 -15    0.02    0.08
   1   0 -15    0.08    0.10
  -1   0  15    0.39    0.11
  -1   0  15    0.29    0.14
  -1   0  15    0.06    0.07
   1   0  15    0.11    0.08
  -3   0  15    0.39    0.17
  -3   0  15    0.18    0.13
   3   0  15    0.25    0.13
  -3   0 -15    0.41    0.12
   3   0 -15    0.20    0.17
  -3   0  15    0.18    0.10
   3   0  15    0.05    0.16
  -3   0  15    0.25    0.12
   3   0  15    0.63    0.19
  -3   0 -15    0.42    0.11
  -3   0  15    0.38    0.13
  -3   0  15    0.31    0.11
   3   0 -15    0.32    0.12
   3   0 -15    0.93    0.21
  -3   0 -15    0.31    0.09
  -3   0 -15    0.43    0.13
   5   0  15    0.34    0.16
  -5   0 -15    0.72    0.18
  -5   0 -15    0.48    0.13
  -5   0  15    0.31    0.16
  -5   0  15    0.64    0.19
  -5   0 -15    0.60    0.13
  -5   0  15    0.32    0.14
   5   0 -15    0.36    0.14
   0   1  15   12.89    0.47
   0  -1 -15   14.84    0.47
   0  -1 -15   13.86    0.37
   0  -1  15   13.50    0.47
   0  -1 -15   14.63    0.61
   0   1 -15   13.04    0.56
   0  -1  15   13.75    0.61
   0  -1  15   13.57    0.44
   0   1 -15   13.74    0.39
   0   1 -15   13.49    0.44
   0   1  15   12.96    0.63
   2   1 -15    9.73    0.61
  -2  -1 -15    9.70    0.37
  -2  -1 -15    9.25    0.33
  -2   1  15    9.94    0.38
  -2   1  15    9.70    0.37
   2   1 -15    9.60    0.40
   2  -1  15    9.58    0.43
   2  -1  15    9.93    0.38
   2  -1  15    9.49    0.57
  -2  -1 -15   10.12    0.35
  -2   1  15    9.70    0.57
  -2  -1 -15   10.31    0.43
   2   1 -15    8.99    0.51
   2  -1  15    9.47    0.52
  -2  -1 -15    9.23    0.37
  -2   1  15    9.34    0.42
   2   1 -15    9.36    0.39
  -2   1  15   10.48    0.40
  -2  -1 -15    9.89    0.50
  -2   1 -15   10.00    0.35
  -2   1 -15   10.99    0.40
  -2  -1  15    9.25    0.39
   2  -1 -15    9.35    0.51
   2  -1 -15   10.24    0.40
  -2  -1  15    9.04    0.51
  -2  -1  15    9.34    0.39
   2  -1 -15    9.24    0.47
   2  -1 -15   10.44    0.63
   2   1  15    9.18    0.59
   2  -1 -15    9.22    0.38
  -2   1 -15   11.18    0.44
  -2  -1  15    9.90    0.37
   2   1  15    9.37    0.51
  -2  -1  15    9.62    0.51
   2   1  15    9.79    0.45
  -2  -1  15    9.66    0.42
  -4   1  15    5.18    0.33
  -4  -1 -15    5.21    0.28
   4   1 -15    4.75    0.30
  -4  -1 -15    4.48    0.27
  -4   1  15    5.32    0.36
  -4  -1 -15    4.89    0.33
   4   1 -15    4.94    0.31
   4  -1  15    4.62    0.35
   4  -1  15    5.00    0.31
  -4   1  15    4.31    0.29
  -4   1  15    4.79    0.35
   4  -1 -15    4.37    0.28
   4  -1 -15    5.04    0.32
  -4  -1  15    4.76    0.32
   4   1  15    4.58    0.35
  -4   1 -15    4.93    0.33
  -4   1 -15    4.55    0.26
  -4  -1  15    4.46    0.35
  -4  -1  15    4.65    0.31
  -4   1 -15    4.52    0.26
  -6  -1 -15    2.20    0.18
  -6  -1 -15    2.31    0.24
  -6   1  15    2.51    0.27
  -6  -1  15    2.47    0.27
  -6  -1  15    2.04    0.26
  -6   1 -15    2.44    0.21
  -1  -2 -15    8.86    0.30
   1  -2  15    8.44    0.37
  -1  -2 -15    9.07    0.49
   1   2 -15    8.16    0.47
   1   2 -15    8.42    0.36
   1   2 -15    8.59    0.36
   1   2 -15    8.36    0.30
  -1   2  15    8.84    0.54
   1  -2  15    8.28    0.51
  -1  -2 -15    9.08    0.37
  -1   2  15    8.81    0.40
  -1  -2 -15    8.57    0.30
   1  -2  15    9.15    0.40
   1   2  15    8.33    0.40
   1  -2 -15    8.60    0.36
   1  -2 -15    8.25    0.32
   1  -2 -15    8.08    0.47
  -1   2 -15    8.78    0.32
  -1   2 -15    8.90    0.32
  -1  -2  15    8.13    0.38
   1   2  15    8.37    0.52
  -1  -2  15    8.35    0.47
  -1   2 -15    8.22    0.36
  -1  -2  15    8.37    0.36
  -1   2 -15    8.69    0.33
   3  -2  15    8.21    0.38
   3   2 -15    7.88    0.39
  -3  -2 -15    7.55    0.35
  -3  -2 -15    7.20    0.33
   3   2 -15    8.28    0.58
  -3  -2 -15    7.44    0.33
  -3  -2 -15    7.38    0.37
  -3  -2 -15    7.76    0.42
  -3   2  15    7.47    0.41
   3  -2  15    7.87    0.42
   3   2 -15    7.61    0.37
  -3   2  15    7.98    0.35
  -3   2  15    8.66    0.41
   3  -2  15    8.04    0.57
  -3   2  15    8.14    0.57
  -3  -2  15    7.47    0.43
  -3   2 -15    7.33    0.41
   3  -2 -15    7.27    0.45
   3   2  15    6.92    0.55
  -3  -2  15    8.42    0.55
  -3   2 -15    7.66    0.39
  -3   2 -15    7.69    0.32
   3   2  15    7.37    0.42
  -3  -2  15    8.08    0.39
  -3   2 -15    7.71    0.30
   3   2  15    7.61    0.47
   3  -2 -15    7.87    0.36
   3  -2 -15    7.49    0.37
  -3  -2  15    7.72    0.37
   5  -2  15    5.31    0.35
   5   2 -15    5.78    0.35
   5   2 -15    5.94    0.33
  -5   2  15    5.56    0.34
  -5  -2 -15    5.59    0.30
  -5   2  15    5.33    0.38
   5  -2  15    4.70    0.37
  -5  -2 -15    5.32    0.32
  -5   2 -15    5.70    0.30
  -5  -2  15    5.30    0.36
  -5   2 -15    5.20    0.35
  -5  -2  15    5.17    0.34
   5  -2 -15    5.01    0.32
  -5  -2  15    5.53    0.41
   5  -2 -15    5.74    0.35
   5   2  15    4.79    0.37
   0  -3 -15   35.91    1.10
   0   3  15   34.34    0.91
   0   3 -15   37.42    0.83
   0   3 -15   37.62    1.03
   0  -3 -15   34.39    0.86
   0  -3  15   37.38    1.10
   0   3  15   35.44    0.78
   0   3 -15   34.89    0.78
   0  -3  15   33.79    0.85
   0  -3  15   34.06    0.90
   0   3  15   34.91    1.15
   2   3 -15   27.86    0.67
   2   3 -15   28.24    1.00
   2   3 -15   27.96    0.76
  -2   3  15   27.76    0.83
   2   3 -15   28.38    1.12
   2   3 -15   28.35    0.78
  -2  -3 -15   27.77    0.77
   2  -3  15   29.75    1.02
  -2  -3 -15   28.43    0.70
   2  -3  15   28.15    0.78
   2  -3  15   26.53    0.76
  -2  -3 -15   27.50    0.75
  -2  -3 -15   28.02    0.68
  -2  -3 -15   27.79    0.98
  -2   3 -15   27.51    0.76
  -2  -3  15   28.62    0.87
   2  -3 -15   27.25    0.94
  -2  -3  15   28.55    0.77
  -2  -3  15   28.11    0.73
   2   3  15   27.25    0.81
   2  -3 -15   28.00    0.73
   2   3  15   29.54    0.98
   2   3  15   27.74    0.81
   2  -3 -15   28.43    0.74
   2   3  15   28.04    1.02
  -2   3 -15   28.27    0.68
  -2  -3  15   28.62    1.04
  -2   3 -15   28.36    0.83
  -4   3  15   15.82    0.65
   4  -3  15   15.59    0.59
   4   3 -15   15.84    0.60
   4   3 -15   15.29    0.55
   4  -3  15   16.02    0.63
  -4  -3 -15   15.76    0.54
  -4  -3 -15   16.00    0.53
  -4  -3 -15   15.68    0.61
  -4   3  15   16.08    0.55
   4  -3 -15   15.90    0.58
   4  -3 -15   16.50    0.63
  -4  -3  15   16.05    0.59
  -4   3 -15   16.18    0.49
  -4  -3  15   14.48    0.57
  -4   3 -15   16.45    0.50
   4   3  15   16.17    0.62
  -4   3 -15   15.27    0.61
   4  -3 -15   15.83    0.56
  -4  -3  15   15.59    0.68
  -6  -3 -15    7.70    0.35
  -6   3  15    7.18    0.35
  -6  -3 -15    7.56    0.32
   6  -3  15    7.95    0.38
  -6  -3  15    6.77    0.34
   6  -3 -15    7.70    0.36
  -6   3 -15    7.46    0.33
  -6  -3  15    8.26    0.40
   1  -4  15    7.15    0.38
  -1   4  15    7.63    0.32
   1   4 -15    7.49    0.32
  -1  -4 -15    7.71    0.29
   1  -4  15    7.82    0.41
  -1   4  15    7.99    0.40
   1   4 -15    8.56    0.51
  -1  -4 -15    8.04    0.51
  -1  -4 -15    7.53    0.37
  -1   4  15    7.97    0.53
   1   4 -15    7.70    0.37
  -1  -4  15    7.44    0.36
  -1   4 -15    8.10    0.36
   1  -4 -15    8.12    0.36
   1   4  15    8.23    0.39
  -1   4 -15    7.64    0.39
   1   4  15    7.05    0.32
  -1   4 -15    7.40    0.32
   1   4  15    8.22    0.53
  -1  -4  15    7.38    0.43
   1  -4 -15    8.45    0.50
   1  -4 -15    7.91    0.37
  -1  -4  15    8.23    0.55
   3   4 -15    6.69    0.32
   3  -4  15    6.82    0.38
  -3  -4 -15    6.65    0.37
  -3   4  15    6.51    0.40
   3   4 -15    6.46    0.36
  -3  -4 -15    6.88    0.37
  -3  -4 -15    5.10    0.30
   3   4 -15    6.02    0.37
  -3   4 -15    6.49    0.38
  -3  -4  15    6.31    0.43
   3  -4 -15    6.64    0.36
  -3  -4  15    6.63    0.36
  -3   4 -15    6.97    0.31
  -3  -4  15    6.47    0.36
  -5  -4 -15    3.77    0.26
  -5  -4 -15    4.17    0.28
   5  -4  15    4.16    0.32
  -5   4  15    4.83    0.29
  -5  -4  15    4.39    0.33
   5  -4 -15    4.39    0.30
  -5   4 -15    4.36    0.25
   0   5  15    7.46    0.38
   0   5 -15    6.95    0.33
   0  -5 -15    7.58    0.38
   0  -5 -15    7.79    0.35
   0  -5  15    7.03    0.43
   0  -5  15    6.64    0.36
   0   5  15    6.66    0.33
  -2   5  15    5.38    0.35
   2  -5  15    5.42    0.37
  -2   5  15    5.83    0.30
   2   5 -15    5.91    0.34
   2   5 -15    5.87    0.31
  -2  -5 -15    5.81    0.35
   2   5 -15    5.97    0.35
  -2  -5 -15    4.95    0.26
   2   5  15    5.60    0.33
   2  -5 -15    5.50    0.33
  -2  -5  15    5.31    0.32
   2   5  15    5.80    0.28
  -2  -5  15    5.94    0.34
  -2   5 -15    6.28    0.36
  -2   5 -15    6.01    0.29
   2   5  15    5.43    0.31
  -2  -5  15    6.39    0.43
   4   5 -15    3.77    0.29
   4   5 -15    3.36    0.32
   4   5 -15    3.98    0.25
  -4  -5 -15    3.55    0.25
   4  -5  15    3.65    0.31
  -4   5  15    3.71    0.31
  -4  -5 -15    3.66    0.29
  -4   5 -15    3.75    0.30
  -4  -5  15    3.59    0.30
   4  -5 -15    2.86    0.28
   4   5  15    3.91    0.23
   1  -6  15    0.38    0.17
  -1  -6 -15    0.23    0.11
   1  -6  15    0.03    0.12
  -1   6  15    0.08    0.10
   1   6 -15    0.02    0.10
  -1  -6  15    0.28    0.13
  -1   6 -15    0.20    0.12
   1   6  15    0.16    0.11
   1  -6 -15    0.05    0.09
   1  -6 -15    0.01    0.11
  -1  -6  15   -0.13    0.11
  -1   6 -15    0.07    0.10
  -3   6  15    0.22    0.13
  -3  -6 -15    0.20    0.11
   3  -6  15    0.04    0.14
  -3  -6 -15    0.27    0.11
  -3   6  15    0.18    0.11
   3   6 -15    0.06    0.14
   3   6 -15    0.08    0.11
   3   6 -15    0.26    0.14
  -3   6 -15    0.32    0.14
   3   6  15    0.19    0.11
  -3  -6  15    0.22    0.14
   3  -6 -15    0.09    0.12
  -3  -6  15   -0.01    0.12
   3   6  15    0.18    0.09
   3   6  15    0.18    0.11
   0   7  15    4.68    0.29
   0  -7 -15    4.28    0.29
   0  -7 -15    5.06    0.32
   0  -7  15    4.64    0.39
   0   7 -15    4.24    0.27
   2  -7  15    3.91    0.29
   2   7 -15    3.96    0.27
  -2   7  15    4.00    0.27
   2   7  15    3.73    0.25
   2  -7 -15    3.73    0.28
  -1   8  15    2.44    0.21
   1   8 -15    2.10    0.21
  -1  -8 -15    2.56    0.24
   1   8  15    2.49    0.21
  -1   8 -15    2.43    0.19
   1  -8 -15    2.64    0.26
   0   0 -16  338.69    5.39
   0   0 -16  342.98    5.53
   0   0  16  340.79    5.60
   0   0 -16  340.94    5.86
   0   0  16  340.35    5.47
   0   0  16  344.80    5.99
   2   0  16  277.58    5.02
   2   0 -16  282.09    4.68
  -2   0  16  273.33    4.59
  -2   0 -16  287.81    4.52
   2   0  16  287.41    4.59
  -2   0 -16  278.46    4.64
   2   0 -16  277.43    4.67
  -2   0 -16  280.34    4.56
  -2   0  16  285.36    4.71
  -2   0  16  283.07    4.94
  -2   0 -16  282.64    4.74
  -2   0  16  283.71    5.15
  -2   0 -16  281.60    4.60
  -2   0  16  285.62    4.65
  -2   0  16  281.78    4.75
   2   0 -16  275.30    5.03
   2   0  16  282.70    4.79
   2   0  16  281.86    5.23
  -4   0 -16  174.73    3.08
  -4   0  16  177.60    3.27
  -4   0  16  174.98    3.33
  -4   0 -16  172.42    3.24
   4   0 -16  178.02    3.16
   4   0 -16  169.57    3.17
   4   0  16  176.74    3.34
  -4   0  16  185.16    3.19
  -4   0  16  199.12    3.24
  -6   0  16   87.77    1.78
  -1  -1 -16    0.41    0.15
  -1   1  16    0.17    0.09
  -1   1  16    0.20    0.13
   1   1 -16    0.25    0.08
  -1  -1 -16    0.12    0.08
   1   1 -16    0.41    0.16
   1  -1  16    0.36    0.12
   1  -1  16    0.07    0.14
  -1   1  16    0.11    0.09
  -1  -1 -16    0.09    0.07
   1  -1  16    0.25    0.12
   1   1 -16    0.54    0.13
  -1  -1 -16    0.39    0.09
  -1  -1  16    0.39    0.15
  -1  -1  16    0.21    0.09
  -1   1 -16    0.15    0.11
  -1   1 -16    0.26    0.08
   1  -1 -16    0.47    0.16
  -1  -1  16    0.17    0.09
   1  -1 -16    0.66    0.13
   1   1  16    0.45    0.16
   1   1  16    0.11    0.11
  -1  -1  16    0.30    0.10
  -1   1 -16    0.32    0.09
  -3   1  16    0.50    0.14
  -3   1  16    0.25    0.13
  -3  -1 -16    0.33    0.11
  -3  -1 -16    0.48    0.13
  -3   1  16    0.53    0.15
   3  -1  16    0.40    0.14
   3  -1  16    0.48    0.18
  -3  -1 -16    0.37    0.13
   3   1 -16    0.47    0.14
   3  -1  16    0.32    0.15
   3   1 -16    0.51    0.15
  -3  -1 -16    0.42    0.11
  -3   1  16    0.34    0.12
   3   1 -16    0.32    0.21
   3  -1 -16    0.48    0.17
  -3  -1  16    0.62    0.15
   3  -1 -16    0.28    0.21
   3   1  16    0.43    0.17
   3   1  16    0.40    0.18
  -3  -1  16    0.48    0.14
  -3   1 -16    0.56    0.15
  -3  -1  16    0.27    0.13
   3  -1 -16    0.42    0.12
  -3   1 -16    0.49    0.15
   3  -1 -16    0.26    0.12
  -3   1 -16    0.32    0.10
  -3  -1  16    0.26    0.16
   3  -1 -16    0.64    0.20
   5   1 -16    0.14    0.13
  -5  -1 -16    0.56    0.15
  -5   1  16    0.49    0.17
   5  -1  16    0.53    0.19
  -5   1  16    0.41    0.15
  -5   1  16    0.29    0.15
  -5   1  16    0.28    0.13
  -5  -1 -16    0.77    0.19
   5   1 -16    0.53    0.15
   5  -1  16    0.30    0.15
  -5  -1 -16    0.35    0.11
  -5   1 -16    0.25    0.13
   5  -1 -16    0.48    0.15
  -5  -1  16    0.37    0.17
  -5   1 -16    0.46    0.12
   5   1  16    0.34    0.17
  -5  -1  16    0.48    0.17
  -5  -1  16    0.39    0.15
  -5   1 -16    0.57    0.14
   0   2  16  188.45    3.09
   0   2 -16  187.59    3.19
   0  -2  16  190.90    3.55
   0   2 -16  188.75    3.12
   0   2  16  185.85    3.69
   0  -2 -16  187.88    3.60
   0   2 -16  188.63    3.50
   0   2  16  186.81    3.32
   0  -2  16  187.27    3.22
   0  -2  16  189.37    3.22
   0  -2 -16  188.59    3.25
   2   2 -16  151.62    2.78
   2   2 -16  152.19    3.11
   2  -2  16  154.43    2.83
  -2   2  16  157.22    2.70
  -2   2  16  156.86    3.31
  -2  -2 -16  153.56    3.10
   2   2 -16  159.87    3.36
   2  -2  16  156.52    2.76
  -2  -2 -16  153.93    2.77
  -2  -2 -16  160.68    2.85
  -2  -2 -16  152.36    2.74
   2  -2  16  155.77    3.21
  -2  -2 -16  157.92    2.66
  -2   2  16  157.95    2.90
   2   2 -16  155.21    2.61
   2   2 -16  154.91    2.77
  -2  -2 -16  158.89    2.68
  -2   2 -16  155.01    2.76
  -2  -2  16  153.90    3.14
   2   2  16  153.83    2.86
  -2  -2  16  154.74    2.70
   2  -2 -16  157.02    2.77
  -2  -2  16  160.14    2.80
   2  -2 -16  153.25    3.10
   2   2  16  151.54    3.07
  -2   2 -16  152.47    2.66
  -2  -2  16  157.48    2.89
   2  -2 -16  156.73    2.70
  -2   2 -16  159.16    2.87
   2   2  16  153.80    3.26
   4  -2  16  100.30    2.09
  -4   2  16   96.14    2.10
   4   2 -16   96.55    1.94
  -4   2  16   98.38    1.93
   4  -2  16  100.52    1.95
  -4  -2 -16   97.06    1.87
  -4  -2 -16   97.70    2.02
   4   2 -16  100.86    1.98
  -4   2  16  101.03    2.05
  -4  -2 -16   96.43    1.87
  -4  -2  16   98.29    2.00
  -4   2 -16  101.11    1.85
  -4   2 -16   98.15    2.04
   4  -2 -16   97.80    1.93
   4   2  16   98.76    2.08
   4  -2 -16   97.62    1.97
  -4   2 -16   99.07    1.82
  -4  -2  16   97.30    2.14
  -4  -2  16   98.42    1.95
  -6   2  16   52.04    1.19
  -6  -2 -16   53.20    1.10
   6  -2  16   53.29    1.15
  -6  -2 -16   54.14    1.14
  -6   2 -16   54.10    1.11
  -6  -2  16   50.73    1.18
  -6  -2  16   50.38    1.18
   6  -2 -16   50.91    1.14
   1   3 -16   11.11    0.57
  -1   3  16   11.13    0.36
  -1  -3 -16   10.84    0.44
  -1   3  16   10.21    0.61
  -1   3  16   10.16    0.46
   1   3 -16   10.64    0.43
   1   3 -16   10.47    0.37
  -1  -3 -16   10.24    0.35
  -1  -3 -16   11.03    0.59
   1  -3  16   11.31    0.46
   1  -3 -16   11.33    0.60
   1  -3 -16   11.11    0.44
  -1   3 -16   11.29    0.41
   1  -3 -16   10.77    0.40
   1   3  16   11.53    0.48
  -1  -3  16   10.92    0.48
  -1   3 -16   10.66    0.38
   1   3  16   10.91    0.62
  -1  -3  16   10.30    0.59
  -1  -3  16   10.74    0.43
  -3   3  16    6.64    0.40
  -3   3  16    7.23    0.34
   3   3 -16    7.11    0.37
   3   3 -16    6.47    0.38
  -3  -3 -16    7.07    0.34
   3  -3  16    7.28    0.40
   3  -3  16    7.21    0.39
  -3  -3 -16    6.69    0.36
  -3  -3 -16    6.47    0.31
  -3  -3 -16    6.43    0.36
  -3   3 -16    6.31    0.36
  -3  -3  16    6.85    0.43
   3  -3 -16    6.88    0.37
  -3  -3  16    7.09    0.38
   3   3  16    6.47    0.38
   3  -3 -16    7.28    0.35
  -3  -3  16    6.16    0.36
  -3   3 -16    6.75    0.31
  -5  -3 -16    3.09    0.26
  -5   3  16    3.01    0.25
   5  -3  16    3.42    0.28
  -5  -3 -16    2.73    0.22
  -5   3 -16    3.00    0.22
  -5  -3  16    2.89    0.25
   5  -3 -16    2.83    0.27
  -5  -3  16    2.92    0.30
   0   4 -16  140.14    2.47
   0   4  16  139.85    2.64
   0   4  16  139.87    2.46
   0  -4  16  145.00    2.70
   0   4  16  141.17    3.02
   0  -4  16  138.66    2.56
   0  -4  16  148.60    3.01
   0  -4 -16  138.99    2.60
  -2  -4 -16  121.58    2.16
   2   4 -16  122.42    2.16
   2   4 -16  119.09    2.29
   2  -4  16  119.06    2.30
   2   4 -16  118.75    2.28
  -2   4  16  123.97    2.16
  -2  -4 -16  118.88    2.31
  -2  -4 -16  121.78    2.26
  -2   4  16  118.90    2.38
  -2  -4  16  119.67    2.28
   2  -4 -16  118.97    2.23
  -2   4 -16  121.74    2.30
  -2   4 -16  122.08    2.16
   2   4  16  122.78    2.32
  -2  -4  16  119.26    2.45
   2  -4 -16  120.27    2.23
  -2  -4  16  120.73    2.22
   4   4 -16   79.78    1.69
  -4  -4 -16   79.63    1.59
  -4  -4 -16   79.37    1.61
  -4   4  16   80.46    1.80
   4  -4  16   77.21    1.68
  -4  -4 -16   81.68    1.73
   4   4 -16   77.90    1.64
  -4  -4 -16   79.46    1.66
  -4  -4  16   79.91    1.87
  -4  -4  16   81.10    1.68
  -4   4 -16   79.92    1.73
   4  -4 -16   79.93    1.65
  -4  -4  16   78.96    1.66
  -1   5  16    0.45    0.12
  -1  -5 -16    0.35    0.13
   1  -5  16    0.41    0.16
   1  -5  16    0.34    0.16
  -1   5  16    0.20    0.11
   1   5 -16    0.38    0.13
   1   5 -16    0.27    0.13
  -1  -5  16    0.39    0.13
  -1  -5  16    0.35    0.16
   1  -5 -16    0.46    0.14
  -1   5 -16    0.58    0.14
   1   5  16    0.26    0.11
   1  -5 -16    0.19    0.10
  -1   5 -16    0.39    0.12
   3   5 -16    0.13    0.11
  -3  -5 -16    0.26    0.12
  -3   5  16    0.40    0.12
   3   5 -16    0.16    0.14
  -3   5  16    0.31    0.13
  -3  -5 -16    0.29    0.11
   3   5 -16    0.18    0.15
   3  -5  16    0.31    0.17
   3  -5 -16    0.46    0.15
  -3   5 -16    0.38    0.14
  -3  -5  16    0.44    0.16
   3   5  16    0.49    0.12
  -3  -5  16    0.32    0.13
  -3   5 -16    0.35    0.11
  -3  -5  16    0.33    0.16
   3   5  16    0.45    0.13
   5  -5  16    0.22    0.15
  -5  -5 -16    0.25    0.10
   5   5  16    0.22    0.11
   5  -5 -16    0.36    0.13
  -5  -5  16    0.38    0.15
   0  -6 -16  155.56    2.90
   0  -6  16  158.46    3.10
   0   6  16  158.68    2.81
   0   6 -16  159.55    2.80
   0  -6  16  164.35    2.87
   0  -6 -16  161.02    2.84
   2   6 -16  141.36    2.50
  -2  -6 -16  139.72    2.65
  -2  -6 -16  138.84    2.43
   2   6 -16  138.37    2.57
  -2   6  16  139.92    2.50
   2  -6  16  142.56    2.61
   2  -6 -16  137.77    2.57
  -2   6 -16  137.86    2.62
  -2   6 -16  140.30    2.45
   2   6  16  137.53    2.50
   4   6 -16   94.45    1.69
  -4  -6 -16   93.91    1.74
   4  -6  16   94.33    1.85
   4  -6 -16   90.22    1.79
   4   6  16   91.36    1.75
   1  -7  16    0.30    0.13
  -1   7  16    0.25    0.11
   1   7 -16    0.30    0.12
   1  -7 -16    0.03    0.11
  -1   7 -16    0.28    0.11
   1   7  16    0.24    0.11
   3  -7  16    0.27    0.14
  -3  -7 -16    0.27    0.10
  -3   7  16    0.06    0.09
   3   7 -16    0.07    0.09
   3   7  16    0.24    0.11
   3  -7 -16    0.08    0.12
  -3  -7  16    0.44    0.15
   0   8  16   61.70    1.26
   0   8 -16   59.58    1.22
   0  -8 -16   63.65    1.30
   1   0  17    0.78    0.21
   1   0 -17    0.85    0.20
  -1   0  17    0.62    0.13
  -1   0  17    0.60    0.19
   1   0 -17    0.57    0.13
  -1   0 -17    0.94    0.13
   1   0  17    0.73    0.13
  -1   0 -17    0.93    0.14
  -1   0  17    0.46    0.13
  -1   0 -17    0.57    0.17
   1   0  17    0.57    0.15
  -3   0 -17    0.31    0.10
  -3   0  17    0.31    0.12
  -3   0  17    0.23    0.12
  -3   0 -17    0.24    0.11
   3   0 -17    0.24    0.12
  -3   0  17    0.28    0.13
  -3   0 -17    0.21    0.09
  -3   0  17    0.32    0.13
   3   0  17    0.28    0.16
   3   0 -17    0.29    0.13
  -5   0  17    0.12    0.15
  -5   0  17    0.00    0.12
  -5   0 -17    0.06    0.10
   5   0  17   -0.05    0.13
  -5   0 -17    0.11    0.09
  -5   0  17    0.07    0.11
  -5   0 -17    0.13    0.12
   5   0 -17    0.02    0.11
   0   1 -17    6.25    0.41
   0  -1 -17    6.60    0.26
   0  -1  17    5.90    0.31
   0   1 -17    6.31    0.30
   0  -1 -17    5.32    0.30
   0  -1  17    5.88    0.32
   0  -1  17    6.01    0.42
   0   1  17    5.71    0.27
   0  -1 -17    5.72    0.41
   0   1 -17    6.05    0.27
   0   1  17    6.28    0.46
   0   1  17    6.15    0.34
   2  -1  17    4.61    0.30
  -2   1  17    4.95    0.28
   2   1 -17    4.71    0.30
  -2   1  17    4.98    0.29
   2  -1  17    4.34    0.33
  -2  -1 -17    4.91    0.26
  -2   1  17    4.93    0.44
  -2  -1 -17    4.81    0.38
   2  -1  17    4.16    0.43
   2   1 -17    5.02    0.40
  -2  -1 -17    4.61    0.25
  -2   1  17    4.65    0.32
   2   1 -17    5.08    0.31
  -2  -1 -17    4.82    0.27
  -2  -1 -17    4.48    0.27
  -2  -1  17    5.00    0.40
  -2  -1  17    5.39    0.30
  -2   1 -17    5.14    0.31
  -2  -1  17    4.74    0.29
   2  -1 -17    4.45    0.29
   2  -1 -17    4.47    0.38
  -2   1 -17    4.94    0.26
  -2  -1  17    4.72    0.31
   2   1  17    4.64    0.34
  -2   1 -17    4.90    0.28
  -2  -1  17    4.52    0.29
  -4  -1 -17    2.48    0.22
   4   1 -17    2.58    0.27
  -4   1  17    2.57    0.30
   4  -1  17    2.57    0.27
  -4  -1 -17    2.53    0.21
  -4  -1 -17    2.94    0.31
  -4   1  17    2.41    0.28
   4  -1  17    2.42    0.31
  -4   1  17    1.93    0.25
   4   1 -17    1.99    0.24
  -4   1  17    2.49    0.27
  -4  -1  17    2.98    0.31
  -4  -1  17    2.56    0.32
  -4   1 -17    2.44    0.23
  -4  -1  17    2.07    0.25
   4   1  17    2.26    0.30
  -4   1 -17    2.59    0.29
   4  -1 -17    2.72    0.25
   4  -1 -17    2.65    0.28
  -4   1 -17    2.43    0.20
  -6   1  17    0.91    0.17
  -6  -1 -17    1.27    0.18
  -6  -1 -17    0.93    0.14
  -6  -1  17    0.97    0.18
  -6  -1  17    1.37    0.21
  -6   1 -17    1.12    0.16
   6  -1 -17    1.19    0.19
   1  -2  17    5.15    0.31
  -1  -2 -17    3.99    0.35
  -1   2  17    4.54    0.31
   1  -2  17    4.55    0.38
   1  -2  17    4.73    0.30
  -1  -2 -17    4.79    0.23
   1   2 -17    4.32    0.36
  -1  -2 -17    4.52    0.23
   1   2 -17    4.65    0.29
  -1   2  17    4.31    0.41
  -1  -2 -17    4.93    0.29
   1   2 -17    4.55    0.23
  -1   2 -17    4.11    0.24
   1   2  17    4.50    0.31
   1  -2 -17    5.09    0.29
  -1  -2  17    5.10    0.31
   1  -2 -17    4.60    0.26
   1   2  17    4.70    0.42
  -1  -2  17    4.29    0.28
   1  -2 -17    4.57    0.38
  -3  -2 -17    4.57    0.26
   3   2 -17    4.36    0.31
   3   2 -17    3.85    0.30
  -3  -2 -17    4.15    0.29
  -3  -2 -17    4.52    0.28
  -3  -2 -17    4.27    0.27
   3  -2  17    4.31    0.33
  -3   2  17    4.64    0.34
   3  -2  17    4.02    0.31
  -3   2  17    4.73    0.28
   3   2  17    4.06    0.33
  -3  -2  17    3.95    0.30
  -3   2 -17    3.86    0.25
   3  -2 -17    3.87    0.29
  -3  -2  17    3.78    0.36
   3  -2 -17    4.52    0.29
  -3   2 -17    4.69    0.30
  -3  -2  17    4.58    0.30
   5  -2  17    2.99    0.29
  -5  -2 -17    2.53    0.25
  -5   2  17    2.52    0.26
  -5  -2 -17    2.69    0.22
  -5  -2  17    2.91    0.29
   5  -2 -17    3.12    0.29
  -5  -2  17    2.71    0.29
  -5   2 -17    2.75    0.21
   0   3 -17   22.09    0.62
   0   3 -17   22.11    0.59
   0   3  17   21.88    0.72
   0   3  17   23.23    0.95
   0  -3 -17   22.61    0.88
   0  -3 -17   21.27    0.67
   0   3  17   22.39    0.57
   0  -3  17   21.96    0.66
   2   3 -17   18.60    0.52
  -2  -3 -17   19.13    0.59
   2   3 -17   18.50    0.61
   2  -3  17   19.87    0.65
  -2  -3 -17   18.05    0.54
  -2  -3 -17   17.40    0.52
  -2  -3 -17   18.55    0.62
   2  -3  17   18.75    0.63
  -2   3  17   17.70    0.67
   2   3 -17   17.65    0.61
   2  -3 -17   18.19    0.60
   2  -3 -17   18.20    0.57
   2   3  17   17.59    0.64
  -2  -3  17   18.37    0.69
  -2   3 -17   18.90    0.61
  -2   3 -17   19.14    0.55
  -2  -3  17   18.85    0.62
  -2  -3  17   18.51    0.57
  -4  -3 -17   10.98    0.49
  -4  -3 -17   11.02    0.44
  -4  -3 -17    9.95    0.42
   4   3 -17   10.74    0.47
  -4   3  17   11.69    0.45
  -4   3  17   10.23    0.52
   4  -3  17   10.66    0.51
   4   3 -17   11.34    0.50
   4  -3  17   11.19    0.50
  -4  -3  17   10.99    0.49
  -4   3 -17   10.89    0.50
   4  -3 -17   10.99    0.47
  -4   3 -17   11.20    0.40
   4   3  17   11.33    0.51
  -4  -3  17    9.88    0.47
  -4  -3  17   11.50    0.57
  -1  -4 -17    3.91    0.22
   1  -4  17    3.78    0.30
   1   4 -17    3.58    0.27
  -1   4  17    4.13    0.25
  -1   4  17    4.08    0.31
   1   4 -17    3.88    0.25
  -1  -4 -17    4.17    0.29
   1   4  17    4.19    0.30
  -1  -4  17    3.62    0.35
   1  -4 -17    4.10    0.27
   1  -4 -17    4.06    0.28
  -1  -4  17    3.97    0.29
  -1   4 -17    3.84    0.25
   1   4  17    3.70    0.25
  -3  -4 -17    3.36    0.25
   3  -4  17    3.10    0.32
   3   4 -17    3.64    0.33
  -3   4  17    3.48    0.30
  -3  -4 -17    3.64    0.28
   3   4 -17    3.18    0.32
  -3  -4 -17    4.09    0.29
   3   4 -17    3.24    0.23
  -3  -4 -17    3.44    0.24
   3  -4 -17    3.54    0.28
  -3   4 -17    3.39    0.23
  -3  -4  17    3.56    0.29
  -3  -4  17    3.23    0.27
  -3  -4  17    3.17    0.35
  -3   4 -17    3.57    0.28
  -5  -4 -17    2.07    0.21
   5  -4  17    2.11    0.25
  -5  -4 -17    1.88    0.20
   5  -4 -17    2.46    0.25
  -5  -4  17    2.32    0.26
  -5  -4  17    1.65    0.21
   0   5 -17    3.16    0.24
   0  -5 -17    3.30    0.25
   0  -5 -17    3.61    0.32
   0  -5  17    3.29    0.34
   0   5  17    3.18    0.24
   0  -5  17    3.22    0.27
   0   5  17    3.66    0.28
  -2  -5 -17    3.03    0.21
   2   5 -17    3.02    0.24
  -2   5  17    2.82    0.31
   2   5 -17    2.69    0.27
   2  -5  17    2.64    0.30
  -2  -5 -17    2.76    0.29
  -2   5  17    2.60    0.22
  -2   5 -17    3.16    0.26
  -2  -5  17    3.33    0.36
   2   5  17    2.70    0.26
   2  -5 -17    3.29    0.26
  -2  -5  17    3.07    0.26
  -2   5 -17    2.80    0.22
   4  -5  17    1.43    0.24
  -4  -5 -17    2.30    0.20
  -4  -5  17    1.69    0.23
   4   5  17    1.91    0.22
   4  -5 -17    1.61    0.21
   1  -6  17    0.23    0.15
  -1  -6 -17    0.05    0.10
   1  -6  17    0.07    0.12
   1   6 -17    0.23    0.11
  -1   6  17    0.18    0.10
  -1   6 -17    0.33    0.12
   1   6  17    0.06    0.10
   1  -6 -17    0.12    0.10
  -1  -6  17    0.21    0.15
  -1  -6  17    0.31    0.13
   1  -6 -17    0.26    0.13
  -3   6  17    0.29    0.10
  -3  -6 -17    0.02    0.08
   3  -6  17    0.10    0.15
   3   6 -17    0.03    0.09
  -3  -6  17    0.06    0.13
   3  -6 -17    0.13    0.12
   3   6  17   -0.03    0.09
   0  -7 -17    2.79    0.26
   0   7  17    2.80    0.23
   0   7 -17    3.05    0.23
   2  -7  17    2.77    0.24
  -2   7  17    2.17    0.20
   2   7 -17    2.39    0.20
   2   7  17    2.02    0.21
  -2   7 -17    2.59    0.19
   2  -7 -17    2.21    0.23
   0   0  18    7.73    0.34
   0   0 -18    7.89    0.36
   0   0 -18    7.69    0.47
   0   0  18    7.90    0.52
   0   0 -18    7.48    0.29
   0   0  18    7.57    0.38
  -2   0  18    5.47    0.32
   2   0  18    5.50    0.30
  -2   0 -18    5.62    0.28
  -2   0  18    6.15    0.48
   2   0 -18    4.65    0.30
  -2   0  18    6.03    0.35
  -2   0 -18    5.34    0.29
   2   0  18    5.79    0.37
  -2   0  18    5.60    0.31
  -4   0 -18    3.18    0.24
  -4   0  18    3.05    0.26
  -4   0  18    2.81    0.30
   4   0 -18    2.72    0.27
  -4   0  18    3.46    0.34
  -4   0 -18    3.22    0.24
  -4   0 -18    3.18    0.28
   4   0  18    2.44    0.32
  -4   0  18    3.56    0.32
  -6   0 -18    1.84    0.20
   1   1 -18  146.22    2.47
  -1   1  18  137.74    2.69
  -1  -1 -18  150.01    2.99
  -1   1  18  146.77    2.56
   1  -1  18  145.12    2.69
  -1  -1 -18  144.51    2.49
   1  -1  18  143.89    3.06
   1  -1  18  148.17    2.59
  -1  -1 -18  149.04    2.63
   1   1 -18  146.06    2.63
  -1   1  18  144.57    3.11
   1   1 -18  143.67    2.96
   1  -1 -18  145.10    2.64
   1   1  18  145.31    2.74
  -1   1 -18  150.91    2.58
  -1  -1  18  149.29    2.63
  -1   1 -18  143.11    2.51
  -1  -1  18  146.82    3.01
   1   1  18  142.23    3.11
  -1   1 -18  146.40    2.87
   1  -1 -18  143.03    2.98
  -1  -1  18  146.42    2.66
  -3   1  18  103.16    2.16
  -3   1  18  107.23    2.05
  -3   1  18  108.13    2.04
  -3  -1 -18  105.35    1.98
   3   1 -18  107.06    2.08
  -3  -1 -18  107.83    1.95
   3  -1  18  107.98    2.02
   3  -1  18  105.64    2.19
  -3  -1 -18  106.35    2.08
   3   1 -18  105.21    2.07
  -3   1 -18  106.33    1.97
   3   1  18  106.16    2.21
  -3  -1  18  104.26    2.08
  -3   1 -18  105.26    2.07
  -3  -1  18  106.61    2.16
  -3  -1  18  105.22    2.02
   3  -1 -18  105.62    2.05
  -5  -1 -18   61.32    1.28
  -5  -1 -18   61.10    1.29
  -5  -1  18   59.10    1.36
  -5   1 -18   62.11    1.27
  -5   1 -18   61.21    1.25
  -5  -1  18   62.19    1.40
   0  -2  18    6.00    0.33
   0  -2 -18    5.51    0.32
   0   2 -18    5.80    0.28
   0   2  18    6.66    0.51
   0  -2  18    5.86    0.31
   0   2 -18    6.22    0.31
   0  -2 -18    6.50    0.47
   0   2  18    6.03    0.36
   0   2 -18    6.04    0.41
   2  -2  18    4.53    0.32
   2   2 -18    4.62    0.23
   2  -2  18    4.39    0.34
  -2  -2 -18    4.43    0.25
  -2   2  18    4.37    0.27
  -2   2  18    3.91    0.31
  -2  -2 -18    4.82    0.26
   2   2 -18    4.83    0.31
   2   2 -18    4.23    0.30
   2  -2 -18    4.18    0.29
  -2  -2  18    4.26    0.30
  -2  -2  18    4.79    0.29
  -2  -2  18    4.71    0.32
   2   2  18    4.54    0.33
  -2   2 -18    4.46    0.26
  -2   2 -18    4.56    0.28
   2  -2 -18    4.50    0.28
   4   2 -18    2.82    0.28
  -4   2  18    2.62    0.31
   4  -2  18    2.36    0.31
  -4  -2 -18    2.51    0.21
  -4   2  18    2.75    0.27
   4   2 -18    2.19    0.26
  -4  -2 -18    3.08    0.27
  -4  -2 -18    2.45    0.25
   4  -2  18    2.51    0.29
  -4  -2  18    2.72    0.28
  -4   2 -18    2.63    0.28
  -4   2 -18    2.09    0.19
  -4  -2  18    2.59    0.31
   4   2  18    1.80    0.26
   4  -2 -18    2.68    0.28
  -4   2 -18    2.60    0.21
  -4  -2  18    2.12    0.26
   1   3 -18  122.47    2.17
  -1   3  18  123.47    2.42
  -1  -3 -18  124.86    2.35
   1  -3  18  119.63    2.30
  -1  -3 -18  123.56    2.15
   1   3 -18  124.66    2.29
   1  -3 -18  121.52    2.20
   1   3  18  123.07    2.18
  -1  -3  18  125.74    2.32
  -1  -3  18  122.94    2.38
   1  -3 -18  122.11    2.32
   1   3  18  120.29    2.38
  -1   3 -18  121.21    2.19
  -3  -3 -18   91.29    1.85
   3   3 -18   88.85    1.86
   3   3 -18   91.81    1.86
   3  -3  18   94.17    1.88
  -3   3  18   93.38    2.00
  -3  -3 -18   93.42    1.77
  -3  -3 -18   89.01    1.85
   3  -3  18   89.88    1.90
  -3  -3 -18   90.73    1.77
   3  -3 -18   93.58    1.81
  -3  -3  18   91.81    1.81
  -3   3 -18   91.55    1.87
  -3  -3  18   90.70    1.88
  -3   3 -18   92.33    1.75
  -3  -3  18   91.94    2.02
   3   3  18   93.30    1.95
   3  -3 -18   89.89    1.80
   5  -3  18   54.53    1.23
  -5   3  18   53.75    1.18
  -5  -3 -18   54.09    1.17
  -5  -3 -18   52.90    1.15
  -5  -3  18   56.18    1.24
  -5  -3  18   52.55    1.22
   0   4  18    4.59    0.32
   0  -4 -18    4.22    0.30
   0  -4  18    4.35    0.31
   0   4 -18    4.50    0.27
   0   4  18    4.45    0.27
  -2   4  18    3.48    0.35
   2   4 -18    3.77    0.25
   2  -4  18    3.49    0.31
   2   4 -18    3.42    0.31
  -2  -4 -18    3.26    0.31
  -2  -4 -18    3.55    0.23
   2  -4 -18    3.47    0.26
   2   4  18    3.45    0.25
   2  -4 -18    3.37    0.27
  -2  -4  18    4.79    0.32
  -2   4 -18    3.50    0.26
  -2  -4  18    3.38    0.35
  -2   4 -18    4.07    0.26
   2   4  18    3.54    0.28
   4  -4  18    2.12    0.28
  -4  -4 -18    2.69    0.22
  -4  -4 -18    2.34    0.22
  -4  -4  18    2.21    0.25
   4  -4 -18    2.25    0.25
  -4  -4  18    2.26    0.25
   1  -5  18   90.54    1.83
  -1  -5 -18   87.42    1.85
   1   5 -18   91.47    1.72
  -1   5  18   88.33    1.87
  -1   5  18   91.76    1.71
  -1   5 -18   87.82    1.71
   1   5  18   87.90    1.72
   1  -5 -18   89.24    1.76
  -1  -5  18   90.82    1.97
  -1  -5  18   90.00    1.81
   1  -5 -18   89.22    1.81
   3   5 -18   68.47    1.33
   3  -5  18   68.24    1.49
   3  -5 -18   66.10    1.42
  -3   5 -18   67.49    1.32
   3   5  18   63.90    1.36
  -3  -5  18   67.83    1.43
  -3  -5  18   66.50    1.41
   0  -6 -18    3.64    0.28
   0   6  18    3.73    0.26
   0   6 -18    3.50    0.25
   0  -6  18    3.58    0.28
   0  -6  18    3.67    0.36
   2   6 -18    2.86    0.22
  -2   6  18    2.86    0.22
   2  -6  18    2.36    0.27
   2  -6 -18    3.11    0.25
  -2   6 -18    2.81    0.21
   2   6  18    2.64    0.23
   1   7 -18   58.76    1.22
  -1   7  18   61.43    1.25
   1  -7  18   61.64    1.27
   1   7  18   57.28    1.23
  -1   7 -18   59.03    1.20
   1  -7 -18   60.04    1.27
   1   0 -19   23.78    0.70
   1   0  19   23.68    0.76
  -1   0 -19   24.44    0.89
  -1   0 -19   23.36    0.62
  -1   0  19   25.11    0.98
   1   0  19   23.07    0.65
  -1   0 -19   23.97    0.68
  -1   0  19   22.86    0.67
  -1   0  19   24.25    0.74
  -3   0  19   17.07    0.64
  -3   0 -19   17.21    0.55
   3   0 -19   16.65    0.59
  -3   0 -19   17.72    0.61
   3   0  19   16.75    0.69
  -3   0  19   16.32    0.59
  -3   0 -19   19.47    0.53
  -3   0  19   16.49    0.57
  -5   0 -19    9.37    0.38
  -5   0  19    9.54    0.44
  -5   0 -19    9.59    0.39
   0  -1  19   15.12    0.55
   0  -1  19   14.80    0.71
   0   1 -19   14.66    0.67
   0  -1 -19   15.13    0.53
   0  -1 -19   14.79    0.43
   0  -1  19   14.54    0.51
   0   1 -19   14.45    0.45
   0   1  19   14.76    0.58
   0  -1 -19   14.56    0.69
   0   1 -19   14.83    0.51
   2  -1  19   13.44    0.50
  -2  -1 -19   14.01    0.50
  -2   1  19   13.60    0.49
  -2  -1 -19   14.29    0.47
  -2  -1 -19   13.41    0.43
   2   1 -19   13.35    0.52
  -2   1  19   13.72    0.57
   2  -1  19   13.88    0.58
   2   1  19   13.07    0.57
  -2  -1  19   13.78    0.53
  -2  -1  19   13.70    0.52
  -2   1 -19   13.87    0.47
   2  -1 -19   13.60    0.52
  -4  -1 -19   10.43    0.42
   4   1 -19   10.66    0.48
  -4  -1 -19   10.97    0.49
  -4  -1 -19   10.48    0.42
   4   1 -19   10.76    0.47
  -4   1  19   11.17    0.48
   4  -1  19   11.14    0.47
  -4   1  19   10.65    0.52
   4  -1  19   12.27    0.58
  -4  -1  19   10.96    0.48
   4   1  19    9.77    0.53
   4  -1 -19   10.43    0.45
  -4   1 -19   10.18    0.41
  -4  -1  19   10.18    0.48
  -4   1 -19   10.00    0.47
  -4  -1  19   11.03    0.53
  -4   1 -19   11.09    0.41
   1  -2  19   47.63    1.12
  -1  -2 -19   47.02    1.13
  -1   2  19   48.91    1.23
   1  -2  19   48.38    1.16
   1   2 -19   48.64    1.12
  -1  -2 -19   48.07    1.01
   1   2 -19   48.76    1.01
   1  -2 -19   46.64    1.13
  -1  -2  19   49.09    1.14
   1   2  19   46.28    1.19
  -1   2 -19   47.64    1.03
   1   2  19   49.72    1.00
  -3  -2 -19   36.63    0.86
   3   2 -19   36.29    0.94
  -3   2  19   34.50    0.88
  -3   2  19   34.82    1.03
   3  -2  19   35.00    0.92
  -3  -2 -19   34.61    0.85
  -3  -2 -19   33.85    0.92
   3  -2  19   34.04    1.00
   3   2 -19   32.64    0.92
   3  -2 -19   34.52    0.88
  -3  -2  19   34.11    0.94
  -3  -2  19   34.18    1.00
   3  -2 -19   34.10    0.91
  -3   2 -19   34.35    0.84
  -3   2 -19   35.76    0.94
   3   2  19   33.84    1.00
  -3  -2  19   34.48    0.89
  -5   2  19   19.99    0.63
  -5  -2 -19   19.76    0.59
   5  -2  19   20.05    0.62
  -5  -2 -19   19.22    0.58
  -5   2 -19   20.81    0.56
  -5  -2  19   19.54    0.63
  -5   2 -19   19.58    0.54
   5  -2 -19   19.62    0.62
  -5  -2  19   19.89    0.65
   0  -3 -19   33.31    0.91
   0  -3  19   34.64    0.91
   0   3 -19   33.56    0.81
   0   3 -19   35.05    0.85
   0   3  19   34.97    0.78
   0   3  19   32.78    0.96
  -2  -3 -19   31.25    0.76
   2  -3  19   30.43    0.86
  -2  -3 -19   31.71    0.87
   2   3 -19   29.40    0.85
  -2   3  19   29.15    0.92
   2   3 -19   30.96    0.73
  -2  -3  19   30.75    0.87
   2   3  19   29.00    0.89
  -2  -3  19   30.35    0.92
   2  -3 -19   30.38    0.84
  -2   3 -19   30.15    0.77
   2  -3 -19   31.54    0.80
  -4   3  19   22.48    0.65
  -4  -3 -19   21.83    0.64
  -4  -3 -19   21.52    0.64
   4  -3  19   21.72    0.70
  -4  -3  19   21.17    0.70
  -4   3 -19   21.86    0.60
  -4  -3  19   22.42    0.69
   4  -3 -19   21.03    0.66
  -1  -4 -19   39.87    1.03
   1  -4  19   38.33    1.01
  -1   4  19   39.32    1.08
   1   4 -19   39.79    0.91
   1   4 -19   39.50    0.97
  -1   4  19   37.95    0.87
  -1  -4  19   39.29    1.08
   1  -4 -19   38.35    0.92
   1   4  19   38.63    1.05
  -1  -4  19   39.11    1.01
   1  -4 -19   38.41    1.00
  -1   4 -19   39.56    0.92
   1   4  19   39.37    0.91
  -3  -4 -19   29.53    0.76
  -3  -4 -19   30.62    0.85
   3  -4  19   28.87    0.85
   3   4 -19   30.43    0.71
   3   4 -19   28.95    0.84
   3  -4 -19   28.89    0.80
  -3  -4  19   28.50    0.79
  -3   4 -19   28.73    0.73
  -3   4 -19   28.93    0.83
  -3  -4  19   28.85    0.83
   0   5 -19    9.75    0.40
   0   5  19   10.66    0.48
   0  -5 -19   10.13    0.46
   0  -5  19   10.47    0.46
   0   5  19   10.27    0.40
   2   5 -19    9.72    0.43
  -2  -5 -19    8.57    0.35
   2  -5  19   10.25    0.47
   2   5 -19    9.27    0.38
  -2   5  19    9.81    0.48
  -2   5  19    9.63    0.37
  -2  -5 -19    9.44    0.45
   2   5  19    9.13    0.39
   2  -5 -19    9.32    0.42
  -2  -5  19    8.87    0.50
  -2  -5  19    8.73    0.42
  -2   5 -19    9.80    0.38
  -4  -5 -19    6.73    0.31
   4  -5  19    6.34    0.37
  -4  -5  19    6.83    0.35
   4  -5 -19    6.64    0.33
   4   5  19    5.90    0.30
   1   6 -19   12.22    0.45
   1  -6  19   13.25    0.52
  -1   6  19   13.57    0.46
  -1  -6  19   12.80    0.49
   1  -6 -19   12.98    0.48
  -1   6 -19   13.20    0.45
   1   6  19   13.37    0.47
   3   6 -19   10.79    0.37
   3  -6  19    9.60    0.43
  -3  -6 -19   10.02    0.36
   3  -6 -19   10.40    0.42
   3   6  19    9.90    0.38
   0   7 -19    5.45    0.28
   0   7  19    5.65    0.29
   2  -7  19    5.45    0.30
   2   7 -19    4.95    0.25
  -2   7  19    5.41    0.26
   2  -7 -19    5.13    0.29
  -2   7 -19    5.24    0.24
   2   7  19    4.84    0.26
   0   0 -20   25.22    0.73
   0   0  20   24.98    0.78
   0   0  20   23.87    0.68
   0   0 -20   24.88    0.62
   2   0  20   20.62    0.73
  -2   0  20   21.01    0.71
   2   0 -20   20.49    0.67
  -2   0  20   21.25    0.67
  -2   0 -20   21.26    0.60
   4   0  20   12.85    0.61
  -4   0  20   13.81    0.53
  -4   0  20   13.09    0.53
  -4   0 -20   13.93    0.47
  -4   0 -20   13.13    0.48
  -4   0 -20   13.76    0.55
   4   0 -20   13.09    0.51
  -1  -1 -20   52.65    1.09
   1  -1  20   52.42    1.26
  -1  -1 -20   51.64    1.19
   1   1 -20   50.27    1.19
  -1   1  20   52.51    1.14
  -1   1  20   51.71    1.28
   1  -1  20   53.47    1.18
   1   1 -20   50.32    1.05
  -1   1 -20   52.27    1.10
  -1  -1  20   53.18    1.20
  -1  -1  20   53.14    1.23
  -1   1 -20   53.73    1.15
   1   1  20   50.97    1.27
   1  -1 -20   50.79    1.21
  -3  -1 -20   38.43    0.92
   3  -1  20   39.81    1.10
   3  -1  20   40.07    0.97
   3   1 -20   39.60    1.01
  -3   1  20   39.34    0.98
  -3  -1 -20   36.67    0.87
  -3   1  20   37.24    1.06
  -3  -1  20   37.90    0.95
   3  -1 -20   38.61    0.94
  -3   1 -20   39.10    0.98
  -3  -1  20   37.42    1.00
   3   1  20   36.84    1.07
  -3   1 -20   36.40    0.90
   3  -1 -20   38.42    0.99
  -5  -1 -20   21.78    0.61
  -5   1  20   22.24    0.67
  -5  -1 -20   21.18    0.60
  -5   1 -20   21.46    0.59
  -5  -1  20   22.26    0.67
  -5   1 -20   21.84    0.59
   5  -1 -20   21.20    0.64
  -5  -1  20   22.14    0.69
   0   2 -20   63.52    1.26
   0   2  20   60.59    1.46
   0  -2  20   63.18    1.37
   0  -2 -20   61.41    1.39
   0   2 -20   63.07    1.33
  -2  -2 -20   53.76    1.10
   2  -2  20   52.16    1.21
  -2   2  20   50.46    1.31
  -2  -2 -20   53.23    1.13
  -2  -2 -20   51.39    1.20
   2  -2  20   53.31    1.27
   2   2 -20   51.46    1.22
   2  -2 -20   52.84    1.22
  -2   2 -20   51.57    1.13
   2  -2 -20   52.97    1.14
   2   2  20   49.12    1.28
  -2  -2  20   51.62    1.23
  -4   2  20   34.74    0.88
  -4  -2 -20   32.41    0.84
   4  -2  20   35.06    0.91
  -4  -2 -20   33.82    0.84
  -4  -2  20   35.34    0.90
  -4   2 -20   33.74    0.83
   4  -2 -20   35.32    0.89
  -4  -2  20   34.03    0.94
   1   3 -20   14.10    0.46
  -1  -3 -20   13.01    0.53
   1  -3  20   13.43    0.53
   1   3 -20   13.59    0.51
  -1  -3 -20   14.27    0.44
  -1   3  20   13.09    0.57
   1   3  20   13.83    0.45
   1   3  20   13.46    0.57
  -1   3 -20   13.37    0.47
  -1  -3  20   13.25    0.53
   1  -3 -20   13.53    0.53
  -3  -3 -20   10.57    0.45
  -3  -3 -20   10.88    0.42
  -3  -3 -20   10.26    0.41
   3  -3  20   10.20    0.49
   3   3 -20   10.99    0.48
  -3   3  20    9.62    0.50
  -3   3 -20   10.65    0.47
  -3  -3  20    9.98    0.46
   3   3  20   10.81    0.50
  -3  -3  20   10.64    0.53
  -3  -3  20   10.64    0.45
   3  -3 -20   10.30    0.44
   3  -3 -20   10.01    0.44
  -3   3 -20   10.14    0.40
  -5  -3 -20    6.61    0.30
  -5   3  20    6.89    0.32
  -5  -3 -20    6.38    0.30
   5  -3 -20    6.18    0.32
  -5  -3  20    6.50    0.34
  -5  -3  20    6.64    0.33
   0  -4 -20   48.48    1.20
   0   4  20   50.48    1.06
   0  -4  20   48.10    1.17
   0   4 -20   50.16    1.09
   0   4  20   50.71    1.26
  -2   4  20   43.54    1.16
   2   4 -20   43.38    0.95
   2  -4  20   43.96    1.09
   2   4 -20   42.71    1.06
  -2  -4 -20   41.45    0.95
  -2  -4  20   42.69    1.07
  -2  -4  20   42.43    1.16
  -2   4 -20   41.52    0.97
   2  -4 -20   44.43    1.06
   2  -4 -20   42.28    1.00
   2   4  20   42.70    0.98
   4  -4  20   27.78    0.80
  -4  -4 -20   28.13    0.72
  -4   4 -20   28.31    0.68
  -4  -4  20   28.08    0.76
   4  -4 -20   27.87    0.76
  -4  -4  20   28.60    0.77
   1   5 -20   31.69    0.80
  -1   5  20   32.59    0.94
   1  -5  20   31.65    0.89
  -1   5  20   32.79    0.79
   1   5  20   33.38    0.82
  -1  -5  20   35.41    1.00
   1  -5 -20   32.26    0.82
  -1  -5  20   33.04    0.89
  -1   5 -20   32.08    0.81
   1  -5 -20   33.25    0.89
   3  -5  20   24.69    0.75
   3   5 -20   25.98    0.63
   3   5  20   25.18    0.67
  -3   5 -20   24.54    0.63
   3  -5 -20   24.44    0.70
  -3  -5  20   24.99    0.71
   0   6  20   12.84    0.45
   0  -6  20   12.73    0.49
   2   6 -20   11.63    0.40
   2  -6  20   11.20    0.46
  -2   6  20   11.68    0.40
   2   6  20   11.73    0.42
  -2   6 -20   11.32    0.39
  -2  -6  20   11.75    0.44
   2  -6 -20   11.80    0.44
  -1   0  21   35.80    0.92
  -1   0  21   36.48    1.00
  -1   0 -21   37.28    0.85
  -1   0 -21   35.94    0.91
   1   0 -21   34.43    0.94
   1   0  21   36.97    1.01
   1   0  21   36.58    0.88
   3   0  21   27.79    0.89
   3   0 -21   27.41    0.81
  -3   0 -21   28.67    0.75
  -3   0  21   27.36    0.81
  -3   0  21   28.23    0.77
  -3   0  21   28.39    0.85
  -5   0  21   16.55    0.56
  -5   0 -21   17.85    0.51
   5   0 -21   16.85    0.54
  -5   0 -21   16.44    0.50
   0  -1 -21   46.54    1.14
   0  -1  21   47.28    1.17
   0  -1 -21   47.83    0.98
   0  -1  21   47.40    1.11
   0   1 -21   46.76    1.01
   0   1 -21   48.35    1.12
   0   1  21   48.47    1.22
   2  -1  21   39.66    1.09
  -2   1  21   39.77    1.09
  -2  -1 -21   41.17    0.94
   2   1 -21   40.47    1.03
   2  -1  21   41.08    0.99
  -2   1  21   40.76    0.98
  -2  -1 -21   41.71    1.00
  -2  -1  21   41.43    1.04
  -2   1 -21   40.10    0.94
   2   1  21   39.18    1.10
   2  -1 -21   38.66    1.03
  -4  -1 -21   26.65    0.69
  -4  -1 -21   25.96    0.71
  -4   1  21   26.62    0.76
  -4  -1  21   25.48    0.75
  -4  -1  21   25.45    0.77
  -4   1 -21   26.70    0.71
   4  -1 -21   27.01    0.74
  -1  -2 -21   12.72    0.52
  -1  -2 -21   13.25    0.43
   1  -2  21   13.28    0.52
  -1   2  21   12.20    0.55
   1   2 -21   13.81    0.44
   1  -2  21   14.18    0.54
   1   2 -21   13.29    0.51
   1   2  21   12.99    0.57
   1  -2 -21   13.04    0.52
  -1  -2  21   12.89    0.52
  -1   2 -21   13.16    0.46
   3  -2  21    9.94    0.49
  -3  -2 -21   11.68    0.42
   3   2 -21   10.81    0.48
  -3  -2 -21   10.10    0.41
  -3   2  21   11.03    0.44
   3  -2  21   11.08    0.48
  -3   2  21   10.18    0.51
  -3  -2  21   10.21    0.47
   3  -2 -21   10.56    0.44
   3   2  21   10.18    0.50
  -3  -2  21   11.37    0.45
   3  -2 -21   10.86    0.46
  -3   2 -21   10.44    0.41
   0  -3  21   19.02    0.64
   0   3  21   18.47    0.69
   0   3 -21   19.10    0.57
   0  -3 -21   18.12    0.64
  -2  -3 -21   16.50    0.51
   2   3 -21   16.42    0.59
  -2  -3 -21   15.18    0.58
   2  -3  21   16.89    0.61
   2   3 -21   16.37    0.49
  -2   3  21   16.15    0.65
  -2   3 -21   16.35    0.53
  -2  -3  21   16.78    0.60
   2  -3 -21   16.58    0.54
   2   3  21   16.73    0.64
   2  -3 -21   16.13    0.58
   2   3  21   17.50    0.53
   4  -3  21   11.38    0.47
  -4  -3 -21   10.95    0.41
  -4  -3 -21   10.46    0.40
   4  -3 -21   10.70    0.44
  -4  -3  21   10.50    0.45
  -4  -3  21   11.37    0.45
  -4   3 -21   11.68    0.40
  -1   4  21   11.30    0.52
   1   4 -21   10.61    0.41
   1  -4  21   10.88    0.49
   1   4  21   10.41    0.40
  -1  -4  21   11.15    0.49
  -1   4 -21   10.35    0.41
   1   4  21   10.91    0.50
   1  -4 -21   10.31    0.46
   3  -4  21    8.76    0.43
  -3  -4 -21    8.73    0.35
   3   4  21    8.09    0.36
  -3   4 -21    8.98    0.35
  -3  -4  21    8.90    0.42
   3  -4 -21    8.56    0.39
   0   5 -21   30.47    0.77
   0   5  21   31.73    0.76
   0  -5  21   30.42    0.85
   2   5 -21   26.49    0.67
  -2   5 -21   26.87    0.68
   2   5  21   26.66    0.69
   2  -5 -21   27.36    0.73
  -2  -5  21   26.01    0.75
  -1   6  21   17.67    0.51
   1   6 -21   17.22    0.52
   1  -6  21   17.89    0.58
   1   6  21   17.71    0.52
  -1  -6  21   17.96    0.57
  -1   6 -21   16.85    0.51
   0   0  22   91.16    1.78
   0   0 -22   89.58    1.82
   0   0  22   91.26    1.92
   0   0 -22   91.62    1.68
   2   0  22   77.82    1.74
  -2   0  22   77.50    1.62
  -2   0 -22   76.99    1.54
  -2   0  22   79.66    1.70
   2   0 -22   78.24    1.66
  -4   0  22   54.49    1.22
  -4   0 -22   50.05    1.11
   1  -1  22    6.31    0.38
  -1   1  22    6.00    0.38
  -1  -1 -22    5.98    0.29
   1   1 -22    6.62    0.37
  -1  -1 -22    6.45    0.35
   1   1 -22    6.22    0.28
   1  -1  22    6.72    0.36
  -1   1  22    6.32    0.33
  -1   1 -22    6.00    0.31
  -1  -1  22    6.81    0.37
   1   1  22    5.82    0.38
   1  -1 -22    5.54    0.34
  -1  -1  22    6.68    0.37
  -3  -1 -22    4.08    0.26
   3  -1  22    4.76    0.30
  -3   1  22    4.69    0.34
   3   1 -22    4.54    0.31
  -3   1  22    4.40    0.29
   3   1  22    3.84    0.32
   3  -1 -22    4.41    0.29
  -3  -1  22    4.46    0.29
   3  -1 -22    4.43    0.30
  -3  -1  22    4.45    0.31
  -3   1 -22    4.30    0.27
   0  -2 -22   84.19    1.75
   0   2 -22   83.12    1.59
   0  -2  22   85.33    1.73
   0   2  22   80.88    1.81
   0   2 -22   84.35    1.69
  -2   2  22   71.08    1.65
  -2  -2 -22   73.52    1.46
   2   2 -22   74.49    1.57
   2  -2  22   74.44    1.55
   2  -2  22   74.02    1.62
  -2  -2 -22   74.16    1.55
  -2   2 -22   73.01    1.47
  -2  -2  22   74.11    1.59
   2  -2 -22   73.01    1.57
   2   2  22   71.73    1.65
  -4  -2 -22   49.33    1.05
  -4  -2 -22   49.45    1.08
  -4   2  22   50.77    1.11
   4  -2  22   52.99    1.12
   4  -2 -22   50.78    1.10
  -4   2 -22   48.29    1.05
  -4  -2  22   49.79    1.10
  -4  -2  22   45.92    1.13
  -1  -3 -22    4.84    0.32
   1  -3  22    4.92    0.33
  -1   3  22    5.68    0.37
   1   3 -22    4.80    0.30
   1   3 -22    4.88    0.27
   1  -3 -22    4.92    0.32
   1   3  22    4.80    0.35
  -1  -3  22    4.98    0.33
  -1   3 -22    4.97    0.29
   3  -3  22    3.76    0.29
  -3  -3 -22    3.32    0.23
  -3   3 -22    3.63    0.24
   3  -3 -22    3.84    0.26
  -3  -3  22    3.93    0.29
   3   3  22    3.53    0.25
   0  -4 -22   71.22    1.52
   0   4 -22   66.46    1.37
   0  -4  22   68.29    1.49
   2   4 -22   58.90    1.19
   2  -4  22   60.34    1.34
  -2  -4 -22   59.26    1.19
   2   4  22   60.04    1.22
  -2   4 -22   59.04    1.23
   2  -4 -22   58.85    1.24
  -2  -4  22   57.61    1.32
   1   5 -22    3.85    0.24
   1  -5  22    4.16    0.29
  -1   5 -22    3.80    0.24
   1   5  22    4.20    0.25
  -1  -5  22    4.37    0.29
   0  -6  22   50.14    1.13
   0   6  22   51.08    1.05
  -1   0 -23   18.37    0.55
  -1   0 -23   19.14    0.61
  -1   0  23   18.52    0.61
   1   0  23   18.56    0.68
   1   0 -23   18.17    0.63
  -1   0  23   17.87    0.65
  -3   0  23   13.71    0.52
  -3   0 -23   12.62    0.46
   0   1  23    4.20    0.32
   0  -1 -23    4.77    0.31
   0  -1  23    5.22    0.34
   0  -1  23    4.41    0.31
   0   1 -23    4.72    0.30
   0   1 -23    4.85    0.26
   2  -1  23    4.74    0.33
  -2  -1 -23    4.43    0.27
  -2   1  23    4.27    0.28
   2   1 -23    4.40    0.30
  -2   1  23    4.45    0.32
   2  -1  23    4.26    0.28
   2   1  23    4.33    0.33
   2  -1 -23    4.29    0.30
  -2  -1  23    3.99    0.30
  -2   1 -23    4.13    0.26
  -4  -1 -23    3.09    0.22
  -4  -1 -23    3.37    0.21
  -4   1  23    3.20    0.24
   4  -1 -23    3.12    0.24
  -4  -1  23    2.87    0.24
  -4   1 -23    3.19    0.22
  -1  -2 -23    5.65    0.28
   1   2 -23    5.95    0.28
  -1   2  23    6.41    0.40
  -1  -2 -23    6.09    0.35
   1  -2  23    5.49    0.34
   1   2 -23    6.05    0.34
  -1   2 -23    5.55    0.30
   1  -2 -23    5.38    0.34
  -1  -2  23    5.63    0.35
   1   2  23    5.90    0.38
  -3  -2 -23    3.96    0.25
   3  -2  23    4.54    0.30
   3  -2 -23    4.29    0.27
  -3  -2  23    4.36    0.30
  -3   2 -23    3.77    0.25
   0   3 -23    0.11    0.09
   0  -3  23    0.08    0.12
   0   3  23    0.07    0.11
   0  -3 -23    0.11    0.11
   2  -3  23   -0.15    0.10
  -2  -3 -23    0.10    0.09
  -2   3 -23    0.17    0.10
  -2  -3  23    0.20    0.13
   2   3  23    0.08    0.09
   1   4 -23    4.43    0.26
   1  -4  23    4.55    0.31
   1   4  23    4.79    0.26
  -1  -4  23    4.05    0.29
  -1   4 -23    5.05    0.28
   3  -4  23    3.51    0.26
  -3  -4 -23    3.83    0.22
  -3  -4  23    3.66    0.25
   3   4  23    4.06    0.24
  -3   4 -23    3.14    0.20
   3  -4 -23    3.52    0.24
   0   5 -23    2.54    0.20
   0  -5  23    2.63    0.24
   2  -5  23    2.56    0.25
   2   5 -23    2.37    0.18
  -2  -5  23    2.03    0.22
  -2   5 -23    2.43    0.19
   2   5  23    2.53    0.19
   0   0 -24    6.00    0.28
   0   0  24    5.46    0.32
   0   0  24    5.86    0.36
   0   0 -24    5.50    0.33
  -2   0  24    4.74    0.30
  -2   0 -24    4.48    0.27
  -4   0 -24    2.76    0.20
  -4   0  24    2.37    0.23
   4   0 -24    2.94    0.23
   1  -1  24   84.59    1.76
  -1  -1 -24   85.27    1.70
   1   1 -24   83.10    1.70
  -1  -1 -24   81.31    1.56
  -1   1  24   79.41    1.77
   1  -1  24   81.24    1.65
  -1  -1  24   82.21    1.68
   1  -1 -24   79.73    1.70
  -1   1 -24   81.35    1.58
  -3   1  24   63.32    1.33
   0  -2 -24    0.16    0.11
   0   2 -24    0.14    0.10
   0  -2  24    0.14    0.13
   0   2  24    0.17    0.13
   2  -2  24    0.04    0.11
  -2  -2 -24    0.50    0.12
  -2  -2  24    0.31    0.14
  -2   2 -24    0.16    0.10
   1  -3  24  114.83    2.19
   1   3 -24  114.00    2.04
  -1   3 -24  113.62    2.08
  -1  -3  24  115.44    2.21
   3  -3  24   91.54    1.77
  -3  -3 -24   90.53    1.69
   3   3  24   93.93    1.67
   3  -3 -24   92.08    1.70
   0   4 -24    0.17    0.10
   0  -4  24    0.22    0.12
   2  -4  24    0.20    0.12
   2   4 -24    0.20    0.09
  -2   4 -24    0.13    0.09
  -2  -4  24    0.07    0.10
   2   4  24    0.14    0.10
   1  -5  24   54.87    1.21
   1   5 -24   55.02    1.12
   1   5  24   59.38    1.11
  -1  -5  24   56.49    1.21
  -1   5 -24   55.37    1.12
  -1   0  25   11.28    0.45
  -1   0 -25   10.47    0.39
  -3   0 -25    7.26    0.32
  -3   0  25    7.76    0.36
   0   1 -25    1.61    0.18
   0  -1  25    1.28    0.19
  -2  -1 -25    1.26    0.16
  -2  -1  25    1.30    0.21
  -2   1 -25    1.18    0.16
   1   2 -25    2.37    0.18
   1  -2  25    2.26    0.25
  -1  -2  25    2.29    0.26
   3  -2  25    1.80    0.20
  -3  -2 -25    1.96    0.17
  -3  -2  25    1.86    0.22
  -3   2 -25    1.61    0.17
   0   3 -25    0.33    0.11
   0  -3  25    0.41    0.15
  -2  -3 -25    0.19    0.09
   2  -3  25    0.31    0.13
  -2   3 -25    0.19    0.09
  -2  -3  25    0.37    0.14
   1  -4  25    2.47    0.22
   1   4 -25    2.23    0.18
  -1   4 -25    1.97    0.17
  -2   0 -26   59.19    1.22
  -2   0  26   61.53    1.28
  -1  -1 -26    2.29    0.18
   1  -1  26    2.99    0.23
  -1   1 -26    2.55    0.20
  -1  -1  26    2.46    0.25
   0   2 -26   60.50    1.20
   0  -2  26   61.13    1.31
  -2  -2 -26   53.98    1.08
   2  -2  26   55.33    1.16
  -2  -2  26   52.82    1.19
   1  -3  26    2.30    0.24
   1   3 -26    2.45    0.18
  -1  -3  26    2.27    0.23
  -1   3 -26    2.40    0.18
  -1   0 -27   13.77    0.43
  -1   0  27   14.10    0.47
   0  -1  27   23.23    0.65
   0   1 -27   23.06    0.58
   1  -2  27    5.30    0.29
  -1   2 -27    5.15    0.25
  -1  -2  27    4.61    0.28
   0   0   0    0.00    0.00
;
_shelx_hkl_checksum              19656
#END Tags that were not found in dictionaries
loop_
_space_group_symop_operation_xyz
'x, y, z'
'-x, -y, z'
'x, -y, -z'
'-x, y, -z'
'x+1/2, y+1/2, z+1/2'
'-x+1/2, -y+1/2, z+1/2'
'x+1/2, -y+1/2, -z+1/2'
'-x+1/2, y+1/2, -z+1/2'
'-x, -y, -z'
'x, y, -z'
'-x, y, z'
'x, -y, z'
'-x+1/2, -y+1/2, -z+1/2'
'x+1/2, y+1/2, -z+1/2'
'-x+1/2, y+1/2, z+1/2'
'x+1/2, -y+1/2, z+1/2'
loop_
_atom_site_label
_atom_site_type_symbol
_atom_site_fract_x
_atom_site_fract_y
_atom_site_fract_z
_atom_site_U_iso_or_equiv
_atom_site_adp_type
_atom_site_occupancy
_atom_site_site_symmetry_order
_atom_site_calc_flag
_atom_site_refinement_flags_posn
_atom_site_refinement_flags_adp
_atom_site_refinement_flags_occupancy
Co Co 0.5000 0.0000 0.0000 0.00478(3) Uani 1 8 d S T P
Sc1 Sc 0.0000 0.5000 0.0000 0.00436(3) Uani 1 8 d S T P
Sc2 Sc 0.5000 0.5000 0.31198(2) 0.00404(3) Uani 1 4 d S T P
C C 0.5000 0.33377(11) 0.12480(4) 0.00511(5) Uani 1 2 d S T P
loop_
_atom_site_aniso_label
_atom_site_aniso_U_11
_atom_site_aniso_U_22
_atom_site_aniso_U_33
_atom_site_aniso_U_23
_atom_site_aniso_U_13
_atom_site_aniso_U_12
Co 0.00724(5) 0.00349(4) 0.00362(4) 0.000 0.000 0.000
Sc1 0.00431(5) 0.00439(5) 0.00439(5) 0.000 0.000 0.000
Sc2 0.00444(4) 0.00370(4) 0.00399(4) 0.000 0.000 0.000
C 0.00601(12) 0.00438(12) 0.00494(12) 0.00030(9) 0.000 0.000
loop_
_atom_type_symbol
_atom_type_description
_atom_type_scat_dispersion_real
_atom_type_scat_dispersion_imag
_atom_type_scat_source
C C 0.0033 0.0016 'International Tables Vol C Tables 4.2.6.8 and 6.1.1.4'
Co Co 0.3494 0.9721 'International Tables Vol C Tables 4.2.6.8 and 6.1.1.4'
Sc Sc 0.2519 0.3716 'International Tables Vol C Tables 4.2.6.8 and 6.1.1.4'
loop_
_geom_angle_atom_site_label_1
_geom_angle_atom_site_label_2
_geom_angle_atom_site_label_3
_geom_angle
_geom_angle_site_symmetry_1
_geom_angle_site_symmetry_3
C Co C 88.56(4) 9_655 10
C Co C 91.44(4) 9_655 2_655
C Co C 180.00(2) 10 2_655
C Co C 180.000(17) 9_655 .
C Co C 91.44(4) 10 .
C Co C 88.56(4) 2_655 .
C Co Sc1 56.53(2) 9_655 1_545
C Co Sc1 123.47(2) 10 1_545
C Co Sc1 56.53(2) 2_655 1_545
C Co Sc1 123.47(2) . 1_545
C Co Sc1 123.47(2) 9_655 1_655
C Co Sc1 56.53(2) 10 1_655
C Co Sc1 123.47(2) 2_655 1_655
C Co Sc1 56.53(2) . 1_655
Sc1 Co Sc1 180.0 1_545 1_655
C Co Sc1 56.53(2) 9_655 1_645
C Co Sc1 123.47(2) 10 1_645
C Co Sc1 56.53(2) 2_655 1_645
C Co Sc1 123.47(2) . 1_645
Sc1 Co Sc1 75.65(4) 1_545 1_645
Sc1 Co Sc1 104.35(4) 1_655 1_645
C Co Sc1 123.47(2) 9_655 .
C Co Sc1 56.53(2) 10 .
C Co Sc1 123.47(2) 2_655 .
C Co Sc1 56.53(2) . .
Sc1 Co Sc1 104.35(4) 1_545 .
Sc1 Co Sc1 75.65(4) 1_655 .
Sc1 Co Sc1 180.0 1_645 .
C Co Sc2 55.113(17) 9_655 5_444
C Co Sc2 55.113(17) 10 5_444
C Co Sc2 124.887(17) 2_655 5_444
C Co Sc2 124.887(17) . 5_444
Sc1 Co Sc2 68.357(18) 1_545 5_444
Sc1 Co Sc2 111.643(19) 1_655 5_444
Sc1 Co Sc2 111.643(18) 1_645 5_444
Sc1 Co Sc2 68.357(18) . 5_444
C Co Sc2 124.887(17) 9_655 13_655
C Co Sc2 124.887(17) 10 13_655
C Co Sc2 55.113(17) 2_655 13_655
C Co Sc2 55.113(17) . 13_655
Sc1 Co Sc2 111.643(19) 1_545 13_655
Sc1 Co Sc2 68.357(18) 1_655 13_655
Sc1 Co Sc2 68.357(18) 1_645 13_655
Sc1 Co Sc2 111.643(18) . 13_655
Sc2 Co Sc2 180.0 5_444 13_655
C Co Sc2 55.113(17) 9_655 5_544
C Co Sc2 55.113(17) 10 5_544
C Co Sc2 124.887(17) 2_655 5_544
C Co Sc2 124.887(17) . 5_544
Sc1 Co Sc2 111.643(18) 1_545 5_544
Sc1 Co Sc2 68.357(18) 1_655 5_544
Sc1 Co Sc2 68.357(18) 1_645 5_544
Sc1 Co Sc2 111.643(18) . 5_544
Sc2 Co Sc2 73.95(4) 5_444 5_544
Sc2 Co Sc2 106.05(4) 13_655 5_544
C Co Sc2 124.887(17) 9_655 13
C Co Sc2 124.887(17) 10 13
C Co Sc2 55.113(17) 2_655 13
C Co Sc2 55.113(17) . 13
Sc1 Co Sc2 68.357(18) 1_545 13
Sc1 Co Sc2 111.643(18) 1_655 13
Sc1 Co Sc2 111.643(18) 1_645 13
Sc1 Co Sc2 68.357(18) . 13
Sc2 Co Sc2 106.05(4) 5_444 13
Sc2 Co Sc2 73.95(4) 13_655 13
Sc2 Co Sc2 180.0 5_544 13
C Sc1 C 180.000(16) 10_455 2_665
C Sc1 C 35.62(3) 10_455 9_565
C Sc1 C 144.38(3) 2_665 9_565
C Sc1 C 101.95(4) 10_455 9_665
C Sc1 C 78.05(4) 2_665 9_665
C Sc1 C 91.15(4) 9_565 9_665
C Sc1 C 78.05(4) 10_455 1_455
C Sc1 C 101.95(4) 2_665 1_455
C Sc1 C 88.85(4) 9_565 1_455
C Sc1 C 180.0 9_665 1_455
C Sc1 C 91.15(4) 10_455 10
C Sc1 C 88.85(4) 2_665 10
C Sc1 C 101.95(4) 9_565 10
C Sc1 C 35.62(3) 9_665 10
C Sc1 C 144.38(3) 1_455 10
C Sc1 C 88.85(4) 10_455 2_565
C Sc1 C 91.15(4) 2_665 2_565
C Sc1 C 78.05(4) 9_565 2_565
C Sc1 C 144.38(3) 9_665 2_565
C Sc1 C 35.62(3) 1_455 2_565
C Sc1 C 180.00(2) 10 2_565
C Sc1 C 144.38(3) 10_455 .
C Sc1 C 35.62(3) 2_665 .
C Sc1 C 180.0 9_565 .
C Sc1 C 88.85(4) 9_665 .
C Sc1 C 91.15(4) 1_455 .
C Sc1 C 78.05(4) 10 .
C Sc1 C 101.95(4) 2_565 .
C Sc1 Co 47.194(17) 10_455 1_455
C Sc1 Co 132.806(18) 2_665 1_455
C Sc1 Co 78.68(3) 9_565 1_455
C Sc1 Co 132.806(17) 9_665 1_455
C Sc1 Co 47.194(18) 1_455 1_455
C Sc1 Co 101.32(3) 10 1_455
C Sc1 Co 78.68(3) 2_565 1_455
C Sc1 Co 101.32(3) . 1_455
C Sc1 Co 132.806(18) 10_455 1_565
C Sc1 Co 47.194(18) 2_665 1_565
C Sc1 Co 101.32(3) 9_565 1_565
C Sc1 Co 47.194(18) 9_665 1_565
C Sc1 Co 132.806(17) 1_455 1_565
C Sc1 Co 78.68(3) 10 1_565
C Sc1 Co 101.32(3) 2_565 1_565
C Sc1 Co 78.68(3) . 1_565
Co Sc1 Co 180.0 1_455 1_565
C Sc1 Co 101.32(3) 10_455 .
C Sc1 Co 78.68(3) 2_665 .
C Sc1 Co 132.806(17) 9_565 .
C Sc1 Co 78.68(3) 9_665 .
C Sc1 Co 101.32(3) 1_455 .
C Sc1 Co 47.194(18) 10 .
C Sc1 Co 132.806(17) 2_565 .
C Sc1 Co 47.194(18) . .
Co Sc1 Co 75.65(4) 1_455 .
Co Sc1 Co 104.35(4) 1_565 .
C Sc1 Co 78.68(3) 10_455 1_465
C Sc1 Co 101.32(3) 2_665 1_465
C Sc1 Co 47.194(17) 9_565 1_465
C Sc1 Co 101.32(3) 9_665 1_465
C Sc1 Co 78.68(3) 1_455 1_465
C Sc1 Co 132.806(17) 10 1_465
C Sc1 Co 47.194(18) 2_565 1_465
C Sc1 Co 132.806(17) . 1_465
Co Sc1 Co 104.35(4) 1_455 1_465
Co Sc1 Co 75.65(4) 1_565 1_465
Co Sc1 Co 180.0 . 1_465
C Sc2 C 35.89(3) . 2_665
C Sc2 C 119.697(15) . 14
C Sc2 C 96.597(18) 2_665 14
C Sc2 C 96.597(18) . 13
C Sc2 C 119.697(15) 2_665 13
C Sc2 C 142.58(3) 14 13
C Sc2 C 119.697(16) . 14_455
C Sc2 C 96.597(19) 2_665 14_455
C Sc2 C 91.81(4) 14 14_455
C Sc2 C 76.27(4) 13 14_455
C Sc2 C 96.597(19) . 13_655
C Sc2 C 119.697(15) 2_665 13_655
C Sc2 C 76.27(4) 14 13_655
C Sc2 C 91.81(4) 13 13_655
C Sc2 C 142.58(3) 14_455 13_655
C Sc2 Co 139.468(16) . 5
C Sc2 Co 139.468(17) 2_665 5
C Sc2 Co 46.512(19) 14 5
C Sc2 Co 100.12(3) 13 5
C Sc2 Co 100.12(3) 14_455 5
C Sc2 Co 46.512(19) 13_655 5
C Sc2 Co 139.468(17) . 5_455
C Sc2 Co 139.468(17) 2_665 5_455
C Sc2 Co 100.12(3) 14 5_455
C Sc2 Co 46.512(19) 13 5_455
C Sc2 Co 46.512(19) 14_455 5_455
C Sc2 Co 100.12(3) 13_655 5_455
Co Sc2 Co 73.95(4) 5 5_455
C Sc2 Sc1 153.825(13) . 5
C Sc2 Sc1 117.94(3) 2_665 5
C Sc2 Sc1 48.69(2) 14 5
C Sc2 Sc1 101.52(2) 13 5
C Sc2 Sc1 48.69(2) 14_455 5
C Sc2 Sc1 101.52(2) 13_655 5
Co Sc2 Sc1 55.003(15) 5 5
Co Sc2 Sc1 55.003(15) 5_455 5
C Sc2 Sc1 117.94(3) . 5_545
C Sc2 Sc1 153.826(13) 2_665 5_545
C Sc2 Sc1 101.52(2) 14 5_545
C Sc2 Sc1 48.69(2) 13 5_545
C Sc2 Sc1 101.52(2) 14_455 5_545
C Sc2 Sc1 48.69(2) 13_655 5_545
Co Sc2 Sc1 55.003(15) 5 5_545
Co Sc2 Sc1 55.003(15) 5_455 5_545
Sc1 Sc2 Sc1 88.24(3) 5 5_545
C Sc2 Sc2 48.354(12) . 13
C Sc2 Sc2 76.37(2) 2_665 13
C Sc2 Sc2 165.811(10) 14 13
C Sc2 Sc2 48.24(2) 13 13
C Sc2 Sc2 101.16(4) 14_455 13
C Sc2 Sc2 96.32(4) 13_655 13
Co Sc2 Sc2 134.662(16) 5 13
Co Sc2 Sc2 93.04(3) 5_455 13
Sc1 Sc2 Sc2 145.498(16) 5 13
Sc1 Sc2 Sc2 81.67(2) 5_545 13
C Sc2 Sc2 76.37(2) . 13_665
C Sc2 Sc2 48.354(13) 2_665 13_665
C Sc2 Sc2 48.24(2) 14 13_665
C Sc2 Sc2 165.811(10) 13 13_665
C Sc2 Sc2 96.32(4) 14_455 13_665
C Sc2 Sc2 101.16(4) 13_655 13_665
Co Sc2 Sc2 93.04(3) 5 13_665
Co Sc2 Sc2 134.662(16) 5_455 13_665
Sc1 Sc2 Sc2 81.67(2) 5 13_665
Sc1 Sc2 Sc2 145.498(17) 5_545 13_665
Sc2 Sc2 Sc2 123.53(2) 13 13_665
C C Co 134.281(19) 2_665 .
C C Sc2 72.055(14) 2_665 .
Co C Sc2 153.66(2) . .
C C Sc2 128.14(2) 2_665 13
Co C Sc2 78.37(2) . 13
Sc2 C Sc2 83.404(19) . 13
C C Sc2 128.14(2) 2_665 13_655
Co C Sc2 78.37(2) . 13_655
Sc2 C Sc2 83.404(19) . 13_655
Sc2 C Sc2 91.81(4) 13 13_655
C C Sc1 72.191(14) 2_665 .
Co C Sc1 76.28(2) . .
Sc2 C Sc1 120.32(2) . .
Sc2 C Sc1 82.99(3) 13 .
Sc2 C Sc1 154.65(2) 13_655 .
C C Sc1 72.191(15) 2_665 1_655
Co C Sc1 76.28(2) . 1_655
Sc2 C Sc1 120.32(2) . 1_655
Sc2 C Sc1 154.65(2) 13 1_655
Sc2 C Sc1 82.99(3) 13_655 1_655
Sc1 C Sc1 91.15(4) . 1_655
loop_
_geom_bond_atom_site_label_1
_geom_bond_atom_site_label_2
_geom_bond_distance
_geom_bond_site_symmetry_2
Co C 2.0924(7) 9_655
Co C 2.0924(7) 10
Co C 2.0924(7) 2_655
Co C 2.0924(7) .
Co Sc1 2.7706(10) 1_545
Co Sc1 2.7706(10) 1_655
Co Sc1 2.7706(10) 1_645
Co Sc1 2.7706(10) .
Co Sc2 2.8248(8) 5_444
Co Sc2 2.8248(8) 13_655
Co Sc2 2.8248(8) 5_544
Co Sc2 2.8248(8) 13
Sc1 C 2.3791(8) 10_455
Sc1 C 2.3791(8) 2_665
Sc1 C 2.3791(8) 9_565
Sc1 C 2.3791(8) 9_665
Sc1 C 2.3791(8) 1_455
Sc1 C 2.3791(8) 10
Sc1 C 2.3791(8) 2_565
Sc1 C 2.3791(8) .
Sc1 Co 2.7706(10) 1_455
Sc1 Co 2.7706(10) 1_565
Sc1 Co 2.7706(10) 1_465
Sc2 C 2.3616(7) .
Sc2 C 2.3616(7) 2_665
Sc2 C 2.3657(9) 14
Sc2 C 2.3657(9) 13
Sc2 C 2.3657(9) 14_455
Sc2 C 2.3657(9) 13_655
Sc2 Co 2.8249(8) 5
Sc2 Co 2.8249(8) 5_455
Sc2 Sc1 3.1437(8) 5
Sc2 Sc1 3.1437(8) 5_545
Sc2 Sc2 3.1448(9) 13
Sc2 Sc2 3.1448(9) 13_665
C C 1.4552(11) 2_665
C Sc2 2.3657(9) 13
C Sc2 2.3657(9) 13_655
C Sc1 2.3791(8) 1_655
