#------------------------------------------------------------------------------
#$Date: 2015-11-29 04:44:17 +0200 (Sun, 29 Nov 2015) $
#$Revision: 170611 $
#$URL: svn://www.crystallography.net/cod/cif/2/30/05/2300563.cif $
#------------------------------------------------------------------------------
#
# This file is available in the Crystallography Open Database (COD),
# http://www.crystallography.net/. The original data for this entry
# were provided by IUCr Journals, http://journals.iucr.org/.
#
# The file may be used within the scientific community so long as
# proper attribution is given to the journal article from which the
# data were obtained.
#
data_2300563
loop_
_publ_author_name
'Krause, Lennard'
'Herbst-Irmer, Regine'
'Stalke, Dietmar'
_publ_section_title
;
 An empirical correction for the influence of low-energy contamination
;
_journal_coeditor_code           KS5494
_journal_issue                   6
_journal_name_full               'Journal of Applied Crystallography'
_journal_page_first              1907
_journal_page_last               1913
_journal_paper_doi               10.1107/S1600576715020440
_journal_volume                  48
_journal_year                    2015
_chemical_formula_moiety         'C12 H4 N4'
_chemical_formula_sum            'C12 H4 N4'
_chemical_formula_weight         204.19
_space_group_crystal_system      monoclinic
_space_group_IT_number           15
_space_group_name_Hall           '-C 2yc'
_space_group_name_H-M_alt        'C 1 2/c 1'
_symmetry_space_group_name_Hall  '-C 2yc'
_symmetry_space_group_name_H-M   'C 1 2/c 1'
_atom_sites_solution_hydrogens   geom
_audit_creation_method           SHELXL-2014/7
_cell_angle_alpha                90
_cell_angle_beta                 98.241(2)
_cell_angle_gamma                90
_cell_formula_units_Z            4
_cell_length_a                   8.8840(12)
_cell_length_b                   6.9036(9)
_cell_length_c                   16.421(2)
_cell_measurement_reflns_used    6067
_cell_measurement_temperature    100(2)
_cell_measurement_theta_max      30.723
_cell_measurement_theta_min      2.5065
_cell_volume                     996.7(2)
_computing_cell_refinement       'SAINT V8.30C'
_computing_data_collection       'APEX2 v2012.2'
_computing_data_reduction        'SAINT V8.30C'
_computing_molecular_graphics    'Mercury CSD 3.3 (Build RC5)'
_computing_publication_material  'Mercury CSD 3.3 (Build RC5)'
_computing_structure_refinement  'SHELXL-2014/7 (Sheldrick, 2014)'
_computing_structure_solution
'SHELXT (G.M.Sheldrick,Acta Cryst.(2015)A71,3-8)'
_diffrn_ambient_temperature      100(2)
_diffrn_measured_fraction_theta_full 1.000
_diffrn_measured_fraction_theta_max 1.000
_diffrn_measurement_device_type  'Bruker Smart APEX II Quazar'
_diffrn_measurement_method       'omega scans'
_diffrn_radiation_type           MoK\a
_diffrn_radiation_wavelength     0.71073
_diffrn_reflns_av_R_equivalents  0.0155
_diffrn_reflns_av_unetI/netI     0.0093
_diffrn_reflns_laue_measured_fraction_full 1.000
_diffrn_reflns_laue_measured_fraction_max 1.000
_diffrn_reflns_limit_h_max       12
_diffrn_reflns_limit_h_min       -12
_diffrn_reflns_limit_k_max       9
_diffrn_reflns_limit_k_min       -9
_diffrn_reflns_limit_l_max       23
_diffrn_reflns_limit_l_min       -23
_diffrn_reflns_number            10375
_diffrn_reflns_point_group_measured_fraction_full 1.000
_diffrn_reflns_point_group_measured_fraction_max 1.000
_diffrn_reflns_theta_full        25.242
_diffrn_reflns_theta_max         30.728
_diffrn_reflns_theta_min         2.507
_diffrn_source                   'INCOATEC Microsource'
_exptl_absorpt_coefficient_mu    0.088
_exptl_absorpt_correction_T_max  0.7461
_exptl_absorpt_correction_T_min  0.7184
_exptl_absorpt_correction_type   multi-scan
_exptl_absorpt_process_details   SADABS-2015/1
_exptl_crystal_density_diffrn    1.361
_exptl_crystal_description       plate
_exptl_crystal_F_000             416
_exptl_crystal_size_max          0.180
_exptl_crystal_size_mid          0.130
_exptl_crystal_size_min          0.060
_refine_diff_density_max         0.465
_refine_diff_density_min         -0.192
_refine_diff_density_rms         0.048
_refine_ls_extinction_method     none
_refine_ls_goodness_of_fit_ref   1.084
_refine_ls_hydrogen_treatment    constr
_refine_ls_matrix_type           full
_refine_ls_number_parameters     73
_refine_ls_number_reflns         1545
_refine_ls_number_restraints     0
_refine_ls_restrained_S_all      1.084
_refine_ls_R_factor_all          0.0362
_refine_ls_R_factor_gt           0.0338
_refine_ls_shift/su_max          0.000
_refine_ls_shift/su_mean         0.000
_refine_ls_structure_factor_coef Fsqd
_refine_ls_weighting_details
'w=1/[\s^2^(Fo^2^)+(0.0567P)^2^+0.4831P] where P=(Fo^2^+2Fc^2^)/3'
_refine_ls_weighting_scheme      calc
_refine_ls_wR_factor_gt          0.0966
_refine_ls_wR_factor_ref         0.0992
_reflns_Friedel_coverage         0.000
_reflns_number_gt                1432
_reflns_number_total             1545
_reflns_threshold_expression     'I > 2\s(I)'
_cod_data_source_file            ks5494sup1.cif
_cod_data_source_block           2_filter
_cod_database_code               2300563
_shelx_shelxl_version_number     2014/7
_shelx_space_group_comment
;
The symmetry employed for this shelxl refinement is uniquely defined
by the following loop, which should always be used as a source of
symmetry information in preference to the above space-group names.
They are only intended as comments.
;
_shelx_estimated_absorpt_t_min   0.984
_shelx_estimated_absorpt_t_max   0.995
_shelx_res_file
;

    filter.res created by SHELXL-2014/7


TITL Filter_a.res in C2/c
REM Old TITL Filter in C2/c
REM SHELXT solution in C2/c
REM R1 0.067,  Rweak 0.001,  Alpha 0.015,  Orientation as input
REM Formula found by SHELXT:  C6 N2
CELL  0.71073   8.8840   6.9036  16.4207   90.000   98.241   90.000
ZERR   4.000   0.0012   0.0009   0.0021    0.000    0.002    0.000
LATT  7
SYMM -X, Y, 1/2-Z
SFAC C H N
UNIT 48 16 16
TEMP -173.250
L.S. 10
BOND $H
LIST 4
SIZE 0.06 0.13 0.18
ACTA
FMAP 2
PLAN 20
WGHT    0.056700    0.483100
FVAR       0.22958
N1    3    0.306866    0.243831    0.239876    11.00000    0.02242    0.02392 =
         0.01848   -0.00330    0.00295   -0.00092
C1    1    0.651226    0.474043    0.483949    11.00000    0.01275    0.01409 =
         0.01373    0.00050    0.00414    0.00108
AFIX  43
H1    2    0.753329    0.457792    0.474216    11.00000   -1.20000
AFIX   0
N2    3   -0.020326    0.434134    0.400106    11.00000    0.01631    0.02666 =
         0.02116   -0.00006    0.00293    0.00017
C2    1    0.535457    0.420022    0.425550    11.00000    0.01337    0.01443 =
         0.01328   -0.00050    0.00422    0.00115
AFIX  43
H2    2    0.557182    0.366055    0.375303    11.00000   -1.20000
AFIX   0
C4    1    0.260781    0.389728    0.379230    11.00000    0.01350    0.01365 =
         0.01362    0.00075    0.00256    0.00057
C3    1    0.379046    0.443640    0.438886    11.00000    0.01281    0.01197 =
         0.01272    0.00110    0.00301    0.00061
C6    1    0.104678    0.414720    0.390376    11.00000    0.01554    0.01611 =
         0.01442    0.00043    0.00125   -0.00035
C5    1    0.286528    0.308706    0.301873    11.00000    0.01468    0.01640 =
         0.01577    0.00034    0.00106   -0.00060
HKLF 4

REM  Filter_a.res in C2/c
REM R1 =  0.0338 for    1432 Fo > 4sig(Fo)  and  0.0362 for all    1545 data
REM     73 parameters refined using      0 restraints

END

WGHT      0.0567      0.4831

REM Highest difference peak  0.465,  deepest hole -0.192,  1-sigma level  0.048
Q1    1   0.3186  0.4135  0.4101  11.00000  0.05    0.46
Q2    1   0.4575  0.4365  0.4327  11.00000  0.05    0.45
Q3    1   0.5870  0.4415  0.4576  11.00000  0.05    0.45
Q4    1   0.6377  0.5157  0.5222  11.00000  0.05    0.43
Q5    1   0.2764  0.3466  0.3475  11.00000  0.05    0.30
Q6    1   0.1839  0.4025  0.3849  11.00000  0.05    0.29
Q7    1   0.0388  0.4210  0.3700  11.00000  0.05    0.24
Q8    1   0.2423  0.2781  0.2666  11.00000  0.05    0.23
Q9    1   0.0540  0.4205  0.4210  11.00000  0.05    0.23
Q10   1   0.3145  0.3299  0.2682  11.00000  0.05    0.20
Q11   1   0.3417  0.2533  0.2867  11.00000  0.05    0.20
Q12   1  -0.1212  0.4657  0.3935  11.00000  0.05    0.11
Q13   1   0.3356  0.2173  0.1881  11.00000  0.05    0.11
Q14   1   0.3285  0.1614  0.1984  11.00000  0.05    0.10
Q15   1  -0.0994  0.4875  0.4158  11.00000  0.05    0.09
Q16   1   0.7119  0.5014  0.4734  11.00000  0.05    0.08
Q17   1   0.5415  0.3402  0.3969  11.00000  0.05    0.08
Q18   1   0.3425  0.1417  0.2281  11.00000  0.05    0.07
Q19   1   0.7856  0.5102  0.4011  11.00000  0.05    0.06
Q20   1   0.2447  0.1916  0.2111  11.00000  0.05    0.06
;
_shelx_res_checksum              78006
_shelx_hkl_file
;
   2   0   0   47.02    0.66
   2   0   0   47.77    0.65
   2   0   0   47.26    0.66
  -2   0   0   47.95    0.66
   4   0   0   32.63    0.51
   4   0   0   31.91    0.53
   4   0   0   32.01    0.53
  -4   0   0   31.93    0.52
  -6   0   0    2.78    0.14
   6   0   0    2.32    0.12
   6   0   0    2.79    0.14
   6   0   0    2.31    0.13
  -8   0   0   17.45    0.42
   8   0   0   17.39    0.44
   8   0   0   17.31    0.40
   8   0   0   16.89    0.43
  10   0   0    0.65    0.13
  10   0   0    0.47    0.13
  12   0   0   11.56    0.44
  12   0   0   10.86    0.44
   1  -1   0   26.07    0.38
   1  -1   0   26.58    0.37
   1   1   0   26.35    0.36
   1   1   0   25.93    0.38
   1   1   0   26.31    0.38
   1   1   0   26.61    0.38
  -1   1   0   27.05    0.39
   3  -1   0  167.86    2.22
   3  -1   0  169.22    2.24
  -3  -1   0  169.84    2.20
   3  -1   0  170.69    2.22
   3   1   0  167.07    2.23
  -3   1   0  170.52    2.25
   3   1   0  166.13    2.23
   3   1   0  168.99    2.24
   5  -1   0    0.10    0.04
   5  -1   0    0.15    0.05
   5  -1   0    0.08    0.05
  -5  -1   0    0.12    0.04
   5   1   0    0.10    0.05
   5   1   0    0.07    0.04
   5   1   0    0.18    0.05
  -5   1   0    0.18    0.05
   7  -1   0    0.23    0.07
   7  -1   0    0.13    0.06
   7  -1   0    0.19    0.06
  -7  -1   0    0.26    0.06
   7   1   0    0.36    0.08
   7   1   0    0.34    0.08
   7   1   0    0.29    0.06
  -7   1   0    0.23    0.07
   9  -1   0    1.66    0.17
   9  -1   0    2.00    0.17
  -9   1   0    2.13    0.18
   9   1   0    2.03    0.17
   9   1   0    1.76    0.17
   9   1   0    2.16    0.16
  11  -1   0   31.35    0.73
  11  -1   0   32.58    0.77
  11   1   0   31.33    0.75
  11   1   0   32.91    0.76
   0  -2   0  232.83    3.01
   0  -2   0  233.09    2.98
   0   2   0  232.48    3.01
   0   2   0  234.56    3.03
   2  -2   0  277.90    3.58
   2  -2   0  278.53    3.55
   2  -2   0  271.12    3.58
  -2  -2   0  275.48    3.58
   2   2   0  276.38    3.53
  -2   2   0  268.98    3.60
   2   2   0  277.99    3.59
   2   2   0  280.93    3.57
   2   2   0  276.52    3.59
   4  -2   0   36.25    0.60
   4  -2   0   35.72    0.57
   4  -2   0   35.66    0.58
  -4  -2   0   36.94    0.55
   4   2   0   35.41    0.60
   4   2   0   35.81    0.59
   4   2   0   35.72    0.59
   6  -2   0    1.14    0.11
   6  -2   0    1.33    0.12
  -6  -2   0    1.01    0.08
   6  -2   0    1.21    0.10
   6   2   0    1.02    0.11
   6   2   0    1.17    0.11
   6   2   0    1.25    0.12
  -6   2   0    1.09    0.11
   8  -2   0   48.66    0.83
   8  -2   0   48.77    0.90
  -8  -2   0   46.91    0.80
   8  -2   0   46.79    0.85
  -8   2   0   48.49    0.89
   8   2   0   48.52    0.88
   8   2   0   46.78    0.87
   8   2   0   48.67    0.84
  10  -2   0   13.70    0.45
  10  -2   0   13.96    0.43
  10   2   0   14.29    0.45
 -10   2   0   14.16    0.45
  10   2   0   14.14    0.45
  12  -2   0    0.18    0.13
  12  -2   0   -0.02    0.11
 -12  -2   0    0.14    0.13
  12   2   0    0.12    0.13
  12   2   0   -0.09    0.10
   1  -3   0    2.85    0.08
  -1  -3   0    2.83    0.09
  -1  -3   0    2.85    0.10
   1  -3   0    2.88    0.11
   1  -3   0    2.78    0.12
  -1   3   0    2.96    0.12
   1   3   0    2.86    0.12
   1   3   0    2.85    0.10
   3  -3   0   23.20    0.42
   3  -3   0   22.02    0.42
  -3  -3   0   22.89    0.42
   3  -3   0   23.19    0.39
   3   3   0   23.25    0.36
   3   3   0   22.86    0.41
  -3   3   0   23.05    0.45
   3   3   0   22.86    0.43
   3   3   0   22.05    0.43
   5  -3   0   28.70    0.51
   5  -3   0   28.96    0.53
  -5  -3   0   28.59    0.48
   5  -3   0   27.87    0.54
  -5  -3   0   27.80    0.55
  -5   3   0   28.70    0.57
   5   3   0   29.05    0.46
   5   3   0   28.45    0.54
   5   3   0   28.30    0.54
   5   3   0   28.73    0.54
   7  -3   0   28.38    0.57
   7  -3   0   28.67    0.57
   7  -3   0   29.03    0.61
  -7  -3   0   28.43    0.52
   7   3   0   28.80    0.58
   7   3   0   28.24    0.60
   7   3   0   29.29    0.60
  -7   3   0   28.55    0.62
   9  -3   0    8.07    0.33
   9  -3   0    8.51    0.31
  -9   3   0    7.64    0.33
   9   3   0    8.03    0.32
   9   3   0    8.04    0.30
   9   3   0    7.50    0.31
  11  -3   0   -0.02    0.10
 -11  -3   0   -0.01    0.09
  11  -3   0   -0.04    0.08
  11   3   0    0.01    0.11
  11   3   0    0.10    0.11
 -11   3   0    0.06    0.10
   0  -4   0    0.45    0.06
   0  -4   0    0.68    0.05
   0  -4   0    0.64    0.08
   0   4   0    0.47    0.06
   0   4   0    0.65    0.08
  -2  -4   0   18.30    0.36
  -2  -4   0   18.43    0.34
   2  -4   0   18.15    0.39
   2  -4   0   17.93    0.32
   2  -4   0   18.54    0.37
   2   4   0   17.86    0.39
  -2   4   0   18.33    0.26
   2   4   0   18.54    0.33
  -2   4   0   18.29    0.39
   4  -4   0   21.16    0.45
   4  -4   0   21.65    0.40
   4  -4   0   21.73    0.45
  -4  -4   0   21.44    0.43
   4   4   0   21.41    0.46
   4   4   0   22.03    0.37
   4   4   0   21.46    0.46
  -4   4   0   21.90    0.48
   6  -4   0   34.28    0.67
  -6  -4   0   34.34    0.67
   6  -4   0   34.02    0.61
   6  -4   0   34.52    0.66
  -6  -4   0   33.32    0.58
  -6   4   0   34.42    0.70
   6   4   0   34.14    0.65
   6   4   0   34.17    0.67
   6   4   0   33.85    0.68
   8  -4   0   10.79    0.33
   8  -4   0   10.29    0.37
  -8  -4   0   11.04    0.37
   8  -4   0   11.13    0.35
   8   4   0   11.20    0.38
  -8   4   0   10.71    0.38
   8   4   0   10.86    0.36
   8   4   0   10.90    0.36
 -10  -4   0    0.85    0.15
  10  -4   0    0.84    0.16
  10   4   0    0.71    0.15
  10   4   0    0.84    0.15
 -10   4   0    0.99    0.17
   1  -5   0    5.73    0.19
   1  -5   0    5.86    0.15
  -1  -5   0    6.04    0.20
  -1  -5   0    6.04    0.16
   1  -5   0    6.12    0.23
   1   5   0    6.00    0.22
  -1   5   0    5.72    0.20
   1   5   0    5.69    0.18
  -3  -5   0   15.70    0.34
   3  -5   0   16.11    0.40
  -3  -5   0   16.25    0.37
   3  -5   0   16.41    0.32
   3  -5   0   16.27    0.38
   3   5   0   16.20    0.32
   3   5   0   15.27    0.40
  -3   5   0   16.14    0.40
  -5  -5   0    0.59    0.09
  -5  -5   0    0.88    0.11
   5  -5   0    0.70    0.08
   5  -5   0    0.55    0.10
   5  -5   0    0.52    0.10
   5   5   0    0.56    0.10
  -5   5   0    0.55    0.10
   5   5   0    0.65    0.11
  -7  -5   0    0.55    0.11
   7  -5   0    0.46    0.12
   7  -5   0    0.50    0.11
   7   5   0    0.72    0.12
   7   5   0    0.67    0.12
  -7   5   0    0.50    0.13
   9  -5   0    3.28    0.25
  -9  -5   0    3.84    0.25
   9   5   0    2.74    0.22
   9   5   0    3.27    0.28
  -9   5   0    2.99    0.27
   0  -6   0  102.53    1.59
   0  -6   0  100.24    1.41
   0  -6   0   99.52    1.50
   0   6   0  103.24    1.49
   0   6   0  101.98    1.57
  -2  -6   0   13.50    0.30
   2  -6   0   12.99    0.38
  -2  -6   0   12.78    0.34
   2  -6   0   13.24    0.35
  -2   6   0   13.65    0.36
   2   6   0   13.96    0.31
   2   6   0   13.89    0.40
  -4  -6   0    2.33    0.14
  -4  -6   0    2.22    0.15
   4  -6   0    2.46    0.17
   4  -6   0    2.41    0.18
   4   6   0    2.38    0.17
  -4   6   0    1.98    0.18
   6  -6   0    0.62    0.12
  -6  -6   0    0.60    0.11
  -6  -6   0    0.49    0.10
   6  -6   0    0.51    0.12
   6   6   0    0.77    0.14
   6   6   0    0.54    0.12
  -6   6   0    0.40    0.11
   8  -6   0    2.78    0.25
  -8  -6   0    2.66    0.21
  -8  -6   0    2.32    0.21
  -8   6   0    2.40    0.24
   8   6   0    2.53    0.23
   8   6   0    3.04    0.27
  10  -6   0    2.02    0.23
 -10  -6   0    2.35    0.25
  10   6   0    2.92    0.30
   1  -7   0    0.31    0.08
   1  -7   0    0.13    0.08
  -1  -7   0    0.38    0.09
  -1  -7   0    0.15    0.09
  -1   7   0    0.26    0.08
   1   7   0    0.40    0.08
   1   7   0    0.21    0.10
  -3  -7   0    0.02    0.09
  -3  -7   0    0.00    0.06
   3  -7   0   -0.15    0.06
   3  -7   0    0.14    0.08
  -3   7   0   -0.05    0.07
   3   7   0    0.02    0.07
   5  -7   0   -0.06    0.08
   5  -7   0    0.04    0.09
  -5  -7   0   -0.02    0.06
   5   7   0   -0.05    0.08
  -5   7   0   -0.02    0.08
   7  -7   0    1.58    0.20
  -7  -7   0    1.18    0.16
   7  -7   0    1.20    0.18
  -7   7   0    1.27    0.19
   7   7   0    1.02    0.17
   0  -8   0   13.82    0.41
   0  -8   0   13.79    0.48
   0   8   0   13.94    0.38
  -2  -8   0   15.88    0.51
  -2  -8   0   15.74    0.44
   2  -8   0   16.48    0.51
   2  -8   0   15.58    0.45
   2   8   0   16.14    0.50
  -2   8   0   15.72    0.45
   4  -8   0    0.37    0.12
  -4  -8   0    0.30    0.14
  -4  -8   0    0.44    0.11
   4  -8   0    0.48    0.13
   4   8   0    0.31    0.14
  -4   8   0    0.60    0.13
   6  -8   0    0.13    0.11
  -6  -8   0    0.24    0.11
   6  -8   0    0.15    0.12
  -6   8   0   -0.03    0.10
   6   8   0    0.04    0.11
   1  -9   0    0.31    0.14
   1  -9   0    0.60    0.13
  -1  -9   0    0.55    0.13
  -1  -9   0    0.70    0.18
  -1   9   0    0.52    0.12
   3  -9   0    3.63    0.26
  -3  -9   0    3.81    0.24
  -3  -9   0    3.74    0.30
   3  -9   0    3.82    0.33
  -3   9   0    4.01    0.26
   3   9   0    3.70    0.30
   5  -9   0    3.95    0.31
  -5  -9   0    3.33    0.31
  -5  -9   0    3.98    0.26
   5  -9   0    4.18    0.30
  -5   9   0    3.68    0.30
   5   9   0    4.42    0.33
  12   0  -1   -0.01    0.13
  12   0  -1   -0.15    0.09
 -10   0   1   -0.03    0.07
  10   0  -1    0.08    0.09
  10   0  -1   -0.04    0.08
   8   0  -1    0.01    0.04
  -8   0   1   -0.03    0.05
   8   0  -1   -0.03    0.06
   8   0  -1    0.00    0.05
   6   0  -1    0.01    0.04
  -6   0   1    0.04    0.04
   6   0  -1   -0.03    0.04
   6   0  -1    0.00    0.03
  -4   0   1    0.04    0.03
   4   0  -1   -0.01    0.03
   4   0  -1   -0.02    0.03
  -4   0   1   -0.01    0.01
   4   0  -1    0.04    0.04
   2   0  -1    0.02    0.02
  -2   0   1    0.00    0.01
   2   0  -1    0.00    0.02
   2   0  -1   -0.01    0.02
  -2   0   1    0.06    0.03
   0   0  -1    0.00    0.00
   0   0   1    0.00    0.01
   0   0  -1    0.00    0.00
   0   0   1   -0.01    0.01
   0   0  -1    0.01    0.01
   2   0   1    0.00    0.03
   2   0   1    0.01    0.02
   2   0   1    0.09    0.03
  -2   0  -1    0.03    0.02
  -4   0  -1    0.04    0.03
   4   0   1   -0.03    0.03
   4   0   1    0.06    0.04
   4   0   1    0.01    0.04
   6   0   1    0.02    0.04
  -6   0  -1   -0.06    0.04
   6   0   1    0.01    0.04
   6   0   1   -0.02    0.04
  -8   0  -1    0.01    0.05
   8   0   1    0.00    0.05
   8   0   1    0.02    0.06
   8   0   1    0.09    0.07
  10   0   1    0.03    0.08
  10   0   1   -0.11    0.07
  12   0   1   -0.05    0.10
  12   0   1    0.03    0.12
  11  -1  -1    1.56    0.18
  11  -1  -1    1.52    0.19
  11   1  -1    1.52    0.19
 -11   1   1    1.70    0.22
  11   1  -1    1.57    0.20
   9  -1  -1    6.07    0.27
   9  -1  -1    6.27    0.27
  -9  -1   1    6.16    0.25
   9   1  -1    5.63    0.26
   9   1  -1    6.14    0.27
  -9   1   1    5.94    0.26
   7  -1  -1   -0.02    0.05
   7  -1  -1   -0.03    0.05
   7  -1  -1    0.11    0.05
  -7  -1   1    0.07    0.05
   7   1  -1    0.06    0.05
   7   1  -1   -0.01    0.04
   7   1  -1    0.04    0.05
  -7   1   1    0.00    0.05
   5  -1  -1  115.02    1.62
  -5  -1   1  116.24    1.60
   5  -1  -1  113.32    1.62
   5  -1  -1  114.13    1.58
  -5   1   1  112.79    1.63
   5   1  -1  117.01    1.62
   5   1  -1  115.51    1.63
   5   1  -1  116.61    1.59
  -3  -1   1   72.47    0.99
   3  -1  -1   71.45    0.97
   3  -1  -1   70.43    1.00
   3  -1  -1   69.82    1.00
   3   1  -1   71.99    0.98
  -3   1   1   71.72    1.02
   3   1  -1   70.21    1.00
  -3   1   1   71.40    0.95
   3   1  -1   71.56    1.00
   1  -1  -1    6.81    0.13
   1  -1  -1    6.75    0.12
   1  -1  -1    6.47    0.11
   1  -1  -1    6.77    0.12
   1   1  -1    6.76    0.13
   1   1  -1    6.53    0.12
  -1   1   1    6.54    0.14
   1   1  -1    6.85    0.12
   1   1  -1    6.83    0.13
  -1   1   1    6.80    0.13
   1   1  -1    6.74    0.12
  -1  -1  -1  149.10    1.93
   1  -1   1  151.51    1.92
   1  -1   1  145.05    1.93
   1  -1   1  149.06    1.90
   1   1   1  145.94    1.93
   1   1   1  148.31    1.93
   1   1   1  147.29    1.93
   1   1   1  149.44    1.92
  -1   1  -1  150.14    1.93
   3  -1   1  243.93    3.16
   3  -1   1  244.29    3.18
   3  -1   1  240.42    3.18
  -3  -1  -1  247.64    3.13
  -3   1  -1  243.04    3.18
   3   1   1  242.40    3.18
   3   1   1  245.19    3.18
   3   1   1  239.53    3.18
   5  -1   1   70.65    1.08
  -5  -1  -1   71.98    1.03
   5  -1   1   71.52    1.06
   5  -1   1   71.26    1.06
   5   1   1   72.56    1.08
   5   1   1   71.12    1.06
   5   1   1   71.10    1.08
   7  -1   1  115.30    1.66
   7  -1   1  111.66    1.69
  -7  -1  -1  115.27    1.62
   7  -1   1  112.30    1.67
   7   1   1  114.99    1.65
   7   1   1  110.81    1.68
   7   1   1  115.60    1.69
  -7   1  -1  112.17    1.67
   9  -1   1   -0.03    0.06
   9  -1   1    0.09    0.07
   9  -1   1   -0.03    0.07
   9   1   1    0.03    0.06
   9   1   1   -0.04    0.08
  -9   1  -1   -0.10    0.07
   9   1   1   -0.01    0.06
  11  -1   1    1.52    0.19
  11  -1   1    1.38    0.19
  11   1   1    1.84    0.22
  11   1   1    1.52    0.19
  12  -2  -1   -0.05    0.10
  12  -2  -1    0.04    0.13
  12   2  -1   -0.05    0.11
  12   2  -1    0.13    0.12
  10  -2  -1    2.54    0.21
  10  -2  -1    3.22    0.23
  10   2  -1    2.96    0.22
 -10   2   1    3.12    0.23
  10   2  -1    2.95    0.22
   8  -2  -1   18.74    0.45
  -8  -2   1   18.42    0.42
   8  -2  -1   19.74    0.49
   8  -2  -1   18.63    0.41
   8   2  -1   18.29    0.42
   8   2  -1   19.00    0.46
  -8   2   1   18.70    0.48
   8   2  -1   18.76    0.47
   6  -2  -1   11.47    0.28
   6  -2  -1   11.82    0.32
  -6  -2   1   11.90    0.28
   6  -2  -1   11.54    0.30
   6   2  -1   12.03    0.29
   6   2  -1   11.73    0.31
   6   2  -1   11.92    0.31
   4  -2  -1   78.09    1.13
  -4  -2   1   80.33    1.12
   4  -2  -1   80.24    1.14
   4  -2  -1   79.72    1.16
  -4   2   1   80.52    1.18
   4   2  -1   79.76    1.15
   4   2  -1   78.12    1.14
   4   2  -1   80.10    1.15
   4   2  -1   80.31    1.10
   2  -2  -1    2.88    0.10
   2  -2  -1    2.82    0.10
   2  -2  -1    3.04    0.09
  -2   2   1    2.84    0.10
   2   2  -1    3.05    0.11
   2   2  -1    2.87    0.11
   2   2  -1    2.67    0.10
   2   2  -1    2.91    0.08
  -2   2   1    2.96    0.12
   0  -2   1  608.02    7.74
   0  -2   1  600.25    7.83
   0  -2  -1  597.92    7.82
   0  -2  -1  596.26    7.65
   0  -2   1  590.68    7.68
   0   2  -1  603.75    7.63
   0   2  -1  601.20    7.85
   0   2   1  591.89    7.81
   0   2  -1  585.67    7.78
   0   2   1  609.34    7.82
   2  -2   1    8.69    0.19
   2  -2   1    8.79    0.16
   2  -2   1    8.69    0.20
   2   2   1    8.89    0.15
   2   2   1    8.41    0.20
   2   2   1    8.88    0.20
   4  -2   1    1.23    0.09
   4  -2   1    1.08    0.08
   4  -2   1    1.20    0.09
  -4  -2  -1    1.08    0.06
  -4   2  -1    1.31    0.10
   4   2   1    1.19    0.09
   4   2   1    1.14    0.09
   4   2   1    1.12    0.09
  -6  -2  -1    2.33    0.11
   6  -2   1    2.35    0.13
   6  -2   1    2.55    0.15
   6  -2   1    2.28    0.13
  -6   2  -1    2.13    0.14
   6   2   1    2.37    0.14
   6   2   1    2.68    0.15
   6   2   1    2.50    0.14
   8  -2   1    1.60    0.15
   8  -2   1    1.28    0.13
   8  -2   1    1.54    0.16
   8   2   1    1.40    0.14
  -8   2  -1    1.17    0.14
   8   2   1    1.28    0.14
   8   2   1    1.25    0.14
  10  -2   1    5.48    0.29
  10  -2   1    6.09    0.28
  10   2   1    5.63    0.29
 -10   2  -1    5.88    0.29
  10   2   1    5.74    0.29
  10   2   1    5.72    0.29
  12  -2   1    3.29    0.26
  12  -2   1    3.22    0.29
 -12  -2  -1    3.95    0.30
  12   2   1    3.92    0.30
  12   2   1    3.67    0.28
  11  -3  -1    7.92    0.34
  11  -3  -1    7.99    0.38
 -11  -3   1    7.77    0.37
  11   3  -1    7.92    0.36
  11   3  -1    7.79    0.36
 -11   3   1    7.83    0.37
   9  -3  -1    1.13    0.16
   9  -3  -1    1.17    0.15
   9   3  -1    1.17    0.16
   9   3  -1    1.39    0.15
   9   3  -1    1.40    0.17
  -9   3   1    1.83    0.19
   7  -3  -1  120.94    1.80
   7  -3  -1  118.59    1.75
   7  -3  -1  119.33    1.74
  -7  -3   1  120.01    1.70
  -7   3   1  117.68    1.82
   7   3  -1  117.24    1.78
   7   3  -1  121.12    1.75
   7   3  -1  122.53    1.79
   5  -3  -1    0.49    0.07
  -5  -3   1    0.53    0.06
   5  -3  -1    0.57    0.09
   5  -3  -1    0.57    0.08
   5   3  -1    0.50    0.08
   5   3  -1    0.58    0.08
   5   3  -1    0.61    0.06
  -5   3   1    0.84    0.11
   5   3  -1    0.66    0.08
   3  -3  -1   29.08    0.48
   3  -3  -1   29.50    0.51
   3  -3  -1   29.55    0.51
  -3  -3   1   29.29    0.50
   3   3  -1   29.51    0.52
   3   3  -1   30.08    0.46
   3   3  -1   29.89    0.52
  -3   3   1   29.69    0.54
   3   3  -1   29.33    0.49
  -1  -3   1   96.57    1.28
   1  -3  -1   95.32    1.29
   1  -3  -1   96.22    1.33
   1  -3  -1   97.02    1.36
  -1  -3   1   94.66    1.31
   1   3  -1   98.75    1.31
  -1   3   1   95.93    1.35
   1   3  -1   94.24    1.35
  -1   3   1   96.70    1.34
   1  -3   1    0.17    0.04
   1  -3   1    0.26    0.03
  -1  -3  -1    0.21    0.04
   1  -3   1    0.24    0.05
  -1  -3  -1    0.29    0.04
  -1   3  -1    0.27    0.05
   1   3   1    0.28    0.05
   1   3   1    0.22    0.04
  -1   3  -1    0.29    0.02
   3  -3   1   10.97    0.27
   3  -3   1   11.49    0.22
  -3  -3  -1   11.00    0.26
   3  -3   1   11.50    0.26
   3   3   1   11.37    0.20
   3   3   1   11.03    0.27
  -3   3  -1   10.90    0.28
   3   3   1   11.35    0.28
  -5  -3  -1   62.62    1.00
  -5  -3  -1   63.48    0.91
   5  -3   1   62.55    0.94
   5  -3   1   62.62    0.99
   5  -3   1   63.10    0.99
   5   3   1   61.46    0.99
   5   3   1   62.27    1.00
   5   3   1   61.50    1.00
  -5   3  -1   62.59    1.01
   7  -3   1   52.66    0.94
  -7  -3  -1   50.76    0.94
   7  -3   1   54.87    0.89
   7  -3   1   52.45    0.91
   7   3   1   53.69    0.94
   7   3   1   53.30    0.93
   7   3   1   53.30    0.92
  -7   3  -1   54.21    0.95
  -9  -3  -1   14.93    0.46
   9  -3   1   14.72    0.42
   9  -3   1   15.08    0.46
   9   3   1   15.14    0.45
   9   3   1   15.29    0.46
   9   3   1   15.38    0.43
  -9   3  -1   15.72    0.46
  11  -3   1    9.12    0.40
 -11  -3  -1    9.12    0.40
  11   3   1    9.70    0.41
  11   3   1    9.85    0.41
 -11   3  -1    9.34    0.39
  10  -4  -1    3.96    0.27
 -10  -4   1    3.79    0.26
  10   4  -1    3.90    0.26
 -10   4   1    3.97    0.28
  10   4  -1    3.89    0.26
  -8  -4   1    8.14    0.32
   8  -4  -1    8.09    0.33
   8  -4  -1    8.30    0.29
   8   4  -1    7.99    0.32
   8   4  -1    8.44    0.31
   8   4  -1    8.58    0.32
  -8   4   1    8.66    0.34
  -6  -4   1    4.01    0.19
   6  -4  -1    4.15    0.18
  -6  -4   1    4.09    0.16
   6  -4  -1    3.70    0.20
   6  -4  -1    3.86    0.18
   6   4  -1    3.87    0.19
   6   4  -1    3.85    0.20
  -6   4   1    4.26    0.22
   6   4  -1    3.58    0.14
   6   4  -1    4.07    0.20
   4  -4  -1    3.02    0.13
   4  -4  -1    3.01    0.15
   4  -4  -1    2.95    0.15
  -4  -4   1    2.76    0.13
   4   4  -1    2.89    0.15
   4   4  -1    3.04    0.16
   4   4  -1    3.12    0.14
  -4   4   1    2.92    0.17
   4   4  -1    3.01    0.11
  -2  -4   1   70.68    1.01
  -2  -4   1   72.20    1.05
   2  -4  -1   71.53    1.01
   2  -4  -1   71.23    1.06
   2  -4  -1   70.24    1.08
   2   4  -1   70.54    1.09
   2   4  -1   71.56    1.01
  -2   4   1   71.31    1.08
   0  -4   1   49.45    0.68
   0  -4   1   48.29    0.80
   0  -4  -1   49.11    0.71
   0  -4  -1   48.79    0.75
   0  -4   1   49.18    0.74
   0   4  -1   46.83    0.79
   0   4   1   48.64    0.74
   0   4   1   47.39    0.78
   0   4  -1   48.01    0.75
   2  -4   1   21.56    0.41
   2  -4   1   21.59    0.45
   2  -4   1   21.95    0.35
  -2  -4  -1   21.38    0.39
  -2  -4  -1   21.59    0.41
  -2   4  -1   21.23    0.31
   2   4   1   21.68    0.44
   2   4   1   21.69    0.36
  -2   4  -1   21.56    0.44
   4  -4   1    0.55    0.06
  -4  -4  -1    0.73    0.09
   4  -4   1    0.70    0.09
   4  -4   1    0.50    0.08
   4   4   1    0.83    0.10
   4   4   1    0.67    0.05
   4   4   1    0.77    0.10
  -4   4  -1    0.58    0.09
  -6  -4  -1    0.41    0.09
   6  -4   1    0.54    0.08
   6  -4   1    0.46    0.10
   6  -4   1    0.47    0.09
   6   4   1    0.49    0.09
  -6   4  -1    0.45    0.10
   6   4   1    0.51    0.10
   6   4   1    0.52    0.10
   8  -4   1    4.85    0.24
   8  -4   1    4.60    0.25
  -8  -4  -1    4.37    0.24
   8   4   1    5.23    0.25
  -8   4  -1    4.62    0.26
   8   4   1    5.03    0.25
   8   4   1    4.80    0.26
 -10  -4  -1    1.56    0.20
  10  -4   1    0.98    0.17
  10   4   1    1.20    0.17
 -10   4  -1    0.81    0.16
  10   4   1    1.02    0.18
  10   4   1    0.91    0.16
  -9  -5   1    1.69    0.19
   9  -5  -1    1.57    0.21
   9   5  -1    1.30    0.16
   9   5  -1    1.78    0.20
   9   5  -1    1.38    0.17
  -9   5   1    1.40    0.19
   7  -5  -1   18.97    0.48
   7  -5  -1   19.16    0.51
  -7  -5   1   18.71    0.48
   7   5  -1   18.68    0.50
   7   5  -1   19.06    0.49
   7   5  -1   19.15    0.48
  -7   5   1   19.08    0.53
  -5  -5   1   12.96    0.34
   5  -5  -1   13.41    0.32
   5  -5  -1   13.73    0.38
  -5  -5   1   13.36    0.36
   5  -5  -1   13.15    0.37
   5   5  -1   12.81    0.37
  -5   5   1   13.48    0.40
   5   5  -1   13.26    0.38
   5   5  -1   13.71    0.29
   3  -5  -1   35.01    0.58
  -3  -5   1   34.48    0.62
   3  -5  -1   33.70    0.63
  -3  -5   1   35.67    0.59
   3  -5  -1   34.14    0.66
  -3   5   1   35.15    0.66
   3   5  -1   35.53    0.68
   3   5  -1   34.42    0.57
  -1  -5   1    2.41    0.12
   1  -5  -1    2.54    0.10
   1  -5  -1    2.55    0.13
  -1  -5   1    2.49    0.16
  -1  -5   1    2.43    0.10
   1  -5  -1    2.40    0.15
  -1   5   1    2.22    0.13
   1   5  -1    2.35    0.12
   1   5  -1    2.27    0.14
  -1   5   1    2.40    0.14
   1  -5   1    1.28    0.07
  -1  -5  -1    1.41    0.08
   1  -5   1    1.18    0.09
   1  -5   1    0.92    0.11
  -1  -5  -1    1.17    0.11
   1   5   1    1.15    0.08
   1   5   1    1.36    0.13
  -1   5  -1    1.42    0.11
   3  -5   1    3.27    0.12
   3  -5   1    3.00    0.17
  -3  -5  -1    3.22    0.14
  -3  -5  -1    3.10    0.16
   3  -5   1    3.67    0.17
   3   5   1    3.27    0.12
  -3   5  -1    3.20    0.18
   3   5   1    3.34    0.18
   5  -5   1    3.72    0.20
  -5  -5  -1    3.81    0.18
   5  -5   1    3.79    0.20
  -5  -5  -1    3.63    0.19
  -5   5  -1    3.37    0.19
   5   5   1    3.60    0.20
   5   5   1    3.18    0.20
  -7  -5  -1   24.62    0.58
   7  -5   1   24.14    0.59
   7  -5   1   24.48    0.58
   7   5   1   25.25    0.60
  -7   5  -1   24.45    0.61
   7   5   1   24.77    0.60
   9  -5   1   13.37    0.46
  -9  -5  -1   13.74    0.46
   9   5   1   13.69    0.48
  -9   5  -1   13.88    0.48
   9   5   1   13.13    0.45
  10  -6  -1    0.13    0.13
 -10  -6   1   -0.04    0.10
  10   6  -1    0.22    0.15
   8  -6  -1    1.08    0.17
  -8  -6   1    1.34    0.16
  -8  -6   1    1.39    0.17
  -8   6   1    1.33    0.18
   8   6  -1    1.13    0.17
   8   6  -1    1.48    0.19
  -6  -6   1    2.46    0.17
   6  -6  -1    2.31    0.18
  -6  -6   1    2.40    0.17
   6  -6  -1    2.58    0.22
  -6   6   1    2.53    0.23
   6   6  -1    2.63    0.21
   6   6  -1    2.45    0.20
  -4  -6   1    4.83    0.21
   4  -6  -1    4.45    0.22
   4  -6  -1    5.05    0.24
  -4  -6   1    4.95    0.19
   4   6  -1    4.83    0.24
  -4   6   1    4.62    0.23
   4   6  -1    4.73    0.17
  -2  -6   1    0.33    0.07
   2  -6  -1    0.41    0.09
  -2  -6   1    0.44    0.06
   2  -6  -1    0.34    0.08
  -2  -6   1    0.20    0.08
  -2   6   1    0.36    0.08
   2   6  -1    0.30    0.06
   2   6  -1    0.26    0.08
   0  -6  -1    3.07    0.19
   0  -6  -1    3.30    0.17
   0  -6   1    3.54    0.16
   0  -6  -1    3.51    0.14
   0  -6   1    3.39    0.20
   0   6  -1    3.16    0.16
   0   6   1    3.34    0.19
   0   6   1    3.20    0.15
  -2  -6  -1    3.26    0.14
  -2  -6  -1    3.27    0.17
   2  -6   1    3.05    0.17
   2  -6   1    3.06    0.20
   2   6   1    3.40    0.20
   2   6   1    3.18    0.14
  -2   6  -1    3.35    0.18
   4  -6   1    1.63    0.16
   4  -6   1    1.68    0.15
  -4  -6  -1    1.86    0.12
  -4  -6  -1    1.54    0.14
   4   6   1    1.55    0.17
  -4   6  -1    1.61    0.16
  -6  -6  -1    0.79    0.12
   6  -6   1    1.09    0.15
   6  -6   1    0.86    0.14
  -6  -6  -1    0.66    0.12
  -6   6  -1    0.58    0.12
   6   6   1    0.86    0.14
   6   6   1    0.94    0.15
  -8  -6  -1    1.34    0.18
   8  -6   1    1.17    0.18
  -8  -6  -1    1.35    0.17
   8  -6   1    1.52    0.19
   8   6   1    1.51    0.21
   8   6   1    1.37    0.18
  -8   6  -1    1.10    0.17
   9  -7  -1    5.61    0.34
  -9  -7   1    6.04    0.32
   9   7  -1    5.90    0.34
   9   7  -1    5.92    0.38
  -7  -7   1    0.30    0.11
   7  -7  -1    0.32    0.13
  -7   7   1    0.62    0.16
   7   7  -1    0.39    0.13
  -5  -7   1    6.09    0.26
   5  -7  -1    6.23    0.29
   5  -7  -1    6.76    0.31
  -5   7   1    6.24    0.31
   5   7  -1    6.49    0.31
   3  -7  -1    2.15    0.18
   3  -7  -1    2.57    0.20
  -3  -7   1    2.33    0.16
  -3  -7   1    2.53    0.21
  -3   7   1    2.36    0.18
   3   7  -1    2.42    0.19
   3   7  -1    2.43    0.14
  -1  -7   1    5.01    0.22
  -1  -7   1    4.82    0.26
   1  -7  -1    5.89    0.24
   1  -7  -1    5.63    0.27
  -1   7   1    5.27    0.22
   1   7  -1    5.24    0.21
  -1  -7  -1    4.56    0.26
   1  -7   1    4.91    0.22
  -1  -7  -1    4.84    0.22
   1  -7   1    4.85    0.26
  -1   7  -1    5.13    0.22
   1   7   1    4.70    0.20
   1   7   1    4.86    0.25
   3  -7   1    0.34    0.09
   3  -7   1    0.34    0.10
  -3  -7  -1    0.27    0.08
   3   7   1    0.41    0.12
  -3   7  -1    0.12    0.08
   5  -7   1    2.97    0.23
  -5  -7  -1    3.20    0.20
   5  -7   1    2.49    0.21
  -5  -7  -1    2.69    0.17
  -5   7  -1    2.87    0.22
   5   7   1    2.72    0.22
  -7  -7  -1    1.25    0.17
   7  -7   1    1.13    0.17
  -7  -7  -1    1.27    0.16
   7  -7   1    1.30    0.19
   7   7   1    1.27    0.20
  -7   7  -1    1.15    0.18
  -6  -8   1    1.81    0.24
   6  -8  -1    1.60    0.21
  -6  -8   1    1.64    0.18
   6  -8  -1    2.11    0.24
  -6   8   1    1.53    0.19
   6   8  -1    1.84    0.24
  -4  -8   1   14.06    0.42
   4  -8  -1   15.63    0.50
   4  -8  -1   14.34    0.46
  -4  -8   1   14.31    0.51
   4   8  -1   14.57    0.49
  -4   8   1   14.80    0.46
  -2  -8   1    0.49    0.14
  -2  -8   1    0.41    0.10
   2  -8  -1    0.21    0.11
   2  -8  -1    0.47    0.11
  -2   8   1    0.28    0.10
   2   8  -1    0.42    0.09
   0  -8   1    4.47    0.22
   0  -8  -1    4.48    0.24
   0  -8  -1    3.91    0.26
   0  -8   1    4.45    0.28
   0   8  -1    4.76    0.23
   0   8   1    4.66    0.21
  -2  -8  -1    0.02    0.07
   2  -8   1   -0.03    0.08
  -2  -8  -1    0.24    0.12
   2  -8   1    0.09    0.11
   2   8   1    0.05    0.09
  -2   8  -1   -0.03    0.07
   4  -8   1    3.45    0.23
  -4  -8  -1    3.86    0.23
  -4  -8  -1    3.40    0.28
   4  -8   1    3.51    0.26
  -4   8  -1    3.75    0.25
   4   8   1    3.38    0.25
  -6  -8  -1    2.26    0.21
   6  -8   1    1.94    0.23
   6  -8   1    1.78    0.21
  -6   8  -1    2.57    0.25
   6   8   1    2.64    0.27
   5  -9  -1   15.60    0.52
  -5  -9   1   15.40    0.47
  -5  -9   1   15.71    0.57
   5  -9  -1   15.12    0.54
   5   9  -1   14.96    0.55
  -5   9   1   15.38    0.52
   3  -9  -1    0.53    0.14
   3  -9  -1    0.56    0.15
  -3  -9   1    0.47    0.13
  -3  -9   1    0.71    0.17
  -3   9   1    1.06    0.17
  -1  -9   1    8.81    0.41
   1  -9  -1    8.83    0.35
   1  -9  -1    8.89    0.40
  -1  -9   1    8.17    0.33
  -1   9   1    8.64    0.33
   1  -9   1    3.04    0.23
  -1  -9  -1    2.89    0.22
   1  -9   1    2.90    0.28
  -1  -9  -1    3.34    0.31
  -1   9  -1    2.98    0.21
  -3  -9  -1    0.64    0.16
  -3  -9  -1    0.59    0.13
   3  -9   1    0.81    0.16
   3  -9   1    0.85    0.18
  -3   9  -1    0.77    0.15
   3   9   1    0.82    0.19
   5  -9   1    3.61    0.29
   5  -9   1    4.13    0.31
  -5  -9  -1    2.95    0.31
  -5  -9  -1    3.37    0.25
   5   9   1    3.13    0.29
  12   0  -2    1.75    0.22
  12   0  -2    1.77    0.21
 -10   0   2    0.69    0.13
  10   0  -2    0.40    0.11
  10   0  -2    0.49    0.12
   8   0  -2   24.51    0.46
  -8   0   2   23.85    0.53
   8   0  -2   24.38    0.54
   8   0  -2   25.17    0.55
   6   0  -2   21.40    0.43
   6   0  -2   20.70    0.44
  -6   0   2   20.75    0.31
  -6   0   2   20.75    0.43
   6   0  -2   20.83    0.38
   4   0  -2  228.49    2.93
   4   0  -2  227.19    2.99
  -4   0   2  222.70    2.98
   4   0  -2  223.58    2.98
  -4   0   2  226.54    2.90
  -2   0   2  257.52    3.27
   2   0  -2  246.34    3.29
   2   0  -2  259.21    3.26
  -2   0   2  259.99    3.30
   2   0  -2  253.93    3.28
   0   0   2  122.24    1.58
   0   0  -2  125.73    1.57
   0   0   2  123.72    1.56
   0   0   2  119.07    1.58
   0   0  -2  123.18    1.57
   0   0  -2  121.47    1.57
   2   0   2  390.65    4.94
   2   0   2  383.24    4.94
  -2   0  -2  387.38    4.92
   2   0   2  382.69    4.95
   2   0   2  387.35    4.96
   4   0   2    2.99    0.12
   4   0   2    3.02    0.13
   4   0   2    3.03    0.12
  -4   0  -2    3.15    0.11
   6   0   2    4.53    0.18
  -6   0  -2    4.35    0.16
   6   0   2    4.66    0.18
   6   0   2    4.64    0.19
   8   0   2   51.48    0.93
   8   0   2   52.77    0.91
  -8   0  -2   52.05    0.87
   8   0   2   51.48    0.91
  10   0   2   66.77    1.18
  10   0   2   70.12    1.21
  10   0   2   68.08    1.23
  12   0   2    3.79    0.28
  12   0   2    3.64    0.29
  11  -1  -2    7.98    0.36
  11  -1  -2    8.69    0.36
 -11   1   2    8.58    0.36
  11   1  -2    8.17    0.36
  11   1  -2    8.98    0.37
  -9  -1   2   17.76    0.44
   9  -1  -2   18.12    0.48
   9  -1  -2   17.32    0.47
  -9   1   2   17.60    0.47
   9   1  -2   18.37    0.47
   9   1  -2   17.19    0.46
   7  -1  -2   36.24    0.68
   7  -1  -2   36.64    0.61
  -7  -1   2   37.51    0.66
   7  -1  -2   37.45    0.69
   7   1  -2   37.83    0.62
   7   1  -2   35.42    0.68
   7   1  -2   37.55    0.68
  -7   1   2   36.24    0.69
   5  -1  -2   45.77    0.68
  -5  -1   2   46.32    0.65
   5  -1  -2   46.31    0.74
  -5  -1   2   45.45    0.72
   5  -1  -2   45.29    0.74
   5   1  -2   45.58    0.69
   5   1  -2   44.94    0.74
  -5   1   2   44.91    0.75
   5   1  -2   43.57    0.72
  -5   1   2   45.72    0.64
   3  -1  -2  133.10    1.82
   3  -1  -2  137.50    1.78
   3  -1  -2  133.90    1.82
  -3  -1   2  136.56    1.82
  -3   1   2  135.32    1.84
   3   1  -2  136.81    1.81
   3   1  -2  135.64    1.83
   3   1  -2  136.18    1.80
  -3   1   2  138.65    1.79
   3   1  -2  137.13    1.81
   3   1  -2  138.70    1.79
   1  -1  -2  502.22    6.30
   1  -1  -2  483.48    6.42
   1  -1  -2  501.05    6.41
  -1  -1   2  486.54    6.29
   1   1  -2  463.28    6.31
   1   1  -2  501.85    6.39
   1   1  -2  488.91    6.35
   1   1  -2  493.84    6.29
  -1   1   2  492.22    6.35
   1   1  -2  490.84    6.30
  -1   1   2  489.12    6.39
  -1   1   2  485.72    6.24
   1  -1   2   10.34    0.18
   1  -1   2   10.66    0.16
   1  -1   2   10.63    0.20
   1   1   2   10.65    0.20
   1   1   2   10.72    0.20
   1   1   2   10.94    0.20
  -1   1  -2   10.87    0.19
  -3  -1  -2    9.00    0.16
   3  -1   2    8.94    0.19
   3  -1   2    8.92    0.20
   3  -1   2    8.86    0.21
   3   1   2    9.18    0.21
   3   1   2    9.14    0.17
   3   1   2    8.97    0.21
   3   1   2    9.25    0.21
  -5  -1  -2    0.77    0.07
   5  -1   2    0.73    0.08
   5  -1   2    1.08    0.10
   5  -1   2    0.90    0.09
   5   1   2    0.80    0.09
   5   1   2    0.98    0.10
  -5   1  -2    0.70    0.08
   5   1   2    0.82    0.08
   7  -1   2  190.25    2.63
   7  -1   2  189.77    2.64
   7  -1   2  186.76    2.61
  -7  -1  -2  187.82    2.55
   7   1   2  186.24    2.61
   7   1   2  188.64    2.65
   7   1   2  188.37    2.63
  -7   1  -2  188.42    2.61
   9  -1   2    0.42    0.11
   9  -1   2    0.21    0.09
   9  -1   2    0.38    0.09
  -9   1  -2    0.26    0.09
   9   1   2    0.33    0.10
   9   1   2    0.54    0.11
   9   1   2    0.35    0.10
  11  -1   2    2.79    0.23
  11  -1   2    3.11    0.24
  11   1   2    3.05    0.24
  11   1   2    2.88    0.24
  12  -2  -2    1.39    0.19
  12  -2  -2    1.24    0.20
  12   2  -2    1.31    0.20
 -12   2   2    1.45    0.21
  12   2  -2    1.35    0.20
  10  -2  -2    1.89    0.19
  10  -2  -2    1.85    0.20
  10   2  -2    2.01    0.19
 -10   2   2    1.99    0.21
  10   2  -2    2.25    0.22
  -8  -2   2    1.19    0.12
   8  -2  -2    1.13    0.13
   8  -2  -2    1.42    0.14
  -8   2   2    1.25    0.14
   8   2  -2    1.48    0.15
   8   2  -2    1.39    0.15
   8   2  -2    1.23    0.12
   6  -2  -2   11.79    0.27
  -6  -2   2   11.65    0.29
   6  -2  -2   11.54    0.30
   6  -2  -2   11.75    0.32
  -6   2   2   11.62    0.33
   6   2  -2   11.71    0.30
   6   2  -2   11.78    0.28
   6   2  -2   11.97    0.31
  -4  -2   2    0.88    0.07
   4  -2  -2    0.89    0.09
   4  -2  -2    1.01    0.08
   4  -2  -2    0.81    0.07
   4   2  -2    0.98    0.09
   4   2  -2    0.96    0.08
  -4   2   2    0.92    0.07
  -4   2   2    0.70    0.08
   4   2  -2    0.86    0.08
   4   2  -2    0.88    0.06
   2  -2  -2   93.30    1.25
   2  -2  -2   93.60    1.25
   2  -2  -2   93.81    1.27
   2   2  -2   92.10    1.24
  -2   2   2   90.96    1.28
   2   2  -2   91.61    1.23
   2   2  -2   91.61    1.25
   2   2  -2   89.02    1.23
   2   2  -2   91.90    1.26
  -2   2   2   93.38    1.27
   0  -2   2  958.03   12.83
   0  -2  -2 1000.00   12.49
   0  -2   2  985.36   12.47
   0  -2   2  988.28   12.67
   0  -2  -2  959.28   12.76
   0   2   2  999.80   12.76
   0   2  -2  987.76   12.55
   0   2  -2  976.40   12.75
   0   2   2  984.87   12.82
   0   2   2  979.43   12.64
   2  -2   2   56.12    0.76
   2  -2   2   55.64    0.83
   2  -2   2   55.94    0.80
  -2   2  -2   56.80    0.83
   2   2   2   56.30    0.82
   2   2   2   55.37    0.83
   2   2   2   56.10    0.74
   2   2   2   55.53    0.83
   4  -2   2    3.89    0.15
  -4  -2  -2    4.13    0.16
   4  -2   2    4.32    0.14
  -4  -2  -2    4.07    0.11
   4  -2   2    4.19    0.16
   4   2   2    4.04    0.16
  -4   2  -2    4.32    0.16
   4   2   2    4.11    0.15
   4   2   2    3.98    0.16
   6  -2   2   21.35    0.46
  -6  -2  -2   22.13    0.39
   6  -2   2   21.16    0.46
   6  -2   2   21.76    0.44
   6   2   2   21.67    0.46
   6   2   2   21.66    0.47
  -6   2  -2   21.82    0.47
   6   2   2   21.73    0.47
   8  -2   2    3.51    0.20
   8  -2   2    3.93    0.19
   8  -2   2    3.60    0.21
   8   2   2    3.40    0.20
   8   2   2    3.49    0.20
   8   2   2    3.75    0.20
  -8   2  -2    3.51    0.20
  10  -2   2    0.11    0.09
 -10  -2  -2    0.17    0.11
  10  -2   2    0.20    0.12
  10   2   2    0.17    0.12
 -10   2  -2    0.03    0.08
  10   2   2    0.25    0.10
  10   2   2    0.10    0.09
  12  -2   2    6.48    0.33
  12  -2   2    6.39    0.36
  12   2   2    6.75    0.37
  11  -3  -2    3.12    0.28
  11  -3  -2    3.81    0.26
  11   3  -2    3.22    0.26
 -11   3   2    3.60    0.27
  11   3  -2    3.42    0.26
   9  -3  -2    0.10    0.08
   9  -3  -2    0.10    0.09
   9   3  -2    0.04    0.08
  -9   3   2    0.20    0.10
   9   3  -2    0.23    0.09
   7  -3  -2    0.30    0.07
  -7  -3   2    0.36    0.07
   7  -3  -2    0.30    0.08
   7  -3  -2    0.15    0.07
  -7   3   2    0.33    0.10
   7   3  -2    0.22    0.08
   7   3  -2    0.27    0.08
   7   3  -2    0.32    0.08
   5  -3  -2    6.98    0.21
   5  -3  -2    7.07    0.22
   5  -3  -2    6.90    0.23
  -5  -3   2    7.22    0.21
   5   3  -2    7.33    0.22
  -5   3   2    6.98    0.25
   5   3  -2    7.44    0.19
   5   3  -2    7.27    0.22
   5   3  -2    6.92    0.22
   3  -3  -2    3.85    0.15
   3  -3  -2    3.91    0.14
   3  -3  -2    4.11    0.13
  -3   3   2    3.84    0.16
  -3   3   2    3.82    0.15
   3   3  -2    3.88    0.14
   3   3  -2    3.86    0.12
   3   3  -2    3.96    0.15
   3   3  -2    3.81    0.13
  -1  -3   2    1.48    0.06
  -1  -3   2    1.54    0.07
   1  -3  -2    1.50    0.07
   1  -3  -2    1.66    0.09
   1  -3  -2    1.51    0.10
  -1  -3   2    1.53    0.10
  -1   3   2    1.45    0.09
   1   3  -2    1.50    0.06
  -1   3   2    1.72    0.09
   1   3  -2    1.60    0.08
   1   3  -2    1.63    0.10
  -1   3   2    1.37    0.09
   1  -3   2  103.22    1.40
   1  -3   2  100.08    1.45
  -1  -3  -2  102.11    1.40
  -1  -3  -2  102.88    1.42
   1  -3   2  101.60    1.33
   1   3   2  103.50    1.45
  -1   3  -2  102.97    1.43
   1   3   2  103.39    1.37
  -1   3  -2  103.82    1.33
   3  -3   2  125.26    1.79
   3  -3   2  125.91    1.69
   3  -3   2  129.96    1.76
  -3  -3  -2  128.07    1.77
   3   3   2  125.61    1.79
   3   3   2  130.26    1.66
   3   3   2  122.90    1.78
  -3   3  -2  128.62    1.79
  -5  -3  -2   12.87    0.25
   5  -3   2   12.73    0.33
   5  -3   2   12.99    0.28
   5  -3   2   13.02    0.33
  -5  -3  -2   12.24    0.33
  -5   3  -2   13.02    0.34
   5   3   2   13.33    0.34
   5   3   2   13.24    0.33
   5   3   2   12.08    0.33
  -7  -3  -2    1.22    0.13
   7  -3   2    1.41    0.12
   7  -3   2    1.05    0.12
   7  -3   2    1.50    0.15
   7   3   2    1.56    0.15
  -7   3  -2    1.49    0.16
   7   3   2    1.35    0.14
   7   3   2    1.63    0.16
  -9  -3  -2    2.15    0.21
   9  -3   2    2.20    0.21
   9  -3   2    2.32    0.19
   9  -3   2    2.32    0.17
  -9   3  -2    2.42    0.19
   9   3   2    2.09    0.20
   9   3   2    2.33    0.22
   9   3   2    2.32    0.21
  11  -3   2    3.90    0.28
 -11  -3  -2    4.24    0.29
 -11   3  -2    3.79    0.27
  11   3   2    3.94    0.28
  11   3   2    3.76    0.28
  10  -4  -2    6.44    0.30
 -10  -4   2    7.48    0.35
  10  -4  -2    7.29    0.35
 -10   4   2    7.09    0.35
  10   4  -2    6.82    0.34
  10   4  -2    6.93    0.32
   8  -4  -2    8.64    0.34
   8  -4  -2    8.89    0.31
  -8  -4   2    8.66    0.33
  -8   4   2    8.61    0.35
   8   4  -2    8.92    0.31
   8   4  -2    8.55    0.31
   8   4  -2    8.01    0.31
   6  -4  -2    1.04    0.11
  -6  -4   2    1.12    0.11
   6  -4  -2    1.40    0.13
  -6  -4   2    1.08    0.12
   6  -4  -2    1.27    0.14
   6   4  -2    1.10    0.12
   6   4  -2    1.04    0.09
   6   4  -2    1.10    0.12
   6   4  -2    1.31    0.13
  -6   4   2    1.47    0.15
   4  -4  -2    0.06    0.05
   4  -4  -2    0.11    0.05
  -4  -4   2    0.00    0.03
   4  -4  -2    0.06    0.04
   4   4  -2    0.03    0.05
   4   4  -2    0.14    0.06
   4   4  -2    0.13    0.04
  -4   4   2    0.04    0.05
   4   4  -2    0.03    0.04
  -2  -4   2   12.49    0.25
  -2  -4   2   12.51    0.27
   2  -4  -2   12.67    0.26
   2  -4  -2   12.41    0.30
   2  -4  -2   12.49    0.29
   2   4  -2   12.34    0.31
  -2   4   2   12.08    0.30
   2   4  -2   12.38    0.26
   0  -4   2    9.39    0.22
   0  -4  -2    9.79    0.24
   0  -4  -2    9.37    0.21
   0  -4   2    9.24    0.26
   0  -4   2    9.49    0.17
   0   4   2    9.36    0.22
   0   4   2    9.09    0.25
   0   4  -2    9.23    0.23
   0   4  -2    9.35    0.15
  -2  -4  -2    0.25    0.06
  -2  -4  -2    0.10    0.04
   2  -4   2    0.12    0.03
   2  -4   2    0.02    0.05
   2  -4   2    0.18    0.05
  -2   4  -2    0.10    0.05
   2   4   2    0.15    0.03
   2   4   2    0.11    0.05
  -2   4  -2    0.09    0.02
  -4  -4  -2   43.30    0.75
   4  -4   2   44.96    0.68
   4  -4   2   44.19    0.78
   4  -4   2   45.07    0.76
  -4   4  -2   43.67    0.78
   4   4   2   44.73    0.79
   4   4   2   45.06    0.64
   4   4   2   44.04    0.79
   6  -4   2    2.38    0.13
   6  -4   2    2.56    0.17
  -6  -4  -2    2.50    0.17
   6  -4   2    2.57    0.17
   6   4   2    2.59    0.17
   6   4   2    2.29    0.19
  -6   4  -2    2.45    0.18
   8  -4   2    4.16    0.23
  -8  -4  -2    4.44    0.24
   8  -4   2    3.83    0.23
   8   4   2    4.22    0.25
  -8   4  -2    4.17    0.24
   8   4   2    4.15    0.23
   8   4   2    4.30    0.24
  10  -4   2    6.35    0.33
 -10  -4  -2    6.02    0.32
  10   4   2    6.39    0.33
  10   4   2    5.72    0.30
  10   4   2    6.20    0.33
 -10   4  -2    6.10    0.32
  11  -5  -2    9.83    0.44
 -11  -5   2    9.50    0.43
  11   5  -2    9.81    0.45
  11   5  -2    8.77    0.45
  -9  -5   2    2.28    0.21
   9  -5  -2    2.10    0.22
   9   5  -2    2.59    0.21
   9   5  -2    2.21    0.23
   9   5  -2    2.21    0.21
  -9   5   2    2.24    0.24
   7  -5  -2   76.15    1.31
  -7  -5   2   78.13    1.29
   7  -5  -2   78.42    1.29
   7  -5  -2   78.94    1.29
  -7   5   2   77.19    1.35
   7   5  -2   78.31    1.30
   7   5  -2   78.32    1.31
   7   5  -2   78.05    1.27
   5  -5  -2    0.03    0.06
  -5  -5   2    0.01    0.05
  -5  -5   2    0.04    0.04
   5  -5  -2    0.07    0.05
   5  -5  -2    0.05    0.06
   5   5  -2    0.05    0.04
   5   5  -2    0.11    0.07
  -5   5   2    0.03    0.06
   5   5  -2    0.09    0.07
  -3  -5   2    1.59    0.11
   3  -5  -2    1.47    0.13
   3  -5  -2    1.70    0.10
   3  -5  -2    1.54    0.13
  -3  -5   2    1.67    0.10
   3   5  -2    1.38    0.09
  -3   5   2    1.55    0.12
   3   5  -2    1.67    0.14
  -1  -5   2    9.00    0.19
   1  -5  -2    8.54    0.25
   1  -5  -2    8.91    0.28
  -1  -5   2    8.98    0.24
   1  -5  -2    9.26    0.22
  -1  -5   2    9.60    0.30
  -1   5   2    9.14    0.25
  -1   5   2    9.33    0.28
   1   5  -2    9.05    0.28
   1   5  -2    9.42    0.24
   1  -5   2    9.59    0.30
   1  -5   2    9.51    0.18
  -1  -5  -2   10.30    0.27
  -1  -5  -2    9.63    0.23
   1  -5   2    9.30    0.25
   1   5   2    9.65    0.29
   1   5   2    9.58    0.23
  -1   5  -2    9.51    0.27
   3  -5   2    4.41    0.19
  -3  -5  -2    4.69    0.18
   3  -5   2    4.71    0.21
   3   5   2    4.72    0.14
  -3   5  -2    4.98    0.21
   3   5   2    4.59    0.21
  -5  -5  -2    9.64    0.30
   5  -5   2    9.49    0.31
   5  -5   2    8.97    0.31
  -5  -5  -2    9.75    0.31
  -5   5  -2    9.37    0.32
   5   5   2    9.07    0.33
   5   5   2    8.77    0.31
  -7  -5  -2    9.80    0.35
   7  -5   2   10.04    0.35
   7  -5   2    9.94    0.35
   7   5   2    9.56    0.35
   7   5   2    9.76    0.37
  -7   5  -2   10.12    0.37
  -9  -5  -2    2.27    0.22
   9  -5   2    2.85    0.25
  -9   5  -2    2.32    0.23
   9   5   2    2.42    0.25
   9   5   2    2.98    0.24
 -10  -6   2    0.18    0.12
  10  -6  -2    0.35    0.15
  10   6  -2    0.13    0.15
  -8  -6   2    9.43    0.36
  -8  -6   2    9.75    0.36
   8  -6  -2   10.52    0.41
   8   6  -2    9.87    0.39
   8   6  -2   10.37    0.39
  -8   6   2   10.39    0.42
   6  -6  -2    6.66    0.28
  -6  -6   2    6.92    0.27
   6  -6  -2    6.63    0.30
  -6  -6   2    6.31    0.25
  -6   6   2    6.16    0.29
   6   6  -2    6.51    0.29
   6   6  -2    7.07    0.31
  -4  -6   2    0.22    0.06
   4  -6  -2    0.21    0.08
  -4  -6   2    0.18    0.05
   4  -6  -2    0.14    0.07
  -4   6   2    0.23    0.09
   4   6  -2    0.29    0.09
   4   6  -2    0.16    0.05
   2  -6  -2    2.36    0.15
  -2  -6   2    2.24    0.14
   2  -6  -2    2.38    0.12
   2  -6  -2    2.27    0.17
  -2  -6   2    2.56    0.18
   2   6  -2    2.18    0.17
   2   6  -2    2.30    0.13
  -2   6   2    2.50    0.16
   0  -6   2    1.12    0.11
   0  -6   2    1.19    0.15
   0  -6  -2    1.16    0.09
   0  -6  -2    0.82    0.10
   0  -6  -2    0.94    0.13
   0   6  -2    0.95    0.10
   0   6   2    0.97    0.10
   0   6   2    1.15    0.14
  -2  -6  -2   29.14    0.54
  -2  -6  -2   30.76    0.59
   2  -6   2   28.79    0.64
   2  -6   2   29.02    0.58
   2   6   2   29.10    0.63
  -2   6  -2   29.57    0.60
   2   6   2   29.99    0.52
   4  -6   2    7.23    0.27
  -4  -6  -2    6.50    0.24
  -4  -6  -2    6.84    0.26
   4  -6   2    6.81    0.29
   4   6   2    6.46    0.28
  -4   6  -2    6.52    0.28
   6  -6   2    2.31    0.20
   6  -6   2    1.99    0.21
  -6  -6  -2    1.69    0.17
  -6  -6  -2    2.01    0.17
  -6   6  -2    1.72    0.18
   6   6   2    2.14    0.21
   6   6   2    1.93    0.21
  -8  -6  -2    0.19    0.10
   8  -6   2   -0.01    0.10
   8  -6   2    0.06    0.11
  -8  -6  -2    0.06    0.09
   8   6   2    0.17    0.11
   8   6   2    0.33    0.13
  -8   6  -2    0.25    0.12
  -9  -7   2    5.42    0.30
   9  -7  -2    5.42    0.34
   9   7  -2    5.53    0.33
   9   7  -2    5.56    0.34
  -7  -7   2   16.31    0.46
   7  -7  -2   15.56    0.50
  -7   7   2   15.11    0.52
   7   7  -2   15.50    0.50
   5  -7  -2   19.34    0.52
   5  -7  -2   18.77    0.52
  -5  -7   2   18.78    0.47
  -5  -7   2   17.27    0.54
  -5   7   2   17.94    0.53
   5   7  -2   19.54    0.55
   3  -7  -2    1.79    0.17
  -3  -7   2    1.97    0.15
  -3  -7   2    2.03    0.21
   3  -7  -2    1.88    0.19
  -3   7   2    1.80    0.17
   3   7  -2    2.16    0.13
   3   7  -2    2.09    0.21
  -1  -7   2    7.66    0.26
  -1  -7   2    7.15    0.31
   1  -7  -2    7.64    0.32
   1  -7  -2    7.82    0.28
  -1   7   2    7.65    0.27
   1   7  -2    7.47    0.25
   1  -7   2    1.14    0.15
  -1  -7  -2    1.48    0.18
   1  -7   2    1.34    0.13
  -1  -7  -2    1.65    0.16
   1   7   2    1.49    0.12
   1   7   2    1.43    0.17
  -1   7  -2    1.43    0.14
   3  -7   2   -0.01    0.07
  -3  -7  -2    0.02    0.05
  -3  -7  -2   -0.01    0.06
   3  -7   2    0.04    0.08
  -3   7  -2    0.03    0.07
   3   7   2    0.06    0.09
  -5  -7  -2    5.84    0.27
   5  -7   2    6.24    0.31
  -5  -7  -2    5.45    0.24
   5  -7   2    5.50    0.28
   5   7   2    6.02    0.31
  -5   7  -2    6.03    0.30
  -7  -7  -2   17.03    0.48
   7  -7   2   16.48    0.51
   7  -7   2   16.29    0.53
  -7  -7  -2   16.97    0.50
  -7   7  -2   16.59    0.52
   7   7   2   17.24    0.55
  -6  -8   2    0.54    0.12
  -6  -8   2    0.31    0.14
   6  -8  -2    0.31    0.13
   6   8  -2    0.20    0.12
  -6   8   2    0.32    0.14
   4  -8  -2    4.01    0.26
   4  -8  -2    3.28    0.25
  -4  -8   2    3.68    0.27
  -4  -8   2    3.89    0.22
  -4   8   2    3.46    0.24
   4   8  -2    3.34    0.25
   2  -8  -2    7.52    0.33
   2  -8  -2    7.27    0.31
  -2  -8   2    7.63    0.36
  -2  -8   2    6.63    0.27
  -2   8   2    7.52    0.30
   2   8  -2    7.29    0.26
   0  -8   2    5.74    0.30
   0  -8   2    5.43    0.25
   0  -8  -2    5.40    0.26
   0  -8  -2    5.27    0.30
   0   8   2    5.51    0.23
   0   8  -2    5.40    0.25
   2  -8   2    0.13    0.09
  -2  -8  -2    0.09    0.08
   2  -8   2    0.23    0.11
  -2  -8  -2    0.22    0.13
   2   8   2    0.03    0.09
  -2   8  -2    0.25    0.10
   4  -8   2    0.03    0.08
   4  -8   2    0.12    0.11
  -4  -8  -2    0.00    0.08
   4   8   2   -0.06    0.11
  -4   8  -2   -0.05    0.09
   6  -8   2    0.63    0.16
  -6  -8  -2    0.47    0.12
   6  -8   2    0.52    0.15
  -6   8  -2    0.67    0.16
   6   8   2    0.79    0.18
  -5  -9   2   19.97    0.65
   5  -9  -2   20.40    0.62
   5  -9  -2   20.07    0.61
  -5   9   2   20.57    0.60
   5   9  -2   20.21    0.64
   3  -9  -2    2.31    0.23
  -3  -9   2    2.27    0.26
  -3  -9   2    2.36    0.21
   3  -9  -2    2.21    0.26
  -3   9   2    2.25    0.22
  -1  -9   2    0.40    0.15
   1  -9  -2    0.30    0.14
  -1  -9   2    0.20    0.10
   1  -9  -2    0.29    0.11
   1   9  -2    0.14    0.09
  -1   9   2    0.32    0.11
  -1  -9  -2    2.24    0.25
  -1  -9  -2    2.00    0.20
   1  -9   2    2.23    0.26
   1  -9   2    2.04    0.20
  -1   9  -2    2.12    0.21
   3  -9   2    4.12    0.30
   3  -9   2    3.77    0.27
  -3  -9  -2    3.78    0.25
  -3  -9  -2    4.29    0.32
   3   9   2    3.98    0.30
  -3   9  -2    3.88    0.25
  -5  -9  -2    0.96    0.16
   5  -9   2    0.89    0.17
  -5  -9  -2    1.10    0.23
   5  -9   2    0.67    0.18
   5   9   2    0.66    0.19
  12   0  -3   -0.04    0.11
  12   0  -3   -0.01    0.10
 -10   0   3    0.07    0.08
  10   0  -3    0.00    0.08
  10   0  -3   -0.11    0.07
   8   0  -3   -0.07    0.06
   8   0  -3    0.02    0.06
  -8   0   3    0.00    0.06
   6   0  -3   -0.03    0.02
  -6   0   3    0.00    0.02
   6   0  -3    0.01    0.04
   6   0  -3    0.03    0.05
  -6   0   3    0.00    0.05
   4   0  -3   -0.03    0.03
  -4   0   3    0.03    0.03
  -4   0   3   -0.03    0.02
   4   0  -3    0.00    0.03
   4   0  -3    0.02    0.02
  -2   0   3    0.05    0.02
   2   0  -3    0.01    0.02
  -2   0   3    0.01    0.03
   2   0  -3    0.01    0.03
   2   0  -3    0.01    0.02
   0   0   3    0.01    0.01
   0   0  -3    0.01    0.02
   0   0   3   -0.01    0.02
   0   0   3   -0.02    0.02
   0   0  -3    0.02    0.01
   0   0  -3    0.02    0.01
   2   0   3    0.00    0.03
  -2   0  -3    0.02    0.02
   2   0   3    0.03    0.04
   2   0   3    0.01    0.02
   2   0   3    0.00    0.03
  -2   0  -3   -0.01    0.03
   4   0   3   -0.01    0.04
   4   0   3    0.00    0.03
   4   0   3    0.01    0.01
  -4   0  -3    0.02    0.03
   4   0   3   -0.01    0.04
   6   0   3    0.00    0.04
   6   0   3    0.03    0.05
  -6   0  -3   -0.02    0.04
   6   0   3   -0.05    0.04
   8   0   3    0.04    0.06
   8   0   3    0.03    0.07
   8   0   3    0.03    0.07
  -8   0  -3   -0.03    0.05
  10   0   3   -0.12    0.07
  10   0   3   -0.03    0.08
  10   0   3   -0.02    0.08
  12   0   3    0.15    0.12
 -12   0  -3    0.02    0.11
  12   0   3    0.16    0.10
  11  -1  -3    7.92    0.36
  11  -1  -3    7.10    0.34
  11   1  -3    7.61    0.34
 -11   1   3    7.94    0.34
  11   1  -3    7.38    0.34
  -9  -1   3    1.57    0.15
   9  -1  -3    1.75    0.17
   9  -1  -3    2.03    0.19
  -9   1   3    1.77    0.17
   9   1  -3    1.74    0.17
   9   1  -3    1.53    0.16
  -7  -1   3    0.68    0.09
   7  -1  -3    0.57    0.09
   7  -1  -3    0.55    0.09
   7  -1  -3    0.57    0.06
   7   1  -3    0.59    0.09
   7   1  -3    0.52    0.07
   7   1  -3    0.53    0.09
  -7   1   3    0.51    0.09
   5  -1  -3   14.00    0.31
   5  -1  -3   13.36    0.25
  -5  -1   3   13.98    0.31
  -5  -1   3   14.25    0.26
   5  -1  -3   13.62    0.31
  -5   1   3   13.79    0.25
   5   1  -3   13.63    0.31
   5   1  -3   13.92    0.27
   5   1  -3   13.28    0.30
  -5   1   3   13.91    0.33
   3  -1  -3    4.82    0.14
  -3  -1   3    4.78    0.14
   3  -1  -3    4.77    0.10
   3  -1  -3    4.71    0.12
   3  -1  -3    4.73    0.14
   3   1  -3    4.88    0.13
  -3   1   3    4.56    0.15
   3   1  -3    4.96    0.12
   3   1  -3    4.54    0.14
   3   1  -3    4.76    0.13
  -3   1   3    4.72    0.13
   3   1  -3    4.82    0.13
   1  -1  -3   25.32    0.37
   1  -1  -3   25.57    0.38
  -1  -1   3   24.39    0.37
   1  -1  -3   25.33    0.35
   1   1  -3   25.07    0.36
  -1   1   3   24.81    0.39
   1   1  -3   24.92    0.37
  -1   1   3   24.63    0.38
  -1   1   3   25.52    0.36
   1   1  -3   24.98    0.34
   1   1  -3   23.34    0.36
   1  -1   3  188.72    2.39
  -1  -1  -3  184.88    2.41
   1  -1   3  181.93    2.43
   1   1   3  185.30    2.42
   1   1   3  189.29    2.43
  -1   1  -3  188.01    2.41
   1   1   3  184.12    2.42
  -1   1  -3  187.53    2.37
  -1   1  -3  181.88    2.39
   3  -1   3  150.61    1.91
  -3  -1  -3  146.90    1.98
   3  -1   3  147.11    1.95
  -3  -1  -3  145.83    1.90
   3  -1   3  146.08    1.97
   3  -1   3  143.67    2.00
   3   1   3  146.74    1.98
   3   1   3  149.19    1.93
   3   1   3  143.49    1.99
   3   1   3  148.31    1.98
  -3   1  -3  148.10    1.97
   5  -1   3   66.25    0.99
   5  -1   3   67.66    1.02
  -5  -1  -3   67.72    0.94
   5  -1   3   65.39    1.03
   5   1   3   67.00    1.04
  -5   1  -3   65.55    1.00
   5   1   3   66.74    1.02
   5   1   3   66.48    1.03
   7  -1   3   18.93    0.45
   7  -1   3   18.56    0.43
  -7  -1  -3   19.21    0.38
   7  -1   3   19.30    0.45
  -7   1  -3   18.89    0.42
   7   1   3   19.39    0.46
   7   1   3   19.34    0.45
   7   1   3   19.33    0.45
   9  -1   3    2.46    0.19
   9  -1   3    2.30    0.18
   9  -1   3    2.35    0.17
   9   1   3    2.63    0.20
  -9   1  -3    2.91    0.18
   9   1   3    2.31    0.18
   9   1   3    2.62    0.19
  11  -1   3    7.44    0.35
  11  -1   3    7.12    0.33
 -11  -1  -3    7.35    0.36
  11   1   3    6.80    0.33
  11   1   3    7.46    0.35
  12  -2  -3    7.46    0.36
  12  -2  -3    7.04    0.38
 -12   2   3    7.85    0.39
  12   2  -3    7.56    0.37
  12   2  -3    8.12    0.38
  10  -2  -3    0.65    0.13
  10  -2  -3    0.41    0.12
 -10   2   3    0.63    0.14
  10   2  -3    0.48    0.13
  10   2  -3    0.60    0.12
   8  -2  -3   20.65    0.50
  -8  -2   3   20.78    0.47
   8  -2  -3   21.25    0.50
   8   2  -3   21.38    0.49
   8   2  -3   21.68    0.50
  -8   2   3   21.25    0.52
   8   2  -3   21.02    0.44
  -6  -2   3   13.02    0.31
   6  -2  -3   13.38    0.34
   6  -2  -3   13.23    0.28
   6  -2  -3   13.20    0.33
   6   2  -3   12.91    0.33
  -6   2   3   13.48    0.27
   6   2  -3   12.99    0.32
   6   2  -3   13.21    0.29
  -6   2   3   13.12    0.35
   4  -2  -3    3.40    0.14
   4  -2  -3    3.53    0.11
   4  -2  -3    3.38    0.14
  -4  -2   3    3.31    0.13
   4   2  -3    3.33    0.11
  -4   2   3    3.32    0.12
   4   2  -3    3.25    0.12
  -4   2   3    3.39    0.15
   4   2  -3    3.33    0.13
   4   2  -3    3.28    0.13
   2  -2  -3   78.20    1.09
   2  -2  -3   77.94    1.09
   2  -2  -3   78.85    1.04
   2  -2  -3   78.81    1.08
   2   2  -3   79.92    1.08
  -2   2   3   77.32    1.11
  -2   2   3   79.22    1.12
   2   2  -3   79.66    1.10
   2   2  -3   78.04    1.07
  -2   2   3   80.00    1.07
   2   2  -3   77.51    1.06
   2   2  -3   77.60    1.07
   0  -2  -3  753.23    9.84
   0  -2   3  761.96    9.89
   0  -2  -3  743.84    9.67
   0  -2   3  749.70    9.71
   0   2   3  771.77    9.90
   0   2   3  758.63    9.83
   0   2  -3  756.22    9.73
   0   2  -3  757.68    9.81
   0   2   3  741.41    9.63
   2  -2   3   63.18    0.86
   2  -2   3   63.88    0.95
  -2  -2  -3   63.81    0.92
   2  -2   3   65.83    0.91
   2   2   3   63.79    0.94
   2   2   3   63.93    0.93
   2   2   3   65.16    0.83
  -2   2  -3   63.37    0.93
   2   2   3   63.44    0.94
  -4  -2  -3   33.71    0.49
   4  -2   3   34.68    0.54
   4  -2   3   34.33    0.58
   4  -2   3   33.26    0.60
  -4   2  -3   34.04    0.59
   4   2   3   33.85    0.59
   4   2   3   33.95    0.59
   4   2   3   35.45    0.61
   6  -2   3   30.60    0.59
  -6  -2  -3   29.73    0.59
  -6  -2  -3   28.98    0.47
   6  -2   3   30.15    0.58
   6  -2   3   29.05    0.53
   6   2   3   28.87    0.58
  -6   2  -3   28.99    0.57
   6   2   3   28.81    0.58
   6   2   3   29.07    0.58
   8  -2   3   15.86    0.44
   8  -2   3   16.17    0.43
  -8  -2  -3   16.68    0.46
   8  -2   3   16.11    0.41
   8   2   3   15.95    0.44
   8   2   3   16.80    0.44
   8   2   3   16.20    0.44
  -8   2  -3   15.32    0.42
  10  -2   3    4.20    0.27
  10  -2   3    4.36    0.29
 -10  -2  -3    4.43    0.27
  10  -2   3    4.57    0.25
  10   2   3    4.64    0.26
  10   2   3    4.28    0.27
  10   2   3    4.52    0.27
  12  -2   3    0.72    0.17
  12   2   3    1.08    0.19
  11  -3  -3   28.26    0.70
  11  -3  -3   27.53    0.71
  11   3  -3   28.30    0.70
  11   3  -3   27.26    0.70
 -11   3   3   27.39    0.73
   9  -3  -3    0.11    0.08
   9  -3  -3    0.02    0.08
  -9   3   3    0.14    0.09
   9   3  -3    0.14    0.10
   9   3  -3    0.15    0.09
   7  -3  -3   18.33    0.45
  -7  -3   3   18.05    0.41
   7  -3  -3   17.55    0.43
   7   3  -3   17.71    0.43
   7   3  -3   17.73    0.40
  -7   3   3   17.99    0.47
   7   3  -3   18.50    0.44
   5  -3  -3   22.28    0.41
   5  -3  -3   21.43    0.46
  -5  -3   3   22.42    0.44
   5  -3  -3   21.58    0.44
   5   3  -3   21.38    0.44
   5   3  -3   23.01    0.44
   5   3  -3   22.80    0.44
   5   3  -3   22.38    0.40
  -5   3   3   22.94    0.49
  -5   3   3   22.51    0.43
   3  -3  -3   90.33    1.28
   3  -3  -3   89.82    1.30
   3  -3  -3   89.62    1.28
   3   3  -3   91.14    1.25
  -3   3   3   92.65    1.31
   3   3  -3   89.84    1.25
   3   3  -3   90.70    1.28
  -3   3   3   90.00    1.33
   3   3  -3   91.79    1.30
   3   3  -3   91.70    1.27
  -1  -3   3   53.43    0.73
  -1  -3   3   53.95    0.76
   1  -3  -3   51.38    0.79
   1  -3  -3   53.59    0.70
   1  -3  -3   54.25    0.78
  -1   3   3   53.36    0.83
   1   3  -3   53.23    0.78
   1   3  -3   53.28    0.73
  -1   3   3   52.72    0.79
  -1   3   3   53.37    0.80
   1   3  -3   53.32    0.81
  -1  -3  -3    6.71    0.17
   1  -3   3    6.49    0.20
  -1  -3  -3    6.12    0.17
   1  -3   3    6.31    0.16
   1   3   3    6.10    0.19
  -1   3  -3    6.42    0.12
   1   3   3    6.39    0.14
  -1   3  -3    6.14    0.17
   1   3   3    6.57    0.20
   3  -3   3   47.06    0.74
   3  -3   3   47.41    0.79
   3  -3   3   47.96    0.68
  -3  -3  -3   48.41    0.76
   3   3   3   47.85    0.78
   3   3   3   47.31    0.78
  -3   3  -3   46.35    0.77
   3   3   3   47.54    0.64
   5  -3   3   18.87    0.41
   5  -3   3   18.41    0.42
   5  -3   3   18.16    0.36
  -5  -3  -3   18.13    0.41
  -5   3  -3   18.14    0.42
   5   3   3   17.77    0.42
   5   3   3   18.39    0.42
  -7  -3  -3    1.98    0.16
   7  -3   3    2.16    0.16
   7  -3   3    1.97    0.17
   7  -3   3    1.74    0.13
   7   3   3    1.87    0.16
   7   3   3    2.03    0.18
   7   3   3    2.04    0.16
  -7   3  -3    1.51    0.15
   9  -3   3    2.85    0.19
   9  -3   3    2.66    0.20
   9  -3   3    2.78    0.24
  -9  -3  -3    2.80    0.21
   9   3   3    2.77    0.20
   9   3   3    2.99    0.22
  -9   3  -3    2.71    0.21
   9   3   3    2.99    0.22
 -11  -3  -3    1.66    0.20
  11  -3   3    2.01    0.24
  11   3   3    1.58    0.21
  11   3   3    1.58    0.20
  10  -4  -3    0.05    0.09
  10  -4  -3    0.12    0.11
 -10   4   3    0.13    0.10
  10   4  -3    0.06    0.11
  10   4  -3    0.18    0.10
   8  -4  -3   71.93    1.24
   8  -4  -3   70.39    1.19
   8   4  -3   71.46    1.21
   8   4  -3   71.67    1.21
   8   4  -3   71.76    1.17
  -8   4   3   71.40    1.28
   6  -4  -3   -0.01    0.05
   6  -4  -3   -0.13    0.06
  -6  -4   3    0.00    0.05
   6  -4  -3   -0.01    0.05
   6   4  -3    0.04    0.04
   6   4  -3    0.04    0.05
   6   4  -3    0.04    0.06
  -6   4   3    0.03    0.07
   6   4  -3   -0.10    0.05
   4  -4  -3    6.17    0.20
  -4  -4   3    6.29    0.20
   4  -4  -3    5.96    0.19
   4  -4  -3    5.70    0.21
  -4  -4   3    5.99    0.19
   4   4  -3    6.02    0.21
   4   4  -3    6.05    0.19
   4   4  -3    5.58    0.20
  -4   4   3    6.11    0.23
   4   4  -3    6.05    0.17
   2  -4  -3   13.50    0.28
  -2  -4   3   13.69    0.34
   2  -4  -3   13.37    0.31
  -2  -4   3   13.55    0.26
   2  -4  -3   13.28    0.31
  -2  -4   3   13.67    0.28
   2   4  -3   13.61    0.33
   2   4  -3   13.74    0.25
  -2   4   3   13.75    0.31
  -2   4   3   13.64    0.34
  -2   4   3   13.26    0.32
   2   4  -3   13.15    0.28
   0  -4  -3  373.01    4.84
   0  -4   3  373.26    4.80
   0  -4  -3  367.94    4.81
   0  -4   3  357.19    4.89
   0  -4   3  370.74    4.72
   0   4  -3  372.96    4.84
   0   4  -3  376.16    4.73
   0   4   3  371.86    4.88
   0   4   3  376.59    4.82
  -2  -4  -3   46.98    0.74
   2  -4   3   46.66    0.63
   2  -4   3   47.15    0.74
   2  -4   3   46.90    0.80
  -2  -4  -3   45.50    0.75
   2   4   3   47.46    0.67
  -2   4  -3   44.75    0.76
  -2   4  -3   47.90    0.65
   2   4   3   45.50    0.79
   4  -4   3   -0.02    0.05
   4  -4   3    0.02    0.05
  -4  -4  -3    0.05    0.05
   4  -4   3    0.04    0.03
   4   4   3    0.00    0.06
  -4   4  -3    0.04    0.05
   4   4   3    0.04    0.05
   6  -4   3    0.00    0.06
  -6  -4  -3    0.00    0.06
   6  -4   3    0.08    0.07
   6   4   3   -0.03    0.06
   6   4   3    0.00    0.07
  -6   4  -3    0.02    0.06
   8  -4   3    0.15    0.09
  -8  -4  -3    0.16    0.09
   8  -4   3    0.01    0.08
   8   4   3    0.13    0.09
   8   4   3    0.11    0.10
  -8   4  -3    0.16    0.09
  10  -4   3    3.45    0.26
 -10  -4  -3    3.17    0.25
 -10   4  -3    3.90    0.27
  10   4   3    3.17    0.29
  10   4   3    3.50    0.24
 -11  -5   3   19.39    0.60
  11  -5  -3   18.89    0.61
  11   5  -3   19.75    0.59
  11   5  -3   18.80    0.61
  -9  -5   3   -0.08    0.08
   9  -5  -3    0.00    0.10
  -9   5   3   -0.01    0.09
   9   5  -3   -0.03    0.08
   9   5  -3   -0.01    0.11
  -7  -5   3    5.88    0.25
   7  -5  -3    5.74    0.27
   7  -5  -3    5.68    0.24
   7   5  -3    5.55    0.26
  -7   5   3    5.80    0.29
   7   5  -3    5.70    0.26
   7   5  -3    5.83    0.25
  -5  -5   3   37.35    0.69
  -5  -5   3   38.37    0.69
   5  -5  -3   38.85    0.69
   5  -5  -3   37.56    0.70
   5  -5  -3   37.30    0.73
   5   5  -3   39.08    0.74
   5   5  -3   39.42    0.65
   5   5  -3   38.13    0.73
  -5   5   3   38.69    0.77
   5   5  -3   39.06    0.69
   3  -5  -3    1.03    0.09
   3  -5  -3    0.87    0.10
   3  -5  -3    0.92    0.11
  -3  -5   3    0.89    0.12
  -3  -5   3    0.85    0.09
  -3  -5   3    0.89    0.08
   3   5  -3    0.97    0.09
  -3   5   3    1.07    0.12
   3   5  -3    0.93    0.12
   1  -5  -3    1.19    0.09
   1  -5  -3    1.46    0.12
  -1  -5   3    1.35    0.09
   1  -5  -3    1.48    0.14
  -1  -5   3    1.74    0.15
  -1  -5   3    1.35    0.06
   1   5  -3    1.52    0.10
  -1   5   3    1.43    0.12
  -1   5   3    1.43    0.11
   1  -5   3    0.09    0.06
  -1  -5  -3    0.09    0.04
   1  -5   3   -0.01    0.04
  -1  -5  -3    0.05    0.05
  -1   5  -3   -0.07    0.04
   1   5   3    0.03    0.03
   1   5   3    0.03    0.05
   3  -5   3    4.51    0.18
  -3  -5  -3    4.05    0.17
   3  -5   3    4.07    0.21
   3   5   3    3.93    0.20
   3   5   3    3.82    0.13
  -3   5  -3    4.25    0.19
  -5  -5  -3    5.17    0.22
   5  -5   3    5.18    0.23
   5  -5   3    5.18    0.25
  -5  -5  -3    5.55    0.24
  -5   5  -3    5.32    0.24
   5   5   3    5.31    0.25
   5   5   3    5.78    0.25
  -7  -5  -3    0.74    0.12
   7  -5   3    0.82    0.14
   7  -5   3    1.08    0.15
   7   5   3    0.73    0.14
  -7   5  -3    0.69    0.13
   7   5   3    0.72    0.14
   9  -5   3    0.82    0.16
  -9  -5  -3    0.50    0.13
   9  -5   3    0.35    0.13
   9   5   3    0.62    0.16
  -9   5  -3    0.73    0.15
   9   5   3    0.47    0.15
 -10  -6   3    0.10    0.11
  10  -6  -3    0.37    0.15
  10   6  -3   -0.09    0.12
  -8  -6   3    4.08    0.23
   8  -6  -3    4.24    0.27
  -8  -6   3    3.91    0.23
   8   6  -3    4.59    0.28
   8   6  -3    4.45    0.26
  -8   6   3    4.15    0.29
   6  -6  -3   12.80    0.42
  -6  -6   3   13.50    0.38
   6  -6  -3   14.24    0.41
  -6  -6   3   13.60    0.38
   6   6  -3   13.54    0.42
   6   6  -3   14.38    0.43
  -6   6   3   14.07    0.45
  -4  -6   3   23.91    0.58
   4  -6  -3   22.83    0.53
   4  -6  -3   23.67    0.54
  -4  -6   3   22.98    0.49
   4  -6  -3   22.80    0.50
   4   6  -3   24.05    0.47
  -4   6   3   22.88    0.55
   4   6  -3   23.26    0.56
  -2  -6   3   32.89    0.69
   2  -6  -3   31.71    0.66
   2  -6  -3   32.49    0.64
   2  -6  -3   32.58    0.58
  -2  -6   3   32.61    0.59
  -2   6   3   33.01    0.64
   2   6  -3   32.93    0.67
   2   6  -3   31.92    0.59
   0  -6  -3    5.41    0.25
   0  -6   3    5.02    0.24
   0  -6  -3    5.24    0.18
   0  -6  -3    5.28    0.21
   0  -6   3    5.51    0.20
   0   6  -3    5.04    0.20
   0   6   3    4.95    0.23
   0   6   3    5.37    0.19
   2  -6   3    3.37    0.20
   2  -6   3    3.23    0.17
  -2  -6  -3    3.01    0.15
  -2  -6  -3    2.96    0.17
   2   6   3    3.06    0.13
   2   6   3    3.08    0.19
  -2   6  -3    3.02    0.18
   4  -6   3    1.50    0.15
  -4  -6  -3    1.31    0.13
   4  -6   3    1.60    0.17
  -4  -6  -3    1.47    0.15
  -4   6  -3    1.53    0.16
   4   6   3    1.41    0.17
   6  -6   3    2.97    0.22
  -6  -6  -3    2.96    0.20
   6  -6   3    2.71    0.20
  -6  -6  -3    3.17    0.21
   6   6   3    2.58    0.24
  -6   6  -3    2.92    0.22
   6   6   3    2.80    0.22
   8  -6   3   -0.05    0.09
  -8  -6  -3    0.16    0.09
  -8  -6  -3    0.05    0.10
   8  -6   3   -0.04    0.10
  -8   6  -3    0.05    0.11
   8   6   3    0.03    0.10
   8   6   3    0.18    0.12
  -9  -7   3    0.70    0.14
   9  -7  -3    0.51    0.16
   9   7  -3    0.58    0.17
  -7  -7   3   13.46    0.49
  -7  -7   3   13.43    0.41
   7  -7  -3   12.97    0.46
   7   7  -3   13.68    0.47
  -7   7   3   14.45    0.50
  -5  -7   3   20.22    0.57
  -5  -7   3   19.64    0.47
   5  -7  -3   19.63    0.52
   5  -7  -3   19.33    0.53
   5   7  -3   19.61    0.55
  -5   7   3   19.98    0.55
   3  -7  -3   16.26    0.45
   3  -7  -3   16.73    0.47
  -3  -7   3   16.23    0.40
  -3  -7   3   16.21    0.49
   3   7  -3   17.53    0.49
   3   7  -3   16.92    0.40
  -3   7   3   15.96    0.44
   1  -7  -3    6.50    0.26
  -1  -7   3    6.16    0.23
  -1  -7   3    6.03    0.29
   1  -7  -3    6.77    0.30
   1   7  -3    6.05    0.23
  -1   7   3    6.65    0.25
   1  -7   3   -0.03    0.06
   1  -7   3   -0.01    0.09
  -1  -7  -3    0.06    0.06
  -1  -7  -3    0.09    0.09
  -1   7  -3   -0.02    0.07
   1   7   3   -0.15    0.07
   1   7   3    0.06    0.05
   3  -7   3    7.99    0.29
  -3  -7  -3    8.80    0.28
  -3  -7  -3    7.98    0.30
   3  -7   3    9.09    0.36
  -3   7  -3    8.35    0.32
   3   7   3    7.91    0.33
  -5  -7  -3    0.05    0.08
   5  -7   3   -0.03    0.08
  -5  -7  -3    0.03    0.07
   5  -7   3    0.01    0.09
  -5   7  -3    0.11    0.10
   5   7   3    0.08    0.11
  -7  -7  -3    1.42    0.18
  -7  -7  -3    1.23    0.16
   7  -7   3    1.31    0.19
   7  -7   3    1.36    0.19
   7   7   3    1.46    0.21
  -7   7  -3    1.38    0.19
   6  -8  -3    0.79    0.16
  -6  -8   3    0.55    0.15
  -6   8   3    0.72    0.16
   6   8  -3    0.30    0.13
  -4  -8   3    4.78    0.30
   4  -8  -3    4.29    0.27
   4  -8  -3    4.50    0.29
  -4  -8   3    4.76    0.24
   4   8  -3    4.14    0.27
  -4   8   3    4.93    0.27
  -2  -8   3    0.69    0.15
   2  -8  -3    0.88    0.14
  -2  -8   3    0.80    0.12
   2  -8  -3    0.64    0.13
   2   8  -3    0.90    0.12
  -2   8   3    0.73    0.12
   0  -8  -3   10.99    0.37
   0  -8   3   11.10    0.35
   0  -8   3   11.58    0.43
   0  -8  -3   11.11    0.42
   0   8  -3   10.94    0.35
   0   8   3   11.77    0.42
   2  -8   3    5.77    0.27
  -2  -8  -3    6.38    0.35
  -2  -8  -3    6.76    0.29
   2  -8   3    6.19    0.33
   2   8   3    6.38    0.32
  -2   8  -3    6.10    0.28
   4  -8   3    1.27    0.17
  -4  -8  -3    0.98    0.15
   4  -8   3    1.43    0.20
  -4   8  -3    1.28    0.18
   4   8   3    1.11    0.18
   6  -8   3    9.25    0.39
   6  -8   3    8.79    0.41
  -6  -8  -3    8.50    0.35
  -6   8  -3    8.88    0.39
   6   8   3    8.91    0.42
   5  -9  -3   11.45    0.49
  -5  -9   3   11.60    0.49
   5  -9  -3   11.71    0.46
  -5   9   3   12.41    0.46
   3  -9  -3    0.09    0.12
  -3  -9   3    0.22    0.13
   3  -9  -3    0.07    0.11
  -3   9   3    0.21    0.11
   1  -9  -3    0.15    0.12
  -1  -9   3    0.25    0.13
   1  -9  -3    0.33    0.12
   1   9  -3    0.25    0.10
   1  -9   3    0.47    0.12
  -1  -9  -3    0.52    0.16
   1  -9   3    0.51    0.16
  -1  -9  -3    0.59    0.14
  -1   9  -3    0.58    0.13
   1   9   3    0.35    0.14
  -3  -9  -3    3.14    0.24
   3  -9   3    2.24    0.25
  -3  -9  -3    3.21    0.32
   3  -9   3    3.46    0.25
  -3   9  -3    3.07    0.24
   3   9   3    3.44    0.28
  12   0  -4    0.52    0.13
  12   0  -4    0.42    0.14
 -10   0   4    0.04    0.08
  10   0  -4    0.03    0.09
  10   0  -4    0.10    0.09
   8   0  -4   26.65    0.58
  -8   0   4   26.15    0.57
   8   0  -4   26.33    0.56
   6   0  -4    2.17    0.13
  -6   0   4    2.34    0.09
  -6   0   4    2.37    0.13
   6   0  -4    2.31    0.14
   6   0  -4    2.29    0.09
   4   0  -4   65.15    0.94
   4   0  -4   64.08    0.93
   4   0  -4   64.11    0.96
  -4   0   4   65.43    0.91
  -4   0   4   64.64    0.96
   4   0  -4   64.34    0.85
   2   0  -4  316.04    4.10
  -2   0   4  319.19    4.10
   2   0  -4  320.14    4.07
  -2   0   4  319.44    4.12
   0   0  -4   50.24    0.67
   0   0  -4   49.29    0.69
   0   0   4   52.41    0.72
   0   0  -4   50.15    0.69
   0   0   4   49.91    0.70
   0   0   4   50.85    0.67
   0   0  -4   51.29    0.68
  -2   0  -4  206.24    2.60
   2   0   4  201.50    2.63
  -2   0  -4  201.23    2.64
   2   0   4  199.48    2.67
   2   0   4  202.24    2.62
   4   0   4   67.32    1.02
  -4   0  -4   70.81    1.03
   4   0   4   69.62    1.01
   4   0   4   69.18    0.93
   4   0   4   68.24    1.05
  -4   0  -4   69.52    0.97
   6   0   4  132.68    1.91
   6   0   4  133.56    1.89
  -6   0  -4  131.65    1.83
   6   0   4  134.79    1.93
   8   0   4   36.09    0.71
   8   0   4   36.58    0.72
   8   0   4   36.32    0.73
  10   0   4    0.06    0.09
 -10   0  -4    0.09    0.09
  10   0   4    0.16    0.10
  10   0   4    0.12    0.09
 -12   0  -4    4.86    0.32
  12   0   4    4.30    0.31
  12   0   4    4.41    0.30
  11  -1  -4    1.69    0.21
  11  -1  -4    2.31    0.23
  11   1  -4    1.63    0.18
 -11   1   4    2.29    0.23
  11   1  -4    1.95    0.20
   9  -1  -4    2.63    0.19
  -9  -1   4    3.10    0.19
   9  -1  -4    2.97    0.20
   9   1  -4    2.68    0.19
  -9   1   4    3.10    0.21
   9   1  -4    2.80    0.19
   7  -1  -4    5.47    0.22
  -7  -1   4    5.01    0.21
   7  -1  -4    5.39    0.22
   7   1  -4    5.60    0.21
   7   1  -4    5.24    0.16
   7   1  -4    5.29    0.21
  -7   1   4    5.23    0.22
   5  -1  -4   67.08    1.03
  -5  -1   4   67.76    1.02
   5  -1  -4   66.12    1.01
   5  -1  -4   66.27    0.91
  -5  -1   4   67.68    0.96
   5   1  -4   68.03    0.94
  -5   1   4   66.11    1.04
   5   1  -4   66.88    1.00
  -5   1   4   67.86    0.95
   5   1  -4   66.18    1.02
  -3  -1   4    0.02    0.03
   3  -1  -4    0.06    0.04
   3  -1  -4    0.09    0.04
  -3  -1   4    0.06    0.03
   3  -1  -4    0.10    0.03
   3  -1  -4    0.06    0.02
   3   1  -4    0.13    0.03
   3   1  -4    0.12    0.03
   3   1  -4    0.09    0.04
   3   1  -4    0.03    0.03
  -3   1   4    0.01    0.03
  -3   1   4    0.10    0.04
   3   1  -4    0.12    0.04
   1  -1  -4  162.80    2.10
   1  -1  -4  158.64    2.12
   1  -1  -4  164.14    2.11
  -1  -1   4  160.87    2.12
  -1   1   4  164.25    2.10
   1   1  -4  166.28    2.11
  -1   1   4  165.12    2.13
  -1   1   4  163.06    2.15
   1   1  -4  164.12    2.10
   1   1  -4  154.46    2.11
   1   1  -4  162.76    2.07
   1  -1   4  177.35    2.39
  -1  -1  -4  179.09    2.34
  -1  -1  -4  180.93    2.37
   1  -1   4  183.87    2.33
  -1   1  -4  181.79    2.35
  -1   1  -4  181.01    2.35
   1   1   4  182.05    2.39
   1   1   4  181.50    2.38
   1   1   4  181.68    2.30
   1   1   4  181.93    2.37
  -1   1  -4  181.33    2.32
  -3  -1  -4   21.89    0.40
  -3  -1  -4   22.50    0.31
   3  -1   4   22.37    0.37
   3  -1   4   22.03    0.39
   3  -1   4   21.92    0.42
   3  -1   4   22.13    0.35
  -3   1  -4   21.92    0.38
   3   1   4   21.50    0.39
   3   1   4   22.30    0.36
   3   1   4   22.18    0.42
   5  -1   4   16.45    0.25
   5  -1   4   16.61    0.36
  -5  -1  -4   15.92    0.37
   5  -1   4   16.21    0.34
  -5  -1  -4   17.11    0.29
   5  -1   4   16.17    0.38
   5   1   4   16.05    0.36
   5   1   4   15.82    0.36
   5   1   4   17.07    0.38
  -5   1  -4   16.92    0.35
   7  -1   4  120.87    1.81
   7  -1   4  122.26    1.80
  -7  -1  -4  120.08    1.81
   7  -1   4  118.77    1.75
  -7   1  -4  121.84    1.75
   7   1   4  121.01    1.80
   7   1   4  120.70    1.79
   7   1   4  121.97    1.81
  -9  -1  -4    6.13    0.29
   9  -1   4    6.21    0.27
   9  -1   4    6.27    0.29
   9  -1   4    6.65    0.28
   9   1   4    6.24    0.28
   9   1   4    6.59    0.29
   9   1   4    6.00    0.28
  11  -1   4    1.16    0.17
  11  -1   4    1.39    0.19
 -11  -1  -4    1.06    0.17
  11   1   4    1.02    0.16
  11   1   4    1.16    0.18
  12  -2  -4    2.73    0.28
  12  -2  -4    2.43    0.24
 -12   2   4    2.88    0.28
  12   2  -4    2.56    0.25
  12   2  -4    2.88    0.27
  10  -2  -4    2.23    0.21
  10  -2  -4    2.27    0.21
 -10   2   4    2.86    0.22
  10   2  -4    1.98    0.20
  10   2  -4    2.13    0.20
  -8  -2   4    0.92    0.11
   8  -2  -4    0.83    0.12
   8  -2  -4    0.60    0.10
   8   2  -4    0.69    0.10
   8   2  -4    0.79    0.11
  -8   2   4    0.65    0.11
  -6  -2   4    0.04    0.04
   6  -2  -4    0.02    0.05
  -6  -2   4    0.09    0.03
   6  -2  -4    0.02    0.05
   6  -2  -4    0.00    0.03
   6   2  -4    0.07    0.05
  -6   2   4    0.02    0.04
   6   2  -4    0.01    0.05
  -6   2   4    0.08    0.06
   6   2  -4    0.06    0.04
   4  -2  -4   58.07    0.89
   4  -2  -4   57.90    0.82
  -4  -2   4   59.17    0.90
   4  -2  -4   58.29    0.89
   4   2  -4   59.05    0.86
  -4   2   4   57.25    0.87
   4   2  -4   58.47    0.86
   4   2  -4   58.04    0.85
  -4   2   4   58.79    0.92
   4   2  -4   57.62    0.88
   4   2  -4   59.02    0.85
   2  -2  -4    2.33    0.10
   2  -2  -4    2.48    0.10
  -2  -2   4    2.48    0.10
   2  -2  -4    2.43    0.07
   2   2  -4    2.54    0.09
   2   2  -4    2.43    0.09
   2   2  -4    2.50    0.09
  -2   2   4    2.71    0.09
   2   2  -4    2.36    0.10
   2   2  -4    2.42    0.09
   0  -2  -4  148.60    2.01
   0  -2  -4  150.68    1.96
   0  -2   4  153.61    1.96
   0  -2   4  152.05    2.04
   0   2  -4  147.64    2.01
   0   2  -4  155.07    1.97
   0   2   4  156.33    2.02
   0   2   4  150.85    1.98
   0   2   4  149.72    2.04
   2  -2   4    2.35    0.07
   2  -2   4    2.28    0.09
   2  -2   4    2.34    0.12
  -2  -2  -4    2.36    0.10
   2   2   4    2.36    0.11
   2   2   4    2.26    0.11
  -2   2  -4    2.51    0.09
  -2   2  -4    2.45    0.11
   2   2   4    2.32    0.11
  -4  -2  -4   21.42    0.31
   4  -2   4   21.53    0.41
   4  -2   4   21.72    0.45
  -4  -2  -4   21.78    0.43
   4  -2   4   21.84    0.38
   4   2   4   21.68    0.39
   4   2   4   22.07    0.45
   4   2   4   20.44    0.42
  -4   2  -4   21.63    0.42
   6  -2   4    0.29    0.08
   6  -2   4    0.21    0.06
  -6  -2  -4    0.28    0.08
   6  -2   4    0.21    0.07
   6   2   4    0.21    0.07
   6   2   4    0.14    0.07
  -6   2  -4    0.22    0.06
   6   2   4    0.23    0.07
   8  -2   4   15.09    0.43
   8  -2   4   14.68    0.42
  -8  -2  -4   14.73    0.43
   8  -2   4   14.56    0.38
  -8   2  -4   14.74    0.40
   8   2   4   15.48    0.43
   8   2   4   14.86    0.43
   8   2   4   14.55    0.42
  10  -2   4   40.28    0.82
  10  -2   4   39.63    0.85
  10  -2   4   40.63    0.87
 -10  -2  -4   42.19    0.89
  10   2   4   41.95    0.89
  10   2   4   41.79    0.87
  10   2   4   40.25    0.84
  11  -3  -4    1.11    0.17
  11  -3  -4    1.32    0.19
  11   3  -4    1.37    0.19
  11   3  -4    1.47    0.20
 -11   3   4    1.29    0.20
   9  -3  -4    4.76    0.25
  -9  -3   4    4.95    0.23
   9  -3  -4    4.68    0.26
   9   3  -4    4.87    0.25
  -9   3   4    4.78    0.27
   9   3  -4    5.19    0.26
   7  -3  -4    0.51    0.09
   7  -3  -4    0.33    0.09
  -7  -3   4    0.49    0.08
  -7   3   4    0.25    0.09
   7   3  -4    0.42    0.09
   7   3  -4    0.38    0.07
   7   3  -4    0.38    0.08
   5  -3  -4    2.00    0.13
   5  -3  -4    2.13    0.14
   5  -3  -4    2.12    0.10
  -5  -3   4    2.17    0.13
  -5   3   4    2.17    0.14
  -5   3   4    2.12    0.12
   5   3  -4    2.21    0.12
   5   3  -4    2.02    0.12
   5   3  -4    2.06    0.12
   5   3  -4    2.12    0.11
   3  -3  -4   18.09    0.35
   3  -3  -4   18.09    0.34
   3  -3  -4   18.12    0.36
  -3  -3   4   18.30    0.37
   3   3  -4   17.32    0.36
   3   3  -4   17.65    0.32
  -3   3   4   17.39    0.38
   3   3  -4   18.33    0.33
   3   3  -4   17.90    0.33
  -3   3   4   17.98    0.38
   3   3  -4   18.11    0.34
  -1  -3   4   72.11    1.08
   1  -3  -4   72.92    1.05
  -1  -3   4   73.75    1.00
  -1  -3   4   73.01    0.97
   1  -3  -4   73.74    0.96
   1  -3  -4   73.40    1.04
  -1   3   4   72.56    1.10
   1   3  -4   71.73    0.97
  -1   3   4   69.42    1.04
  -1   3   4   74.18    1.05
   1   3  -4   73.77    1.04
   1   3  -4   74.03    0.99
  -1  -3  -4    0.53    0.06
  -1  -3  -4    0.38    0.06
   1  -3   4    0.42    0.05
  -1  -3  -4    0.48    0.04
   1  -3   4    0.35    0.06
  -1   3  -4    0.42    0.06
   1   3   4    0.50    0.04
   1   3   4    0.39    0.07
   1   3   4    0.40    0.06
  -1   3  -4    0.48    0.04
  -3  -3  -4    0.10    0.04
   3  -3   4    0.15    0.03
   3  -3   4    0.11    0.05
   3  -3   4    0.07    0.04
   3   3   4    0.19    0.06
   3   3   4    0.11    0.05
   3   3   4    0.11    0.02
   3   3   4    0.14    0.05
  -3   3  -4    0.21    0.06
  -5  -3  -4    0.28    0.07
   5  -3   4    0.24    0.05
   5  -3   4    0.28    0.07
   5  -3   4    0.27    0.07
  -5   3  -4    0.23    0.07
   5   3   4    0.21    0.07
   5   3   4    0.26    0.08
   7  -3   4   13.51    0.34
   7  -3   4   13.24    0.39
   7  -3   4   12.33    0.37
  -7  -3  -4   13.43    0.39
  -7   3  -4   13.51    0.38
   7   3   4   13.58    0.39
   7   3   4   13.85    0.40
  -9  -3  -4    0.30    0.11
   9  -3   4    0.09    0.10
   9  -3   4    0.13    0.09
  -9   3  -4    0.22    0.09
   9   3   4    0.28    0.11
   9   3   4    0.17    0.10
   9   3   4    0.17    0.09
 -11  -3  -4    8.15    0.38
  11  -3   4    8.68    0.40
  11   3   4    8.17    0.38
  11   3   4    8.19    0.37
  10  -4  -4    0.00    0.09
  10  -4  -4    0.35    0.12
  10   4  -4    0.01    0.10
 -10   4   4    0.08    0.10
  10   4  -4   -0.01    0.09
  -8  -4   4    0.50    0.09
   8  -4  -4    0.39    0.10
   8  -4  -4    0.45    0.11
   8   4  -4    0.46    0.10
  -8   4   4    0.40    0.11
   8   4  -4    0.43    0.10
   8   4  -4    0.43    0.10
  -6  -4   4    0.89    0.11
   6  -4  -4    0.96    0.11
   6  -4  -4    0.78    0.09
   6  -4  -4    0.82    0.12
   6   4  -4    0.81    0.10
   6   4  -4    0.89    0.11
   6   4  -4    0.96    0.10
   6   4  -4    0.86    0.11
  -6   4   4    0.83    0.13
   4  -4  -4    4.61    0.19
   4  -4  -4    4.61    0.17
   4  -4  -4    4.21    0.17
  -4  -4   4    4.36    0.16
   4   4  -4    4.28    0.18
   4   4  -4    4.26    0.16
   4   4  -4    4.30    0.18
  -4   4   4    4.65    0.21
  -4   4   4    4.61    0.19
   4   4  -4    4.54    0.15
  -2  -4   4   26.96    0.43
  -2  -4   4   25.95    0.52
   2  -4  -4   26.35    0.49
  -2  -4   4   27.18    0.45
   2  -4  -4   26.70    0.47
   2  -4  -4   27.17    0.50
   2   4  -4   26.02    0.51
   2   4  -4   26.90    0.47
  -2   4   4   26.22    0.50
   2   4  -4   26.56    0.42
  -2   4   4   26.54    0.49
  -2   4   4   26.99    0.53
   0  -4   4  226.26    3.09
   0  -4  -4  226.60    3.04
   0  -4  -4  228.63    3.02
   0  -4  -4  231.46    2.90
   0  -4   4  227.73    2.99
   0   4  -4  224.12    2.93
   0   4   4  227.56    3.07
   0   4  -4  230.21    3.04
   0   4   4  230.47    3.01
   0   4   4  225.46    3.11
  -2  -4  -4   56.48    0.87
   2  -4   4   55.88    0.86
   2  -4   4   56.42    0.93
  -2  -4  -4   56.81    0.89
  -2   4  -4   56.88    0.90
   2   4   4   55.52    0.92
  -2   4  -4   56.91    0.78
   2   4   4   55.21    0.78
   4  -4   4    0.30    0.07
  -4  -4  -4    0.24    0.07
   4  -4   4    0.40    0.09
  -4  -4  -4    0.19    0.06
  -4   4  -4    0.32    0.05
   4   4   4    0.31    0.09
  -4   4  -4    0.37    0.08
   4   4   4    0.35    0.08
   6  -4   4    0.64    0.11
   6  -4   4    0.58    0.11
  -6  -4  -4    0.72    0.11
  -6   4  -4    0.58    0.11
   6   4   4    0.66    0.12
   6   4   4    0.67    0.11
  -8  -4  -4    0.83    0.13
   8  -4   4    1.15    0.16
   8  -4   4    0.91    0.14
   8   4   4    1.19    0.16
   8   4   4    1.58    0.19
  -8   4  -4    0.91    0.14
 -10  -4  -4    2.11    0.23
  10  -4   4    1.94    0.23
  10   4   4    1.94    0.24
 -10   4  -4    1.98    0.22
  10   4   4    1.91    0.22
 -11  -5   4    8.23    0.39
  11  -5  -4    7.98    0.40
  11   5  -4    7.79    0.40
  11   5  -4    8.05    0.38
   9  -5  -4    0.57    0.14
   9  -5  -4    0.89    0.14
  -9  -5   4    0.66    0.13
  -9   5   4    0.51    0.14
   9   5  -4    0.51    0.14
   9   5  -4    0.58    0.13
  -7  -5   4    7.51    0.29
  -7  -5   4    7.61    0.27
   7  -5  -4    7.26    0.28
   7  -5  -4    8.06    0.32
   7   5  -4    7.56    0.29
   7   5  -4    7.97    0.29
   7   5  -4    7.91    0.30
   7   5  -4    7.14    0.24
  -7   5   4    7.66    0.33
   5  -5  -4   21.05    0.46
  -5  -5   4   21.16    0.45
   5  -5  -4   21.65    0.46
  -5  -5   4   20.66    0.45
   5  -5  -4   21.02    0.50
   5   5  -4   21.41    0.43
   5   5  -4   21.17    0.49
   5   5  -4   22.20    0.45
   5   5  -4   21.47    0.49
  -5   5   4   20.68    0.51
  -3  -5   4    0.57    0.07
   3  -5  -4    0.68    0.10
  -3  -5   4    0.52    0.06
   3  -5  -4    0.64    0.10
  -3  -5   4    0.59    0.10
   3  -5  -4    0.75    0.09
  -3   5   4    0.55    0.09
   3   5  -4    0.61    0.08
   3   5  -4    0.46    0.08
  -1  -5   4   31.86    0.54
   1  -5  -4   30.37    0.62
  -1  -5   4   32.09    0.64
   1  -5  -4   33.02    0.56
   1  -5  -4   31.51    0.59
  -1   5   4   31.37    0.60
   1   5  -4   32.27    0.57
   1   5  -4   32.13    0.48
  -1   5   4   31.46    0.57
   1  -5   4   10.25    0.26
  -1  -5  -4   10.00    0.26
  -1  -5  -4   10.67    0.29
   1  -5   4   10.23    0.32
  -1   5  -4   10.46    0.28
   1   5   4    9.49    0.29
   1   5   4   10.53    0.24
   3  -5   4   17.79    0.40
  -3  -5  -4   18.16    0.40
  -3  -5  -4   17.56    0.42
   3  -5   4   18.62    0.46
   3   5   4   17.26    0.45
  -3   5  -4   18.23    0.43
   5  -5   4    0.10    0.08
  -5  -5  -4    0.17    0.07
  -5  -5  -4    0.15    0.07
   5  -5   4    0.08    0.06
  -5   5  -4    0.17    0.07
   5   5   4    0.27    0.09
   5   5   4    0.00    0.07
   7  -5   4    9.53    0.35
   7  -5   4    9.91    0.37
  -7  -5  -4    9.85    0.35
   7   5   4    9.64    0.37
  -7   5  -4    8.53    0.35
   7   5   4    9.69    0.37
  -9  -5  -4    8.74    0.37
   9  -5   4    8.75    0.39
   9  -5   4    8.69    0.37
   9   5   4    9.17    0.40
  -9   5  -4    9.29    0.39
   9   5   4    8.84    0.40
  10  -6  -4    2.46    0.26
 -10  -6   4    2.27    0.23
  10   6  -4    2.55    0.26
  10   6  -4    3.11    0.26
  -8  -6   4   22.63    0.56
  -8  -6   4   23.83    0.58
   8  -6  -4   23.43    0.63
   8   6  -4   24.22    0.60
  -8   6   4   22.92    0.65
   8   6  -4   23.64    0.62
   8   6  -4   23.26    0.58
   6  -6  -4    0.55    0.12
  -6  -6   4    0.52    0.09
  -6  -6   4    0.42    0.11
   6   6  -4    0.45    0.11
   6   6  -4    0.47    0.12
  -6   6   4    0.29    0.12
   6   6  -4    0.42    0.08
   4  -6  -4   12.20    0.32
   4  -6  -4   12.07    0.36
  -4  -6   4   12.44    0.32
   4  -6  -4   11.71    0.36
  -4  -6   4   12.25    0.39
   4   6  -4   12.63    0.32
  -4   6   4   12.07    0.38
   4   6  -4   12.06    0.38
   2  -6  -4    1.30    0.11
  -2  -6   4    1.31    0.10
  -2  -6   4    1.18    0.15
   2  -6  -4    1.13    0.12
   2  -6  -4    1.31    0.15
   2   6  -4    1.47    0.12
  -2   6   4    1.21    0.13
   0  -6   4   28.62    0.54
   0  -6   4   29.50    0.64
   0  -6  -4   29.17    0.54
   0  -6  -4   28.36    0.58
   0   6   4   29.18    0.54
   0   6   4   28.66    0.62
   0   6  -4   29.75    0.58
  -2  -6  -4   13.36    0.36
  -2  -6  -4   13.38    0.34
   2  -6   4   12.94    0.34
   2  -6   4   12.97    0.40
  -2   6  -4   14.00    0.38
   2   6   4   13.83    0.40
  -4  -6  -4   12.23    0.34
   4  -6   4   11.36    0.34
   4  -6   4   11.23    0.39
  -4  -6  -4   11.44    0.35
  -4   6  -4   11.80    0.36
   4   6   4   11.55    0.38
   6  -6   4    2.76    0.21
  -6  -6  -4    2.85    0.19
  -6  -6  -4    2.59    0.20
   6  -6   4    2.82    0.22
  -6   6  -4    2.95    0.22
   6   6   4    2.56    0.21
   6   6   4    2.62    0.25
  -8  -6  -4    4.06    0.27
  -8  -6  -4    3.83    0.25
   8  -6   4    4.23    0.27
   8  -6   4    4.03    0.29
   8   6   4    3.78    0.28
  -8   6  -4    4.25    0.28
   8   6   4    3.92    0.31
   9  -7  -4    1.79    0.23
  -7  -7   4   15.44    0.51
   7  -7  -4   15.68    0.51
  -7   7   4   15.56    0.52
   7   7  -4   14.72    0.49
  -5  -7   4   22.21    0.51
   5  -7  -4   22.99    0.57
  -5  -7   4   22.94    0.61
   5  -7  -4   22.63    0.58
  -5   7   4   23.01    0.60
   5   7  -4   22.52    0.49
   5   7  -4   23.63    0.60
   3  -7  -4    6.61    0.28
   3  -7  -4    6.67    0.29
  -3  -7   4    6.77    0.32
  -3  -7   4    6.28    0.24
  -3   7   4    7.51    0.30
   3   7  -4    6.70    0.24
  -1  -7   4    3.72    0.24
  -1  -7   4    3.60    0.17
   1  -7  -4    3.90    0.21
   1  -7  -4    3.47    0.21
  -1   7   4    3.48    0.18
  -1   7   4    3.91    0.23
   1   7  -4    3.96    0.19
  -1  -7  -4    2.19    0.14
   1  -7   4    2.25    0.15
   1  -7   4    2.10    0.20
  -1  -7  -4    1.72    0.15
  -1   7  -4    2.12    0.16
   1   7   4    1.93    0.19
  -3  -7  -4   -0.01    0.06
  -3  -7  -4   -0.09    0.05
   3  -7   4   -0.11    0.09
   3  -7   4    0.02    0.07
  -3   7  -4    0.03    0.07
   3   7   4   -0.07    0.07
  -5  -7  -4    8.45    0.31
   5  -7   4    8.56    0.34
  -5  -7  -4    8.49    0.33
   5  -7   4    8.33    0.36
   5   7   4    8.70    0.37
  -5   7  -4    8.24    0.33
   7  -7   4   11.85    0.46
   7  -7   4   10.98    0.42
  -7  -7  -4   11.40    0.42
  -7  -7  -4   12.56    0.42
  -7   7  -4   11.40    0.44
   7   7   4   11.44    0.44
   6  -8  -4   39.11    0.89
  -6  -8   4   39.00    0.91
  -6   8   4   41.17    0.92
   6   8  -4   40.38    0.91
   4  -8  -4    4.29    0.27
  -4  -8   4    4.94    0.30
   4  -8  -4    4.65    0.28
  -4   8   4    4.38    0.26
   2  -8  -4    2.45    0.23
  -2  -8   4    2.51    0.18
   2  -8  -4    2.96    0.21
  -2  -8   4    2.87    0.26
  -2   8   4    2.70    0.19
   2   8  -4    2.51    0.17
   0  -8   4    4.80    0.23
   0  -8   4    4.69    0.28
   0  -8  -4    5.45    0.30
   0  -8  -4    4.93    0.26
   0   8   4    4.30    0.28
   0   8  -4    5.20    0.24
   2  -8   4    6.99    0.35
   2  -8   4    6.72    0.28
  -2  -8  -4    6.78    0.29
  -2  -8  -4    7.73    0.38
   2   8   4    6.99    0.34
  -2   8  -4    6.49    0.29
   4  -8   4    0.05    0.10
   4  -8   4    0.11    0.09
  -4  -8  -4    0.10    0.08
   4   8   4   -0.10    0.11
  -4   8  -4    0.02    0.10
   6  -8   4    1.07    0.19
  -6  -8  -4    0.88    0.15
   6  -8   4    0.99    0.17
   6   8   4    1.28    0.21
  -6   8  -4    0.88    0.18
   5  -9  -4    0.34    0.14
  -5  -9   4   -0.04    0.12
  -5   9   4    0.05    0.11
   3  -9  -4    1.50    0.20
  -3  -9   4    1.74    0.24
   3  -9  -4    1.69    0.22
  -3   9   4    1.63    0.19
   1  -9  -4    2.25    0.25
  -1  -9   4    2.52    0.28
   1  -9  -4    2.20    0.22
   1   9  -4    1.87    0.18
   1  -9   4   -0.01    0.11
  -1  -9  -4    0.12    0.13
  -1  -9  -4    0.00    0.09
   1   9   4    0.08    0.12
  -1   9  -4   -0.04    0.09
  -3  -9  -4    1.35    0.22
   3  -9   4    1.17    0.20
  -3  -9  -4    1.15    0.17
  -3   9  -4    1.36    0.19
   3   9   4    1.31    0.21
 -12   0   5   -0.01    0.11
  12   0  -5    0.11    0.11
  12   0  -5    0.09    0.11
 -10   0   5    0.09    0.09
  10   0  -5    0.12    0.09
  10   0  -5    0.07    0.09
  -8   0   5    0.04    0.06
   8   0  -5   -0.03    0.06
   8   0  -5    0.03    0.06
   6   0  -5    0.02    0.04
   6   0  -5    0.00    0.02
  -6   0   5    0.02    0.05
   6   0  -5    0.01    0.05
  -6   0   5    0.00    0.02
   4   0  -5    0.02    0.04
   4   0  -5    0.01    0.03
   4   0  -5    0.00    0.03
  -4   0   5    0.00    0.04
  -4   0   5    0.05    0.03
  -2   0   5   -0.02    0.03
  -2   0   5    0.01    0.03
   2   0  -5    0.03    0.03
   2   0  -5    0.01    0.02
   2   0  -5   -0.01    0.03
   2   0  -5   -0.01    0.02
  -2   0   5    0.03    0.01
   0   0   5    0.05    0.03
   0   0  -5    0.07    0.02
   0   0  -5    0.07    0.02
   0   0  -5    0.04    0.02
   0   0   5    0.01    0.03
   0   0  -5    0.02    0.02
   0   0   5    0.04    0.02
  -2   0  -5   -0.03    0.03
   2   0   5    0.02    0.03
   2   0   5    0.05    0.04
  -2   0  -5   -0.01    0.02
   2   0   5    0.00    0.03
   4   0   5    0.02    0.04
  -4   0  -5    0.04    0.03
   4   0   5   -0.04    0.03
   4   0   5    0.03    0.02
   4   0   5    0.00    0.04
  -4   0  -5   -0.02    0.03
  -6   0  -5   -0.02    0.04
   6   0   5   -0.02    0.04
  -6   0  -5   -0.07    0.04
   6   0   5    0.07    0.05
   6   0   5   -0.03    0.04
   8   0   5   -0.06    0.07
   8   0   5   -0.01    0.07
   8   0   5    0.02    0.06
  -8   0  -5    0.05    0.07
 -10   0  -5   -0.12    0.08
  10   0   5   -0.15    0.07
  10   0   5    0.01    0.10
  10   0   5    0.04    0.09
 -11  -1   5    1.87    0.20
  11  -1  -5    1.72    0.20
  11  -1  -5    1.78    0.21
  11   1  -5    1.64    0.19
 -11   1   5    1.87    0.21
  11   1  -5    1.35    0.18
   9  -1  -5    0.42    0.11
   9  -1  -5    0.45    0.10
  -9  -1   5    0.61    0.12
   9   1  -5    0.26    0.10
   9   1  -5    0.72    0.12
  -9   1   5    0.50    0.12
   7  -1  -5   18.50    0.43
  -7  -1   5   18.09    0.36
  -7  -1   5   18.07    0.43
   7  -1  -5   18.82    0.44
  -7   1   5   19.10    0.46
   7   1  -5   18.67    0.42
   7   1  -5   18.69    0.44
   5  -1  -5    0.76    0.04
  -5  -1   5    0.80    0.09
   5  -1  -5    0.73    0.07
   5  -1  -5    0.78    0.08
  -5  -1   5    0.62    0.06
   5  -1  -5    0.89    0.10
   5   1  -5    0.88    0.08
   5   1  -5    0.75    0.07
   5   1  -5    0.79    0.05
  -5   1   5    0.76    0.07
  -5   1   5    0.71    0.09
   5   1  -5    0.69    0.08
  -3  -1   5   27.86    0.46
  -3  -1   5   28.35    0.49
   3  -1  -5   27.57    0.47
   3  -1  -5   28.14    0.45
   3  -1  -5   27.85    0.44
  -3  -1   5   28.52    0.42
   3   1  -5   27.46    0.45
  -3   1   5   28.48    0.47
   3   1  -5   28.11    0.45
   3   1  -5   28.75    0.43
   3   1  -5   28.52    0.47
  -3   1   5   28.47    0.49
   1  -1  -5  103.21    1.34
   1  -1  -5  101.06    1.36
  -1  -1   5  102.28    1.35
  -1  -1   5   99.31    1.38
   1  -1  -5  100.05    1.33
  -1   1   5  101.92    1.33
  -1   1   5  101.68    1.36
   1   1  -5   99.86    1.34
   1   1  -5  101.29    1.33
  -1   1   5   98.82    1.39
   1   1  -5  100.67    1.35
  -1  -1  -5   21.57    0.34
   1  -1   5   22.14    0.33
  -1  -1  -5   22.35    0.36
   1  -1   5   22.21    0.37
   1  -1   5   22.14    0.39
   1   1   5   21.95    0.36
   1   1   5   21.55    0.31
  -1   1  -5   22.04    0.32
   1   1   5   21.29    0.38
  -1   1  -5   21.71    0.35
  -1   1  -5   21.40    0.34
   1   1   5   21.45    0.38
   3  -1   5   36.17    0.54
  -3  -1  -5   35.01    0.59
   3  -1   5   35.35    0.62
  -3  -1  -5   36.51    0.48
   3  -1   5   35.59    0.55
   3  -1   5   36.73    0.57
   3   1   5   36.57    0.62
   3   1   5   36.24    0.56
  -3   1  -5   36.58    0.56
   3   1   5   35.65    0.59
  -3   1  -5   36.22    0.56
   5  -1   5   30.32    0.56
   5  -1   5   31.53    0.60
  -5  -1  -5   30.59    0.57
   5  -1   5   30.47    0.53
   5  -1   5   29.95    0.45
  -5  -1  -5   30.47    0.46
   5   1   5   30.28    0.59
   5   1   5   30.66    0.48
   5   1   5   30.38    0.56
   5   1   5   30.52    0.57
  -5   1  -5   30.78    0.53
   7  -1   5   12.54    0.37
   7  -1   5   11.98    0.35
  -7  -1  -5   12.17    0.36
   7  -1   5   12.20    0.33
   7   1   5   12.67    0.35
   7   1   5   12.77    0.36
   7   1   5   12.22    0.36
  -7   1  -5   12.21    0.32
  -9  -1  -5    0.04    0.09
   9  -1   5   -0.01    0.08
   9  -1   5    0.04    0.08
   9  -1   5    0.02    0.07
   9   1   5    0.09    0.09
  -9   1  -5   -0.02    0.07
   9   1   5    0.08    0.08
   9   1   5   -0.05    0.07
 -11  -1  -5    6.87    0.34
  11  -1   5    7.05    0.35
  11  -1   5    6.75    0.32
  11   1   5    6.59    0.34
 -11   1  -5    7.12    0.34
  11   1   5    7.31    0.34
  11   1   5    7.40    0.35
  12  -2  -5   14.61    0.51
  12  -2  -5   14.65    0.51
 -12   2   5   15.02    0.54
  12   2  -5   14.50    0.51
  12   2  -5   14.72    0.50
  10  -2  -5    0.11    0.09
  10  -2  -5    0.09    0.09
 -10  -2   5   -0.10    0.06
  10   2  -5   -0.07    0.07
  10   2  -5    0.13    0.09
 -10   2   5   -0.11    0.09
   8  -2  -5    8.77    0.31
   8  -2  -5    8.52    0.30
  -8  -2   5    8.80    0.29
  -8   2   5    9.10    0.33
   8   2  -5    8.67    0.29
   8   2  -5    9.32    0.32
  -6  -2   5    4.09    0.17
   6  -2  -5    4.15    0.19
   6  -2  -5    4.33    0.19
  -6  -2   5    3.99    0.15
   6   2  -5    3.71    0.16
  -6   2   5    3.82    0.15
   6   2  -5    4.01    0.14
   6   2  -5    3.98    0.18
  -6   2   5    3.81    0.19
   4  -2  -5   20.94    0.40
   4  -2  -5   21.50    0.41
   4  -2  -5   20.46    0.37
   4  -2  -5   21.26    0.34
   4   2  -5   21.27    0.38
  -4   2   5   21.55    0.41
   4   2  -5   21.55    0.38
   4   2  -5   20.90    0.39
   4   2  -5   21.14    0.37
  -4   2   5   21.61    0.44
   4   2  -5   20.63    0.40
  -2  -2   5    7.07    0.17
   2  -2  -5    6.92    0.17
   2  -2  -5    6.89    0.18
   2  -2  -5    7.11    0.15
  -2   2   5    7.30    0.16
  -2   2   5    7.03    0.20
   2   2  -5    6.95    0.17
   2   2  -5    6.97    0.16
   2   2  -5    7.23    0.15
  -2   2   5    6.66    0.19
   2   2  -5    7.06    0.16
   0  -2  -5    4.53    0.10
   0  -2   5    4.73    0.15
   0  -2  -5    4.67    0.13
   0  -2   5    4.73    0.10
   0  -2  -5    4.12    0.13
   0   2  -5    4.52    0.08
   0   2   5    4.46    0.14
   0   2  -5    4.42    0.11
   0   2   5    4.52    0.16
   0   2   5    4.60    0.12
   0   2  -5    4.38    0.13
   2  -2   5   72.39    1.03
   2  -2   5   72.06    1.09
   2   2   5   73.73    1.08
   2   2   5   73.96    1.09
  -2   2  -5   75.36    0.98
  -2   2  -5   73.90    1.02
  -2   2  -5   74.10    1.05
   2   2   5   73.17    1.08
   4  -2   5    2.95    0.16
   4  -2   5    3.03    0.11
  -4  -2  -5    2.94    0.14
   4  -2   5    3.19    0.14
   4  -2   5    2.88    0.10
  -4   2  -5    2.87    0.14
   4   2   5    3.04    0.14
   4   2   5    3.06    0.12
   4   2   5    2.91    0.15
   6  -2   5    8.81    0.25
   6  -2   5    9.17    0.28
  -6  -2  -5    9.07    0.29
   6  -2   5    8.75    0.30
   6   2   5    8.47    0.28
  -6   2  -5    8.87    0.27
   6   2   5    8.88    0.29
   6   2   5    8.80    0.29
   8  -2   5    8.08    0.31
   8  -2   5    7.70    0.27
  -8  -2  -5    7.93    0.31
   8  -2   5    7.66    0.31
   8   2   5    8.18    0.31
   8   2   5    7.62    0.30
   8   2   5    8.01    0.31
  -8   2  -5    7.46    0.27
  10  -2   5    0.49    0.13
 -10  -2  -5    0.51    0.12
  10  -2   5    0.63    0.12
  10  -2   5    0.64    0.14
  10   2   5    0.50    0.13
  10   2   5    0.56    0.13
  10   2   5    0.66    0.14
  11  -3  -5   15.08    0.50
  11  -3  -5   14.30    0.50
  11   3  -5   14.47    0.48
  11   3  -5   15.35    0.50
 -11   3   5   15.00    0.53
  -9  -3   5    0.85    0.12
   9  -3  -5    0.67    0.13
   9  -3  -5    1.08    0.15
  -9   3   5    0.65    0.15
   9   3  -5    1.00    0.14
   9   3  -5    0.96    0.14
   7  -3  -5   22.28    0.51
   7  -3  -5   23.02    0.52
  -7  -3   5   22.54    0.50
   7   3  -5   21.84    0.48
   7   3  -5   22.41    0.45
  -7   3   5   22.84    0.55
   7   3  -5   22.76    0.50
   5  -3  -5   89.63    1.36
   5  -3  -5   92.10    1.28
   5  -3  -5   91.88    1.36
   5   3  -5   91.28    1.32
   5   3  -5   91.26    1.32
  -5   3   5   89.39    1.34
   5   3  -5   91.01    1.31
   5   3  -5   89.98    1.33
   5   3  -5   92.58    1.31
  -5   3   5   89.74    1.40
   3  -3  -5    0.67    0.05
   3  -3  -5    0.49    0.06
   3  -3  -5    0.63    0.08
   3  -3  -5    0.56    0.07
  -3  -3   5    0.52    0.07
   3   3  -5    0.48    0.06
   3   3  -5    0.54    0.06
   3   3  -5    0.53    0.06
  -3   3   5    0.34    0.07
  -3   3   5    0.51    0.07
   3   3  -5    0.59    0.07
   3   3  -5    0.56    0.06
  -1  -3   5  204.15    2.68
   1  -3  -5  200.73    2.64
   1  -3  -5  200.75    2.56
  -1  -3   5  200.57    2.58
   1  -3  -5  200.47    2.65
  -1   3   5  198.42    2.65
  -1   3   5  197.51    2.71
   1   3  -5  196.17    2.64
  -1   3   5  196.12    2.64
   1   3  -5  194.98    2.59
   1   3  -5  199.88    2.55
   1  -3   5    5.20    0.19
   1  -3   5    4.99    0.14
  -1  -3  -5    5.04    0.12
  -1  -3  -5    4.87    0.16
  -1  -3  -5    5.15    0.16
  -1   3  -5    5.19    0.16
  -1   3  -5    5.05    0.12
   1   3   5    4.88    0.18
   1   3   5    5.03    0.17
   1   3   5    4.94    0.12
   3  -3   5   22.57    0.42
   3  -3   5   23.49    0.36
  -3  -3  -5   23.70    0.45
   3  -3   5   22.57    0.48
   3   3   5   23.27    0.48
   3   3   5   22.92    0.47
  -3   3  -5   23.64    0.39
   3   3   5   23.76    0.46
  -3   3  -5   23.21    0.45
   5  -3   5    4.72    0.19
   5  -3   5    4.90    0.16
   5  -3   5    5.15    0.22
  -5  -3  -5    4.76    0.21
  -5   3  -5    4.68    0.20
   5   3   5    4.77    0.21
   5   3   5    4.81    0.21
   7  -3   5  130.19    1.95
   7  -3   5  127.51    1.91
  -7  -3  -5  127.38    1.94
   7   3   5  126.97    1.94
  -7   3  -5  126.80    1.90
   7   3   5  126.51    1.93
  -9  -3  -5    3.81    0.25
   9  -3   5    4.02    0.26
   9  -3   5    3.56    0.25
   9   3   5    4.33    0.25
  -9   3  -5    4.05    0.24
   9   3   5    3.58    0.24
 -11  -3  -5   -0.05    0.11
  11  -3   5    0.05    0.12
  11   3   5   -0.15    0.11
  11   3   5    0.03    0.12
  10  -4  -5    2.62    0.24
  10  -4  -5    2.95    0.23
  10   4  -5    2.68    0.22
  10   4  -5    3.16    0.26
 -10   4   5    2.23    0.24
   8  -4  -5    2.25    0.18
  -8  -4   5    2.40    0.17
   8  -4  -5    2.46    0.19
   8   4  -5    2.53    0.18
   8   4  -5    2.10    0.18
  -8   4   5    2.45    0.23
   6  -4  -5   21.45    0.48
  -6  -4   5   20.41    0.47
   6  -4  -5   20.65    0.49
  -6   4   5   20.40    0.52
   6   4  -5   21.29    0.43
   6   4  -5   21.22    0.46
   6   4  -5   20.85    0.46
   6   4  -5   21.44    0.46
  -6   4   5   20.73    0.46
  -4  -4   5   46.56    0.80
   4  -4  -5   45.47    0.77
  -4  -4   5   46.62    0.74
   4  -4  -5   46.70    0.80
   4  -4  -5   46.58    0.76
  -4   4   5   47.12    0.83
   4   4  -5   47.46    0.73
   4   4  -5   47.35    0.77
   4   4  -5   45.61    0.74
  -4   4   5   46.72    0.81
   4   4  -5   48.27    0.79
   4   4  -5   45.80    0.74
  -2  -4   5   16.82    0.29
   2  -4  -5   16.68    0.36
   2  -4  -5   16.69    0.37
  -2  -4   5   17.24    0.39
   2  -4  -5   17.06    0.26
  -2  -4   5   17.22    0.31
   2  -4  -5   16.95    0.35
   2   4  -5   16.48    0.30
   2   4  -5   16.30    0.34
  -2   4   5   16.88    0.36
  -2   4   5   16.26    0.40
  -2   4   5   16.57    0.37
   2   4  -5   16.75    0.29
   0  -4   5   47.81    0.71
   0  -4  -5   46.74    0.76
   0  -4   5   46.25    0.81
   0  -4  -5   47.62    0.75
   0  -4  -5   47.75    0.64
   0   4   5   47.85    0.82
   0   4  -5   48.23    0.68
   0   4  -5   48.80    0.77
   0   4   5   47.84    0.78
   0   4   5   46.37    0.72
   2  -4   5    0.18    0.06
  -2  -4  -5    0.20    0.05
   2  -4   5    0.15    0.05
  -2  -4  -5    0.20    0.05
   2   4   5    0.27    0.07
   2   4   5    0.21    0.03
  -2   4  -5    0.25    0.04
  -2   4  -5    0.10    0.05
   2   4   5    0.22    0.06
  -4  -4  -5    6.45    0.23
  -4  -4  -5    5.59    0.22
   4  -4   5    6.25    0.25
   4  -4   5    6.50    0.22
   4   4   5    6.02    0.24
  -4   4  -5    5.74    0.22
  -4   4  -5    6.51    0.17
   4   4   5    5.82    0.24
   6  -4   5    1.75    0.18
   6  -4   5    1.78    0.16
  -6  -4  -5    1.37    0.14
   6   4   5    1.70    0.18
  -6   4  -5    1.63    0.16
   6   4   5    2.02    0.19
   8  -4   5    0.04    0.08
  -8  -4  -5   -0.01    0.08
   8  -4   5    0.17    0.10
  -8   4  -5    0.09    0.09
   8   4   5   -0.08    0.08
   8   4   5    0.20    0.10
  10  -4   5    7.84    0.37
  10  -4   5    7.69    0.37
 -10  -4  -5    8.35    0.38
 -10   4  -5    8.54    0.37
  10   4   5    7.94    0.37
  10   4   5    7.69    0.39
  -9  -5   5    1.00    0.16
   9  -5  -5    1.36    0.17
   9  -5  -5    1.01    0.17
   9   5  -5    1.26    0.18
  -9   5   5    0.99    0.17
   9   5  -5    1.24    0.16
  -7  -5   5    3.31    0.19
   7  -5  -5    3.16    0.22
   7  -5  -5    3.37    0.20
  -7  -5   5    3.27    0.19
   7   5  -5    3.35    0.19
  -7   5   5    3.25    0.24
   7   5  -5    3.18    0.16
   7   5  -5    2.92    0.19
   7   5  -5    3.35    0.20
  -5  -5   5   16.55    0.38
   5  -5  -5   16.59    0.39
   5  -5  -5   16.50    0.43
  -5  -5   5   16.35    0.44
   5  -5  -5   17.16    0.41
  -5  -5   5   16.85    0.39
  -5   5   5   17.07    0.46
   5   5  -5   16.88    0.38
   5   5  -5   17.41    0.38
   5   5  -5   16.47    0.41
   5   5  -5   16.58    0.42
   3  -5  -5   17.45    0.38
  -3  -5   5   16.89    0.35
   3  -5  -5   16.97    0.40
  -3  -5   5   17.44    0.33
  -3  -5   5   17.01    0.43
   3  -5  -5   17.31    0.41
   3   5  -5   17.22    0.42
   3   5  -5   17.50    0.37
   3   5  -5   17.44    0.33
  -3   5   5   16.55    0.43
  -3   5   5   16.87    0.41
   1  -5  -5   88.82    1.35
  -1  -5   5   86.92    1.39
  -1  -5   5   92.05    1.29
   1  -5  -5   90.59    1.32
  -1   5   5   89.47    1.36
  -1   5   5   91.77    1.43
   1   5  -5   90.62    1.23
  -1   5   5   88.62    1.32
   1   5  -5   91.22    1.33
   1  -5   5    3.73    0.20
  -1  -5  -5    3.53    0.16
   1  -5   5    3.69    0.15
  -1  -5  -5    3.86    0.16
   1   5   5    3.97    0.19
   1   5   5    4.04    0.13
  -3  -5  -5   20.47    0.45
  -3  -5  -5   20.53    0.46
   3  -5   5   21.05    0.44
   3  -5   5   21.08    0.51
  -3   5  -5   21.14    0.47
   3   5   5   20.73    0.50
   5  -5   5   24.70    0.60
   5  -5   5   24.74    0.54
  -5  -5  -5   24.98    0.55
  -5  -5  -5   24.89    0.56
   5   5   5   25.23    0.60
   5   5   5   25.51    0.61
  -5   5  -5   24.67    0.56
  -7  -5  -5    7.03    0.30
   7  -5   5    6.89    0.29
   7  -5   5    7.15    0.32
  -7   5  -5    6.28    0.29
   7   5   5    6.23    0.31
   7   5   5    6.29    0.31
   9  -5   5    8.37    0.38
  -9  -5  -5    9.47    0.38
   9  -5   5    7.91    0.36
   9   5   5    8.58    0.41
   9   5   5    9.06    0.40
  -9   5  -5    8.68    0.37
  10  -6  -5    2.74    0.29
  10   6  -5    2.85    0.26
  -8  -6   5   42.11    0.83
   8  -6  -5   42.76    0.91
   8   6  -5   41.94    0.87
  -8   6   5   42.48    0.94
   8   6  -5   39.50    0.88
  -6  -6   5   15.84    0.47
   6  -6  -5   15.47    0.42
   6  -6  -5   15.20    0.46
  -6  -6   5   15.99    0.40
   6   6  -5   16.35    0.39
  -6   6   5   16.22    0.49
   6   6  -5   15.41    0.45
   6   6  -5   15.65    0.45
  -4  -6   5    0.02    0.07
   4  -6  -5    0.10    0.06
   4  -6  -5   -0.02    0.06
  -4  -6   5    0.07    0.05
   4  -6  -5   -0.01    0.07
   4   6  -5    0.07    0.05
   4   6  -5   -0.06    0.06
  -4   6   5   -0.13    0.06
   2  -6  -5    1.28    0.14
  -2  -6   5    1.27    0.15
  -2  -6   5    1.15    0.10
   2  -6  -5    1.18    0.11
   2  -6  -5    1.20    0.13
  -2   6   5    1.18    0.13
  -2   6   5    1.26    0.13
   2   6  -5    1.03    0.10
   0  -6  -5   19.41    0.45
   0  -6   5   19.22    0.41
   0  -6  -5   19.89    0.42
   0  -6   5   20.25    0.51
   0   6   5   18.88    0.40
   0   6  -5   19.36    0.44
   0   6   5   19.20    0.48
  -2  -6  -5    6.63    0.23
   2  -6   5    6.51    0.28
  -2  -6  -5    6.37    0.25
   2  -6   5    6.44    0.23
   2   6   5    5.76    0.26
  -2   6  -5    6.51    0.25
  -4  -6  -5    8.02    0.29
   4  -6   5    8.01    0.33
  -4  -6  -5    8.27    0.28
   4  -6   5    8.66    0.29
  -4   6  -5    8.21    0.31
   4   6   5    8.19    0.33
   6  -6   5    3.49    0.25
  -6  -6  -5    4.31    0.24
  -6  -6  -5    3.81    0.23
   6  -6   5    3.95    0.24
  -6   6  -5    3.73    0.24
   6   6   5    3.93    0.27
   6   6   5    3.63    0.26
  -8  -6  -5    0.42    0.12
  -8  -6  -5    0.72    0.15
   8  -6   5    0.70    0.17
   8  -6   5    0.40    0.13
   8   6   5    0.91    0.18
   8   6   5    0.79    0.18
  -8   6  -5    0.63    0.14
   7  -7  -5   13.01    0.47
  -7  -7   5   13.45    0.47
  -7   7   5   14.03    0.49
   7   7  -5   14.00    0.46
   5  -7  -5   28.75    0.68
   5  -7  -5   30.10    0.70
  -5  -7   5   30.17    0.71
   5   7  -5   30.29    0.60
  -5   7   5   29.74    0.70
   5   7  -5   29.56    0.69
  -3  -7   5    6.37    0.31
   3  -7  -5    6.41    0.29
   3  -7  -5    5.83    0.27
  -3   7   5    6.35    0.28
   3   7  -5    6.42    0.24
   1  -7  -5    7.69    0.29
   1  -7  -5    7.70    0.32
   1  -7  -5    7.95    0.26
  -1  -7   5    8.33    0.34
   1   7  -5    7.57    0.27
  -1   7   5    7.82    0.27
  -1   7   5    8.38    0.32
   1  -7   5    8.95    0.36
  -1  -7  -5    9.06    0.31
   1  -7   5    9.65    0.30
  -1  -7  -5    8.73    0.28
   1   7   5    9.14    0.34
  -1   7  -5    8.76    0.31
  -3  -7  -5   13.71    0.41
  -3  -7  -5   14.04    0.38
   3  -7   5   14.43    0.40
   3  -7   5   14.50    0.47
   3   7   5   13.83    0.45
  -3   7  -5   13.50    0.41
  -5  -7  -5    1.71    0.18
  -5  -7  -5    1.56    0.17
   5  -7   5    1.98    0.19
   5  -7   5    1.56    0.20
  -5   7  -5    1.50    0.18
   5   7   5    1.29    0.19
  -7  -7  -5    0.24    0.12
   7  -7   5    0.14    0.12
  -7  -7  -5    0.09    0.09
   7  -7   5    0.06    0.10
  -7   7  -5    0.07    0.11
   7   7   5    0.14    0.13
  -6  -8   5    2.44    0.25
   6  -8  -5    2.85    0.27
  -6   8   5    2.63    0.26
  -4  -8   5    1.16    0.18
   4  -8  -5    1.19    0.18
   4  -8  -5    1.40    0.19
  -4   8   5    1.10    0.16
   4   8  -5    1.22    0.14
   2  -8  -5    1.76    0.19
  -2  -8   5    2.12    0.23
   2  -8  -5    1.74    0.21
  -2   8   5    1.59    0.16
   2   8  -5    1.65    0.16
   0  -8  -5    5.14    0.27
   0  -8   5    4.70    0.30
   0  -8  -5    4.84    0.29
   0   8  -5    4.97    0.24
   0   8   5    4.49    0.27
  -2  -8  -5   32.91    0.71
   2  -8   5   30.81    0.77
   2   8   5   31.70    0.77
  -2   8  -5   32.75    0.71
  -4  -8  -5    3.02    0.23
   4  -8   5    2.65    0.26
  -4   8  -5    3.00    0.23
   4   8   5    3.16    0.25
  -6  -8  -5    0.59    0.13
  -6  -8  -5    0.57    0.13
   6  -8   5    0.54    0.16
   6   8   5    0.54    0.17
  -6   8  -5    0.60    0.15
  -5  -9   5    2.51    0.28
   3  -9  -5   13.42    0.49
  -3  -9   5   13.92    0.52
   3  -9  -5   12.84    0.47
  -3   9   5   13.32    0.44
   3   9  -5   13.26    0.40
   1  -9  -5    3.15    0.27
   1  -9  -5    3.04    0.28
  -1  -9   5    3.41    0.31
   1   9  -5    2.64    0.21
   1  -9   5    9.07    0.43
  -1  -9  -5    8.22    0.36
  -1  -9  -5    8.29    0.41
  -1   9  -5    8.71    0.35
   1   9   5    8.12    0.40
  -3  -9  -5    0.83    0.18
   3  -9   5    1.13    0.19
  -3  -9  -5    1.14    0.18
  -3   9  -5    1.01    0.16
   3   9   5    1.17    0.22
 -12   0   6   21.67    0.63
  12   0  -6   21.88    0.63
  12   0  -6   21.47    0.61
  10   0  -6    6.25    0.30
 -10   0   6    6.32    0.30
  10   0  -6    6.34    0.29
  -8   0   6   40.27    0.78
   8   0  -6   39.47    0.77
   8   0  -6   40.28    0.75
   6   0  -6   38.37    0.70
   6   0  -6   38.56    0.66
  -6   0   6   38.39    0.71
  -6   0   6   39.52    0.63
   6   0  -6   39.47    0.67
  -4   0   6   10.30    0.26
   4   0  -6   10.77    0.26
   4   0  -6   10.95    0.23
  -4   0   6   11.01    0.25
   2   0  -6   31.53    0.49
   2   0  -6   31.91    0.50
  -2   0   6   32.64    0.45
   2   0  -6   32.88    0.46
   2   0  -6   31.19    0.49
  -2   0   6   31.75    0.52
  -2   0   6   32.81    0.53
   0   0  -6  503.69    6.53
   0   0  -6  497.33    6.48
   0   0   6  504.23    6.43
   0   0  -6  491.36    6.43
   0   0   6  498.77    6.39
   0   0   6  504.41    6.45
   0   0  -6  514.30    6.56
   2   0   6  189.64    2.48
   2   0   6  188.97    2.53
  -2   0  -6  189.98    2.42
  -2   0  -6  188.13    2.47
  -2   0  -6  179.96    2.46
   2   0   6  188.10    2.46
   4   0   6   24.90    0.50
  -4   0  -6   25.50    0.40
   4   0   6   24.53    0.46
  -4   0  -6   24.82    0.46
   4   0   6   25.51    0.41
  -6   0  -6   12.14    0.27
   6   0   6   13.04    0.36
  -6   0  -6   12.73    0.33
   6   0   6   11.92    0.32
   6   0   6   12.08    0.33
  -8   0  -6   24.97    0.56
   8   0   6   23.55    0.56
   8   0   6   24.78    0.55
   8   0   6   23.95    0.58
  10   0   6   12.32    0.43
 -10   0  -6   12.22    0.42
  10   0   6   11.96    0.41
  10   0   6   12.45    0.43
 -11  -1   6   23.23    0.62
  11  -1  -6   24.49    0.63
  11  -1  -6   23.72    0.64
  11   1  -6   25.55    0.63
 -11   1   6   24.34    0.66
  11   1  -6   24.57    0.65
  -9  -1   6    0.39    0.09
   9  -1  -6    0.25    0.10
   9  -1  -6    0.21    0.08
   9   1  -6    0.12    0.08
   9   1  -6    0.28    0.09
  -9   1   6    0.14    0.09
  -7  -1   6   22.14    0.50
  -7  -1   6   22.65    0.42
   7  -1  -6   22.72    0.48
   7  -1  -6   22.45    0.50
   7   1  -6   22.05    0.50
   7   1  -6   22.77    0.47
  -7   1   6   21.65    0.51
   5  -1  -6    0.62    0.07
   5  -1  -6    0.78    0.09
  -5  -1   6    0.64    0.09
   5  -1  -6    0.69    0.08
  -5  -1   6    0.70    0.07
   5   1  -6    0.69    0.05
   5   1  -6    0.74    0.09
  -5   1   6    0.67    0.07
  -5   1   6    0.76    0.10
   5   1  -6    0.62    0.07
   5   1  -6    0.74    0.07
   3  -1  -6    0.04    0.03
   3  -1  -6   -0.01    0.03
  -3  -1   6    0.06    0.03
  -3  -1   6    0.02    0.04
  -3  -1   6   -0.04    0.02
   3  -1  -6    0.06    0.04
   3   1  -6   -0.03    0.03
  -3   1   6    0.07    0.04
   3   1  -6    0.04    0.03
   3   1  -6   -0.03    0.03
   3   1  -6    0.04    0.03
  -3   1   6   -0.02    0.04
   1  -1  -6    6.94    0.15
  -1  -1   6    6.63    0.16
   1  -1  -6    7.08    0.17
   1  -1  -6    6.83    0.15
  -1   1   6    6.99    0.19
   1   1  -6    6.69    0.16
   1   1  -6    6.81    0.15
   1   1  -6    6.98    0.15
  -1   1   6    6.84    0.15
  -1   1   6    6.73    0.16
  -1  -1  -6   79.07    1.02
   1  -1   6   77.30    1.10
  -1  -1  -6   78.07    1.07
  -1  -1  -6   77.21    1.09
   1  -1   6   80.33    1.04
   1  -1   6   75.68    1.12
   1   1   6   79.23    1.09
  -1   1  -6   76.52    1.07
  -1   1  -6   78.60    1.07
   1   1   6   77.98    1.12
   1   1   6   80.65    1.12
  -1   1  -6   78.41    1.05
   1   1   6   78.96    1.03
   3  -1   6   16.11    0.36
  -3  -1  -6   16.66    0.23
   3  -1   6   16.25    0.32
   3  -1   6   16.64    0.30
   3   1   6   15.98    0.36
   3   1   6   16.52    0.32
  -3   1  -6   16.09    0.30
   3   1   6   17.27    0.34
  -3   1  -6   16.57    0.31
   5  -1   6    6.05    0.15
   5  -1   6    6.23    0.19
   5  -1   6    6.25    0.21
  -5  -1  -6    6.31    0.22
  -5  -1  -6    6.41    0.14
   5  -1   6    6.56    0.24
   5   1   6    6.18    0.16
  -5   1  -6    6.43    0.19
   5   1   6    6.12    0.21
   5   1   6    6.05    0.23
  -5   1  -6    6.36    0.20
   7  -1   6    0.16    0.08
   7  -1   6    0.07    0.07
  -7  -1  -6    0.18    0.08
   7  -1   6    0.11    0.06
   7   1   6    0.17    0.08
   7   1   6    0.22    0.08
  -7   1  -6    0.04    0.06
  -7   1  -6    0.06    0.05
   7   1   6    0.05    0.07
   9  -1   6    0.74    0.14
   9  -1   6    0.62    0.11
   9  -1   6    0.54    0.12
  -9  -1  -6    0.71    0.13
   9   1   6    0.50    0.12
   9   1   6    0.56    0.12
   9   1   6    0.70    0.13
  -9   1  -6    0.70    0.12
  11  -1   6    1.50    0.19
 -11  -1  -6    1.73    0.21
  11  -1   6    1.49    0.20
  11  -1   6    1.46    0.21
 -11   1  -6    1.60    0.19
  11   1   6    1.61    0.21
  11   1   6    1.58    0.20
  11   1   6    1.41    0.19
  12  -2  -6   17.16    0.56
  12  -2  -6   16.91    0.55
 -12   2   6   16.28    0.57
  12   2  -6   17.21    0.56
  12   2  -6   16.52    0.53
  10  -2  -6    3.19    0.24
 -10  -2   6    3.78    0.23
  10  -2  -6    3.62    0.24
  10   2  -6    3.80    0.23
 -10   2   6    4.00    0.26
  10   2  -6    3.40    0.23
   8  -2  -6   29.24    0.63
   8  -2  -6   29.33    0.62
  -8  -2   6   28.24    0.61
   8   2  -6   27.96    0.58
  -8   2   6   28.51    0.65
   8   2  -6   29.45    0.63
  -6  -2   6    2.13    0.11
   6  -2  -6    1.86    0.13
  -6  -2   6    1.87    0.13
   6  -2  -6    2.04    0.14
  -6   2   6    1.78    0.16
  -6   2   6    2.01    0.12
   6   2  -6    2.06    0.13
   6   2  -6    2.07    0.13
   6   2  -6    1.93    0.10
   6   2  -6    2.04    0.12
   4  -2  -6    3.54    0.09
   4  -2  -6    3.61    0.12
   4  -2  -6    3.34    0.14
   4  -2  -6    3.53    0.15
  -4  -2   6    3.67    0.12
  -4   2   6    3.49    0.15
   4   2  -6    3.44    0.14
   4   2  -6    3.34    0.12
   4   2  -6    3.47    0.12
  -4   2   6    3.46    0.16
   4   2  -6    3.22    0.13
   4   2  -6    3.49    0.13
   2  -2  -6  100.24    1.35
   2  -2  -6   99.61    1.39
  -2  -2   6  102.47    1.39
  -2  -2   6  101.82    1.32
   2  -2  -6  100.63    1.41
   2   2  -6  101.68    1.37
  -2   2   6  101.18    1.35
   2   2  -6  100.12    1.33
  -2   2   6  102.30    1.44
   2   2  -6  100.92    1.36
   2   2  -6  100.81    1.39
  -2   2   6   98.33    1.41
   0  -2   6    2.39    0.11
   0  -2  -6    2.30    0.10
   0  -2  -6    2.35    0.08
   0  -2   6    2.44    0.06
   0   2   6    2.32    0.08
   0   2  -6    2.42    0.06
   0   2   6    2.37    0.10
   0   2   6    2.33    0.12
   0   2  -6    2.30    0.10
   0   2  -6    2.45    0.09
   2  -2   6  120.25    1.71
   2  -2   6  121.92    1.63
  -2  -2  -6  120.44    1.67
   2   2   6  122.26    1.69
   2   2   6  120.85    1.68
  -2   2  -6  121.38    1.58
  -2   2  -6  121.22    1.63
  -2   2  -6  121.70    1.66
   2   2   6  118.00    1.70
   4  -2   6   16.45    0.31
  -4  -2  -6   16.24    0.37
   4  -2   6   16.03    0.39
   4  -2   6   16.04    0.34
   4  -2   6   15.84    0.31
  -4   2  -6   15.84    0.31
   4   2   6   16.02    0.33
   4   2   6   15.92    0.37
  -4   2  -6   15.93    0.34
   4   2   6   15.90    0.38
   6  -2   6   43.58    0.82
  -6  -2  -6   43.24    0.79
   6  -2   6   43.29    0.72
   6  -2   6   42.81    0.77
   6   2   6   43.86    0.81
  -6   2  -6   43.51    0.75
   6   2   6   42.18    0.78
  -6   2  -6   43.11    0.73
   8  -2   6    1.46    0.18
  -8  -2  -6    1.17    0.15
   8  -2   6    1.45    0.17
   8  -2   6    1.71    0.14
  -8   2  -6    1.46    0.15
   8   2   6    1.47    0.17
  -8   2  -6    1.97    0.17
   8   2   6    1.26    0.16
 -10  -2  -6   -0.06    0.08
  10  -2   6    0.09    0.11
  10  -2   6   -0.01    0.10
  10   2   6    0.04    0.10
  10   2   6    0.07    0.09
 -10   2  -6    0.09    0.10
  11  -3  -6    0.04    0.10
  11  -3  -6    0.10    0.11
  11   3  -6    0.07    0.10
  11   3  -6    0.08    0.10
 -11   3   6    0.07    0.11
   9  -3  -6    0.02    0.08
   9  -3  -6    0.07    0.08
  -9  -3   6    0.05    0.07
   9   3  -6    0.01    0.08
  -9   3   6    0.05    0.09
   9   3  -6    0.13    0.08
  -7  -3   6    0.31    0.08
   7  -3  -6    0.42    0.10
   7  -3  -6    0.34    0.09
  -7  -3   6    0.40    0.07
   7   3  -6    0.48    0.09
  -7   3   6    0.46    0.11
   7   3  -6    0.37    0.08
   5  -3  -6    1.99    0.09
   5  -3  -6    2.03    0.13
  -5  -3   6    1.97    0.11
   5  -3  -6    2.05    0.13
   5   3  -6    1.99    0.11
   5   3  -6    2.12    0.12
   5   3  -6    1.69    0.12
   5   3  -6    2.02    0.11
  -5   3   6    1.85    0.14
  -5   3   6    1.88    0.13
   5   3  -6    2.05    0.11
   3  -3  -6    3.29    0.14
   3  -3  -6    3.35    0.14
  -3  -3   6    3.10    0.13
   3  -3  -6    3.23    0.10
   3  -3  -6    3.27    0.12
  -3  -3   6    3.47    0.11
  -3   3   6    3.33    0.12
  -3   3   6    3.07    0.15
   3   3  -6    3.37    0.12
   3   3  -6    3.40    0.12
  -3   3   6    3.11    0.16
   3   3  -6    3.08    0.12
   3   3  -6    3.19    0.13
  -1  -3   6    1.54    0.06
   1  -3  -6    1.49    0.09
   1  -3  -6    1.50    0.09
  -1  -3   6    1.33    0.10
   1  -3  -6    1.41    0.06
   1   3  -6    1.22    0.07
   1   3  -6    1.52    0.05
   1   3  -6    1.30    0.08
  -1   3   6    1.57    0.09
  -1   3   6    1.59    0.09
  -1  -3  -6   14.15    0.25
  -1  -3  -6   13.43    0.30
   1  -3   6   14.07    0.26
   1  -3   6   14.05    0.34
   1   3   6   13.91    0.34
   1   3   6   13.68    0.32
  -1   3  -6   13.84    0.30
  -1   3  -6   13.83    0.25
   1   3   6   13.82    0.23
  -3  -3  -6    1.44    0.11
   3  -3   6    1.49    0.12
   3  -3   6    1.54    0.09
   3   3   6    1.51    0.12
   3   3   6    1.48    0.11
  -3   3  -6    1.47    0.06
  -3   3  -6    1.47    0.08
   3   3   6    1.48    0.13
  -3   3  -6    1.48    0.11
  -5  -3  -6    0.31    0.07
   5  -3   6    0.37    0.09
   5  -3   6    0.50    0.08
   5  -3   6    0.65    0.07
  -5   3  -6    0.52    0.08
   5   3   6    0.54    0.10
  -5   3  -6    0.49    0.06
   5   3   6    0.61    0.11
   7  -3   6   20.10    0.53
   7  -3   6   20.89    0.50
  -7  -3  -6   20.07    0.51
  -7   3  -6   19.80    0.48
   7   3   6   20.13    0.52
   7   3   6   20.10    0.52
  -9  -3  -6    9.84    0.38
   9  -3   6   10.35    0.38
   9  -3   6    9.60    0.38
  -9   3  -6    9.07    0.37
   9   3   6    9.06    0.37
   9   3   6    9.69    0.39
  11  -3   6    0.15    0.14
  11   3   6   -0.03    0.12
  11   3   6    0.00    0.11
  10  -4  -6    0.71    0.16
  10  -4  -6    0.75    0.15
  10   4  -6    0.84    0.15
 -10   4   6    0.57    0.15
  10   4  -6    0.79    0.15
   8  -4  -6    2.24    0.20
  -8  -4   6    1.99    0.16
   8  -4  -6    1.49    0.17
   8   4  -6    2.02    0.17
  -8   4   6    2.29    0.22
   8   4  -6    2.05    0.16
  -6  -4   6    2.27    0.14
   6  -4  -6    2.81    0.17
  -6  -4   6    2.89    0.16
   6  -4  -6    2.33    0.16
   6   4  -6    2.57    0.14
   6   4  -6    2.66    0.16
   6   4  -6    2.44    0.15
  -6   4   6    2.49    0.16
   6   4  -6    2.63    0.15
  -6   4   6    2.21    0.18
  -4  -4   6    0.29    0.06
  -4  -4   6    0.26    0.05
   4  -4  -6    0.23    0.05
   4  -4  -6    0.30    0.07
   4  -4  -6    0.36    0.08
  -4   4   6    0.25    0.08
   4   4  -6    0.18    0.06
   4   4  -6    0.15    0.05
   4   4  -6    0.16    0.06
   4   4  -6    0.25    0.05
   4   4  -6    0.23    0.06
  -4   4   6    0.19    0.07
  -2  -4   6    0.04    0.03
  -2  -4   6    0.02    0.03
   2  -4  -6    0.00    0.04
  -2  -4   6    0.08    0.04
   2  -4  -6    0.07    0.04
   2  -4  -6    0.03    0.02
  -2   4   6    0.02    0.04
   2   4  -6    0.06    0.03
  -2   4   6    0.03    0.04
  -2   4   6    0.03    0.06
   2   4  -6    0.06    0.04
   2   4  -6    0.07    0.03
   0  -4   6    3.37    0.11
   0  -4  -6    3.17    0.14
   0  -4  -6    3.36    0.14
   0  -4  -6    3.18    0.09
   0  -4   6    3.06    0.16
   0   4   6    3.04    0.17
   0   4   6    3.40    0.16
   0   4  -6    3.28    0.10
   0   4   6    3.16    0.12
   0   4  -6    3.43    0.15
  -2  -4  -6   31.12    0.58
  -2  -4  -6   32.16    0.58
   2  -4   6   31.69    0.63
   2  -4   6   32.23    0.54
  -2  -4  -6   31.92    0.49
   2   4   6   30.98    0.61
  -2   4  -6   32.60    0.50
  -2   4  -6   31.38    0.58
   2   4   6   31.30    0.62
  -4  -4  -6    2.40    0.16
   4  -4   6    2.06    0.16
  -4  -4  -6    2.78    0.16
   4  -4   6    2.37    0.14
   4   4   6    2.29    0.16
  -4   4  -6    2.47    0.11
  -4   4  -6    2.28    0.15
   4   4   6    2.43    0.17
  -6  -4  -6    2.89    0.18
   6  -4   6    3.22    0.21
   6  -4   6    2.88    0.17
   6   4   6    2.65    0.19
  -6   4  -6    2.84    0.19
   6   4   6    2.63    0.20
   8  -4   6    7.88    0.32
   8  -4   6    7.20    0.34
  -8  -4  -6    7.79    0.33
  -8   4  -6    7.90    0.32
   8   4   6    7.51    0.34
   8   4   6    7.80    0.34
 -10  -4  -6   13.80    0.49
  10  -4   6   13.54    0.49
  10  -4   6   14.45    0.51
  10   4   6   15.08    0.53
  10   4   6   14.23    0.50
   9  -5  -6    4.09    0.27
   9  -5  -6    4.18    0.26
  -9   5   6    3.98    0.28
   9   5  -6    3.79    0.24
   9   5  -6    3.38    0.25
  -7  -5   6    9.65    0.33
   7  -5  -6   10.14    0.34
   7  -5  -6   10.24    0.37
   7   5  -6   10.27    0.30
   7   5  -6   10.54    0.34
   7   5  -6    9.71    0.32
  -7   5   6   10.49    0.39
   7   5  -6    9.89    0.33
  -5  -5   6   41.49    0.72
  -5  -5   6   40.88    0.78
   5  -5  -6   40.40    0.78
   5  -5  -6   41.83    0.73
   5  -5  -6   41.15    0.75
  -5  -5   6   40.50    0.70
  -5   5   6   41.53    0.79
   5   5  -6   41.24    0.71
   5   5  -6   40.66    0.70
  -5   5   6   40.74    0.81
   5   5  -6   41.28    0.76
   5   5  -6   40.54    0.74
   3  -5  -6   23.34    0.51
  -3  -5   6   24.45    0.44
  -3  -5   6   25.27    0.54
   3  -5  -6   24.22    0.50
   3  -5  -6   24.84    0.50
   3   5  -6   24.82    0.44
   3   5  -6   24.80    0.48
  -3   5   6   24.27    0.52
  -3   5   6   23.43    0.55
   1  -5  -6   52.46    0.88
  -1  -5   6   53.18    0.81
   1  -5  -6   52.66    0.86
  -1  -5   6   55.10    0.94
  -1   5   6   53.31    0.90
   1   5  -6   53.33    0.86
  -1   5   6   52.56    0.95
   1   5  -6   53.27    0.77
  -1   5   6   54.87    0.86
  -1  -5  -6   14.59    0.35
  -1  -5  -6   14.42    0.36
   1  -5   6   14.65    0.40
   1  -5   6   14.68    0.32
  -1   5  -6   15.21    0.36
   1   5   6   15.13    0.39
  -1   5  -6   14.82    0.27
   1   5   6   15.02    0.41
   1   5   6   14.88    0.29
  -3  -5  -6    1.52    0.14
  -3  -5  -6    1.30    0.13
   3  -5   6    1.31    0.12
   3  -5   6    1.39    0.16
  -3   5  -6    1.34    0.13
   3   5   6    1.29    0.15
   5  -5   6    2.02    0.14
  -5  -5  -6    1.59    0.16
  -5  -5  -6    1.66    0.16
   5  -5   6    1.94    0.19
   5   5   6    2.16    0.18
   5   5   6    1.96    0.20
  -5   5  -6    2.05    0.17
   7  -5   6    7.64    0.35
   7  -5   6    7.74    0.31
  -7  -5  -6    7.41    0.31
  -7   5  -6    7.89    0.32
   7   5   6    7.48    0.34
   7   5   6    8.39    0.36
  -9  -5  -6    0.60    0.14
   9  -5   6    0.81    0.18
   9  -5   6    1.14    0.17
   9   5   6    0.92    0.17
   9   5   6    1.15    0.20
  -9   5  -6    1.26    0.18
  10  -6  -6    1.77    0.23
   8  -6  -6    0.38    0.13
  -8   6   6    0.37    0.13
   6  -6  -6   58.44    1.08
   6  -6  -6   57.25    1.02
  -6  -6   6   56.82    1.06
   6   6  -6   59.75    1.06
   6   6  -6   58.73    0.97
  -6   6   6   57.55    1.10
  -4  -6   6    0.86    0.13
   4  -6  -6    0.76    0.11
   4  -6  -6    0.67    0.11
   4  -6  -6    0.69    0.10
  -4   6   6    0.81    0.12
   4   6  -6    0.76    0.10
   2  -6  -6    0.21    0.07
  -2  -6   6    0.31    0.09
  -2  -6   6    0.25    0.06
   2  -6  -6    0.47    0.10
   2  -6  -6    0.18    0.07
  -2   6   6    0.28    0.08
  -2   6   6    0.26    0.08
   2   6  -6    0.24    0.06
   0  -6  -6  108.40    1.63
   0  -6  -6  109.13    1.59
   0  -6   6  108.52    1.71
   0  -6   6  110.82    1.56
   0   6   6  106.08    1.67
   0   6   6  107.90    1.55
   0   6  -6  108.61    1.62
   2  -6   6    7.84    0.32
   2  -6   6    8.00    0.25
  -2  -6  -6    6.70    0.26
  -2  -6  -6    7.93    0.26
  -2   6  -6    7.03    0.27
   2   6   6    7.03    0.29
   4  -6   6    3.99    0.24
   4  -6   6    4.10    0.21
  -4  -6  -6    3.94    0.21
  -4  -6  -6    3.88    0.21
  -4   6  -6    3.87    0.22
   4   6   6    3.65    0.24
   6  -6   6   11.92    0.39
  -6  -6  -6   12.44    0.40
  -6  -6  -6   11.74    0.39
   6  -6   6   12.05    0.44
  -6   6  -6   11.31    0.40
   6   6   6   11.75    0.44
   6   6   6   11.94    0.44
   8  -6   6    0.03    0.10
  -8  -6  -6   -0.10    0.08
   8  -6   6    0.02    0.11
  -8  -6  -6   -0.01    0.09
  -8   6  -6    0.05    0.10
   8   6   6   -0.06    0.10
   8   6   6    0.00    0.14
   7  -7  -6    0.37    0.14
  -7  -7   6    0.52    0.13
  -7   7   6    0.38    0.14
   7   7  -6    0.21    0.12
  -5  -7   6    0.32    0.11
   5  -7  -6    0.28    0.11
  -5   7   6    0.42    0.12
   5   7  -6    0.43    0.09
   3  -7  -6    1.24    0.16
  -3  -7   6    1.09    0.17
   3  -7  -6    1.21    0.16
  -3   7   6    1.27    0.15
   3   7  -6    1.03    0.12
  -1  -7   6    1.36    0.17
   1  -7  -6    1.35    0.17
   1  -7  -6    1.22    0.15
   1  -7  -6    1.24    0.13
   1   7  -6    0.88    0.11
  -1   7   6    0.97    0.12
  -1   7   6    1.21    0.16
  -1  -7  -6    6.00    0.26
   1  -7   6    6.04    0.30
  -1  -7  -6    6.34    0.24
  -1   7  -6    5.86    0.25
   1   7   6    5.55    0.28
  -3  -7  -6    2.30    0.16
   3  -7   6    2.58    0.24
  -3  -7  -6    1.93    0.18
   3   7   6    2.68    0.24
  -3   7  -6    2.33    0.19
   5  -7   6    1.63    0.18
  -5  -7  -6    1.79    0.19
  -5  -7  -6    1.32    0.16
   5  -7   6    1.69    0.22
   5   7   6    1.46    0.19
  -5   7  -6    1.70    0.20
  -7  -7  -6    2.17    0.22
   7  -7   6    1.81    0.23
  -7  -7  -6    1.74    0.20
  -7   7  -6    2.25    0.23
   7   7   6    1.38    0.20
   6  -8  -6    0.80    0.15
  -6  -8   6    0.62    0.16
  -6   8   6    0.85    0.17
   4  -8  -6    2.00    0.21
  -4  -8   6    2.23    0.24
   4  -8  -6    2.46    0.23
   4   8  -6    2.28    0.18
  -4   8   6    2.09    0.22
   2  -8  -6    0.59    0.14
  -2  -8   6    0.76    0.16
   2  -8  -6    0.94    0.15
   2   8  -6    0.66    0.12
   0  -8  -6    4.37    0.25
   0  -8   6    3.90    0.28
   0  -8  -6    4.25    0.28
   0   8   6    4.25    0.27
   0   8  -6    3.90    0.22
  -2  -8  -6   46.21    0.91
   2  -8   6   45.87    1.00
   2   8   6   47.06    0.98
  -2   8  -6   45.24    0.90
  -4  -8  -6   10.02    0.39
  -4  -8  -6   10.42    0.36
   4  -8   6   11.33    0.46
   4   8   6   10.40    0.43
  -4   8  -6   11.13    0.41
   6  -8   6    0.06    0.13
  -6  -8  -6    0.14    0.11
  -6  -8  -6   -0.03    0.09
   6   8   6   -0.06    0.12
   3  -9  -6    1.16    0.19
  -3  -9   6    1.37    0.23
   3  -9  -6    1.38    0.20
   3   9  -6    1.59    0.17
   1  -9  -6    4.77    0.32
   1  -9  -6    4.50    0.28
  -1  -9   6    5.12    0.34
   1   9  -6    5.47    0.27
   1  -9   6   11.62    0.48
  -1  -9  -6   11.84    0.43
  -1  -9  -6   11.94    0.49
  -1   9  -6   11.88    0.41
   1   9   6   11.90    0.47
  -3  -9  -6    4.35    0.28
   3  -9   6    4.11    0.33
  -3   9  -6    4.53    0.30
   3   9   6    4.76    0.33
 -12   0   7    0.03    0.11
  12   0  -7    0.18    0.12
  12   0  -7    0.12    0.12
 -10   0   7   -0.10    0.08
  10   0  -7    0.10    0.09
  10   0  -7   -0.03    0.08
   8   0  -7    0.06    0.07
  -8   0   7    0.02    0.07
   8   0  -7    0.05    0.06
   6   0  -7   -0.03    0.04
  -6   0   7   -0.02    0.04
  -6   0   7    0.09    0.04
   6   0  -7   -0.07    0.04
   6   0  -7   -0.07    0.05
   4   0  -7   -0.03    0.03
  -4   0   7    0.02    0.03
   4   0  -7    0.00    0.03
  -4   0   7   -0.01    0.04
   4   0  -7   -0.04    0.03
   2   0  -7   -0.03    0.03
  -2   0   7    0.02    0.03
   2   0  -7   -0.01    0.03
  -2   0   7    0.00    0.02
  -2   0   7   -0.03    0.03
   2   0  -7    0.02    0.03
   2   0  -7    0.01    0.02
   0   0  -7    0.01    0.03
   0   0  -7    0.09    0.02
   0   0  -7    0.04    0.02
   0   0  -7    0.06    0.03
   0   0   7    0.00    0.03
   0   0   7    0.04    0.04
   2   0   7    0.02    0.03
   2   0   7   -0.01    0.03
  -2   0  -7    0.00    0.03
  -2   0  -7    0.01    0.02
  -2   0  -7   -0.04    0.03
   2   0   7    0.01    0.04
   4   0   7   -0.06    0.02
   4   0   7    0.00    0.04
  -4   0  -7    0.01    0.02
  -4   0  -7   -0.04    0.03
   4   0   7    0.01    0.05
   6   0   7   -0.05    0.05
  -6   0  -7   -0.02    0.05
   6   0   7   -0.01    0.06
  -8   0  -7   -0.02    0.06
   8   0   7   -0.04    0.07
   8   0   7   -0.06    0.06
   8   0   7    0.02    0.07
  10   0   7    0.04    0.09
 -10   0  -7    0.01    0.08
  10   0   7   -0.03    0.08
  10   0   7   -0.11    0.09
 -11  -1   7   -0.17    0.08
  11  -1  -7    0.07    0.11
  11  -1  -7   -0.04    0.10
 -11   1   7    0.07    0.11
  11   1  -7   -0.02    0.10
  11   1  -7   -0.10    0.10
   9  -1  -7    1.16    0.14
  -9  -1   7    1.39    0.16
   9  -1  -7    1.52    0.17
   9   1  -7    1.43    0.15
  -9   1   7    1.55    0.17
   9   1  -7    1.49    0.16
  -7  -1   7    0.11    0.06
  -7  -1   7    0.08    0.05
   7  -1  -7    0.07    0.06
   7  -1  -7    0.17    0.07
   7   1  -7    0.02    0.06
  -7   1   7    0.10    0.07
   7   1  -7    0.01    0.05
  -7   1   7    0.03    0.05
   5  -1  -7   36.74    0.65
  -5  -1   7   35.26    0.64
   5  -1  -7   35.70    0.60
  -5  -1   7   36.00    0.60
  -5  -1   7   36.48    0.51
   5  -1  -7   34.77    0.60
  -5   1   7   34.92    0.65
   5   1  -7   35.21    0.58
   5   1  -7   35.05    0.63
   5   1  -7   35.11    0.60
  -5   1   7   35.46    0.61
   3  -1  -7   10.06    0.22
  -3  -1   7   10.47    0.26
  -3  -1   7   10.32    0.19
  -3  -1   7   10.38    0.25
   3  -1  -7   10.06    0.25
   3  -1  -7   10.69    0.22
   3   1  -7   10.37    0.24
   3   1  -7   10.53    0.19
   3   1  -7   10.49    0.23
  -3   1   7   10.08    0.25
  -3   1   7   10.60    0.26
  -3   1   7   10.34    0.15
   3   1  -7   10.80    0.24
   1  -1  -7   15.53    0.26
  -1  -1   7   15.23    0.28
   1  -1  -7   14.98    0.29
   1  -1  -7   15.20    0.27
  -1  -1   7   14.70    0.31
   1   1  -7   14.94    0.27
   1   1  -7   14.35    0.27
  -1   1   7   14.72    0.28
  -1   1   7   15.34    0.27
  -1   1   7   15.47    0.32
   1   1  -7   15.21    0.27
  -1  -1  -7   10.49    0.17
   1  -1   7   10.16    0.24
  -1  -1  -7   10.38    0.22
   1  -1   7   10.42    0.18
  -1  -1  -7    9.98    0.21
   1  -1   7   10.69    0.26
   1   1   7    9.85    0.25
   1   1   7   10.50    0.23
  -1   1  -7   10.46    0.19
   1   1   7   10.26    0.18
  -1   1  -7   10.52    0.21
   1   1   7   10.16    0.24
  -1   1  -7   10.23    0.21
  -3  -1  -7    7.02    0.11
  -3  -1  -7    6.84    0.20
   3  -1   7    6.62    0.22
   3  -1   7    6.98    0.18
   3  -1   7    6.97    0.18
   3   1   7    7.41    0.20
   3   1   7    7.26    0.23
   3   1   7    7.11    0.20
  -3   1  -7    7.12    0.19
  -3   1  -7    6.91    0.17
  -3   1  -7    7.02    0.18
  -5  -1  -7    0.41    0.08
   5  -1   7    0.46    0.05
   5  -1   7    0.34    0.09
   5  -1   7    0.45    0.08
   5   1   7    0.43    0.06
   5   1   7    0.45    0.08
  -5   1  -7    0.37    0.06
  -5   1  -7    0.42    0.06
   5   1   7    0.47    0.08
   7  -1   7    8.75    0.27
   7  -1   7    9.64    0.31
  -7  -1  -7    9.65    0.31
   7  -1   7    9.48    0.34
  -7   1  -7    9.24    0.30
   7   1   7    9.53    0.32
   7   1   7    8.79    0.33
  -7   1  -7    9.02    0.26
   9  -1   7    8.75    0.35
   9  -1   7    8.82    0.32
  -9  -1  -7    8.89    0.34
   9  -1   7    9.38    0.37
  -9   1  -7    8.73    0.33
   9   1   7    9.17    0.36
   9   1   7    9.09    0.36
  11  -1   7    0.36    0.15
  11  -1   7    0.38    0.12
  11  -1   7    0.62    0.16
 -11  -1  -7    0.57    0.15
  11   1   7    0.68    0.17
 -11   1  -7    0.76    0.15
  11   1   7    0.49    0.14
  12  -2  -7    2.17    0.24
  12  -2  -7    2.47    0.26
 -12   2   7    2.29    0.26
  12   2  -7    1.70    0.21
  12   2  -7    1.91    0.22
 -10  -2   7    0.04    0.08
  10  -2  -7   -0.02    0.08
  10  -2  -7   -0.03    0.10
 -10   2   7    0.10    0.10
  10   2  -7   -0.04    0.08
  10   2  -7   -0.06    0.09
  -8  -2   7   20.80    0.50
   8  -2  -7   19.87    0.49
   8  -2  -7   20.05    0.51
  -8   2   7   20.46    0.53
   8   2  -7   20.62    0.50
   8   2  -7   21.05    0.47
   6  -2  -7    1.16    0.10
  -6  -2   7    1.00    0.12
   6  -2  -7    1.07    0.12
   6  -2  -7    1.02    0.11
  -6  -2   7    0.90    0.09
   6   2  -7    1.07    0.10
   6   2  -7    1.25    0.12
  -6   2   7    0.97    0.12
   6   2  -7    0.75    0.09
  -6   2   7    1.04    0.11
   4  -2  -7   43.64    0.71
  -4  -2   7   43.74    0.72
   4  -2  -7   43.93    0.68
   4  -2  -7   44.34    0.61
   4  -2  -7   44.20    0.74
  -4  -2   7   45.78    0.67
  -4   2   7   43.37    0.74
   4   2  -7   42.83    0.70
   4   2  -7   43.43    0.70
   4   2  -7   44.90    0.66
  -4   2   7   44.54    0.76
   4   2  -7   43.46    0.70
  -2  -2   7    0.08    0.02
  -2  -2   7    0.05    0.03
   2  -2  -7    0.12    0.03
   2  -2  -7    0.05    0.03
   2  -2  -7    0.12    0.04
   2   2  -7    0.05    0.03
  -2   2   7    0.09    0.05
  -2   2   7    0.08    0.03
   2   2  -7    0.09    0.03
   2   2  -7    0.05    0.03
  -2   2   7    0.11    0.04
   0  -2  -7   70.47    0.97
   0  -2   7   70.20    0.92
   0  -2  -7   70.68    1.02
   0  -2  -7   70.16    0.99
   0  -2   7   70.14    1.04
   0   2   7   70.12    1.02
   0   2   7   70.12    0.97
   0   2  -7   69.75    0.98
   0   2  -7   69.90    0.94
   0   2   7   70.30    1.07
   0   2  -7   71.28    1.00
  -2  -2  -7   63.29    0.95
  -2  -2  -7   61.36    0.90
   2  -2   7   64.61    0.90
   2  -2   7   61.32    0.99
   2  -2   7   63.11    0.94
  -2   2  -7   62.97    0.86
   2   2   7   65.26    0.98
  -2   2  -7   64.24    0.93
   2   2   7   62.82    0.97
  -2   2  -7   62.52    0.91
   2   2   7   61.96    0.96
   4  -2   7    0.41    0.08
   4  -2   7    0.49    0.07
   4  -2   7    0.31    0.05
  -4  -2  -7    0.30    0.06
   4   2   7    0.42    0.08
   4   2   7    0.38    0.06
  -4   2  -7    0.36    0.05
   4   2   7    0.39    0.08
  -4   2  -7    0.37    0.06
   6  -2   7   23.03    0.55
   6  -2   7   22.44    0.45
   6  -2   7   21.91    0.48
  -6  -2  -7   22.26    0.51
   6   2   7   21.91    0.52
  -6   2  -7   22.49    0.46
   6   2   7   21.51    0.50
  -6   2  -7   22.32    0.45
  -8  -2  -7    1.21    0.15
   8  -2   7    1.27    0.16
   8  -2   7    1.33    0.13
   8  -2   7    1.44    0.16
   8   2   7    1.46    0.17
  -8   2  -7    1.29    0.13
   8   2   7    1.42    0.17
 -10  -2  -7    0.12    0.10
  10  -2   7    0.11    0.11
  10  -2   7    0.07    0.10
  10   2   7    0.17    0.11
  10   2   7    0.15    0.11
  11  -3  -7    4.71    0.30
  11  -3  -7    4.66    0.30
 -11   3   7    4.85    0.33
  11   3  -7    4.65    0.28
  11   3  -7    4.88    0.30
   9  -3  -7    0.35    0.11
  -9  -3   7    0.65    0.12
   9  -3  -7    0.47    0.13
   9   3  -7    0.57    0.12
  -9   3   7    0.49    0.14
   9   3  -7    0.52    0.11
  -7  -3   7    0.21    0.06
   7  -3  -7    0.16    0.08
  -7  -3   7    0.21    0.08
   7  -3  -7    0.27    0.09
   7   3  -7    0.30    0.07
  -7   3   7    0.28    0.07
  -7   3   7    0.40    0.11
   7   3  -7    0.35    0.08
  -5  -3   7   64.62    0.98
   5  -3  -7   64.85    1.04
   5  -3  -7   63.82    0.96
   5  -3  -7   65.41    1.03
   5   3  -7   64.57    0.97
   5   3  -7   64.42    1.00
   5   3  -7   64.09    0.99
  -5   3   7   64.61    1.08
   5   3  -7   65.29    0.97
  -5   3   7   63.88    1.04
   5   3  -7   64.49    1.00
   3  -3  -7    0.98    0.09
  -3  -3   7    1.01    0.08
   3  -3  -7    0.95    0.09
  -3  -3   7    1.10    0.06
   3  -3  -7    1.00    0.06
   3  -3  -7    1.11    0.08
  -3   3   7    1.07    0.08
   3   3  -7    0.92    0.08
   3   3  -7    1.06    0.07
  -3   3   7    0.97    0.10
   3   3  -7    1.03    0.07
  -3   3   7    0.97    0.11
   3   3  -7    1.15    0.09
  -1  -3   7  114.88    1.68
  -1  -3   7  119.23    1.55
   1  -3  -7  119.65    1.57
   1  -3  -7  120.07    1.65
   1  -3  -7  118.05    1.66
  -1   3   7  120.91    1.72
  -1   3   7  119.99    1.64
   1   3  -7  115.86    1.60
  -1   3   7  119.81    1.65
   1   3  -7  118.89    1.55
   1   3  -7  118.63    1.65
  -1  -3  -7   77.32    1.13
   1  -3   7   77.80    1.06
  -1  -3  -7   77.37    1.14
  -1  -3  -7   77.04    1.06
   1  -3   7   75.96    1.18
   1   3   7   76.92    1.04
   1   3   7   77.11    1.19
  -1   3  -7   77.69    1.08
   1   3   7   78.32    1.17
  -1   3  -7   75.86    1.13
  -3  -3  -7   12.91    0.32
  -3  -3  -7   12.97    0.32
   3  -3   7   13.29    0.36
   3  -3   7   13.10    0.29
   3   3   7   12.32    0.34
  -3   3  -7   12.54    0.31
   3   3   7   13.10    0.33
   3   3   7   13.27    0.34
  -3   3  -7   13.05    0.27
  -3   3  -7   12.85    0.22
   5  -3   7   40.84    0.67
   5  -3   7   40.69    0.72
   5  -3   7   41.31    0.80
  -5  -3  -7   40.13    0.75
   5   3   7   40.41    0.78
   5   3   7   40.87    0.71
  -5   3  -7   40.41    0.72
   5   3   7   40.78    0.77
   7  -3   7   17.83    0.51
   7  -3   7   17.53    0.46
  -7  -3  -7   17.78    0.48
   7   3   7   18.50    0.50
  -7   3  -7   18.25    0.45
   7   3   7   18.22    0.49
   9  -3   7   10.63    0.39
   9  -3   7   11.01    0.42
  -9  -3  -7   11.20    0.41
   9   3   7   10.66    0.41
   9   3   7   11.84    0.43
  10  -4  -7    8.17    0.37
  10  -4  -7    8.83    0.37
 -10   4   7    9.20    0.42
  10   4  -7    9.15    0.37
   8  -4  -7    0.09    0.09
   8  -4  -7    0.10    0.08
  -8  -4   7    0.09    0.07
  -8   4   7    0.07    0.09
   8   4  -7    0.01    0.07
   8   4  -7    0.14    0.08
  -6  -4   7   35.47    0.70
   6  -4  -7   34.28    0.69
  -6  -4   7   34.86    0.65
   6  -4  -7   35.35    0.70
   6   4  -7   35.60    0.65
   6   4  -7   35.38    0.64
  -6   4   7   34.46    0.73
   6   4  -7   35.01    0.65
  -6   4   7   35.14    0.68
   6   4  -7   34.66    0.64
   4  -4  -7   24.80    0.41
  -4  -4   7   24.46    0.43
   4  -4  -7   24.55    0.51
   4  -4  -7   24.01    0.50
  -4  -4   7   24.87    0.50
   4  -4  -7   24.49    0.46
  -4   4   7   24.31    0.53
   4   4  -7   24.60    0.45
   4   4  -7   24.01    0.46
   4   4  -7   24.72    0.47
   4   4  -7   25.14    0.46
  -4   4   7   24.65    0.54
  -2  -4   7    0.84    0.06
   2  -4  -7    0.79    0.09
  -2  -4   7    0.83    0.10
   2  -4  -7    0.65    0.08
   2  -4  -7    0.87    0.05
   2   4  -7    0.82    0.05
   2   4  -7    0.70    0.07
  -2   4   7    0.93    0.09
  -2   4   7    0.68    0.09
  -2   4   7    0.72    0.10
   2   4  -7    0.69    0.08
   0  -4   7   54.67    0.92
   0  -4   7   56.64    0.80
   0  -4  -7   54.99    0.88
   0  -4  -7   54.95    0.87
   0  -4  -7   55.77    0.77
   0   4   7   56.32    0.95
   0   4   7   54.31    0.89
   0   4  -7   55.79    0.88
   0   4  -7   55.57    0.80
   0   4   7   54.50    0.82
  -2  -4  -7   14.33    0.34
   2  -4   7   13.90    0.30
  -2  -4  -7   13.96    0.34
  -2  -4  -7   14.12    0.27
   2  -4   7   14.28    0.38
  -2   4  -7   13.94    0.34
  -2   4  -7   13.47    0.27
   2   4   7   13.58    0.37
   2   4   7   14.45    0.37
   4  -4   7   19.67    0.42
  -4  -4  -7   19.39    0.45
  -4  -4  -7   19.70    0.45
   4  -4   7   19.92    0.50
   4   4   7   19.46    0.49
   4   4   7   17.63    0.47
   4   4   7   20.05    0.46
  -4   4  -7   19.65    0.38
  -4   4  -7   18.74    0.44
  -6  -4  -7   45.23    0.86
   6  -4   7   46.08    0.92
   6  -4   7   45.21    0.83
   6   4   7   44.90    0.89
  -6   4  -7   45.51    0.84
  -6   4  -7   46.84    0.77
   6   4   7   44.09    0.88
   8  -4   7    1.35    0.19
  -8  -4  -7    1.59    0.18
   8  -4   7    1.68    0.18
  -8   4  -7    1.75    0.18
   8   4   7    1.47    0.19
   8   4   7    1.62    0.20
  10  -4   7    4.79    0.32
 -10  -4  -7    4.01    0.28
  10  -4   7    4.38    0.29
  10   4   7    4.88    0.33
  10   4   7    3.97    0.29
   9  -5  -7    8.26    0.37
   9  -5  -7    9.10    0.36
   9   5  -7    9.11    0.35
  -9   5   7    9.46    0.42
   7  -5  -7    0.08    0.08
   7  -5  -7    0.07    0.08
  -7  -5   7   -0.03    0.07
   7   5  -7    0.00    0.06
  -7   5   7    0.07    0.09
   7   5  -7   -0.02    0.07
   5  -5  -7   44.10    0.82
  -5  -5   7   41.40    0.71
   5  -5  -7   43.29    0.79
  -5  -5   7   42.10    0.79
  -5   5   7   42.21    0.83
  -5   5   7   43.11    0.84
   5   5  -7   43.34    0.73
   5   5  -7   43.29    0.75
   5   5  -7   41.94    0.75
   3  -5  -7    9.55    0.28
  -3  -5   7    9.31    0.23
   3  -5  -7    9.52    0.28
   3  -5  -7    9.03    0.29
  -3  -5   7    9.41    0.31
   3   5  -7    9.40    0.27
  -3   5   7    9.47    0.30
   3   5  -7    9.64    0.24
  -3   5   7    8.75    0.32
  -3   5   7    9.20    0.27
   1  -5  -7   29.88    0.58
  -1  -5   7   29.73    0.63
   1  -5  -7   29.84    0.56
  -1  -5   7   30.86    0.50
   1   5  -7   29.94    0.56
  -1   5   7   29.98    0.55
  -1   5   7   29.20    0.64
  -1   5   7   29.34    0.59
   1   5  -7   30.32    0.49
   1  -5   7    7.12    0.28
  -1  -5  -7    7.00    0.24
   1  -5   7    7.50    0.21
  -1  -5  -7    7.54    0.24
  -1   5  -7    7.19    0.24
   1   5   7    6.94    0.26
  -1   5  -7    7.26    0.17
   1   5   7    7.94    0.30
   3  -5   7    0.39    0.07
  -3  -5  -7    0.23    0.08
   3  -5   7    0.29    0.10
  -3  -5  -7    0.34    0.08
  -3   5  -7    0.20    0.07
   3   5   7    0.26    0.10
  -3   5  -7    0.28    0.05
  -5  -5  -7    1.42    0.16
   5  -5   7    0.93    0.12
   5  -5   7    1.15    0.16
  -5  -5  -7    1.13    0.14
   5   5   7    1.44    0.18
  -5   5  -7    1.19    0.14
   5   5   7    1.00    0.14
  -7  -5  -7   40.97    0.86
   7  -5   7   39.92    0.90
   7  -5   7   40.01    0.82
  -7  -5  -7   42.60    0.86
   7   5   7   39.74    0.89
   7   5   7   42.29    0.90
  -7   5  -7   41.98    0.84
   9  -5   7    0.05    0.11
  -9  -5  -7    0.10    0.11
   9  -5   7    0.03    0.12
  -9   5  -7    0.02    0.11
   9   5   7   -0.04    0.10
   9   5   7    0.05    0.13
   8  -6  -7    0.30    0.13
   8  -6  -7    0.25    0.11
  -8   6   7    0.34    0.13
   6  -6  -7    4.68    0.25
  -6  -6   7    5.06    0.25
   6  -6  -7    4.61    0.24
  -6   6   7    5.16    0.28
   6   6  -7    4.85    0.22
  -4  -6   7    8.56    0.33
   4  -6  -7    9.18    0.30
   4  -6  -7    9.28    0.32
   4  -6  -7    9.14    0.30
  -4   6   7    8.59    0.32
   4   6  -7    8.90    0.28
  -2  -6   7    0.43    0.11
   2  -6  -7    0.52    0.09
   2  -6  -7    0.47    0.10
   2  -6  -7    0.71    0.11
  -2   6   7    0.58    0.13
  -2   6   7    0.65    0.11
  -2   6   7    0.61    0.10
   2   6  -7    0.40    0.08
   0  -6  -7   22.68    0.48
   0  -6  -7   21.89    0.50
   0  -6   7   22.61    0.56
   0   6  -7   23.00    0.50
   0   6   7   22.37    0.53
   2  -6   7   72.20    1.15
  -2  -6  -7   72.75    1.20
   2  -6   7   72.63    1.28
  -2  -6  -7   74.10    1.18
  -2   6  -7   72.81    1.20
   2   6   7   74.94    1.26
  -4  -6  -7    1.82    0.17
   4  -6   7    2.01    0.21
  -4  -6  -7    1.87    0.17
  -4   6  -7    1.83    0.18
   4   6   7    1.95    0.20
  -6  -6  -7    0.52    0.13
   6  -6   7    0.27    0.09
   6  -6   7    0.27    0.11
  -6  -6  -7    0.47    0.11
   6   6   7    0.23    0.13
   6   6   7    0.33    0.13
  -6   6  -7    0.46    0.12
   8  -6   7    2.17    0.25
  -8  -6  -7    2.24    0.23
  -8  -6  -7    1.73    0.20
   8   6   7    1.88    0.26
  -8   6  -7    1.87    0.21
   8   6   7    2.25    0.26
   7  -7  -7    1.10    0.18
  -7   7   7    1.12    0.19
   5  -7  -7   12.39    0.43
  -5   7   7   12.35    0.43
   5   7  -7   12.67    0.36
  -3  -7   7   13.37    0.44
   3  -7  -7   13.57    0.42
   3  -7  -7   13.30    0.38
   3  -7  -7   12.98    0.41
  -3   7   7   13.94    0.41
   3   7  -7   13.10    0.37
   1  -7  -7   50.70    0.99
  -1  -7   7   50.53    1.01
   1  -7  -7   51.02    0.89
   1  -7  -7   49.84    0.93
  -1   7   7   52.01    0.97
   1   7  -7   51.80    0.91
   1  -7   7   13.14    0.44
  -1  -7  -7   13.49    0.38
  -1  -7  -7   13.34    0.39
  -1   7  -7   13.32    0.39
   1   7   7   14.00    0.44
  -3  -7  -7    4.54    0.23
  -3  -7  -7    4.62    0.25
   3  -7   7    4.34    0.27
  -3   7  -7    5.17    0.26
   3   7   7    4.85    0.28
  -5  -7  -7   11.86    0.39
   5  -7   7   12.10    0.47
  -5  -7  -7   11.90    0.41
   5   7   7   10.53    0.43
  -5   7  -7   11.67    0.41
  -7  -7  -7    0.09    0.10
   7  -7   7    0.15    0.13
  -7  -7  -7    0.12    0.11
  -7   7  -7    0.05    0.12
   7   7   7   -0.19    0.11
   6  -8  -7    0.57    0.15
  -6  -8   7    0.59    0.15
  -6   8   7    0.62    0.16
   4  -8  -7    1.17    0.17
  -4  -8   7    1.14    0.18
  -4   8   7    1.41    0.18
   4   8  -7    1.47    0.16
   2  -8  -7    3.60    0.26
  -2  -8   7    4.00    0.27
   2  -8  -7    4.01    0.25
   2   8  -7    3.77    0.22
   0  -8   7   13.05    0.48
   0  -8  -7   13.58    0.48
   0  -8  -7   13.64    0.43
   0   8   7   13.30    0.46
   0   8  -7   14.05    0.41
  -2  -8  -7    4.60    0.26
  -2  -8  -7    4.08    0.22
   2  -8   7    4.17    0.30
   2   8   7    4.91    0.31
  -2   8  -7    4.07    0.25
  -4  -8  -7    1.99    0.19
   4  -8   7    2.64    0.27
  -4  -8  -7    1.99    0.21
   4   8   7    2.54    0.26
  -4   8  -7    2.07    0.21
  -3  -9   7    9.81    0.45
   3  -9  -7    9.82    0.42
   3  -9  -7    9.57    0.41
   3   9  -7    9.10    0.35
   1  -9  -7    2.97    0.28
  -1  -9   7    2.49    0.27
   1  -9  -7    2.35    0.23
   1   9  -7    2.68    0.21
  -1  -9  -7    1.84    0.25
  -1  -9  -7    1.46    0.20
   1  -9   7    1.98    0.25
   1   9   7    2.05    0.25
  -1   9  -7    1.57    0.18
   3  -9   7    3.34    0.33
  -3  -9  -7    2.58    0.25
   3   9   7    2.85    0.29
 -12   0   8   54.17    1.13
  12   0  -8   54.17    1.07
  12   0  -8   54.51    1.13
 -10   0   8    5.18    0.29
  10   0  -8    4.98    0.28
  10   0  -8    5.66    0.27
   8   0  -8    6.92    0.26
  -8   0   8    6.51    0.28
   8   0  -8    7.55    0.29
   6   0  -8    1.34    0.12
   6   0  -8    1.29    0.12
  -6   0   8    1.25    0.10
   6   0  -8    1.16    0.10
  -6   0   8    1.26    0.12
   4   0  -8   10.74    0.27
  -4   0   8   10.57    0.27
   4   0  -8   10.60    0.23
  -4   0   8   10.39    0.28
   2   0  -8   49.50    0.67
   2   0  -8   47.02    0.74
   2   0  -8   48.93    0.73
  -2   0   8   48.04    0.76
  -2   0   8   49.13    0.78
  -2   0   8   50.32    0.69
   0   0   8   50.93    0.78
   0   0  -8   51.63    0.75
   0   0   8   51.43    0.80
   0   0  -8   51.28    0.75
   0   0  -8   51.88    0.70
   0   0  -8   50.30    0.73
  -2   0  -8   51.24    0.77
  -2   0  -8   51.00    0.77
   2   0   8   49.84    0.82
   2   0   8   51.49    0.75
   2   0   8   51.20    0.79
  -2   0  -8   51.41    0.71
   4   0   8    0.97    0.11
   4   0   8    1.11    0.08
  -4   0  -8    1.19    0.06
  -4   0  -8    1.08    0.09
   4   0   8    1.06    0.10
   6   0   8    1.98    0.14
   6   0   8    2.10    0.16
  -6   0  -8    2.62    0.15
   8   0   8    7.10    0.32
   8   0   8    7.62    0.30
  -8   0  -8    7.76    0.29
 -10   0  -8    0.31    0.11
  10   0   8    0.39    0.13
  10   0   8    0.37    0.13
  11  -1  -8    6.86    0.34
 -11  -1   8    5.76    0.31
  11  -1  -8    5.67    0.30
  11   1  -8    6.19    0.30
 -11   1   8    6.26    0.34
  11   1  -8    6.10    0.32
   9  -1  -8    1.09    0.15
  -9  -1   8    1.07    0.15
   9  -1  -8    1.21    0.15
   9   1  -8    1.06    0.14
  -9   1   8    1.23    0.17
   9   1  -8    1.31    0.15
   7  -1  -8   19.46    0.43
   7  -1  -8   19.17    0.42
   7  -1  -8   19.11    0.47
  -7  -1   8   19.94    0.47
  -7  -1   8   19.75    0.41
   7   1  -8   19.02    0.41
  -7   1   8   18.71    0.48
   7   1  -8   18.47    0.43
   7   1  -8   18.82    0.46
  -7   1   8   18.28    0.41
   5  -1  -8   55.17    0.86
   5  -1  -8   55.11    0.91
   5  -1  -8   54.77    0.85
  -5  -1   8   55.27    0.87
  -5  -1   8   55.50    0.91
   5   1  -8   54.12    0.82
  -5   1   8   54.71    0.88
   5   1  -8   54.43    0.89
   5   1  -8   55.96    0.87
  -5   1   8   54.84    0.92
   3  -1  -8    0.69    0.06
   3  -1  -8    0.63    0.06
  -3  -1   8    0.82    0.09
  -3  -1   8    0.83    0.09
  -3  -1   8    0.76    0.05
   3  -1  -8    0.91    0.09
   3   1  -8    0.87    0.08
  -3   1   8    0.80    0.09
  -3   1   8    0.92    0.09
   3   1  -8    0.66    0.07
   3   1  -8    0.70    0.07
   3   1  -8    0.76    0.05
   1  -1  -8  232.18    3.03
  -1  -1   8  230.50    3.05
   1  -1  -8  236.06    3.02
   1  -1  -8  237.86    3.07
   1   1  -8  232.32    3.03
   1   1  -8  231.74    3.04
   1   1  -8  233.00    3.04
  -1   1   8  230.03    3.11
  -1   1   8  232.26    3.06
  -1   1   8  230.50    3.04
   1  -1   8    9.71    0.18
  -1  -1  -8    9.55    0.21
   1  -1   8    9.34    0.24
  -1  -1  -8    9.65    0.23
  -1  -1  -8    9.68    0.21
  -1  -1  -8    9.72    0.17
   1  -1   8    9.62    0.25
   1   1   8    9.85    0.19
   1   1   8   10.07    0.25
  -1   1  -8    9.72    0.20
   1   1   8    9.43    0.22
   1   1   8   10.03    0.25
  -1   1  -8    9.50    0.19
  -1   1  -8    9.71    0.21
   3  -1   8   12.75    0.28
  -3  -1  -8   12.74    0.28
   3  -1   8   13.07    0.34
   3  -1   8   12.66    0.27
  -3  -1  -8   12.89    0.30
  -3  -1  -8   12.77    0.19
  -3   1  -8   12.27    0.26
   3   1   8   12.74    0.29
  -3   1  -8   12.59    0.28
   3   1   8   12.63    0.29
  -3   1  -8   12.78    0.26
   3   1   8   12.97    0.33
   5  -1   8    4.70    0.22
   5  -1   8    4.73    0.18
   5   1   8    4.84    0.20
  -5   1  -8    4.61    0.16
   5   1   8    4.55    0.21
  -5   1  -8    4.57    0.18
   5   1   8    4.60    0.16
   7  -1   8   14.79    0.45
  -7  -1  -8   15.26    0.42
   7  -1   8   14.79    0.40
   7   1   8   15.15    0.44
   7   1   8   15.07    0.42
  -7   1  -8   15.32    0.39
   9  -1   8   20.60    0.58
  -9  -1  -8   21.06    0.56
   9  -1   8   21.01    0.56
   9   1   8   21.72    0.59
  -9   1  -8   21.55    0.53
   9   1   8   20.96    0.57
 -11  -1  -8    4.83    0.32
  11  -1   8    4.88    0.32
  11  -1   8    4.56    0.31
  11   1   8    4.97    0.33
  11   1   8    5.18    0.32
  12  -2  -8    4.65    0.31
  12  -2  -8    4.71    0.32
 -12   2   8    4.70    0.34
  12   2  -8    4.87    0.30
  12   2  -8    5.00    0.32
  10  -2  -8    0.58    0.14
 -10  -2   8    0.60    0.13
  10  -2  -8    0.68    0.14
  10   2  -8    0.53    0.12
  10   2  -8    0.33    0.11
 -10   2   8    0.59    0.16
  -8  -2   8    3.54    0.21
   8  -2  -8    3.07    0.21
   8  -2  -8    3.56    0.20
  -8   2   8    3.35    0.22
   8   2  -8    3.00    0.19
   8   2  -8    3.42    0.18
   6  -2  -8    1.81    0.12
  -6  -2   8    1.90    0.14
   6  -2  -8    2.06    0.15
  -6  -2   8    1.80    0.12
   6  -2  -8    2.04    0.14
   6   2  -8    1.88    0.11
   6   2  -8    1.92    0.14
  -6   2   8    1.92    0.15
   6   2  -8    2.06    0.14
  -6   2   8    1.95    0.13
   4  -2  -8   12.71    0.29
   4  -2  -8   12.95    0.27
  -4  -2   8   12.92    0.26
  -4  -2   8   12.39    0.31
   4  -2  -8   12.71    0.31
   4  -2  -8   12.36    0.21
  -4   2   8   12.63    0.33
  -4   2   8   12.40    0.32
   4   2  -8   12.54    0.24
   4   2  -8   12.63    0.29
   4   2  -8   12.67    0.29
   4   2  -8   12.33    0.29
   2  -2  -8   14.83    0.29
   2  -2  -8   14.93    0.32
  -2  -2   8   14.91    0.34
   2  -2  -8   14.88    0.28
  -2  -2   8   15.15    0.31
   2   2  -8   15.12    0.29
   2   2  -8   14.87    0.30
  -2   2   8   14.71    0.35
   2   2  -8   15.41    0.28
  -2   2   8   14.95    0.27
  -2   2   8   15.11    0.32
   0  -2  -8    0.99    0.07
   0  -2   8    0.90    0.09
   0  -2  -8    1.04    0.09
   0  -2   8    0.78    0.08
   0  -2   8    1.02    0.03
   0  -2  -8    1.04    0.06
   0   2   8    1.03    0.06
   0   2  -8    0.89    0.07
   0   2   8    1.03    0.10
   0   2  -8    1.01    0.07
   0   2  -8    0.94    0.05
   0   2   8    0.88    0.08
   2  -2   8    0.45    0.05
   2  -2   8    0.49    0.07
  -2  -2  -8    0.49    0.07
  -2  -2  -8    0.43    0.06
  -2  -2  -8    0.37    0.06
   2  -2   8    0.45    0.08
  -2   2  -8    0.59    0.04
  -2   2  -8    0.47    0.06
  -2   2  -8    0.36    0.05
   2   2   8    0.40    0.07
   2   2   8    0.41    0.07
   2   2   8    0.40    0.07
   4  -2   8    1.46    0.09
  -4  -2  -8    1.16    0.11
   4  -2   8    1.17    0.13
   4  -2   8    1.60    0.11
  -4   2  -8    1.52    0.10
   4   2   8    1.36    0.13
   4   2   8    1.21    0.12
  -4   2  -8    1.49    0.09
  -4   2  -8    1.34    0.10
   4   2   8    1.60    0.11
  -6  -2  -8    0.06    0.05
   6  -2   8   -0.03    0.05
   6  -2   8   -0.09    0.05
  -6   2  -8   -0.02    0.05
  -6   2  -8    0.03    0.04
   6   2   8    0.00    0.07
   6   2   8    0.00    0.06
   8  -2   8   16.09    0.45
  -8  -2  -8   16.38    0.47
   8  -2   8   15.11    0.48
   8   2   8   15.93    0.47
   8   2   8   15.65    0.48
  -8   2  -8   15.75    0.43
  10  -2   8    2.01    0.23
 -10  -2  -8    1.92    0.21
  10  -2   8    2.28    0.24
  10   2   8    1.99    0.23
  10   2   8    2.31    0.24
  11  -3  -8    3.57    0.28
  11  -3  -8    4.51    0.30
  11   3  -8    4.30    0.29
 -11   3   8    4.08    0.31
   9  -3  -8    3.01    0.22
  -9  -3   8    2.70    0.20
   9  -3  -8    2.72    0.22
   9   3  -8    2.25    0.18
  -9   3   8    2.85    0.26
   9   3  -8    2.80    0.20
  -7  -3   8    0.50    0.08
  -7  -3   8    0.51    0.10
   7  -3  -8    0.49    0.10
   7  -3  -8    0.33    0.10
   7   3  -8    0.49    0.08
  -7   3   8    0.50    0.09
  -7   3   8    0.40    0.10
   7   3  -8    0.45    0.09
   5  -3  -8   33.41    0.63
   5  -3  -8   32.16    0.61
  -5  -3   8   32.12    0.61
  -5  -3   8   32.30    0.57
   5  -3  -8   32.73    0.55
   5   3  -8   32.03    0.54
  -5   3   8   32.19    0.62
   5   3  -8   32.43    0.59
   5   3  -8   32.58    0.59
  -5   3   8   31.45    0.65
   5   3  -8   31.76    0.58
   3  -3  -8   21.50    0.37
   3  -3  -8   21.01    0.44
  -3  -3   8   21.53    0.34
  -3  -3   8   21.00    0.42
   3  -3  -8   21.55    0.42
  -3   3   8   20.98    0.47
  -3   3   8   21.76    0.38
   3   3  -8   21.14    0.38
  -3   3   8   22.05    0.45
   3   3  -8   21.93    0.40
   3   3  -8   21.49    0.42
   1  -3  -8    0.04    0.04
  -1  -3   8    0.00    0.04
  -1  -3   8    0.05    0.02
   1  -3  -8    0.01    0.02
   1  -3  -8    0.06    0.03
  -1   3   8   -0.03    0.03
   1   3  -8   -0.01    0.02
   1   3  -8    0.01    0.03
  -1   3   8   -0.02    0.05
   1   3  -8   -0.03    0.02
  -1   3   8    0.05    0.04
   1  -3   8    0.32    0.04
  -1  -3  -8    0.32    0.06
  -1  -3  -8    0.38    0.07
   1  -3   8    0.34    0.07
   1   3   8    0.19    0.06
   1   3   8    0.28    0.03
  -1   3  -8    0.46    0.06
   1   3   8    0.36    0.08
  -1   3  -8    0.39    0.06
   3  -3   8    4.43    0.16
  -3  -3  -8    4.45    0.18
  -3  -3  -8    4.20    0.18
  -3  -3  -8    4.39    0.15
   3  -3   8    4.34    0.17
   3  -3   8    4.69    0.21
   3   3   8    4.82    0.20
  -3   3  -8    4.73    0.18
   3   3   8    4.59    0.20
  -3   3  -8    4.36    0.15
   3   3   8    4.66    0.20
   5  -3   8   -0.01    0.07
   5  -3   8    0.01    0.05
  -5  -3  -8    0.02    0.06
   5   3   8   -0.02    0.07
  -5   3  -8    0.02    0.05
   5   3   8    0.08    0.07
   5   3   8    0.00    0.05
  -5   3  -8   -0.03    0.05
   7  -3   8    0.27    0.11
  -7  -3  -8    0.35    0.10
   7  -3   8    0.44    0.10
  -7   3  -8    0.38    0.09
   7   3   8    0.33    0.11
   7   3   8    0.53    0.12
  -9  -3  -8    0.14    0.10
   9  -3   8    0.12    0.10
   9  -3   8    0.02    0.11
   9   3   8    0.02    0.10
   9   3   8   -0.02    0.09
  10  -4  -8    0.13    0.11
 -10  -4   8    0.13    0.10
  10  -4  -8    0.05    0.11
 -10   4   8    0.09    0.11
  10   4  -8    0.05    0.11
   8  -4  -8   24.90    0.61
   8  -4  -8   25.01    0.61
  -8  -4   8   25.07    0.60
   8   4  -8   25.00    0.57
  -8   4   8   25.06    0.65
  -6  -4   8   52.47    0.95
   6  -4  -8   51.50    0.93
  -6  -4   8   50.28    0.87
   6  -4  -8   51.05    0.93
   6   4  -8   52.47    0.88
  -6   4   8   52.23    0.97
   6   4  -8   53.60    0.88
  -6   4   8   52.98    0.93
   6   4  -8   52.06    0.88
   4  -4  -8    8.05    0.26
   4  -4  -8    7.82    0.26
  -4  -4   8    8.18    0.25
   4  -4  -8    8.16    0.20
   4  -4  -8    7.98    0.22
  -4  -4   8    8.22    0.20
   4   4  -8    7.93    0.21
   4   4  -8    7.83    0.23
   4   4  -8    8.23    0.24
  -4   4   8    8.66    0.28
   4   4  -8    7.92    0.22
  -4   4   8    8.09    0.29
   2  -4  -8    1.85    0.12
   2  -4  -8    1.78    0.12
  -2  -4   8    1.77    0.13
   2  -4  -8    1.94    0.08
  -2  -4   8    1.68    0.07
   2   4  -8    1.74    0.11
  -2   4   8    2.01    0.15
  -2   4   8    1.88    0.12
   2   4  -8    1.74    0.10
  -2   4   8    1.85    0.12
   0  -4   8    0.63    0.06
   0  -4  -8    0.46    0.08
   0  -4  -8    0.60    0.05
   0  -4  -8    0.51    0.08
   0  -4   8    0.48    0.09
   0   4  -8    0.45    0.07
   0   4  -8    0.54    0.06
   0   4   8    0.56    0.08
   0   4   8    0.57    0.06
   0   4   8    0.46    0.09
   2  -4   8    5.16    0.23
  -2  -4  -8    4.54    0.19
   2  -4   8    5.07    0.16
  -2  -4  -8    5.31    0.20
  -2  -4  -8    5.25    0.15
   2   4   8    5.03    0.23
  -2   4  -8    4.60    0.19
   2   4   8    5.25    0.22
  -2   4  -8    5.21    0.15
  -4  -4  -8    0.06    0.05
   4  -4   8    0.06    0.05
  -4  -4  -8    0.01    0.05
   4  -4   8    0.09    0.08
  -4   4  -8    0.05    0.06
   4   4   8    0.05    0.07
  -4   4  -8   -0.04    0.04
   4   4   8    0.09    0.06
   4   4   8   -0.07    0.06
   6  -4   8    9.33    0.36
   6  -4   8    9.19    0.31
  -6  -4  -8    8.44    0.32
  -6   4  -8    9.40    0.27
   6   4   8    9.97    0.37
   6   4   8    9.10    0.35
  -6   4  -8    9.73    0.32
  -8  -4  -8    4.79    0.27
   8  -4   8    4.89    0.30
   8  -4   8    4.54    0.25
  -8   4  -8    4.53    0.22
   8   4   8    4.69    0.29
   8   4   8    5.33    0.30
  -8   4  -8    4.27    0.24
  10  -4   8    0.21    0.13
  10  -4   8    0.16    0.14
  10   4   8    0.25    0.14
  10   4   8    0.28    0.16
   9  -5  -8   12.69    0.46
  -9  -5   8   13.29    0.44
   9  -5  -8   12.81    0.44
  -9   5   8   13.01    0.50
   9   5  -8   13.27    0.43
   7  -5  -8    0.19    0.10
   7  -5  -8    0.04    0.09
  -7  -5   8    0.09    0.08
   7   5  -8    0.17    0.08
  -7   5   8    0.04    0.10
   7   5  -8    0.12    0.07
   5  -5  -8   17.86    0.45
   5  -5  -8   17.85    0.46
   5   5  -8   17.75    0.39
  -5   5   8   16.83    0.47
  -5   5   8   18.05    0.48
   5   5  -8   17.46    0.41
  -3  -5   8    4.95    0.22
   3  -5  -8    4.86    0.21
   3  -5  -8    4.63    0.21
   3  -5  -8    4.74    0.20
  -3   5   8    5.62    0.26
   3   5  -8    5.19    0.20
  -3   5   8    4.81    0.19
  -3   5   8    4.71    0.21
   3   5  -8    4.77    0.17
   1  -5  -8    6.26    0.23
  -1  -5   8    6.39    0.26
   1  -5  -8    6.52    0.23
  -1   5   8    6.37    0.21
  -1   5   8    6.13    0.27
   1   5  -8    6.30    0.17
   1   5  -8    6.31    0.22
  -1   5   8    6.35    0.23
  -1  -5  -8   24.60    0.51
   1  -5   8   23.67    0.56
  -1  -5  -8   24.52    0.51
   1  -5   8   24.71    0.47
   1   5   8   23.93    0.57
  -1   5  -8   24.45    0.51
  -1   5  -8   24.25    0.42
   1   5   8   24.95    0.55
   3  -5   8    1.13    0.14
  -3  -5  -8    1.32    0.13
   3  -5   8    1.18    0.11
  -3  -5  -8    1.15    0.13
   3   5   8    1.15    0.14
  -3   5  -8    1.11    0.08
   3   5   8    1.01    0.13
  -3   5  -8    0.94    0.12
  -5  -5  -8    7.08    0.28
   5  -5   8    7.17    0.33
  -5  -5  -8    7.05    0.29
   5   5   8    6.68    0.31
  -5   5  -8    6.56    0.27
   5   5   8    6.60    0.32
  -7  -5  -8   46.39    0.94
  -7  -5  -8   48.09    0.94
   7  -5   8   45.35    0.90
   7  -5   8   47.30    1.00
   7   5   8   47.05    0.98
  -7   5  -8   45.26    0.90
   7   5   8   45.28    0.98
   9  -5   8   -0.10    0.11
  -9  -5  -8   -0.08    0.08
   9  -5   8    0.07    0.14
  -9   5  -8   -0.01    0.10
   9   5   8    0.00    0.13
   9   5   8    0.03    0.12
   8  -6  -8    1.57    0.18
   8  -6  -8    1.64    0.21
  -8   6   8    1.84    0.23
   8   6  -8    1.81    0.17
   6  -6  -8    3.75    0.24
  -6  -6   8    3.98    0.23
   6  -6  -8    3.76    0.22
  -6   6   8    3.68    0.25
   6   6  -8    3.71    0.20
   4  -6  -8    0.50    0.11
  -4  -6   8    0.73    0.12
   4  -6  -8    0.73    0.11
   4   6  -8    0.82    0.11
  -4   6   8    0.72    0.14
  -4   6   8    0.57    0.11
   2  -6  -8    0.66    0.12
   2  -6  -8    0.60    0.10
   2  -6  -8    0.59    0.10
  -2  -6   8    0.54    0.12
   2   6  -8    0.80    0.11
  -2   6   8    0.87    0.15
  -2   6   8    0.85    0.12
  -2   6   8    0.76    0.11
   0  -6  -8    5.22    0.22
   0  -6  -8    4.88    0.22
   0  -6   8    5.12    0.26
   0   6   8    5.59    0.25
   0   6  -8    5.26    0.22
   0   6   8    4.90    0.27
  -2  -6  -8   55.37    0.96
   2  -6   8   54.23    1.05
  -2  -6  -8   56.57    0.98
   2   6   8   56.16    1.03
  -2   6  -8   54.20    0.97
  -4  -6  -8    6.72    0.27
  -4  -6  -8    6.62    0.28
   4  -6   8    6.66    0.33
   4   6   8    7.15    0.32
  -4   6  -8    6.86    0.29
  -6  -6  -8    3.03    0.23
  -6  -6  -8    3.10    0.22
   6  -6   8    2.64    0.25
  -6   6  -8    3.18    0.23
   6   6   8    2.61    0.26
   6   6   8    2.92    0.27
  -8  -6  -8    0.28    0.13
  -8  -6  -8   -0.03    0.09
   8  -6   8    0.25    0.14
   8   6   8    0.18    0.14
   8   6   8    0.22    0.14
  -8   6  -8    0.19    0.12
   7  -7  -8    5.76    0.33
  -7   7   8    5.93    0.34
   7   7  -8    5.60    0.27
  -5  -7   8    1.23    0.17
   5  -7  -8    1.27    0.17
   5  -7  -8    1.08    0.15
   5   7  -8    1.32    0.15
  -5   7   8    1.18    0.17
   3  -7  -8    4.89    0.26
   3  -7  -8    5.28    0.26
   3  -7  -8    5.36    0.25
  -3  -7   8    4.71    0.28
  -3   7   8    5.30    0.26
   3   7  -8    5.11    0.23
  -1  -7   8   28.49    0.69
   1  -7  -8   27.55    0.62
   1  -7  -8   27.32    0.67
   1  -7  -8   27.88    0.59
  -1   7   8   26.90    0.64
   1   7  -8   26.85    0.59
  -1  -7  -8   21.62    0.53
   1  -7   8   20.97    0.59
  -1  -7  -8   20.52    0.50
  -1   7  -8   21.37    0.52
   1   7   8   20.63    0.56
  -3  -7  -8    0.16    0.08
   3  -7   8    0.17    0.11
  -3  -7  -8    0.42    0.12
  -3   7  -8    0.44    0.11
   3   7   8    0.41    0.12
  -5  -7  -8    1.07    0.16
  -5  -7  -8    1.55    0.18
   5  -7   8    1.12    0.20
  -5   7  -8    1.41    0.18
   5   7   8    1.11    0.18
  -7  -7  -8    7.99    0.36
   7  -7   8    7.90    0.42
  -7  -7  -8    8.02    0.38
   7   7   8    8.10    0.42
  -7   7  -8    7.27    0.36
  -6  -8   8    1.42    0.19
   6  -8  -8    1.66    0.22
  -6   8   8    1.38    0.20
   4  -8  -8    0.05    0.11
  -4  -8   8    0.10    0.11
   4   8  -8    0.10    0.08
  -4   8   8    0.19    0.12
   2  -8  -8   10.43    0.40
  -2  -8   8    9.76    0.42
   2  -8  -8   10.28    0.39
   2   8  -8   10.66    0.36
   0  -8  -8   36.16    0.78
   0  -8   8   35.65    0.85
   0  -8  -8   36.45    0.85
   0  -8  -8   35.00    0.76
   0   8  -8   36.33    0.75
   0   8   8   35.68    0.82
  -2  -8  -8    8.79    0.35
   2  -8   8    8.48    0.40
  -2  -8  -8    8.91    0.33
   2   8   8    8.67    0.39
  -2   8  -8    8.75    0.35
   4  -8   8    3.30    0.31
  -4  -8  -8    3.52    0.25
  -4  -8  -8    3.48    0.23
   4   8   8    3.37    0.30
  -4   8  -8    3.59    0.25
   3  -9  -8    1.27    0.19
  -3  -9   8    1.48    0.23
   3   9  -8    1.51    0.18
   1  -9  -8    1.26    0.20
   1  -9  -8    0.95    0.18
  -1  -9   8    0.85    0.19
   1   9  -8    0.76    0.14
  -1   9   8    0.97    0.18
  -1  -9  -8    4.52    0.29
   1  -9   8    4.73    0.34
  -1  -9  -8    4.12    0.33
  -1   9  -8    4.90    0.28
   1   9   8    5.01    0.34
 -12   0   9   -0.04    0.11
  12   0  -9    0.02    0.11
  12   0  -9    0.01    0.11
  10   0  -9    0.16    0.10
  10   0  -9   -0.08    0.09
 -10   0   9   -0.11    0.08
   8   0  -9   -0.09    0.06
  -8   0   9    0.06    0.08
   8   0  -9    0.00    0.06
   6   0  -9   -0.04    0.05
  -6   0   9    0.03    0.04
  -6   0   9   -0.01    0.05
   6   0  -9    0.05    0.05
   6   0  -9   -0.06    0.05
  -4   0   9   -0.07    0.04
   4   0  -9   -0.01    0.03
   4   0  -9    0.01    0.05
  -4   0   9   -0.05    0.04
   4   0  -9    0.01    0.03
   2   0  -9    0.08    0.04
  -2   0   9    0.03    0.04
   2   0  -9    0.00    0.03
  -2   0   9    0.02    0.03
   2   0  -9   -0.01    0.03
   2   0  -9    0.01    0.02
  -2   0   9    0.01    0.04
   0   0   9   -0.03    0.03
   0   0  -9    0.06    0.03
   0   0  -9    0.01    0.03
   0   0  -9    0.04    0.03
   0   0  -9    0.02    0.02
   0   0   9    0.02    0.04
   2   0   9   -0.02    0.04
  -2   0  -9    0.13    0.04
   2   0   9    0.00    0.03
  -2   0  -9   -0.03    0.03
  -2   0  -9    0.00    0.02
   2   0   9    0.02    0.04
  -4   0  -9    0.00    0.04
  -4   0  -9   -0.01    0.03
   4   0   9    0.06    0.04
   4   0   9    0.12    0.06
  -4   0  -9    0.02    0.02
   4   0   9    0.05    0.05
   6   0   9   -0.05    0.05
  -6   0  -9    0.02    0.05
   6   0   9   -0.03    0.06
   8   0   9   -0.11    0.08
  -8   0  -9   -0.01    0.08
   8   0   9    0.10    0.08
  10   0   9    0.08    0.11
 -10   0  -9   -0.01    0.10
  10   0   9    0.07    0.11
  11  -1  -9    9.34    0.37
  11  -1  -9    8.60    0.38
 -11  -1   9    8.45    0.38
  11   1  -9    8.53    0.36
 -11   1   9    8.23    0.39
  11   1  -9    8.12    0.38
   9  -1  -9    2.99    0.20
   9  -1  -9    2.67    0.21
  -9  -1   9    3.45    0.23
   9   1  -9    3.18    0.21
   9   1  -9    2.75    0.18
  -9   1   9    3.26    0.23
   7  -1  -9   17.04    0.40
  -7  -1   9   17.39    0.40
   7  -1  -9   17.14    0.45
   7  -1  -9   17.36    0.41
  -7  -1   9   16.49    0.44
   7   1  -9   17.88    0.44
  -7   1   9   17.74    0.46
   7   1  -9   16.25    0.38
  -7   1   9   17.33    0.40
   7   1  -9   17.26    0.41
   5  -1  -9    3.34    0.14
   5  -1  -9    3.30    0.17
  -5  -1   9    3.45    0.16
  -5  -1   9    3.58    0.18
   5  -1  -9    3.21    0.14
   5   1  -9    3.57    0.13
  -5   1   9    3.26    0.18
   5   1  -9    3.40    0.15
   5   1  -9    3.33    0.17
  -5   1   9    3.40    0.16
   3  -1  -9    0.85    0.07
  -3  -1   9    0.87    0.10
  -3  -1   9    0.74    0.09
   3  -1  -9    0.92    0.07
  -3  -1   9    0.83    0.06
   3  -1  -9    0.86    0.09
  -3   1   9    0.97    0.10
   3   1  -9    0.82    0.05
   3   1  -9    0.96    0.09
   3   1  -9    0.64    0.07
   3   1  -9    0.91    0.08
  -3   1   9    0.98    0.10
  -1  -1   9    0.08    0.04
   1  -1  -9    0.06    0.04
   1  -1  -9    0.06    0.03
   1  -1  -9    0.04    0.03
  -1  -1   9    0.02    0.03
   1   1  -9    0.01    0.03
  -1   1   9    0.04    0.04
   1   1  -9    0.05    0.03
  -1   1   9   -0.03    0.03
  -1   1   9    0.04    0.03
   1   1  -9    0.02    0.03
  -1  -1  -9    1.25    0.06
  -1  -1  -9    1.24    0.07
   1  -1   9    1.28    0.10
  -1  -1  -9    1.35    0.08
   1  -1   9    1.31    0.06
  -1  -1  -9    1.36    0.09
   1  -1   9    1.27    0.10
  -1   1  -9    1.30    0.08
  -1   1  -9    1.27    0.07
  -1   1  -9    1.29    0.07
   1   1   9    1.28    0.09
   1   1   9    1.30    0.11
   1   1   9    1.21    0.06
   1   1   9    1.24    0.10
   3  -1   9    5.21    0.18
  -3  -1  -9    5.32    0.10
   3  -1   9    5.33    0.16
  -3  -1  -9    5.25    0.17
  -3  -1  -9    5.46    0.19
   3  -1   9    5.21    0.21
   3   1   9    4.96    0.21
   3   1   9    5.12    0.18
  -3   1  -9    5.07    0.16
  -3   1  -9    5.30    0.17
   3   1   9    5.39    0.18
  -3   1  -9    5.47    0.15
   5  -1   9    8.18    0.25
   5  -1   9    8.28    0.30
  -5  -1  -9    8.36    0.26
  -5   1  -9    8.07    0.24
  -5   1  -9    8.58    0.22
   5   1   9    8.32    0.30
   5   1   9    8.52    0.27
   5   1   9    8.53    0.23
  -7  -1  -9    2.91    0.19
   7  -1   9    2.99    0.21
   7  -1   9    3.20    0.19
  -7   1  -9    2.94    0.18
   7   1   9    3.19    0.22
   7   1   9    3.08    0.20
  -9  -1  -9    0.16    0.10
   9  -1   9    0.11    0.11
   9  -1   9   -0.02    0.09
   9   1   9    0.21    0.11
   9   1   9   -0.01    0.09
  -9   1  -9    0.15    0.09
  12  -2  -9   16.04    0.54
 -12  -2   9   16.81    0.55
 -10  -2   9    8.51    0.36
  10  -2  -9    9.07    0.36
  10  -2  -9    8.65    0.37
 -10   2   9    9.81    0.41
  10   2  -9    8.81    0.32
  10   2  -9    8.54    0.36
   8  -2  -9    1.60    0.17
   8  -2  -9    1.30    0.15
  -8  -2   9    1.27    0.15
   8   2  -9    1.21    0.15
   8   2  -9    1.17    0.13
  -8   2   9    1.29    0.17
   6  -2  -9   82.14    1.27
   6  -2  -9   82.98    1.33
  -6  -2   9   84.71    1.28
   6  -2  -9   83.00    1.24
  -6  -2   9   82.80    1.33
  -6   2   9   84.22    1.29
  -6   2   9   83.66    1.35
   6   2  -9   84.95    1.27
   6   2  -9   82.53    1.21
   6   2  -9   81.91    1.29
   4  -2  -9    3.28    0.13
  -4  -2   9    3.69    0.12
   4  -2  -9    3.47    0.16
  -4  -2   9    3.62    0.16
   4  -2  -9    3.27    0.14
   4   2  -9    3.51    0.15
  -4   2   9    3.04    0.17
  -4   2   9    3.20    0.16
   4   2  -9    3.52    0.15
   4   2  -9    3.24    0.14
   4   2  -9    3.37    0.11
  -2  -2   9    0.01    0.04
  -2  -2   9   -0.02    0.03
   2  -2  -9    0.09    0.03
   2  -2  -9    0.00    0.03
   2  -2  -9    0.07    0.04
  -2   2   9    0.03    0.04
  -2   2   9    0.04    0.03
   2   2  -9    0.00    0.03
   2   2  -9   -0.01    0.03
   2   2  -9   -0.02    0.03
  -2   2   9    0.07    0.05
   0  -2  -9   29.76    0.47
   0  -2   9   29.13    0.54
   0  -2  -9   29.68    0.52
   0  -2  -9   28.78    0.48
   0  -2   9   29.10    0.54
   0   2   9   28.97    0.46
   0   2  -9   29.18    0.44
   0   2  -9   29.65    0.48
   0   2   9   28.68    0.56
   0   2  -9   29.24    0.49
   0   2   9   27.38    0.51
  -2  -2  -9   67.09    1.02
   2  -2   9   66.54    0.94
  -2  -2  -9   66.87    0.98
   2  -2   9   66.06    1.07
  -2  -2  -9   67.50    1.01
   2  -2   9   67.12    1.02
   2   2   9   67.48    1.06
  -2   2  -9   66.41    0.99
   2   2   9   65.30    1.05
  -2   2  -9   67.13    0.93
  -2   2  -9   67.20    0.98
   2   2   9   67.55    1.03
   4  -2   9    6.13    0.25
   4  -2   9    5.99    0.19
   4  -2   9    6.21    0.20
  -4  -2  -9    6.11    0.22
  -4   2  -9    6.10    0.20
   4   2   9    6.02    0.24
  -4   2  -9    6.05    0.19
   4   2   9    6.04    0.23
   4   2   9    6.59    0.22
  -4   2  -9    6.18    0.17
   6  -2   9   19.68    0.52
  -6  -2  -9   18.78    0.47
   6  -2   9   20.10    0.46
   6   2   9   19.88    0.48
   6   2   9   19.10    0.51
  -6   2  -9   19.06    0.42
  -6   2  -9   19.83    0.42
   8  -2   9    7.50    0.34
   8  -2   9    7.55    0.30
  -8  -2  -9    7.95    0.32
   8   2   9    8.05    0.33
   8   2   9    7.01    0.33
 -10  -2  -9    0.35    0.12
  10  -2   9    0.40    0.14
  10  -2   9    0.33    0.14
  10   2   9    0.10    0.12
  10   2   9    0.37    0.13
 -11  -3   9    0.21    0.13
  11  -3  -9   -0.04    0.11
  11  -3  -9    0.16    0.13
  11   3  -9    0.07    0.10
 -11   3   9    0.10    0.13
   9  -3  -9   15.88    0.47
   9  -3  -9   16.28    0.49
  -9  -3   9   16.48    0.49
   9   3  -9   16.72    0.48
  -9   3   9   16.23    0.52
   7  -3  -9    6.84    0.27
  -7  -3   9    6.68    0.28
  -7  -3   9    6.93    0.25
   7  -3  -9    6.29    0.28
   7   3  -9    6.88    0.26
  -7   3   9    6.93    0.30
   7   3  -9    6.79    0.25
   5  -3  -9   12.17    0.29
  -5  -3   9   12.05    0.29
   5  -3  -9   12.38    0.35
  -5  -3   9   12.03    0.33
   5  -3  -9   12.09    0.32
   5   3  -9   11.98    0.31
  -5   3   9   12.13    0.35
   5   3  -9   12.43    0.31
   5   3  -9   12.16    0.31
  -5   3   9   13.11    0.37
   3  -3  -9    9.61    0.28
  -3  -3   9   10.06    0.26
   3  -3  -9    9.81    0.22
   3  -3  -9   10.10    0.26
   3   3  -9    9.95    0.24
   3   3  -9   10.35    0.23
   3   3  -9    9.84    0.26
  -3   3   9   10.01    0.31
  -3   3   9    9.89    0.22
  -3   3   9    9.44    0.28
  -1  -3   9   21.08    0.44
   1  -3  -9   21.93    0.37
   1  -3  -9   20.62    0.43
   1  -3  -9   21.61    0.41
   1   3  -9   21.70    0.39
  -1   3   9   20.90    0.40
  -1   3   9   22.18    0.42
  -1   3   9   21.34    0.48
   1   3  -9   21.83    0.42
   1   3  -9   21.52    0.34
  -1  -3  -9    5.86    0.19
  -1  -3  -9    6.24    0.21
   1  -3   9    6.22    0.14
   1  -3   9    6.08    0.23
  -1  -3  -9    6.40    0.17
  -1   3  -9    6.22    0.17
   1   3   9    6.01    0.14
   1   3   9    6.08    0.23
   1   3   9    6.05    0.21
  -1   3  -9    5.93    0.19
   3  -3   9    3.16    0.18
  -3  -3  -9    3.12    0.16
  -3  -3  -9    3.25    0.16
   3  -3   9    3.23    0.15
   3  -3   9    3.46    0.14
  -3  -3  -9    3.15    0.13
  -3   3  -9    3.32    0.14
  -3   3  -9    3.37    0.15
   3   3   9    3.28    0.18
   3   3   9    3.10    0.17
   3   3   9    3.30    0.18
   5  -3   9    5.41    0.26
  -5  -3  -9    5.14    0.23
   5  -3   9    5.70    0.21
   5   3   9    5.79    0.25
  -5   3  -9    5.19    0.20
  -5   3  -9    5.43    0.20
   5   3   9    5.28    0.21
   5   3   9    5.29    0.25
   7  -3   9    0.78    0.15
   7  -3   9    0.91    0.13
  -7  -3  -9    0.81    0.13
  -7   3  -9    0.83    0.12
  -7   3  -9    0.80    0.11
   7   3   9    0.94    0.15
   7   3   9    0.93    0.14
   9  -3   9    0.03    0.11
   9  -3   9    0.06    0.11
  -9  -3  -9    0.32    0.11
   9   3   9    0.18    0.12
   9   3   9    0.18    0.12
  10  -4  -9    0.20    0.12
 -10  -4   9    0.22    0.10
  10  -4  -9    0.17    0.12
 -10   4   9    0.18    0.14
  10   4  -9    0.08    0.11
   8  -4  -9   17.51    0.49
  -8  -4   9   16.35    0.48
   8  -4  -9   17.25    0.49
   8   4  -9   17.17    0.46
  -8   4   9   16.95    0.52
   6  -4  -9   51.33    0.94
  -6  -4   9   50.76    0.96
   6  -4  -9   52.93    0.94
  -6  -4   9   52.33    0.93
  -6   4   9   52.59    0.99
   6   4  -9   53.64    0.89
   6   4  -9   53.09    0.89
   6   4  -9   53.06    0.90
  -6   4   9   52.31    0.95
  -4  -4   9    5.76    0.22
   4  -4  -9    6.04    0.23
   4  -4  -9    5.93    0.17
   4  -4  -9    6.10    0.23
   4   4  -9    6.02    0.19
  -4   4   9    6.18    0.26
  -4   4   9    5.77    0.24
   4   4  -9    5.63    0.20
   4   4  -9    5.92    0.20
   2  -4  -9    8.31    0.26
   2  -4  -9    8.38    0.19
  -2  -4   9    8.11    0.26
   2  -4  -9    7.91    0.24
  -2   4   9    8.30    0.24
   2   4  -9    8.33    0.24
   2   4  -9    8.25    0.22
  -2   4   9    8.62    0.25
  -2   4   9    7.98    0.30
   0  -4  -9    0.02    0.03
   0  -4   9   -0.03    0.05
   0  -4  -9   -0.04    0.04
   0  -4  -9    0.01    0.05
   0   4  -9   -0.04    0.04
   0   4   9   -0.05    0.05
   0   4   9   -0.03    0.06
   0   4   9    0.01    0.03
   0   4  -9    0.01    0.03
   2  -4   9  155.63    2.30
  -2  -4  -9  157.48    2.12
   2  -4   9  155.70    2.13
  -2  -4  -9  158.19    2.22
  -2  -4  -9  158.96    2.23
  -2   4  -9  156.50    2.13
   2   4   9  159.06    2.27
   2   4   9  159.51    2.29
  -2   4  -9  156.85    2.22
  -4  -4  -9    0.62    0.09
   4  -4   9    0.58    0.09
  -4  -4  -9    0.86    0.09
   4  -4   9    0.82    0.10
  -4  -4  -9    0.68    0.11
   4  -4   9    0.68    0.12
   4   4   9    0.83    0.13
  -4   4  -9    0.81    0.09
  -4   4  -9    0.70    0.10
   4   4   9    0.61    0.11
   4   4   9    0.58    0.10
   6  -4   9   21.61    0.59
  -6  -4  -9   20.61    0.53
   6  -4   9   20.55    0.49
  -6   4  -9   21.48    0.50
   6   4   9   20.83    0.57
  -6   4  -9   20.59    0.45
   6   4   9   21.26    0.56
   8  -4   9    3.28    0.26
  -8  -4  -9    3.87    0.25
   8  -4   9    3.21    0.22
   8   4   9    3.22    0.26
  -8   4  -9    3.65    0.25
   8   4   9    3.51    0.26
  -8   4  -9    3.52    0.20
  -9  -5   9    3.48    0.24
   9  -5  -9    3.72    0.27
   9  -5  -9    3.31    0.25
  -9   5   9    3.52    0.31
   7  -5  -9    0.11    0.10
  -7  -5   9    0.24    0.10
   7  -5  -9    0.13    0.09
  -7   5   9    0.22    0.11
   7   5  -9    0.10    0.08
  -5  -5   9    1.95    0.15
   5  -5  -9    1.99    0.16
   5  -5  -9    1.95    0.18
   5   5  -9    1.92    0.14
   5   5  -9    1.94    0.14
  -5   5   9    2.33    0.21
  -5   5   9    2.32    0.21
  -3  -5   9    9.44    0.32
   3  -5  -9    9.08    0.28
   3  -5  -9    9.72    0.30
   3  -5  -9    9.60    0.30
  -3   5   9    8.91    0.30
   3   5  -9    9.40    0.28
  -3   5   9    9.61    0.35
   3   5  -9    9.09    0.25
  -3   5   9    9.62    0.28
   1  -5  -9   26.37    0.55
   1  -5  -9   27.06    0.56
  -1  -5   9   27.52    0.60
  -1   5   9   27.85    0.56
   1   5  -9   28.18    0.48
  -1   5   9   27.97    0.52
   1   5  -9   27.55    0.55
  -1   5   9   27.73    0.63
  -1  -5  -9    8.06    0.27
  -1  -5  -9    7.80    0.26
   1  -5   9    7.69    0.30
   1   5   9    8.35    0.29
  -1   5  -9    8.26    0.20
   1   5   9    7.50    0.31
  -1   5  -9    7.62    0.26
   3  -5   9    6.34    0.29
  -3  -5  -9    6.77    0.26
  -3  -5  -9    6.77    0.26
  -3   5  -9    6.34    0.25
   3   5   9    6.70    0.29
   3   5   9    6.50    0.28
  -3   5  -9    6.80    0.20
   5  -5   9   16.43    0.50
  -5  -5  -9   16.04    0.45
  -5  -5  -9   15.53    0.39
  -5  -5  -9   15.61    0.44
   5   5   9   15.64    0.48
  -5   5  -9   15.69    0.43
   5   5   9   15.87    0.49
  -7  -5  -9    0.12    0.08
   7  -5   9   -0.09    0.10
  -7  -5  -9   -0.12    0.09
  -7   5  -9    0.02    0.09
   7   5   9    0.00    0.11
   7   5   9    0.14    0.12
   9  -5   9    3.42    0.34
  -9  -5  -9    3.18    0.29
   9   5   9    3.18    0.30
   9   5   9    3.91    0.31
   8  -6  -9    0.58    0.13
  -8  -6   9    0.48    0.12
   8  -6  -9    0.37    0.15
  -8   6   9    0.33    0.13
   8   6  -9    0.57    0.11
   6  -6  -9    1.04    0.15
   6  -6  -9    1.11    0.15
  -6   6   9    1.30    0.17
  -6   6   9    1.20    0.16
   6   6  -9    1.46    0.15
   4  -6  -9   18.65    0.49
  -4  -6   9   18.05    0.49
   4  -6  -9   18.16    0.47
  -4   6   9   18.23    0.53
  -4   6   9   18.74    0.49
   4   6  -9   19.04    0.45
   2  -6  -9   13.44    0.40
   2  -6  -9   13.38    0.37
   2  -6  -9   12.80    0.37
  -2  -6   9   13.26    0.41
  -2   6   9   12.70    0.36
  -2   6   9   13.30    0.44
  -2   6   9   13.68    0.37
   2   6  -9   13.03    0.36
   0  -6  -9   11.02    0.33
   0  -6  -9   10.93    0.34
   0  -6   9   10.28    0.37
   0   6   9   10.67    0.35
   0   6   9   10.73    0.40
   0   6  -9   10.79    0.33
   2  -6   9    1.14    0.17
  -2  -6  -9    0.99    0.13
  -2  -6  -9    1.06    0.13
   2   6   9    0.88    0.14
   2   6   9    0.97    0.15
  -2   6  -9    0.94    0.12
   4  -6   9    3.21    0.26
  -4  -6  -9    3.59    0.22
  -4  -6  -9    3.36    0.21
  -4   6  -9    3.48    0.22
   4   6   9    3.43    0.24
  -6  -6  -9   13.48    0.44
  -6  -6  -9   13.60    0.45
   6  -6   9   13.61    0.50
   6   6   9   12.83    0.48
  -6   6  -9   12.66    0.42
  -8  -6  -9   -0.09    0.10
   8  -6   9   -0.09    0.12
   8   6   9   -0.08    0.13
  -8   6  -9   -0.03    0.10
   8   6   9    0.01    0.14
   7  -7  -9    0.34    0.14
   7   7  -9    0.38    0.12
  -7   7   9    0.23    0.13
   5  -7  -9    3.01    0.21
   5  -7  -9    3.70    0.25
  -5  -7   9    3.04    0.24
  -5   7   9    3.40    0.25
   5   7  -9    3.27    0.20
   3  -7  -9   12.77    0.41
  -3  -7   9   11.62    0.43
   3  -7  -9   12.01    0.38
   3  -7  -9   12.70    0.40
  -3   7   9   11.82    0.38
   3   7  -9   12.11    0.36
   1  -7  -9   10.91    0.35
   1  -7  -9   12.01    0.39
  -1  -7   9   12.13    0.43
  -1   7   9   11.68    0.40
   1   7  -9   11.27    0.36
  -1  -7  -9    6.08    0.28
   1  -7   9    6.26    0.32
  -1  -7  -9    6.51    0.27
   1   7   9    6.29    0.31
  -1   7  -9    6.20    0.27
  -3  -7  -9    0.01    0.09
   3  -7   9    0.31    0.12
  -3  -7  -9    0.19    0.08
  -3   7  -9    0.11    0.08
   3   7   9    0.06    0.10
  -5  -7  -9    3.31    0.24
   5  -7   9    3.60    0.30
  -5  -7  -9    3.44    0.23
  -5   7  -9    3.05    0.23
   5   7   9    3.42    0.30
   6   8  -9    8.64    0.34
  -6   8   9    9.48    0.42
  -4  -8   9    2.16    0.24
   4  -8  -9    1.60    0.21
   4   8  -9    2.42    0.19
   2  -8  -9    2.11    0.21
  -2  -8   9    1.54    0.21
   2  -8  -9    1.94    0.21
  -2   8   9    1.80    0.20
   2   8  -9    1.94    0.18
   0  -8  -9    7.24    0.37
   0  -8   9    7.48    0.38
   0  -8  -9    7.63    0.33
   0  -8  -9    7.54    0.31
   0   8  -9    7.33    0.31
   0   8   9    7.73    0.36
  -2  -8  -9    0.10    0.10
   2  -8   9   -0.05    0.11
  -2  -8  -9    0.01    0.08
   2   8   9    0.06    0.09
  -2   8  -9    0.04    0.09
  -4  -8  -9    0.19    0.10
   4  -8   9    0.31    0.14
  -4  -8  -9    0.11    0.11
   4   8   9    0.39    0.15
  -4   8  -9    0.21    0.12
   1  -9  -9   21.63    0.62
   1  -9  -9   22.02    0.65
  -1  -9   9   21.67    0.67
   1   9  -9   20.49    0.56
  -1   9   9   20.69    0.62
   1  -9   9    0.06    0.13
  -1  -9  -9    0.08    0.13
  -1  -9  -9    0.04    0.11
   1   9   9    0.04    0.14
 -12   0  10   -0.08    0.12
  12   0 -10    0.17    0.13
  10   0 -10    2.88    0.22
  10   0 -10    3.29    0.24
 -10   0  10    3.09    0.25
   8   0 -10   11.51    0.33
   8   0 -10   11.04    0.37
   8   0 -10   11.19    0.34
  -8   0  10   11.43    0.39
  -6   0  10   33.74    0.69
   6   0 -10   36.05    0.68
   6   0 -10   35.45    0.61
   6   0 -10   35.30    0.64
  -6   0  10   34.89    0.65
   4   0 -10   84.44    1.23
  -4   0  10   83.39    1.29
   4   0 -10   85.21    1.18
  -4   0  10   83.52    1.28
   4   0 -10   84.73    1.26
  -2   0  10   29.79    0.48
  -2   0  10   29.58    0.54
   2   0 -10   29.73    0.52
   2   0 -10   29.52    0.50
   2   0 -10   29.92    0.44
   2   0 -10   30.22    0.50
  -2   0  10   30.43    0.57
   0   0 -10   67.23    0.99
   0   0  10   67.41    1.06
   0   0 -10   69.84    0.97
   0   0  10   69.48    1.03
   0   0 -10   67.87    0.92
   0   0 -10   67.44    0.99
  -2   0 -10   94.67    1.37
  -2   0 -10   97.52    1.31
   2   0  10   98.36    1.35
   2   0  10   97.34    1.45
   2   0  10   95.17    1.41
  -2   0 -10   97.08    1.37
  -4   0 -10    0.02    0.04
   4   0  10   -0.07    0.05
   4   0  10    0.00    0.04
   4   0  10    0.05    0.04
  -4   0 -10    0.00    0.04
   6   0  10   24.48    0.52
  -6   0 -10   24.10    0.51
   6   0  10   23.23    0.58
   8   0  10    0.49    0.14
   8   0  10    0.80    0.14
  -8   0 -10    0.67    0.12
 -10   0 -10    0.97    0.16
  10   0  10    0.91    0.17
  10   0  10    0.88    0.18
  11  -1 -10    0.17    0.10
 -11  -1  10    0.02    0.11
  11  -1 -10   -0.17    0.10
  11   1 -10    0.06    0.11
 -11   1  10   -0.05    0.11
   9  -1 -10    7.43    0.33
   9  -1 -10    7.91    0.31
  -9  -1  10    8.23    0.34
  -9   1  10    7.87    0.35
   9   1 -10    7.33    0.28
   9   1 -10    7.99    0.33
  -7  -1  10    4.71    0.20
   7  -1 -10    4.74    0.21
   7  -1 -10    4.71    0.20
   7  -1 -10    4.02    0.21
  -7  -1  10    4.43    0.23
   7   1 -10    4.50    0.18
  -7   1  10    4.69    0.24
  -7   1  10    4.73    0.21
   7   1 -10    4.61    0.21
   7   1 -10    4.42    0.22
   5  -1 -10  103.37    1.54
   5  -1 -10  104.46    1.49
  -5  -1  10  103.44    1.56
  -5  -1  10  103.04    1.53
   5  -1 -10  102.38    1.47
  -5   1  10  102.06    1.54
   5   1 -10  101.18    1.42
   5   1 -10  104.16    1.50
  -5   1  10  103.93    1.57
   5   1 -10  103.87    1.53
   3  -1 -10   30.07    0.55
  -3  -1  10   29.98    0.57
   3  -1 -10   29.57    0.51
  -3  -1  10   29.89    0.48
   3  -1 -10   29.94    0.49
  -3  -1  10   30.96    0.58
  -3   1  10   30.25    0.44
   3   1 -10   30.25    0.43
   3   1 -10   30.03    0.52
   3   1 -10   30.07    0.53
   3   1 -10   30.53    0.53
  -3   1  10   30.49    0.56
  -3   1  10   29.59    0.58
  -1  -1  10   57.17    0.92
   1  -1 -10   58.38    0.88
   1  -1 -10   59.61    0.82
  -1  -1  10   56.78    0.88
   1  -1 -10   55.85    0.84
  -1   1  10   56.27    0.93
  -1   1  10   57.82    0.86
   1   1 -10   57.98    0.85
   1   1 -10   58.24    0.85
  -1   1  10   57.65    0.87
   1   1 -10   56.17    0.85
  -1  -1 -10   49.67    0.78
  -1  -1 -10   49.25    0.70
   1  -1  10   49.10    0.82
  -1  -1 -10   49.69    0.73
  -1  -1 -10   48.15    0.75
   1  -1  10   49.41    0.69
   1  -1  10   48.33    0.80
   1   1  10   50.08    0.83
  -1   1 -10   49.41    0.73
   1   1  10   49.98    0.76
   1   1  10   49.25    0.72
  -1   1 -10   47.95    0.75
   1   1  10   49.57    0.81
  -1   1 -10   49.92    0.74
   3  -1  10    5.57    0.23
   3  -1  10    5.62    0.19
  -3  -1 -10    5.44    0.18
  -3  -1 -10    5.28    0.19
   3  -1  10    5.55    0.17
  -3   1 -10    5.69    0.17
  -3   1 -10    5.25    0.15
   3   1  10    5.62    0.23
  -3   1 -10    5.19    0.18
   3   1  10    5.56    0.20
   3   1  10    5.28    0.19
  -5  -1 -10   13.49    0.35
   5  -1  10   13.25    0.40
   5  -1  10   13.11    0.33
  -5   1 -10   14.08    0.33
   5   1  10   13.08    0.35
   5   1  10   13.31    0.40
  -5   1 -10   13.28    0.34
   5   1  10   11.99    0.34
  -5   1 -10   13.97    0.29
   7  -1  10    3.02    0.20
   7  -1  10    2.46    0.23
  -7  -1 -10    2.97    0.19
   7   1  10    2.83    0.21
   7   1  10    2.71    0.19
  -7   1 -10    2.90    0.17
  -9  -1 -10   10.36    0.39
   9  -1  10   11.71    0.44
   9  -1  10   11.82    0.40
   9   1  10   11.63    0.42
   9   1  10   10.89    0.43
  -9   1 -10   11.40    0.38
 -10  -2  10    0.18    0.10
  10  -2 -10   -0.02    0.11
  10  -2 -10    0.10    0.11
 -10   2  10    0.02    0.11
  10   2 -10    0.04    0.09
   8  -2 -10    2.62    0.20
  -8  -2  10    2.57    0.20
   8  -2 -10    2.68    0.19
   8   2 -10    2.84    0.19
  -8   2  10    2.46    0.20
   8   2 -10    2.86    0.19
   6  -2 -10   92.24    1.46
   6  -2 -10   93.13    1.40
  -6  -2  10   91.98    1.47
   6  -2 -10   92.61    1.38
  -6  -2  10   93.32    1.43
   6   2 -10   95.44    1.41
  -6   2  10   94.49    1.45
  -6   2  10   93.28    1.49
   6   2 -10   93.64    1.42
   6   2 -10   94.41    1.42
   4  -2 -10    0.67    0.07
   4  -2 -10    0.53    0.07
  -4  -2  10    0.72    0.07
  -4  -2  10    0.63    0.09
   4  -2 -10    0.71    0.10
  -4   2  10    0.73    0.11
   4   2 -10    0.74    0.09
   4   2 -10    0.61    0.08
   4   2 -10    0.61    0.08
  -4   2  10    0.63    0.09
   2  -2 -10    1.19    0.11
   2  -2 -10    0.93    0.07
   2  -2 -10    1.16    0.08
  -2  -2  10    1.22    0.09
  -2  -2  10    0.97    0.10
  -2   2  10    1.11    0.07
   2   2 -10    1.05    0.08
   2   2 -10    1.01    0.09
  -2   2  10    1.07    0.10
   2   2 -10    0.98    0.08
  -2   2  10    0.91    0.11
   0  -2 -10   24.56    0.46
   0  -2 -10   24.58    0.43
   0  -2  10   23.45    0.48
   0  -2 -10   23.85    0.42
   0  -2  10   23.96    0.48
   0   2 -10   24.54    0.44
   0   2 -10   25.15    0.43
   0   2  10   23.27    0.51
   0   2  10   24.29    0.41
   0   2  10   23.89    0.46
   0   2 -10   23.75    0.39
   2  -2  10   15.53    0.36
  -2  -2 -10   15.53    0.34
   2  -2  10   15.88    0.29
   2  -2  10   15.83    0.40
  -2  -2 -10   15.36    0.35
  -2  -2 -10   16.26    0.33
  -2   2 -10   15.61    0.32
  -2   2 -10   15.69    0.28
   2   2  10   15.40    0.38
   2   2  10   16.24    0.38
   2   2  10   15.04    0.36
  -2   2 -10   15.43    0.32
  -4  -2 -10    0.74    0.11
  -4  -2 -10    0.83    0.09
   4  -2  10    0.78    0.08
   4  -2  10    0.82    0.09
   4  -2  10    0.74    0.12
   4   2  10    0.77    0.10
   4   2  10    0.85    0.12
  -4   2 -10    0.70    0.07
   4   2  10    0.98    0.12
  -4   2 -10    0.72    0.08
  -4   2 -10    0.66    0.09
   6  -2  10    4.43    0.25
   6  -2  10    4.48    0.21
  -6  -2 -10    4.63    0.22
   6   2  10    4.23    0.23
   6   2  10    4.53    0.25
  -6   2 -10    4.03    0.19
  -8  -2 -10   -0.07    0.06
   8  -2  10    0.06    0.09
   8  -2  10   -0.02    0.11
   8   2  10    0.16    0.11
   8   2  10    0.12    0.09
  10  -2  10   -0.08    0.11
 -10  -2 -10    0.05    0.10
  10  -2  10    0.04    0.12
  10   2  10   -0.09    0.11
  10   2  10   -0.10    0.12
  11  -3 -10    4.41    0.30
 -11  -3  10    3.57    0.27
  11  -3 -10    3.45    0.28
  11   3 -10    4.17    0.28
 -11   3  10    3.82    0.31
   9  -3 -10   27.52    0.65
  -9  -3  10   27.06    0.67
   9  -3 -10   27.63    0.68
  -9   3  10   26.76    0.70
   9   3 -10   27.55    0.65
  -7  -3  10   11.91    0.35
  -7  -3  10   11.58    0.38
   7  -3 -10   11.76    0.38
   7  -3 -10   12.09    0.36
   7   3 -10   11.83    0.34
  -7   3  10   11.11    0.39
   7   3 -10   11.78    0.35
  -7   3  10   11.48    0.35
   5  -3 -10    0.43    0.07
   5  -3 -10    0.54    0.10
   5  -3 -10    0.39    0.08
  -5  -3  10    0.36    0.09
   5   3 -10    0.28    0.06
   5   3 -10    0.41    0.08
   5   3 -10    0.41    0.08
  -5   3  10    0.41    0.10
  -5   3  10    0.42    0.09
   3  -3 -10    0.33    0.05
  -3  -3  10    0.27    0.06
   3  -3 -10    0.38    0.08
   3  -3 -10    0.33    0.06
  -3  -3  10    0.30    0.08
   3   3 -10    0.28    0.06
   3   3 -10    0.35    0.06
  -3   3  10    0.50    0.06
  -3   3  10    0.37    0.09
  -3   3  10    0.38    0.08
   3   3 -10    0.29    0.06
  -1  -3  10   36.45    0.66
   1  -3 -10   36.82    0.57
   1  -3 -10   37.41    0.65
  -1  -3  10   36.19    0.68
   1  -3 -10   36.34    0.61
   1   3 -10   35.39    0.54
   1   3 -10   35.29    0.59
  -1   3  10   36.02    0.62
  -1   3  10   36.11    0.60
   1   3 -10   35.68    0.62
   1  -3  10    3.79    0.18
  -1  -3 -10    3.63    0.13
  -1  -3 -10    3.71    0.15
   1  -3  10    3.44    0.18
  -1  -3 -10    3.50    0.16
  -1   3 -10    3.37    0.15
  -1   3 -10    3.36    0.13
   1   3  10    3.70    0.17
   1   3  10    3.42    0.18
   3  -3  10   -0.04    0.04
  -3  -3 -10   -0.01    0.05
   3  -3  10    0.03    0.04
  -3  -3 -10   -0.02    0.04
  -3  -3 -10   -0.08    0.04
   3  -3  10    0.02    0.07
   3   3  10   -0.06    0.05
   3   3  10    0.03    0.06
  -3   3 -10    0.02    0.04
  -3   3 -10    0.00    0.04
   3   3  10    0.00    0.06
   5  -3  10   11.36    0.39
   5  -3  10   11.59    0.32
  -5  -3 -10   11.81    0.31
  -5  -3 -10   11.85    0.35
   5   3  10   11.05    0.33
   5   3  10   11.82    0.37
   5   3  10   11.12    0.38
  -5   3 -10   11.38    0.31
  -5   3 -10   11.36    0.31
  -7  -3 -10    0.82    0.13
   7  -3  10    1.24    0.15
   7  -3  10    1.36    0.19
  -7   3 -10    1.09    0.13
   7   3  10    1.08    0.16
   7   3  10    1.18    0.17
   9  -3  10    0.65    0.14
   9  -3  10    0.63    0.16
  -9  -3 -10    0.41    0.12
  -9   3 -10    0.47    0.11
   9   3  10    0.39    0.14
   9   3  10    0.83    0.17
  10  -4 -10   10.62    0.42
  10  -4 -10   10.25    0.42
 -10  -4  10   11.23    0.42
 -10   4  10   10.59    0.46
  10   4 -10   11.14    0.41
  -8  -4  10    1.31    0.17
   8  -4 -10    1.44    0.18
   8  -4 -10    1.17    0.16
  -8   4  10    1.16    0.17
   8   4 -10    1.24    0.15
  -6  -4  10    1.33    0.15
  -6  -4  10    2.09    0.16
   6  -4 -10    1.59    0.17
   6  -4 -10    1.60    0.16
  -6   4  10    1.63    0.18
   6   4 -10    1.60    0.14
   6   4 -10    1.87    0.14
   6   4 -10    1.76    0.15
  -6   4  10    1.53    0.16
   4  -4 -10    5.65    0.23
   4  -4 -10    5.76    0.22
   4  -4 -10    5.49    0.17
  -4  -4  10    5.92    0.22
  -4   4  10    5.43    0.24
   4   4 -10    5.79    0.21
  -4   4  10    5.82    0.26
   4   4 -10    5.60    0.20
  -2  -4  10    2.28    0.15
   2  -4 -10    2.32    0.14
   2  -4 -10    2.27    0.15
   2  -4 -10    2.37    0.10
   2   4 -10    2.51    0.14
  -2   4  10    2.32    0.14
  -2   4  10    2.50    0.13
   2   4 -10    2.23    0.12
  -2   4  10    2.28    0.18
   0  -4  10   12.17    0.35
   0  -4 -10   12.16    0.33
   0  -4 -10   12.56    0.26
   0  -4 -10   12.47    0.32
   0   4  10   12.49    0.38
   0   4  10   12.38    0.33
   0   4 -10   12.97    0.32
   0   4 -10   12.45    0.28
   2  -4  10   14.78    0.42
  -2  -4 -10   14.80    0.31
  -2  -4 -10   14.78    0.36
  -2  -4 -10   14.82    0.38
   2   4  10   14.44    0.41
  -2   4 -10   14.41    0.31
  -2   4 -10   14.28    0.36
   2   4  10   14.47    0.40
   4  -4  10    8.29    0.27
  -4  -4 -10    7.92    0.29
  -4  -4 -10    8.90    0.29
   4  -4  10    8.08    0.33
  -4  -4 -10    8.44    0.24
  -4   4 -10    8.21    0.24
  -4   4 -10    8.79    0.28
   4   4  10    8.21    0.32
   4   4  10    8.27    0.32
   4   4  10    8.57    0.31
  -6  -4 -10    8.42    0.33
  -6  -4 -10    8.64    0.33
   6  -4  10    8.74    0.37
   6   4  10    8.21    0.35
  -6   4 -10    8.75    0.28
   6   4  10    8.44    0.35
  -6   4 -10    8.71    0.30
   8  -4  10    1.96    0.25
  -8  -4 -10    2.09    0.22
  -8   4 -10    2.04    0.18
   8   4  10    1.73    0.22
   8   4  10    1.17    0.18
   9  -5 -10    0.42    0.14
  -9  -5  10    0.89    0.16
   9  -5 -10    0.89    0.18
  -9   5  10    0.90    0.17
  -7  -5  10   -0.09    0.08
   7  -5 -10    0.15    0.10
   7  -5 -10    0.08    0.09
  -7  -5  10   -0.12    0.06
   7   5 -10    0.03    0.07
  -7   5  10    0.06    0.10
   5  -5 -10    1.83    0.17
  -5  -5  10    1.82    0.15
   5  -5 -10    1.88    0.17
  -5   5  10    1.85    0.19
   5   5 -10    1.87    0.15
  -5   5  10    1.59    0.17
   5   5 -10    1.84    0.14
   3  -5 -10    5.42    0.22
   3  -5 -10    5.75    0.23
  -3  -5  10    5.77    0.25
   3  -5 -10    5.58    0.24
   3   5 -10    5.21    0.19
  -3   5  10    5.22    0.21
   3   5 -10    5.36    0.21
  -3   5  10    5.32    0.27
  -3   5  10    5.57    0.24
  -1  -5  10    0.06    0.07
   1  -5 -10    0.07    0.07
   1  -5 -10    0.08    0.06
  -1   5  10    0.28    0.08
  -1   5  10    0.14    0.08
   1   5 -10    0.04    0.06
   1   5 -10    0.07    0.04
  -1  -5 -10   69.58    1.12
   1  -5  10   70.42    1.20
  -1  -5 -10   68.78    1.12
   1   5  10   70.72    1.22
   1   5  10   67.25    1.16
  -1   5 -10   68.05    1.02
  -1   5 -10   69.00    1.11
   3  -5  10    4.87    0.27
  -3  -5 -10    4.67    0.23
  -3  -5 -10    5.45    0.23
  -3   5 -10    5.09    0.23
   3   5  10    4.96    0.26
   3   5  10    5.14    0.26
  -3   5 -10    5.13    0.18
  -5  -5 -10    9.59    0.35
  -5  -5 -10   10.22    0.35
   5  -5  10    9.93    0.40
   5   5  10    9.88    0.39
  -5   5 -10   10.06    0.34
   5   5  10   10.78    0.40
  -7  -5 -10    0.72    0.15
  -7  -5 -10    0.70    0.13
   7  -5  10    0.83    0.18
   7   5  10    0.74    0.16
  -7   5 -10    0.79    0.14
   7   5  10    0.66    0.16
   8  -6 -10   23.61    0.65
   8  -6 -10   23.03    0.62
  -8  -6  10   23.03    0.62
  -8   6  10   23.50    0.68
   8   6 -10   23.56    0.57
   6  -6 -10    1.81    0.20
   6  -6 -10    2.06    0.20
   6   6 -10    1.95    0.18
  -6   6  10    2.01    0.21
  -6   6  10    2.00    0.21
   4  -6 -10    2.67    0.19
   4  -6 -10    2.56    0.20
  -4  -6  10    2.82    0.20
  -4   6  10    2.53    0.24
  -4   6  10    2.84    0.21
   4   6 -10    2.68    0.17
   2  -6 -10   10.54    0.34
   2  -6 -10   11.11    0.35
  -2  -6  10   11.05    0.38
  -2   6  10   10.96    0.35
  -2   6  10   10.94    0.41
   2   6 -10   10.45    0.32
   0  -6 -10    0.85    0.13
   0  -6  10    0.77    0.14
   0  -6 -10    0.73    0.12
   0   6  10    0.87    0.13
   0   6  10    0.68    0.14
   0   6 -10    0.84    0.12
  -2  -6 -10   19.93    0.49
   2  -6  10   19.36    0.55
  -2  -6 -10   18.72    0.48
   2   6  10   19.50    0.55
   2   6  10   18.99    0.53
  -2   6 -10   18.93    0.48
   4  -6  10    0.38    0.13
  -4  -6 -10    0.36    0.11
  -4  -6 -10    0.49    0.11
  -4   6 -10    0.27    0.10
   4   6  10    0.34    0.12
  -6  -6 -10   10.24    0.40
   6  -6  10   11.07    0.46
  -6  -6 -10   10.05    0.38
  -6   6 -10   10.49    0.39
   6   6  10   10.35    0.44
   7  -7 -10    0.17    0.14
   7   7 -10    0.12    0.10
  -7   7  10    0.10    0.13
   5  -7 -10    9.08    0.35
  -5  -7  10    9.62    0.38
   5  -7 -10    9.08    0.37
  -5   7  10    9.44    0.38
   5   7 -10    9.18    0.32
  -3  -7  10    0.97    0.16
   3  -7 -10    0.63    0.13
   3  -7 -10    0.61    0.12
  -3   7  10    0.64    0.15
   3   7 -10    0.78    0.13
   1  -7 -10    7.49    0.30
   1  -7 -10    7.50    0.31
  -1  -7  10    7.57    0.34
  -1   7  10    7.69    0.37
  -1   7  10    8.00    0.33
   1   7 -10    8.18    0.30
   1  -7  10   13.73    0.48
  -1  -7 -10   13.30    0.41
  -1  -7 -10   13.42    0.40
  -1   7 -10   13.35    0.40
   1   7  10   12.71    0.44
   3  -7  10    4.83    0.31
  -3  -7 -10    4.93    0.27
  -3  -7 -10    4.40    0.25
  -3   7 -10    4.41    0.25
   3   7  10    4.82    0.30
  -5  -7 -10    0.88    0.16
   5  -7  10    1.15    0.21
  -5  -7 -10    0.99    0.17
  -5   7 -10    1.13    0.17
   5   7  10    0.96    0.19
   6  -8 -10    8.86    0.41
  -6   8  10    7.94    0.39
  -4  -8  10    7.15    0.36
   4  -8 -10    7.41    0.36
   4   8 -10    7.06    0.31
   2  -8 -10    0.44    0.13
   2  -8 -10    0.58    0.14
  -2  -8  10    0.61    0.16
   2  -8 -10    0.53    0.12
   2   8 -10    0.71    0.14
   0  -8 -10    6.62    0.30
   0  -8 -10    6.00    0.30
   0  -8  10    5.90    0.35
   0   8  10    5.57    0.32
   0   8 -10    6.05    0.29
  -2  -8 -10    0.03    0.09
  -2  -8 -10    0.17    0.10
   2  -8  10    0.09    0.12
   2   8  10    0.12    0.12
  -2   8 -10    0.07    0.10
  -4  -8 -10    6.03    0.33
  -4  -8 -10    6.16    0.31
   4  -8  10    6.22    0.39
   4   8  10    7.42    0.40
 -10   0  11   -0.03    0.10
  10   0 -11   -0.01    0.10
  10   0 -11    0.00    0.09
   8   0 -11   -0.02    0.06
   8   0 -11   -0.08    0.08
   8   0 -11    0.00    0.06
  -8   0  11   -0.05    0.08
  -6   0  11    0.00    0.06
   6   0 -11    0.08    0.07
   6   0 -11   -0.03    0.04
   6   0 -11    0.00    0.06
  -6   0  11    0.04    0.06
   4   0 -11    0.03    0.05
   4   0 -11    0.05    0.04
   4   0 -11    0.00    0.03
  -4   0  11   -0.01    0.04
  -4   0  11    0.09    0.06
  -2   0  11   -0.06    0.03
   2   0 -11   -0.01    0.02
  -2   0  11    0.03    0.04
  -2   0  11    0.05    0.05
   2   0 -11    0.02    0.04
   2   0 -11    0.01    0.03
   2   0 -11    0.03    0.04
   0   0  11    0.04    0.05
   0   0 -11    0.04    0.02
   0   0  11    0.05    0.04
   0   0 -11    0.04    0.03
   0   0 -11    0.05    0.03
   0   0 -11    0.03    0.03
  -2   0 -11    0.00    0.03
  -2   0 -11    0.06    0.04
  -2   0 -11   -0.01    0.04
   2   0  11    0.06    0.05
   2   0  11    0.01    0.04
   2   0  11   -0.03    0.04
  -4   0 -11   -0.06    0.05
   4   0  11   -0.02    0.06
   4   0  11    0.04    0.05
   4   0  11    0.01    0.04
  -4   0 -11    0.00    0.04
  -6   0 -11   -0.09    0.05
   6   0  11    0.05    0.08
   6   0  11    0.00    0.06
  -6   0 -11    0.00    0.05
   8   0  11   -0.04    0.09
  -8   0 -11    0.03    0.08
   8   0  11   -0.02    0.10
  10   0  11   -0.14    0.11
  10   0  11    0.12    0.12
 -10   0 -11    0.01    0.09
 -11  -1  11    7.43    0.37
  11  -1 -11    7.55    0.34
  11  -1 -11    7.53    0.37
 -11   1  11    7.08    0.38
  11   1 -11    7.09    0.36
   9  -1 -11   18.38    0.48
   9  -1 -11   19.00    0.53
  -9  -1  11   18.29    0.54
  -9   1  11   18.57    0.55
   9   1 -11   18.69    0.52
   7  -1 -11    6.97    0.25
   7  -1 -11    7.32    0.29
  -7  -1  11    6.59    0.28
   7  -1 -11    7.28    0.25
  -7  -1  11    6.54    0.25
   7   1 -11    7.08    0.27
  -7   1  11    6.81    0.26
   7   1 -11    6.57    0.25
  -7   1  11    6.87    0.29
   5  -1 -11    6.52    0.20
  -5  -1  11    6.66    0.24
  -5  -1  11    6.98    0.26
   5  -1 -11    6.72    0.22
   5  -1 -11    6.62    0.24
  -5   1  11    6.55    0.25
   5   1 -11    6.34    0.23
   5   1 -11    6.73    0.22
  -5   1  11    6.79    0.25
  -3  -1  11    1.94    0.13
  -3  -1  11    1.77    0.13
   3  -1 -11    1.73    0.12
   3  -1 -11    1.86    0.09
  -3  -1  11    2.04    0.09
   3  -1 -11    1.85    0.10
   3   1 -11    1.80    0.11
  -3   1  11    1.55    0.12
   3   1 -11    1.58    0.10
   3   1 -11    1.80    0.11
  -3   1  11    1.77    0.14
  -3   1  11    1.74    0.07
   1  -1 -11   48.18    0.69
  -1  -1  11   47.55    0.81
   1  -1 -11   47.68    0.73
  -1  -1  11   47.06    0.76
   1  -1 -11   47.06    0.76
   1   1 -11   47.77    0.74
   1   1 -11   46.85    0.73
   1   1 -11   46.47    0.73
  -1   1  11   47.91    0.75
  -1   1  11   45.94    0.81
  -1   1  11   46.68    0.75
  -1  -1 -11    4.91    0.17
  -1  -1 -11    4.62    0.12
  -1  -1 -11    4.55    0.16
  -1  -1 -11    4.38    0.14
   1  -1  11    4.58    0.19
   1  -1  11    4.54    0.19
   1  -1  11    4.59    0.12
  -1   1 -11    4.71    0.15
   1   1  11    4.39    0.18
  -1   1 -11    4.35    0.15
   1   1  11    4.66    0.14
  -1   1 -11    4.63    0.15
   1   1  11    4.83    0.20
   3  -1  11    4.83    0.19
   3  -1  11    4.73    0.16
   3  -1  11    4.63    0.22
  -3  -1 -11    4.71    0.18
  -3  -1 -11    5.15    0.19
   3   1  11    5.22    0.22
  -3   1 -11    5.05    0.15
   3   1  11    4.72    0.18
  -3   1 -11    4.82    0.16
  -3   1 -11    5.09    0.18
   3   1  11    5.12    0.20
   5  -1  11    0.03    0.08
   5  -1  11   -0.03    0.05
  -5  -1 -11    0.02    0.05
  -5  -1 -11   -0.02    0.05
  -5   1 -11   -0.01    0.05
  -5   1 -11   -0.01    0.05
   5   1  11    0.03    0.06
   5   1  11   -0.04    0.06
  -7  -1 -11    1.15    0.14
   7  -1  11    0.95    0.13
   7  -1  11    1.09    0.16
  -7   1 -11    0.94    0.12
  -7   1 -11    1.09    0.14
   7   1  11    1.13    0.15
   7   1  11    0.77    0.14
  -9  -1 -11    5.11    0.28
   9  -1  11    5.05    0.32
   9  -1  11    5.36    0.29
   9   1  11    5.37    0.30
   9   1  11    5.37    0.32
  10  -2 -11    2.54    0.25
 -10  -2  11    2.55    0.24
  10  -2 -11    2.57    0.23
 -10   2  11    2.69    0.27
  10   2 -11    3.04    0.25
   8  -2 -11    1.46    0.16
  -8  -2  11    1.50    0.17
   8  -2 -11    1.45    0.15
   8   2 -11    1.72    0.18
   8   2 -11    1.55    0.15
  -8   2  11    1.74    0.20
   6  -2 -11   19.24    0.48
  -6  -2  11   18.33    0.48
   6  -2 -11   18.85    0.43
   6  -2 -11   18.85    0.42
  -6  -2  11   19.20    0.46
  -6   2  11   19.29    0.47
  -6   2  11   18.86    0.49
   6   2 -11   18.66    0.43
   6   2 -11   18.26    0.43
   6   2 -11   19.06    0.44
  -4  -2  11    5.34    0.22
   4  -2 -11    5.76    0.18
  -4  -2  11    5.47    0.16
   4  -2 -11    5.30    0.18
   4  -2 -11    5.52    0.22
   4   2 -11    4.96    0.19
  -4   2  11    5.63    0.24
  -4   2  11    4.99    0.21
   4   2 -11    5.21    0.19
   4   2 -11    5.47    0.20
   2  -2 -11   11.87    0.26
   2  -2 -11   11.90    0.26
  -2  -2  11   12.02    0.29
   2  -2 -11   11.62    0.30
  -2  -2  11   12.22    0.33
   2   2 -11   12.48    0.27
   2   2 -11   12.32    0.29
  -2   2  11   12.06    0.26
   2   2 -11   12.35    0.28
  -2   2  11   11.79    0.34
  -2   2  11   11.77    0.30
   0  -2  11   40.72    0.72
   0  -2  11   40.63    0.73
   0  -2 -11   40.13    0.64
   0  -2 -11   40.43    0.69
   0  -2 -11   40.17    0.64
   0   2  11   40.54    0.69
   0   2 -11   40.16    0.61
   0   2  11   41.91    0.76
   0   2  11   40.94    0.63
   0   2 -11   39.53    0.65
   0   2 -11   40.05    0.66
  -2  -2 -11   38.23    0.64
   2  -2  11   38.05    0.73
  -2  -2 -11   38.76    0.68
   2  -2  11   39.78    0.70
  -2  -2 -11   38.46    0.65
   2   2  11   38.13    0.68
   2   2  11   38.80    0.72
  -2   2 -11   38.01    0.64
  -2   2 -11   38.43    0.58
  -2   2 -11   38.46    0.63
   2   2  11   37.02    0.70
  -4  -2 -11    2.82    0.15
   4  -2  11    2.79    0.15
  -4  -2 -11    2.79    0.16
   4  -2  11    2.81    0.14
   4  -2  11    2.68    0.19
   4   2  11    3.10    0.18
   4   2  11    2.78    0.16
   4   2  11    2.82    0.18
  -4   2 -11    2.98    0.14
  -4   2 -11    2.96    0.16
   6  -2  11    0.42    0.12
  -6  -2 -11    0.43    0.09
  -6  -2 -11    0.41    0.10
   6   2  11    0.31    0.10
  -6   2 -11    0.40    0.09
   6   2  11    0.45    0.11
   8  -2  11    3.62    0.23
   8  -2  11    3.63    0.28
  -8  -2 -11    3.41    0.23
   8   2  11    3.81    0.26
  -8   2 -11    3.83    0.22
   8   2  11    3.92    0.26
  10  -2  11    0.28    0.15
 -10  -2 -11    0.36    0.13
  10   2  11    0.32    0.16
 -10   2 -11    0.32    0.12
  10   2  11    0.41    0.16
  11  -3 -11    6.70    0.36
  11  -3 -11    6.00    0.35
 -11  -3  11    6.84    0.36
  11   3 -11    7.01    0.36
 -11   3  11    6.82    0.40
   9  -3 -11    0.19    0.11
   9  -3 -11    0.22    0.11
  -9  -3  11    0.31    0.12
   9   3 -11    0.12    0.10
  -9   3  11    0.25    0.13
  -7  -3  11    1.00    0.12
  -7  -3  11    1.04    0.14
   7  -3 -11    1.08    0.15
   7  -3 -11    0.91    0.13
   7  -3 -11    1.00    0.11
   7   3 -11    1.06    0.13
   7   3 -11    0.97    0.12
  -7   3  11    1.05    0.15
  -7   3  11    1.08    0.14
   7   3 -11    0.91    0.12
   5  -3 -11   27.25    0.51
   5  -3 -11   26.57    0.54
  -5  -3  11   27.49    0.59
   5  -3 -11   27.77    0.59
  -5   3  11   28.40    0.61
  -5   3  11   26.98    0.60
   5   3 -11   28.24    0.55
   5   3 -11   27.15    0.53
   5   3 -11   26.74    0.55
  -3  -3  11   21.26    0.49
   3  -3 -11   21.77    0.40
   3  -3 -11   21.87    0.44
   3  -3 -11   19.99    0.47
  -3  -3  11   21.46    0.44
   3   3 -11   21.74    0.43
   3   3 -11   21.39    0.40
  -3   3  11   21.38    0.46
  -3   3  11   22.33    0.52
   3   3 -11   21.02    0.44
   1  -3 -11    4.85    0.19
   1  -3 -11    4.71    0.17
  -1  -3  11    4.57    0.21
   1  -3 -11    4.82    0.15
  -1  -3  11    4.67    0.20
   1   3 -11    4.46    0.16
  -1   3  11    4.53    0.18
  -1   3  11    4.80    0.17
  -1   3  11    4.90    0.23
   1   3 -11    4.59    0.17
  -1  -3 -11  131.47    1.88
  -1  -3 -11  126.31    1.83
   1  -3  11  131.57    1.90
  -1  -3 -11  130.47    1.79
   1  -3  11  130.72    1.93
  -1   3 -11  130.84    1.84
  -1   3 -11  131.39    1.81
   1   3  11  130.64    1.94
   1   3  11  131.88    1.90
  -3  -3 -11    8.15    0.27
   3  -3  11    7.56    0.30
  -3  -3 -11    8.19    0.23
   3  -3  11    8.54    0.27
  -3  -3 -11    8.03    0.26
  -3   3 -11    8.05    0.25
   3   3  11    7.72    0.29
  -3   3 -11    8.14    0.24
   3   3  11    8.06    0.29
   3   3  11    8.01    0.29
  -5  -3 -11    1.98    0.14
  -5  -3 -11    1.37    0.14
   5  -3  11    2.02    0.21
   5   3  11    1.60    0.17
  -5   3 -11    1.51    0.13
   5   3  11    1.75    0.16
  -5   3 -11    1.72    0.14
   5   3  11    1.68    0.19
  -7  -3 -11   11.14    0.39
   7  -3  11   10.65    0.43
  -7   3 -11   11.51    0.35
   7   3  11   11.18    0.41
   7   3  11   11.75    0.43
  -9  -3 -11   20.33    0.58
   9  -3  11   20.82    0.65
   9   3  11   20.41    0.62
  -9   3 -11   19.84    0.52
   9   3  11   20.13    0.63
 -10  -4  11    0.09    0.12
  10  -4 -11    0.25    0.14
  10  -4 -11    0.38    0.14
  10   4 -11    0.19    0.12
 -10   4  11    0.19    0.14
   8  -4 -11   -0.13    0.08
   8  -4 -11    0.10    0.10
  -8  -4  11   -0.02    0.08
   8   4 -11    0.01    0.08
  -8   4  11   -0.11    0.09
  -6  -4  11    1.23    0.16
   6  -4 -11    0.99    0.13
   6  -4 -11    1.13    0.14
  -6  -4  11    1.16    0.14
   6   4 -11    1.16    0.13
  -6   4  11    1.02    0.15
   6   4 -11    1.41    0.15
  -6   4  11    1.42    0.18
  -4  -4  11    3.63    0.21
  -4  -4  11    4.03    0.18
   4  -4 -11    3.94    0.15
   4  -4 -11    4.19    0.19
   4  -4 -11    4.05    0.21
   4   4 -11    3.81    0.18
  -4   4  11    4.12    0.23
  -4   4  11    4.40    0.22
   4   4 -11    4.19    0.18
   2  -4 -11   10.53    0.31
   2  -4 -11   10.15    0.29
  -2  -4  11    9.98    0.31
   2  -4 -11   10.32    0.24
  -2   4  11   10.42    0.29
  -2   4  11   10.03    0.27
   2   4 -11   10.63    0.27
  -2   4  11   10.68    0.36
   2   4 -11   10.15    0.29
   0  -4 -11    0.86    0.11
   0  -4  11    1.24    0.14
   0  -4 -11    1.08    0.08
   0  -4  11    1.08    0.12
   0  -4 -11    0.87    0.10
   0   4 -11    1.12    0.11
   0   4 -11    1.01    0.09
   0   4  11    1.27    0.13
   0   4  11    1.12    0.14
   2  -4  11    3.05    0.21
   2  -4  11    3.73    0.20
  -2  -4 -11    3.73    0.19
  -2  -4 -11    3.59    0.18
  -2  -4 -11    3.59    0.14
  -2   4 -11    3.57    0.15
   2   4  11    3.66    0.20
   2   4  11    3.56    0.22
  -2   4 -11    3.71    0.18
   4  -4  11    0.07    0.09
  -4  -4 -11    0.02    0.05
  -4  -4 -11    0.02    0.06
   4  -4  11   -0.01    0.06
  -4  -4 -11    0.06    0.07
  -4   4 -11    0.01    0.06
   4   4  11    0.06    0.08
   4   4  11   -0.07    0.07
   4   4  11    0.05    0.08
  -4   4 -11   -0.01    0.06
  -6  -4 -11    0.96    0.14
   6  -4  11    1.07    0.18
  -6  -4 -11    0.87    0.12
  -6  -4 -11    1.04    0.15
  -6   4 -11    0.72    0.11
   6   4  11    0.94    0.15
  -6   4 -11    1.17    0.13
   6   4  11    0.72    0.14
  -8  -4 -11    5.99    0.31
   8  -4  11    5.71    0.35
   8   4  11    5.67    0.34
  -8   4 -11    6.00    0.27
   8   4  11    6.49    0.36
   9  -5 -11   -0.11    0.10
   9  -5 -11    0.06    0.11
  -9  -5  11    0.04    0.10
  -9   5  11    0.01    0.12
   7  -5 -11    3.67    0.24
  -7  -5  11    3.63    0.25
  -7  -5  11    3.58    0.23
   7  -5 -11    3.37    0.24
  -7   5  11    3.12    0.24
   7   5 -11    3.20    0.21
   7   5 -11    3.24    0.20
   5  -5 -11    0.41    0.10
   5  -5 -11    0.50    0.11
   5   5 -11    0.55    0.09
  -5   5  11    0.59    0.12
  -5   5  11    0.66    0.13
   5   5 -11    0.50    0.10
  -3  -5  11    7.01    0.26
   3  -5 -11    6.88    0.26
   3  -5 -11    7.34    0.28
  -3   5  11    6.83    0.31
  -3   5  11    6.74    0.26
   3   5 -11    6.84    0.22
   3   5 -11    7.19    0.26
   1  -5 -11   21.89    0.49
   1  -5 -11   22.05    0.51
  -1  -5  11   22.27    0.54
  -1   5  11   21.52    0.49
  -1   5  11   22.20    0.58
   1   5 -11   21.80    0.49
   1   5 -11   21.90    0.43
   1  -5  11   20.25    0.54
  -1  -5 -11   19.94    0.48
  -1  -5 -11   20.71    0.48
  -1   5 -11   20.72    0.47
  -1   5 -11   20.42    0.40
   1   5  11   20.37    0.51
   1   5  11   20.40    0.55
   3  -5  11    5.32    0.29
   3  -5  11    5.42    0.25
  -3  -5 -11    5.41    0.25
  -3  -5 -11    4.84    0.23
  -3   5 -11    5.38    0.19
   3   5  11    5.49    0.27
   3   5  11    5.43    0.27
  -3   5 -11    5.10    0.23
  -5  -5 -11    0.75    0.13
  -5  -5 -11    0.59    0.13
   5  -5  11    0.79    0.16
   5   5  11    0.69    0.14
  -5   5 -11    0.61    0.12
   5   5  11    0.70    0.16
   5   5  11    0.47    0.12
  -7  -5 -11    0.24    0.11
   7  -5  11    0.22    0.13
  -7  -5 -11    0.19    0.11
   7   5  11    0.22    0.15
  -7   5 -11    0.16    0.10
   7   5  11    0.20    0.12
   8  -6 -11    1.94    0.23
   8  -6 -11    1.44    0.19
  -8  -6  11    1.90    0.22
  -8   6  11    2.15    0.25
   8   6 -11    1.87    0.19
   6  -6 -11    0.88    0.16
   6  -6 -11    0.56    0.13
  -6   6  11    0.78    0.15
  -6   6  11    0.75    0.15
   6   6 -11    0.69    0.12
  -4  -6  11    0.08    0.08
   4  -6 -11   -0.03    0.08
   4  -6 -11   -0.01    0.08
  -4   6  11   -0.03    0.09
   4   6 -11    0.13    0.09
  -4   6  11    0.12    0.09
  -2  -6  11    0.54    0.12
   2  -6 -11    0.54    0.10
   2  -6 -11    0.79    0.13
  -2   6  11    0.69    0.12
  -2   6  11    0.62    0.14
   2   6 -11    0.45    0.09
   0  -6 -11    0.46    0.10
   0  -6 -11    0.37    0.10
   0  -6  11    0.36    0.12
   0   6 -11    0.33    0.08
   0   6  11    0.56    0.11
   0   6  11    0.67    0.14
   2  -6  11    2.27    0.23
  -2  -6 -11    2.08    0.19
  -2  -6 -11    2.38    0.18
   2   6  11    2.02    0.21
   2   6  11    2.09    0.20
  -2   6 -11    2.24    0.17
  -4  -6 -11    0.13    0.09
  -4  -6 -11    0.09    0.08
   4  -6  11    0.14    0.12
   4   6  11    0.02    0.10
  -4   6 -11    0.11    0.09
  -6  -6 -11   22.55    0.61
   6  -6  11   24.14    0.71
  -6  -6 -11   23.32    0.62
  -6   6 -11   23.02    0.59
   6   6  11   22.64    0.66
   7  -7 -11    0.36    0.12
   7  -7 -11    0.10    0.13
  -7   7  11    0.30    0.13
   7   7 -11    0.19    0.11
   5  -7 -11    0.40    0.12
   5  -7 -11    0.32    0.11
  -5   7  11    0.45    0.14
   5   7 -11    0.44    0.11
  -5   7  11    0.19    0.13
   3  -7 -11    0.40    0.12
   3  -7 -11    0.19    0.11
  -3  -7  11    0.40    0.13
   3   7 -11    0.35    0.10
  -3   7  11    0.57    0.15
  -1  -7  11    5.99    0.32
   1  -7 -11    6.88    0.30
   1  -7 -11    6.56    0.28
  -1   7  11    6.14    0.34
   1   7 -11    6.73    0.28
  -1   7  11    6.23    0.29
  -1  -7 -11    1.53    0.17
   1  -7  11    1.37    0.19
  -1  -7 -11    1.68    0.18
   1   7  11    1.72    0.21
  -1   7 -11    1.51    0.16
  -3  -7 -11   14.03    0.44
   3  -7  11   14.56    0.52
  -3  -7 -11   14.24    0.45
  -3   7 -11   14.24    0.44
   3   7  11   14.23    0.49
   5  -7  11   13.11    0.52
  -5  -7 -11   13.38    0.45
  -5  -7 -11   12.89    0.45
   5   7  11   14.29    0.53
  -5   7 -11   13.91    0.46
  -4  -8  11    0.48    0.14
   4  -8 -11    0.56    0.16
   4   8 -11    0.41    0.12
  -2  -8  11    3.86    0.29
   2  -8 -11    3.62    0.24
   2  -8 -11    3.45    0.26
   2   8 -11    3.54    0.23
   0  -8 -11    1.09    0.17
   0  -8  11    0.92    0.18
   0  -8 -11    0.79    0.14
   0   8 -11    0.70    0.13
   0   8  11    1.15    0.19
   2  -8  11    1.60    0.24
  -2  -8 -11    1.22    0.17
  -2  -8 -11    1.67    0.19
   2   8  11    1.23    0.19
  -2   8 -11    1.75    0.19
  10   0 -12    0.38    0.14
 -10   0  12    0.62    0.15
   8   0 -12    5.81    0.28
   8   0 -12    5.67    0.25
  -8   0  12    5.72    0.28
   6   0 -12  351.59    4.69
   6   0 -12  350.18    4.64
  -6   0  12  345.51    4.72
  -6   0  12  345.13    4.69
   4   0 -12    2.94    0.14
   4   0 -12    2.88    0.16
  -4   0  12    2.88    0.17
  -4   0  12    3.13    0.17
  -2   0  12    1.15    0.09
   2   0 -12    1.26    0.10
  -2   0  12    1.09    0.10
  -2   0  12    1.21    0.12
   2   0 -12    1.22    0.09
   2   0 -12    1.19    0.09
   0   0 -12    0.03    0.03
   0   0  12    0.11    0.06
   0   0 -12    0.01    0.03
   0   0 -12    0.02    0.04
   0   0 -12    0.06    0.02
   0   0  12    0.06    0.05
   2   0  12   83.51    1.32
   2   0  12   85.18    1.20
  -2   0 -12   84.66    1.16
  -2   0 -12   84.15    1.23
  -2   0 -12   82.41    1.23
   2   0  12   83.91    1.30
  -4   0 -12    0.18    0.06
   4   0  12    0.32    0.07
   4   0  12    0.25    0.07
  -4   0 -12    0.35    0.08
   4   0  12    0.23    0.08
   6   0  12   23.26    0.60
  -6   0 -12   23.61    0.52
   6   0  12   23.78    0.53
  -6   0 -12   23.50    0.52
   8   0  12   12.00    0.41
   8   0  12   12.18    0.46
  -8   0 -12   12.53    0.39
  -8   0 -12   11.90    0.38
 -11  -1  12    0.19    0.13
  11  -1 -12   -0.08    0.12
 -11   1  12    0.12    0.13
  11   1 -12    0.14    0.13
   9  -1 -12   32.36    0.75
   9  -1 -12   32.43    0.68
  -9  -1  12   31.82    0.76
   9   1 -12   32.92    0.74
  -9   1  12   33.04    0.78
   7  -1 -12    0.18    0.07
   7  -1 -12    0.09    0.07
   7  -1 -12    0.08    0.09
  -7  -1  12    0.02    0.06
  -7  -1  12    0.06    0.08
  -7   1  12    0.02    0.04
   7   1 -12    0.06    0.07
   7   1 -12    0.15    0.07
  -7   1  12    0.00    0.06
   5  -1 -12    7.50    0.22
   5  -1 -12    7.47    0.24
  -5  -1  12    7.52    0.27
  -5  -1  12    7.02    0.27
   5  -1 -12    7.50    0.27
   5   1 -12    7.24    0.25
  -5   1  12    7.29    0.27
  -5   1  12    7.15    0.27
   5   1 -12    7.40    0.24
   3  -1 -12    2.47    0.12
  -3  -1  12    2.21    0.15
  -3  -1  12    2.56    0.11
   3  -1 -12    2.50    0.14
  -3  -1  12    2.41    0.16
   3  -1 -12    2.40    0.10
   3   1 -12    2.54    0.14
  -3   1  12    2.63    0.15
  -3   1  12    2.77    0.17
   3   1 -12    2.35    0.13
   3   1 -12    2.28    0.12
  -1  -1  12   -0.01    0.04
   1  -1 -12   -0.05    0.03
   1  -1 -12    0.01    0.03
  -1  -1  12    0.07    0.05
   1  -1 -12    0.00    0.04
   1   1 -12    0.03    0.04
  -1   1  12    0.03    0.04
  -1   1  12    0.06    0.05
   1   1 -12    0.03    0.04
   1   1 -12    0.01    0.04
  -1   1  12    0.03    0.04
   1  -1  12   10.78    0.31
   1  -1  12   10.66    0.31
  -1  -1 -12    9.80    0.27
  -1  -1 -12   10.09    0.25
  -1  -1 -12   10.74    0.22
  -1  -1 -12   10.14    0.23
   1   1  12   10.58    0.23
  -1   1 -12   10.28    0.24
  -1   1 -12   10.33    0.26
   1   1  12   10.97    0.30
   1   1  12   10.84    0.32
  -1   1 -12   10.12    0.24
   3  -1  12    3.92    0.15
  -3  -1 -12    3.78    0.17
   3  -1  12    3.76    0.18
   3  -1  12    3.96    0.21
  -3  -1 -12    3.70    0.17
   3   1  12    3.84    0.19
   3   1  12    4.05    0.20
  -3   1 -12    3.67    0.15
  -3   1 -12    4.07    0.17
   3   1  12    3.76    0.17
  -3   1 -12    4.08    0.14
   5  -1  12   24.23    0.50
  -5  -1 -12   24.30    0.51
   5  -1  12   23.76    0.59
  -5  -1 -12   24.66    0.53
   5   1  12   24.24    0.53
  -5   1 -12   24.60    0.49
   5   1  12   22.95    0.58
  -5   1 -12   24.19    0.51
   7  -1  12    7.07    0.28
  -7  -1 -12    6.82    0.29
   7  -1  12    7.08    0.34
  -7  -1 -12    6.77    0.28
   7   1  12    6.95    0.30
   7   1  12    7.18    0.34
  -7   1 -12    6.97    0.27
  -9  -1 -12    1.19    0.17
   9  -1  12    0.90    0.17
   9  -1  12    1.06    0.20
  -9  -1 -12    1.09    0.16
   9   1  12    0.94    0.18
  -9   1 -12    1.07    0.16
   9   1  12    0.91    0.16
  10  -2 -12    2.86    0.26
 -10  -2  12    2.52    0.26
  10  -2 -12    2.31    0.22
 -10   2  12    3.08    0.28
  10   2 -12    2.56    0.24
   8  -2 -12    7.91    0.33
  -8  -2  12    7.76    0.33
   8  -2 -12    7.54    0.28
   8  -2 -12    7.97    0.30
  -8   2  12    7.93    0.35
   8   2 -12    8.11    0.32
   8   2 -12    7.71    0.30
   6  -2 -12   16.99    0.46
   6  -2 -12   17.43    0.40
  -6  -2  12   17.41    0.45
   6  -2 -12   18.51    0.42
  -6  -2  12   17.24    0.47
  -6   2  12   17.69    0.46
   6   2 -12   18.07    0.43
   6   2 -12   17.69    0.43
  -6   2  12   17.73    0.48
   6   2 -12   18.00    0.43
   4  -2 -12   45.14    0.74
  -4  -2  12   45.26    0.84
  -4  -2  12   44.99    0.83
   4  -2 -12   44.70    0.74
   4  -2 -12   45.73    0.81
   4   2 -12   46.57    0.77
  -4   2  12   46.45    0.82
   4   2 -12   43.88    0.77
   4   2 -12   45.00    0.76
  -4   2  12   45.28    0.85
   2  -2 -12   20.83    0.41
  -2  -2  12   22.47    0.44
  -2  -2  12   21.19    0.49
   2  -2 -12   22.46    0.41
   2  -2 -12   21.48    0.46
   2   2 -12   21.62    0.41
  -2   2  12   22.26    0.41
   2   2 -12   22.05    0.43
  -2   2  12   21.76    0.51
  -2   2  12   21.44    0.45
   2   2 -12   22.35    0.43
   0  -2  12    0.40    0.08
   0  -2 -12    0.33    0.06
   0  -2 -12    0.45    0.06
   0  -2  12    0.41    0.09
   0  -2 -12    0.46    0.06
   0   2 -12    0.37    0.07
   0   2 -12    0.48    0.07
   0   2  12    0.42    0.08
   0   2  12    0.33    0.08
   0   2  12    0.46    0.06
   0   2 -12    0.40    0.05
  -2  -2 -12   76.84    1.13
   2  -2  12   74.71    1.24
  -2  -2 -12   76.37    1.13
   2  -2  12   75.43    1.19
  -2  -2 -12   76.57    1.17
  -2   2 -12   76.03    1.13
  -2   2 -12   74.71    1.12
  -2   2 -12   71.62    1.09
   2   2  12   74.41    1.17
   2   2  12   77.12    1.23
   2   2  12   75.36    1.21
  -4  -2 -12   11.47    0.31
  -4  -2 -12   11.76    0.34
   4  -2  12   11.67    0.32
   4  -2  12   11.87    0.39
  -4   2 -12   11.80    0.29
   4   2  12   11.98    0.38
   4   2  12   11.78    0.34
   4   2  12   12.08    0.35
  -4   2 -12   11.85    0.31
  -6  -2 -12    2.79    0.18
  -6  -2 -12    2.87    0.19
   6  -2  12    2.85    0.25
   6   2  12    2.73    0.20
  -6   2 -12    2.85    0.18
   6   2  12    2.61    0.21
  -8  -2 -12    2.25    0.21
  -8  -2 -12    2.59    0.20
   8  -2  12    3.01    0.28
   8   2  12    2.85    0.24
   8   2  12    2.52    0.23
  -8   2 -12    2.61    0.19
 -11  -3  12    3.90    0.31
  11  -3 -12    3.45    0.29
  11   3 -12    3.14    0.29
   9  -3 -12    1.63    0.19
  -9  -3  12    1.39    0.18
   9  -3 -12    2.00    0.22
   9   3 -12    1.56    0.18
  -9   3  12    1.42    0.20
  -7  -3  12    1.66    0.17
   7  -3 -12    1.82    0.17
   7  -3 -12    1.73    0.19
  -7  -3  12    1.89    0.18
   7  -3 -12    1.95    0.16
   7   3 -12    1.56    0.16
  -7   3  12    1.75    0.18
  -7   3  12    1.85    0.20
   7   3 -12    2.11    0.18
   7   3 -12    1.78    0.17
   5  -3 -12   10.93    0.29
  -5  -3  12   11.18    0.36
   5  -3 -12   11.49    0.32
   5  -3 -12   10.89    0.35
  -5  -3  12   11.43    0.37
   5   3 -12   11.57    0.33
  -5   3  12   11.21    0.36
   5   3 -12   11.65    0.31
   5   3 -12   11.84    0.32
  -5   3  12   10.99    0.37
  -3  -3  12    6.28    0.21
   3  -3 -12    6.25    0.21
   3  -3 -12    6.22    0.24
   3  -3 -12    6.19    0.19
  -3  -3  12    5.90    0.25
  -3   3  12    6.68    0.28
   3   3 -12    6.30    0.21
   3   3 -12    6.25    0.19
  -3   3  12    5.80    0.23
   3   3 -12    6.14    0.22
  -1  -3  12   15.52    0.39
   1  -3 -12   15.54    0.38
   1  -3 -12   15.52    0.35
  -1  -3  12   15.03    0.40
   1  -3 -12   15.01    0.32
  -1   3  12   15.85    0.34
  -1   3  12   16.29    0.36
  -1   3  12   15.36    0.43
   1   3 -12   15.17    0.34
   1   3 -12   15.68    0.36
  -1  -3 -12   29.27    0.54
   1  -3  12   30.01    0.61
  -1  -3 -12   30.02    0.52
  -1  -3 -12   30.29    0.59
   1  -3  12   30.32    0.63
  -1   3 -12   29.68    0.56
   1   3  12   29.24    0.64
  -1   3 -12   30.23    0.54
   1   3  12   30.04    0.60
   3  -3  12    3.87    0.19
  -3  -3 -12    3.24    0.17
  -3  -3 -12    3.54    0.19
  -3  -3 -12    3.91    0.17
   3  -3  12    3.51    0.22
   3   3  12    4.07    0.21
   3   3  12    3.78    0.21
  -3   3 -12    3.89    0.17
  -3   3 -12    3.73    0.17
   3   3  12    3.71    0.20
   5  -3  12    0.48    0.12
  -5  -3 -12    0.57    0.11
  -5  -3 -12    0.43    0.08
  -5  -3 -12    0.39    0.10
  -5   3 -12    0.37    0.08
  -5   3 -12    0.44    0.08
   5   3  12    0.43    0.11
   5   3  12    0.40    0.12
  -7  -3 -12    2.35    0.19
   7  -3  12    1.87    0.23
  -7  -3 -12    2.06    0.20
   7   3  12    2.31    0.24
  -7   3 -12    2.55    0.20
   7   3  12    2.04    0.22
  -9  -3 -12    4.50    0.29
  -9  -3 -12    4.46    0.27
   9  -3  12    4.01    0.33
  -9   3 -12    4.75    0.26
   9   3  12    4.84    0.33
   9   3  12    4.92    0.33
  10  -4 -12    1.34    0.20
 -10  -4  12    1.41    0.20
  10  -4 -12    1.22    0.19
  10   4 -12    1.34    0.18
 -10   4  12    1.52    0.22
  -8  -4  12    4.92    0.28
   8  -4 -12    4.84    0.27
   8  -4 -12    5.00    0.29
  -8   4  12    4.69    0.30
   8   4 -12    4.46    0.25
   6  -4 -12    0.06    0.08
   6  -4 -12    0.06    0.07
  -6  -4  12    0.02    0.07
  -6  -4  12   -0.07    0.09
   6   4 -12    0.04    0.07
  -6   4  12    0.01    0.09
   6   4 -12   -0.01    0.06
  -6   4  12   -0.02    0.09
   4  -4 -12   -0.01    0.07
  -4  -4  12    0.03    0.07
   4  -4 -12    0.03    0.06
  -4  -4  12    0.11    0.06
   4  -4 -12    0.06    0.04
   4   4 -12    0.14    0.07
  -4   4  12   -0.05    0.07
  -4   4  12    0.03    0.07
   4   4 -12    0.00    0.05
  -2  -4  12   17.71    0.44
   2  -4 -12   17.22    0.43
   2  -4 -12   17.34    0.34
   2  -4 -12   17.54    0.40
  -2  -4  12   16.71    0.45
  -2   4  12   16.92    0.40
  -2   4  12   17.31    0.39
   2   4 -12   17.25    0.40
  -2   4  12   16.99    0.48
   2   4 -12   17.22    0.37
   0  -4  12   17.33    0.45
   0  -4  12   17.47    0.46
   0  -4 -12   17.10    0.34
   0  -4 -12   17.00    0.39
   0  -4 -12   17.08    0.42
   0   4 -12   16.83    0.36
   0   4 -12   16.98    0.40
   0   4  12   17.47    0.42
   0   4  12   17.08    0.48
   2  -4  12   14.74    0.45
  -2  -4 -12   15.28    0.33
   2  -4  12   15.73    0.42
  -2  -4 -12   15.77    0.38
  -2  -4 -12   14.98    0.40
  -2   4 -12   15.53    0.38
   2   4  12   15.65    0.46
  -2   4 -12   15.06    0.34
   2   4  12   15.22    0.43
   4  -4  12    1.31    0.14
  -4  -4 -12    1.20    0.12
  -4  -4 -12    1.39    0.15
   4  -4  12    1.31    0.17
  -4  -4 -12    1.34    0.15
   4   4  12    1.47    0.18
   4   4  12    1.32    0.16
   4   4  12    1.43    0.18
  -4   4 -12    1.30    0.12
  -4   4 -12    1.36    0.14
  -6  -4 -12    2.88    0.21
   6  -4  12    2.95    0.24
  -6  -4 -12    2.46    0.17
  -6  -4 -12    2.38    0.20
   6   4  12    2.34    0.23
   6   4  12    2.87    0.26
  -6   4 -12    2.20    0.17
  -6   4 -12    2.80    0.18
  -8  -4 -12    8.55    0.37
  -8  -4 -12    9.56    0.34
   8  -4  12    9.53    0.43
  -8  -4 -12    9.27    0.40
   8   4  12    9.43    0.43
  -8   4 -12    9.17    0.34
   8   4  12    8.57    0.42
   9  -5 -12    2.01    0.23
   9  -5 -12    1.95    0.23
  -9  -5  12    1.89    0.22
  -9   5  12    1.66    0.23
   7  -5 -12    3.55    0.25
   7  -5 -12    3.13    0.24
  -7  -5  12    3.47    0.23
  -7  -5  12    3.43    0.25
   7   5 -12    2.94    0.20
  -7   5  12    3.35    0.26
  -7   5  12    2.96    0.24
   7   5 -12    2.90    0.20
   5  -5 -12    0.01    0.08
   5  -5 -12    0.02    0.07
  -5  -5  12    0.03    0.07
  -5   5  12   -0.11    0.08
   5   5 -12    0.08    0.07
  -5   5  12    0.02    0.10
   5   5 -12   -0.01    0.06
   3  -5 -12    4.86    0.23
   3  -5 -12    5.31    0.25
  -3  -5  12    5.58    0.25
   3   5 -12    5.18    0.23
  -3   5  12    5.51    0.29
  -3   5  12    5.28    0.24
   3   5 -12    5.46    0.21
  -1  -5  12   10.15    0.36
   1  -5 -12   10.96    0.33
   1  -5 -12   11.00    0.35
   1   5 -12   11.11    0.28
  -1   5  12   11.44    0.34
  -1   5  12   11.37    0.41
   1   5 -12   10.69    0.32
  -1  -5 -12    0.06    0.07
   1  -5  12   -0.01    0.07
   1  -5  12    0.08    0.08
  -1  -5 -12    0.01    0.06
   1   5  12    0.14    0.09
  -1   5 -12    0.03    0.06
   1   5  12    0.05    0.08
  -1   5 -12    0.01    0.05
  -3  -5 -12    4.41    0.23
   3  -5  12    4.60    0.28
  -3  -5 -12    4.15    0.22
   3  -5  12    4.46    0.24
  -3   5 -12    4.50    0.18
   3   5  12    4.41    0.25
  -3   5 -12    4.12    0.22
   3   5  12    4.55    0.27
   5  -5  12    1.61    0.20
  -5  -5 -12    2.11    0.21
  -5  -5 -12    1.71    0.18
   5   5  12    1.76    0.21
  -5   5 -12    1.85    0.18
   7  -5  12    0.00    0.13
  -7  -5 -12   -0.01    0.09
  -7  -5 -12    0.22    0.12
  -7   5 -12   -0.05    0.09
   7   5  12    0.42    0.16
   7   5  12    0.07    0.12
   8  -6 -12    3.56    0.28
   8  -6 -12    3.08    0.28
  -8  -6  12    3.61    0.27
   8   6 -12    3.48    0.23
  -8   6  12    4.01    0.31
   6  -6 -12   34.35    0.78
   6  -6 -12   34.88    0.79
  -6  -6  12   36.28    0.82
  -6   6  12   35.82    0.84
  -6   6  12   35.68    0.82
   6   6 -12   34.52    0.74
   4  -6 -12    2.09    0.20
   4  -6 -12    1.93    0.19
  -4  -6  12    1.90    0.18
  -4   6  12    1.97    0.23
   4   6 -12    1.79    0.17
  -4   6  12    1.83    0.19
   2  -6 -12    0.43    0.10
  -2  -6  12    0.60    0.13
   2  -6 -12    0.61    0.12
   2   6 -12    0.40    0.10
  -2   6  12    0.51    0.14
   0  -6 -12    3.31    0.21
   0  -6 -12    3.29    0.20
   0  -6  12    3.35    0.24
   0   6 -12    3.43    0.20
   0   6  12    3.42    0.22
   0   6  12    3.49    0.26
  -2  -6 -12    2.14    0.18
  -2  -6 -12    2.37    0.19
   2  -6  12    2.79    0.26
   2   6  12    2.35    0.24
  -2   6 -12    2.32    0.18
   2   6  12    2.33    0.22
   4  -6  12    6.88    0.35
  -4  -6 -12    6.01    0.29
  -4  -6 -12    6.67    0.29
   4   6  12    6.19    0.33
  -4   6 -12    6.50    0.29
   6  -6  12    2.25    0.27
  -6  -6 -12    2.24    0.22
  -6  -6 -12    2.03    0.21
   6   6  12    2.22    0.25
  -6   6 -12    2.35    0.23
   7  -7 -12    0.17    0.12
  -7  -7  12    0.09    0.12
   7  -7 -12    0.04    0.13
   7   7 -12    0.01    0.10
  -7   7  12    0.05    0.13
   5  -7 -12    0.48    0.13
   5  -7 -12    0.40    0.13
   5   7 -12    0.21    0.10
  -5   7  12    0.13    0.12
  -5   7  12    0.41    0.14
   3  -7 -12    1.92    0.19
   3  -7 -12    1.65    0.18
  -3  -7  12    2.01    0.21
  -3   7  12    1.97    0.23
   3   7 -12    2.39    0.19
   1  -7 -12    2.54    0.20
   1  -7 -12    2.53    0.20
  -1  -7  12    2.74    0.26
   1   7 -12    2.49    0.20
  -1   7  12    2.29    0.22
  -1   7  12    2.16    0.24
  -1  -7 -12   -0.01    0.09
   1  -7  12   -0.04    0.10
  -1  -7 -12   -0.03    0.08
   1   7  12    0.04    0.09
   1   7  12    0.06    0.12
  -1   7 -12    0.07    0.09
  -3  -7 -12    1.51    0.17
   3  -7  12    1.53    0.23
  -3  -7 -12    2.06    0.21
  -3   7 -12    1.81    0.19
   3   7  12    2.36    0.25
   5  -7  12    1.37    0.23
  -5  -7 -12    1.71    0.21
  -5  -7 -12    1.22    0.18
  -5   7 -12    1.38    0.19
   5   7  12    1.61    0.23
   4  -8 -12    4.39    0.28
   4  -8 -12    4.35    0.29
  -4  -8  12    4.41    0.30
   4   8 -12    4.03    0.25
   2  -8 -12    0.01    0.09
  -2  -8  12    0.35    0.14
   2  -8 -12   -0.10    0.09
   2   8 -12    0.07    0.10
   0  -8 -12    0.09    0.11
   0  -8 -12    0.00    0.10
   0  -8  12   -0.04    0.10
   0   8 -12   -0.05    0.10
   0   8  12   -0.11    0.10
   2  -8  12    8.34    0.43
  -2  -8 -12    8.10    0.36
  -2  -8 -12    7.31    0.34
   2   8  12    8.06    0.40
 -10   0  13    0.00    0.10
  10   0 -13    0.02    0.10
  -8   0  13   -0.01    0.07
   8   0 -13   -0.04    0.06
   8   0 -13    0.03    0.09
  -6   0  13   -0.05    0.06
   6   0 -13    0.02    0.07
  -6   0  13    0.00    0.06
   6   0 -13    0.02    0.06
  -4   0  13   -0.01    0.05
   4   0 -13   -0.02    0.05
  -4   0  13   -0.04    0.06
   4   0 -13    0.01    0.04
  -2   0  13   -0.06    0.05
   2   0 -13    0.05    0.04
   2   0 -13    0.01    0.04
  -2   0  13    0.03    0.04
   2   0 -13    0.00    0.05
  -2   0  13   -0.02    0.05
   0   0  13    0.10    0.05
   0   0 -13    0.03    0.04
   0   0 -13    0.07    0.05
   0   0 -13    0.07    0.04
   0   0  13    0.02    0.05
  -2   0 -13    0.03    0.03
  -2   0 -13    0.02    0.04
   2   0  13    0.00    0.06
   2   0  13    0.00    0.05
  -2   0 -13   -0.03    0.04
   4   0  13    0.08    0.07
  -4   0 -13    0.03    0.05
   4   0  13    0.06    0.07
  -4   0 -13   -0.06    0.05
   4   0  13   -0.01    0.05
  -6   0 -13    0.01    0.06
  -6   0 -13    0.01    0.06
   6   0  13    0.00    0.06
   6   0  13    0.05    0.09
   8   0  13    0.21    0.12
  -8   0 -13   -0.03    0.07
   8   0  13    0.04    0.10
  -8   0 -13   -0.07    0.08
  11  -1 -13    8.60    0.41
 -11   1  13    9.34    0.43
  11   1 -13    8.56    0.40
   9  -1 -13    9.80    0.34
   9  -1 -13   10.03    0.39
  -9  -1  13    9.01    0.39
  -9   1  13    9.73    0.40
   9   1 -13    9.42    0.35
   9   1 -13    9.54    0.38
   7  -1 -13   -0.05    0.08
  -7  -1  13    0.03    0.07
  -7  -1  13   -0.01    0.06
   7  -1 -13    0.02    0.06
   7   1 -13    0.02    0.07
   7   1 -13    0.02    0.07
  -7   1  13   -0.09    0.06
  -7   1  13    0.06    0.08
  -5  -1  13   11.37    0.36
   5  -1 -13   11.95    0.35
   5  -1 -13   12.30    0.32
  -5  -1  13   12.27    0.37
   5   1 -13   11.71    0.33
   5   1 -13   11.38    0.32
  -5   1  13   11.92    0.36
  -5   1  13   11.51    0.36
   3  -1 -13   22.91    0.45
   3  -1 -13   23.53    0.49
   3  -1 -13   22.63    0.40
  -3  -1  13   23.26    0.51
  -3  -1  13   23.11    0.53
  -3   1  13   23.68    0.50
  -3   1  13   24.26    0.55
   3   1 -13   23.44    0.47
   3   1 -13   23.07    0.46
   3   1 -13   23.36    0.47
   1  -1 -13   23.74    0.39
   1  -1 -13   22.88    0.47
  -1  -1  13   22.50    0.52
  -1  -1  13   23.28    0.47
   1  -1 -13   23.12    0.44
   1   1 -13   23.72    0.45
   1   1 -13   24.03    0.44
   1   1 -13   23.11    0.45
  -1   1  13   23.43    0.46
  -1   1  13   23.16    0.45
  -1   1  13   23.95    0.53
   1  -1  13   79.35    1.26
   1  -1  13   80.92    1.27
  -1  -1 -13   78.17    1.18
  -1  -1 -13   77.64    1.20
  -1  -1 -13   78.53    1.13
  -1   1 -13   80.15    1.15
   1   1  13   82.21    1.14
   1   1  13   80.00    1.25
  -1   1 -13   79.96    1.15
   1   1  13   80.18    1.28
  -1   1 -13   75.72    1.18
   3  -1  13    1.17    0.15
  -3  -1 -13    0.84    0.10
  -3  -1 -13    0.89    0.10
   3  -1  13    1.05    0.12
   3   1  13    0.73    0.11
   3   1  13    0.75    0.10
  -3   1 -13    0.96    0.08
  -3   1 -13    1.30    0.12
   3   1  13    0.58    0.11
  -3   1 -13    0.82    0.09
   5  -1  13    2.00    0.21
  -5  -1 -13    1.64    0.15
  -5  -1 -13    1.89    0.15
  -5   1 -13    1.84    0.16
   5   1  13    1.62    0.18
   5   1  13    1.75    0.16
  -5   1 -13    1.88    0.13
  -7  -1 -13    0.10    0.08
  -7  -1 -13    0.22    0.08
   7  -1  13    0.15    0.11
  -7   1 -13    0.20    0.09
   7   1  13   -0.01    0.09
   7   1  13    0.02    0.09
  -9  -1 -13    1.94    0.20
  -9  -1 -13    1.81    0.20
   9  -1  13    1.76    0.25
   9   1  13    1.98    0.25
  -9   1 -13    1.96    0.19
   9   1  13    2.09    0.23
 -10  -2  13    9.64    0.42
  10  -2 -13    9.07    0.40
 -10   2  13   10.03    0.43
  10   2 -13    9.16    0.38
   8  -2 -13    1.85    0.17
   8  -2 -13    1.62    0.16
   8  -2 -13    1.65    0.19
  -8  -2  13    1.69    0.19
  -8   2  13    1.43    0.19
   8   2 -13    1.57    0.18
   8   2 -13    1.69    0.17
  -6  -2  13   65.80    1.17
  -6  -2  13   66.52    1.14
   6  -2 -13   65.62    1.06
   6  -2 -13   65.08    1.15
   6  -2 -13   68.31    1.07
  -6   2  13   66.36    1.17
   6   2 -13   66.77    1.11
   6   2 -13   68.66    1.10
  -6   2  13   66.04    1.16
  -4  -2  13    0.87    0.13
  -4  -2  13    0.67    0.11
   4  -2 -13    0.70    0.09
   4  -2 -13    0.73    0.08
   4  -2 -13    0.66    0.10
  -4   2  13    0.65    0.11
   4   2 -13    0.74    0.10
  -4   2  13    0.95    0.13
   4   2 -13    0.81    0.09
   4   2 -13    0.62    0.09
  -2  -2  13    5.96    0.21
   2  -2 -13    5.76    0.22
  -2  -2  13    6.21    0.25
   2  -2 -13    6.31    0.20
   2  -2 -13    6.38    0.18
   2   2 -13    5.87    0.20
  -2   2  13    5.94    0.21
   2   2 -13    5.71    0.20
  -2   2  13    5.73    0.26
  -2   2  13    6.10    0.19
   2   2 -13    5.97    0.19
   0  -2  13    0.16    0.07
   0  -2 -13    0.07    0.04
   0  -2 -13    0.06    0.04
   0  -2  13    0.07    0.06
   0  -2 -13   -0.03    0.05
   0   2  13    0.08    0.04
   0   2 -13    0.26    0.07
   0   2  13    0.01    0.07
   0   2 -13    0.06    0.04
   0   2 -13    0.04    0.03
   0   2  13    0.04    0.05
  -2  -2 -13   13.54    0.32
  -2  -2 -13   13.74    0.35
   2  -2  13   13.63    0.40
  -2  -2 -13   13.31    0.32
   2  -2  13   13.26    0.36
  -2   2 -13   13.22    0.32
  -2   2 -13   12.71    0.30
   2   2  13   12.92    0.38
   2   2  13   13.17    0.37
   4  -2  13    0.85    0.11
  -4  -2 -13    0.67    0.10
  -4  -2 -13    0.62    0.10
   4  -2  13    0.86    0.15
  -4  -2 -13    0.64    0.09
   4   2  13    0.69    0.11
  -4   2 -13    0.70    0.09
   4   2  13    0.60    0.12
  -4   2 -13    0.59    0.10
   4   2  13    0.67    0.11
  -6  -2 -13    8.67    0.32
   6  -2  13    8.78    0.38
  -6  -2 -13    9.30    0.31
  -6   2 -13    9.61    0.32
   6   2  13    9.65    0.38
   6   2  13    9.04    0.34
   8  -2  13    3.58    0.32
  -8  -2 -13    2.40    0.22
  -8  -2 -13    2.28    0.21
   8   2  13    2.77    0.28
  -8   2 -13    2.29    0.19
   8   2  13    2.61    0.25
  -9  -3  13    0.05    0.11
   9  -3 -13    0.04    0.11
   9  -3 -13    0.01    0.10
   9   3 -13   -0.05    0.09
  -9   3  13    0.03    0.11
  -7  -3  13    6.65    0.31
  -7  -3  13    6.26    0.29
   7  -3 -13    6.44    0.30
   7  -3 -13    6.18    0.26
   7  -3 -13    6.18    0.24
   7   3 -13    6.40    0.27
   7   3 -13    6.22    0.27
  -7   3  13    6.66    0.30
  -7   3  13    6.16    0.30
   5  -3 -13    6.76    0.28
  -5  -3  13    6.64    0.29
  -5  -3  13    6.83    0.29
   5  -3 -13    6.84    0.23
   5  -3 -13    7.20    0.25
  -5   3  13    6.75    0.30
  -5   3  13    7.68    0.30
   5   3 -13    7.51    0.26
   5   3 -13    7.18    0.25
   5   3 -13    6.52    0.25
   3  -3 -13    3.05    0.15
   3  -3 -13    2.97    0.18
   3  -3 -13    3.23    0.14
  -3  -3  13    2.95    0.19
  -3  -3  13    3.06    0.16
  -3   3  13    3.14    0.18
   3   3 -13    3.07    0.16
   3   3 -13    3.12    0.16
  -3   3  13    3.27    0.21
  -1  -3  13   22.38    0.53
   1  -3 -13   22.23    0.42
   1  -3 -13   22.97    0.45
  -1  -3  13   21.68    0.50
   1  -3 -13   21.79    0.49
  -1   3  13   22.33    0.44
  -1   3  13   22.20    0.55
   1   3 -13   22.42    0.45
  -1   3  13   22.60    0.47
   1   3 -13   22.56    0.46
  -1  -3 -13   37.14    0.69
  -1  -3 -13   36.07    0.64
  -1  -3 -13   35.96    0.62
   1  -3  13   36.58    0.72
   1  -3  13   35.44    0.73
  -1   3 -13   36.21    0.65
   1   3  13   36.89    0.76
   1   3  13   36.16    0.70
  -1   3 -13   35.27    0.63
  -3  -3 -13    7.56    0.28
   3  -3  13    7.93    0.28
  -3  -3 -13    7.48    0.24
  -3  -3 -13    7.27    0.25
   3  -3  13    7.55    0.31
  -3   3 -13    7.68    0.25
   3   3  13    7.39    0.30
  -3   3 -13    7.54    0.24
   3   3  13    7.24    0.30
   5  -3  13    9.37    0.38
  -5  -3 -13    9.59    0.34
  -5  -3 -13    9.11    0.32
  -5  -3 -13    8.72    0.29
  -5   3 -13    9.06    0.29
   5   3  13    9.31    0.35
   5   3  13    9.51    0.37
  -7  -3 -13    2.56    0.23
   7  -3  13    2.56    0.26
  -7  -3 -13    2.83    0.20
   7   3  13    3.32    0.26
   7   3  13    2.38    0.24
  -7   3 -13    2.80    0.20
  10  -4 -13    0.35    0.15
  10  -4 -13    0.13    0.13
 -10  -4  13    0.23    0.13
  -8  -4  13   13.83    0.46
  -8  -4  13   14.84    0.49
   8  -4 -13   14.11    0.48
   8  -4 -13   15.03    0.46
   8   4 -13   14.69    0.43
  -8   4  13   14.18    0.50
   6  -4 -13   23.51    0.55
  -6  -4  13   22.94    0.58
  -6  -4  13   23.41    0.61
   6  -4 -13   22.55    0.58
  -6   4  13   23.13    0.61
   6   4 -13   23.52    0.53
  -6   4  13   23.61    0.60
   6   4 -13   24.02    0.55
   4  -4 -13   18.17    0.43
  -4  -4  13   16.48    0.47
   4  -4 -13   17.77    0.47
   4   4 -13   17.42    0.43
  -4   4  13   17.81    0.47
  -4   4  13   17.49    0.51
   4   4 -13   17.41    0.41
  -2  -4  13    1.28    0.14
   2  -4 -13    1.55    0.10
   2  -4 -13    1.51    0.14
   2  -4 -13    1.74    0.16
  -2  -4  13    1.54    0.15
   2   4 -13    1.43    0.12
  -2   4  13    1.25    0.16
   2   4 -13    1.31    0.13
  -2   4  13    1.55    0.13
   0  -4 -13    9.14    0.23
   0  -4  13    8.71    0.32
   0  -4 -13    8.44    0.27
   0  -4 -13    8.46    0.29
   0  -4  13    8.44    0.31
   0   4  13    8.31    0.33
   0   4 -13    8.07    0.24
   0   4 -13    8.43    0.27
   0   4  13    8.44    0.29
  -2  -4 -13    4.00    0.17
  -2  -4 -13    4.28    0.19
   2  -4  13    3.22    0.22
  -2  -4 -13    3.23    0.20
   2  -4  13    3.77    0.21
  -2   4 -13    3.74    0.17
   2   4  13    3.57    0.22
   2   4  13    3.32    0.23
  -2   4 -13    3.78    0.19
   4  -4  13    0.05    0.10
  -4  -4 -13    0.06    0.06
  -4  -4 -13    0.02    0.07
  -4  -4 -13    0.03    0.07
   4  -4  13    0.07    0.08
  -4   4 -13    0.12    0.07
   4   4  13    0.10    0.09
   4   4  13    0.13    0.09
  -4   4 -13    0.14    0.07
  -6  -4 -13   -0.06    0.08
   6  -4  13   -0.04    0.11
  -6  -4 -13   -0.05    0.07
  -6  -4 -13   -0.04    0.08
   6   4  13    0.01    0.10
   6   4  13   -0.01    0.11
  -6   4 -13    0.13    0.08
  -8  -4 -13   21.69    0.54
  -8  -4 -13   21.20    0.61
   8  -4  13   22.09    0.69
  -8   4 -13   21.20    0.54
   8   4  13   20.72    0.66
   8   4  13   21.08    0.65
   9  -5 -13   10.93    0.44
  -9  -5  13   11.82    0.46
   9  -5 -13   12.21    0.47
  -9   5  13   12.34    0.50
   7  -5 -13    0.16    0.12
  -7  -5  13    0.50    0.12
   7  -5 -13    0.52    0.14
  -7  -5  13    0.15    0.11
   7   5 -13    0.25    0.10
  -7   5  13    0.34    0.13
  -7   5  13    0.23    0.12
   7   5 -13    0.35    0.11
   5  -5 -13    3.22    0.21
  -5  -5  13    2.88    0.22
   5  -5 -13    3.59    0.23
   5   5 -13    2.96    0.19
   5   5 -13    3.47    0.19
  -5   5  13    2.86    0.23
  -5   5  13    3.14    0.25
  -3  -5  13    3.35    0.22
  -3  -5  13    3.27    0.20
   3  -5 -13    3.22    0.20
   3  -5 -13    3.03    0.21
  -3   5  13    3.22    0.21
   3   5 -13    3.21    0.19
   3   5 -13    3.17    0.17
  -3   5  13    2.95    0.24
  -1  -5  13    1.61    0.18
  -1  -5  13    1.65    0.18
   1  -5 -13    1.53    0.15
   1  -5 -13    1.75    0.16
  -1   5  13    1.42    0.17
   1   5 -13    1.40    0.14
   1   5 -13    1.70    0.13
  -1   5  13    1.28    0.17
   1  -5  13   10.10    0.38
  -1  -5 -13   10.16    0.32
  -1  -5 -13    9.83    0.34
   1  -5  13   10.27    0.36
  -1   5 -13   10.65    0.33
  -1   5 -13    9.87    0.27
   1   5  13   10.05    0.35
   1   5  13    9.40    0.38
  -3  -5 -13   14.67    0.43
   3  -5  13   14.46    0.43
  -3  -5 -13   15.13    0.42
   3  -5  13   14.47    0.49
   3   5  13   13.88    0.47
  -3   5 -13   13.99    0.40
   3   5  13   13.70    0.45
  -3   5 -13   14.63    0.35
  -5  -5 -13    5.35    0.28
  -5  -5 -13    5.72    0.28
   5  -5  13    5.29    0.32
   5   5  13    5.77    0.31
  -5   5 -13    5.50    0.26
   7  -5  13    9.49    0.46
  -7  -5 -13    8.78    0.38
  -7  -5 -13    8.42    0.39
   7   5  13    8.31    0.41
   7   5  13    9.10    0.43
   8  -6 -13    0.29    0.15
   8  -6 -13    0.56    0.16
  -8  -6  13    0.47    0.14
  -8   6  13    0.45    0.17
   8   6 -13    0.43    0.12
  -6  -6  13    5.64    0.31
   6  -6 -13    6.39    0.32
   6  -6 -13    5.69    0.31
  -6   6  13    6.15    0.33
   6   6 -13    5.96    0.28
  -6   6  13    6.24    0.35
  -4  -6  13    1.14    0.17
   4  -6 -13    1.40    0.18
   4  -6 -13    1.23    0.16
   4   6 -13    1.09    0.14
  -4   6  13    1.40    0.21
  -2  -6  13    1.25    0.17
   2  -6 -13    1.03    0.14
   2  -6 -13    1.23    0.14
   2   6 -13    1.07    0.14
  -2   6  13    0.86    0.16
   0  -6  13    0.38    0.12
   0  -6 -13    0.27    0.09
   0  -6 -13    0.17    0.10
   0   6  13    0.39    0.11
   0   6  13    0.33    0.13
   0   6 -13    0.24    0.10
   2  -6  13    0.01    0.10
  -2  -6 -13   -0.11    0.07
  -2  -6 -13    0.08    0.09
   2  -6  13    0.04    0.10
   2   6  13    0.15    0.10
   2   6  13   -0.05    0.09
  -2   6 -13   -0.01    0.07
  -4  -6 -13    3.39    0.23
  -4  -6 -13    3.55    0.24
   4  -6  13    3.58    0.29
   4   6  13    3.48    0.27
   4   6  13    3.07    0.28
  -4   6 -13    2.96    0.22
   6  -6  13   -0.01    0.12
  -6  -6 -13    0.10    0.11
  -6   6 -13   -0.06    0.09
   6   6  13    0.08    0.11
   5  -7 -13    4.58    0.29
   5  -7 -13    4.83    0.29
  -5  -7  13    4.86    0.31
   5   7 -13    4.55    0.26
  -5   7  13    4.49    0.33
  -3  -7  13    0.10    0.11
   3  -7 -13    0.12    0.10
   3  -7 -13   -0.04    0.09
   3   7 -13    0.07    0.08
  -3   7  13    0.10    0.13
  -1  -7  13    4.55    0.30
   1  -7 -13    4.44    0.25
   1  -7 -13    4.02    0.25
   1   7 -13    4.16    0.24
  -1   7  13    4.64    0.32
  -1  -7 -13    2.84    0.22
   1  -7  13    3.04    0.28
  -1  -7 -13    3.27    0.23
   1   7  13    3.19    0.25
   1   7  13    3.01    0.28
  -1   7 -13    3.13    0.22
  -3  -7 -13   -0.06    0.09
   3  -7  13    0.05    0.13
   3  -7  13    0.06    0.11
  -3  -7 -13    0.03    0.10
  -3   7 -13   -0.06    0.09
   3   7  13   -0.02    0.10
   2  -8 -13    0.50    0.15
   2  -8 -13    0.39    0.13
  -2  -8  13    0.39    0.15
   2   8 -13    0.48    0.14
   0  -8  13    2.11    0.26
   0  -8 -13    2.27    0.23
   0  -8 -13    2.08    0.23
   0   8  13    2.24    0.24
 -10   0  14   30.89    0.79
  10   0 -14   30.58    0.76
   8   0 -14    1.07    0.15
   8   0 -14    1.21    0.16
  -8   0  14    1.17    0.17
   6   0 -14    0.30    0.08
   6   0 -14    0.02    0.08
  -6   0  14    0.19    0.09
  -6   0  14    0.08    0.08
  -4   0  14   32.34    0.65
   4   0 -14   32.46    0.63
  -4   0  14   31.25    0.67
   4   0 -14   30.88    0.59
  -2   0  14   25.41    0.47
   2   0 -14   25.37    0.50
  -2   0  14   24.71    0.51
   2   0 -14   24.72    0.48
  -2   0  14   25.17    0.57
   2   0 -14   24.86    0.48
   0   0 -14    9.18    0.23
   0   0  14    9.26    0.29
   0   0 -14    9.28    0.26
   0   0  14   10.48    0.33
   0   0 -14    9.29    0.26
  -2   0 -14   58.84    0.95
  -2   0 -14   60.24    0.95
   2   0  14   58.34    1.04
   2   0  14   60.56    1.03
  -4   0 -14   41.19    0.75
   4   0  14   40.51    0.85
  -4   0 -14   42.69    0.74
   4   0  14   42.04    0.79
  -6   0 -14    3.85    0.22
  -6   0 -14    3.74    0.21
   6   0  14    3.47    0.24
   8   0  14    3.66    0.30
  -8   0 -14    3.42    0.23
  11   1 -14    1.33    0.20
   9  -1 -14    7.08    0.31
  -9  -1  14    7.20    0.36
   9  -1 -14    7.44    0.35
  -9   1  14    6.90    0.35
   9   1 -14    7.44    0.33
   9   1 -14    7.78    0.32
   7  -1 -14    8.46    0.33
  -7  -1  14    8.00    0.34
  -7  -1  14    9.08    0.33
   7  -1 -14    8.95    0.31
  -7   1  14    8.59    0.34
  -7   1  14    8.77    0.35
   7   1 -14    9.08    0.33
   7   1 -14    8.64    0.31
  -5  -1  14    0.26    0.09
  -5  -1  14    0.25    0.09
   5  -1 -14    0.18    0.09
   5  -1 -14    0.06    0.06
   5   1 -14    0.05    0.06
   5   1 -14    0.15    0.07
  -5   1  14    0.26    0.09
  -5   1  14    0.23    0.09
  -3  -1  14    0.51    0.10
  -3  -1  14    0.40    0.09
   3  -1 -14    0.59    0.08
   3  -1 -14    0.53    0.09
   3   1 -14    0.65    0.09
  -3   1  14    0.41    0.10
   3   1 -14    0.59    0.08
   3   1 -14    0.56    0.09
  -3   1  14    0.43    0.09
   1  -1 -14    0.74    0.09
  -1  -1  14    1.28    0.15
   1  -1 -14    0.57    0.08
  -1  -1  14    0.66    0.09
  -1   1  14    0.55    0.08
   1   1 -14    0.60    0.08
   1   1 -14    0.66    0.08
  -1   1  14    0.41    0.09
  -1   1  14    0.55    0.08
   1   1 -14    0.51    0.07
   1  -1  14  199.33    2.84
   1  -1  14  199.52    2.83
  -1  -1 -14  206.16    2.78
  -1  -1 -14  201.19    2.74
   1   1  14  200.72    2.86
  -1   1 -14  198.64    2.70
  -1   1 -14  201.92    2.74
  -1   1 -14  201.84    2.71
   1   1  14  202.45    2.82
  -3  -1 -14    3.67    0.18
  -3  -1 -14    3.95    0.17
   3  -1  14    3.72    0.22
   3  -1  14    4.05    0.21
  -3  -1 -14    3.69    0.18
   3   1  14    3.91    0.18
   3   1  14    3.63    0.22
  -3   1 -14    3.85    0.17
   3   1  14    4.13    0.21
  -3   1 -14    3.50    0.18
   5  -1  14    0.59    0.14
  -5  -1 -14    0.56    0.10
  -5  -1 -14    0.53    0.10
   5   1  14    0.49    0.11
   5   1  14    0.46    0.13
  -5   1 -14    0.44    0.09
   7  -1  14    0.54    0.14
  -7  -1 -14    0.42    0.11
  -7  -1 -14    0.63    0.12
   7   1  14    0.48    0.12
   7   1  14    0.52    0.14
  -7   1 -14    0.42    0.11
  -9  -1 -14   21.85    0.58
   9  -1  14   21.71    0.70
  -9  -1 -14   22.49    0.60
   9   1  14   23.40    0.70
  -9   1 -14   22.58    0.59
  10  -2 -14    1.36    0.20
 -10  -2  14    1.48    0.22
  10   2 -14    1.16    0.19
 -10   2  14    1.52    0.23
   8  -2 -14   19.17    0.55
  -8  -2  14   20.09    0.57
   8  -2 -14   18.67    0.48
  -8  -2  14   18.52    0.51
   8   2 -14   19.09    0.50
   8   2 -14   18.75    0.52
  -8   2  14   20.15    0.58
  -6  -2  14   44.41    0.89
  -6  -2  14   44.43    0.87
   6  -2 -14   42.57    0.78
   6  -2 -14   44.49    0.87
   6   2 -14   45.37    0.83
   6   2 -14   43.45    0.81
  -6   2  14   44.93    0.89
  -6   2  14   45.17    0.90
  -4  -2  14    7.25    0.29
   4  -2 -14    7.03    0.27
   4  -2 -14    6.49    0.22
  -4  -2  14    7.07    0.29
   4  -2 -14    7.02    0.22
   4   2 -14    7.01    0.24
   4   2 -14    7.15    0.25
  -4   2  14    7.37    0.31
  -4   2  14    6.92    0.27
   4   2 -14    6.52    0.24
  -2  -2  14    6.34    0.22
   2  -2 -14    5.76    0.23
   2  -2 -14    5.95    0.20
  -2  -2  14    5.65    0.25
   2  -2 -14    5.47    0.18
  -2   2  14    5.86    0.27
  -2   2  14    6.08    0.22
   2   2 -14    5.76    0.21
   2   2 -14    5.97    0.19
   2   2 -14    5.84    0.21
   0  -2 -14    1.73    0.14
   0  -2  14    1.88    0.16
   0  -2  14    1.78    0.16
   0  -2 -14    1.69    0.10
   0  -2 -14    1.82    0.12
   0   2 -14    1.68    0.13
   0   2  14    2.07    0.19
   0   2  14    1.78    0.14
   0   2 -14    1.59    0.12
  -2  -2 -14    0.05    0.05
  -2  -2 -14   -0.02    0.04
   2  -2  14   -0.03    0.06
  -2  -2 -14   -0.08    0.06
   2  -2  14   -0.06    0.07
   2   2  14    0.11    0.07
  -2   2 -14    0.00    0.05
   2   2  14    0.00    0.06
  -2   2 -14    0.05    0.05
  -4  -2 -14    0.31    0.08
   4  -2  14    0.44    0.09
  -4  -2 -14    0.53    0.10
   4  -2  14    0.32    0.11
  -4  -2 -14    0.38    0.09
   4   2  14    0.58    0.11
   4   2  14    0.72    0.13
   4   2  14    0.45    0.10
  -4   2 -14    0.38    0.09
  -6  -2 -14   12.27    0.39
   6  -2  14   13.01    0.47
  -6  -2 -14   12.20    0.37
   6   2  14   12.25    0.45
   6   2  14   12.44    0.40
  -6   2 -14   12.29    0.37
  -8  -2 -14    1.89    0.19
  -8  -2 -14    1.90    0.20
   8  -2  14    1.86    0.26
  -8   2 -14    2.06    0.21
   8   2  14    1.53    0.21
   8   2  14    1.43    0.21
   9  -3 -14    2.50    0.25
  -9  -3  14    2.42    0.24
   9   3 -14    2.24    0.22
  -9   3  14    2.34    0.25
   9   3 -14    2.15    0.21
  -7  -3  14   -0.07    0.07
   7  -3 -14    0.13    0.07
   7  -3 -14    0.12    0.10
  -7  -3  14    0.03    0.09
   7  -3 -14    0.05    0.08
   7   3 -14    0.13    0.08
  -7   3  14    0.08    0.09
   7   3 -14   -0.02    0.08
  -7   3  14    0.11    0.09
  -5  -3  14   12.87    0.42
  -5  -3  14   12.52    0.40
   5  -3 -14   13.10    0.40
   5  -3 -14   12.48    0.34
   5  -3 -14   12.31    0.33
   5   3 -14   12.51    0.36
  -5   3  14   12.45    0.42
   5   3 -14   12.30    0.36
  -5   3  14   12.55    0.40
   3  -3 -14   12.27    0.37
   3  -3 -14   12.14    0.30
  -3  -3  14   12.46    0.39
   3  -3 -14   12.48    0.32
  -3  -3  14   11.69    0.33
  -3   3  14   12.96    0.42
  -3   3  14   12.53    0.36
   3   3 -14   12.32    0.34
   3   3 -14   12.19    0.32
   1  -3 -14    2.54    0.14
  -1  -3  14    2.97    0.18
  -1  -3  14    2.52    0.19
   1  -3 -14    2.83    0.17
   1  -3 -14    2.64    0.13
   1   3 -14    2.83    0.15
  -1   3  14    2.73    0.20
   1   3 -14    2.75    0.15
  -1   3  14    2.94    0.16
  -1  -3 -14    0.76    0.08
  -1  -3 -14    0.75    0.10
   1  -3  14    0.71    0.11
  -1  -3 -14    0.70    0.11
   1  -3  14    0.74    0.13
  -1   3 -14    0.69    0.09
   1   3  14    0.61    0.11
  -1   3 -14    0.63    0.09
   1   3  14    0.57    0.12
  -3  -3 -14   15.50    0.37
   3  -3  14   15.11    0.42
  -3  -3 -14   15.28    0.42
  -3  -3 -14   15.83    0.40
   3  -3  14   15.54    0.48
  -3   3 -14   15.36    0.37
  -3   3 -14   15.65    0.38
   3   3  14   16.08    0.46
   3   3  14   14.74    0.45
  -5  -3 -14   13.65    0.41
  -5  -3 -14   13.96    0.40
  -5  -3 -14   13.18    0.37
   5  -3  14   12.87    0.47
   5   3  14   13.68    0.44
   5   3  14   12.83    0.45
  -5   3 -14   12.73    0.37
  -7  -3 -14    3.67    0.22
  -7  -3 -14    3.44    0.24
   7  -3  14    3.49    0.28
   7   3  14    3.80    0.28
  -7   3 -14    3.47    0.22
   7   3  14    3.45    0.26
   8  -4 -14    0.64    0.14
   8  -4 -14    0.64    0.15
  -8  -4  14    0.41    0.13
  -8  -4  14    0.62    0.13
   8   4 -14    0.77    0.14
  -8   4  14    0.75    0.17
  -6  -4  14    1.19    0.16
   6  -4 -14    1.35    0.15
  -6  -4  14    1.84    0.20
   6  -4 -14    1.25    0.17
   6   4 -14    1.47    0.16
   6   4 -14    1.36    0.15
  -6   4  14    1.78    0.20
  -6   4  14    1.53    0.19
  -4  -4  14    1.06    0.14
   4  -4 -14    1.14    0.13
   4  -4 -14    1.01    0.14
  -4   4  14    1.00    0.14
  -4   4  14    1.09    0.16
   4   4 -14    0.96    0.12
   4   4 -14    0.93    0.12
   2  -4 -14   11.73    0.36
   2  -4 -14   12.16    0.29
  -2  -4  14   12.19    0.37
  -2  -4  14   11.85    0.39
   2  -4 -14   11.99    0.33
   2   4 -14   12.26    0.34
   2   4 -14   12.32    0.32
  -2   4  14   12.23    0.42
   0  -4 -14    0.06    0.06
   0  -4  14    0.04    0.07
   0  -4  14    0.00    0.08
   0  -4 -14    0.09    0.07
   0  -4 -14    0.05    0.05
   0   4  14    0.16    0.10
   0   4 -14    0.13    0.07
   0   4  14    0.06    0.04
   0   4 -14    0.11    0.05
  -2  -4 -14    7.78    0.29
  -2  -4 -14    7.80    0.24
   2  -4  14    7.58    0.33
   2  -4  14    7.24    0.30
  -2  -4 -14    7.78    0.27
   2   4  14    7.83    0.31
  -2   4 -14    7.56    0.27
   2   4  14    7.56    0.33
  -2   4 -14    7.69    0.25
  -4  -4 -14   10.00    0.30
  -4  -4 -14   10.17    0.36
   4  -4  14   10.52    0.42
  -4  -4 -14   10.86    0.35
  -4   4 -14   10.22    0.32
  -4   4 -14    9.93    0.31
   4   4  14   10.52    0.39
   4   4  14   10.53    0.40
  -6  -4 -14    4.41    0.23
  -6  -4 -14    3.92    0.25
   6  -4  14    4.17    0.30
  -6  -4 -14    4.77    0.27
   6   4  14    4.37    0.30
  -6   4 -14    4.76    0.24
   6   4  14    4.75    0.31
   9  -5 -14    0.34    0.15
   7  -5 -14    6.47    0.32
  -7  -5  14    6.54    0.33
  -7  -5  14    6.49    0.34
   7   5 -14    6.13    0.29
  -7   5  14    6.96    0.35
   7   5 -14    6.91    0.30
  -7   5  14    6.86    0.35
   5  -5 -14   15.15    0.47
   5  -5 -14   15.42    0.45
  -5  -5  14   14.92    0.48
   5   5 -14   15.59    0.44
  -5   5  14   14.80    0.51
   5   5 -14   15.57    0.41
  -5   5  14   14.67    0.46
  -3  -5  14    2.60    0.23
   3  -5 -14    2.82    0.19
   3  -5 -14    2.96    0.21
  -3  -5  14    2.59    0.24
   3   5 -14    2.88    0.17
  -3   5  14    3.08    0.27
   3   5 -14    3.14    0.19
   1  -5 -14   14.95    0.40
  -1  -5  14   15.09    0.45
  -1  -5  14   14.17    0.45
   1  -5 -14   14.66    0.43
  -1   5  14   14.36    0.49
   1   5 -14   14.33    0.40
   1   5 -14   14.12    0.35
  -1  -5 -14    9.57    0.34
   1  -5  14   10.10    0.39
  -1  -5 -14   10.11    0.33
   1  -5  14    9.35    0.36
   1   5  14    9.43    0.39
  -1   5 -14   10.13    0.29
  -1   5 -14   10.06    0.33
   1   5  14    9.93    0.36
  -3  -5 -14    3.90    0.22
  -3  -5 -14    3.63    0.23
   3  -5  14    3.41    0.26
   3  -5  14    3.70    0.23
  -3   5 -14    3.71    0.19
   3   5  14    3.42    0.26
  -3   5 -14    4.16    0.22
   3   5  14    3.50    0.25
  -5  -5 -14    1.26    0.18
  -5  -5 -14    1.13    0.17
   5  -5  14    1.26    0.20
  -5   5 -14    1.20    0.16
   5   5  14    1.15    0.19
   6  -6 -14    0.21    0.13
   6  -6 -14    0.09    0.11
  -6  -6  14   -0.01    0.09
  -6   6  14   -0.13    0.11
  -6   6  14    0.04    0.11
   6   6 -14    0.04    0.08
   4  -6 -14    0.59    0.14
  -4  -6  14    0.78    0.16
   4  -6 -14    0.62    0.13
   4   6 -14    0.67    0.12
  -4   6  14    0.43    0.14
  -2  -6  14    2.51    0.24
  -2  -6  14    2.92    0.22
   2  -6 -14    2.66    0.21
   2  -6 -14    2.54    0.21
  -2   6  14    2.47    0.26
   2   6 -14    2.81    0.19
   0  -6  14    3.93    0.26
   0  -6 -14    3.52    0.22
   0  -6 -14    3.76    0.24
   0  -6  14    3.57    0.25
   0   6  14    3.43    0.22
   0   6 -14    3.30    0.20
   0   6  14    3.25    0.29
  -2  -6 -14    2.61    0.21
  -2  -6 -14    2.46    0.21
   2  -6  14    2.26    0.24
   2  -6  14    2.27    0.22
   2   6  14    2.54    0.25
  -2   6 -14    2.41    0.19
   2   6  14    2.57    0.24
  -4  -6 -14    0.47    0.12
   4  -6  14    0.15    0.12
  -4  -6 -14    0.25    0.11
  -4   6 -14    0.36    0.12
   4   6  14    0.34    0.14
   4   6  14    0.29    0.14
   5  -7 -14    0.98    0.17
  -5  -7  14    0.91    0.17
   5  -7 -14    0.62    0.15
  -5   7  14    0.90    0.20
   5   7 -14    0.73    0.14
  -3  -7  14    0.26    0.13
  -3  -7  14    0.15    0.11
   3  -7 -14    0.22    0.12
   3  -7 -14    0.28    0.12
   3   7 -14    0.20    0.09
  -3   7  14    0.30    0.14
  -1  -7  14    9.68    0.41
   1  -7 -14    9.13    0.37
   1  -7 -14    9.72    0.38
  -1  -7  14   10.14    0.43
   1   7 -14    9.99    0.36
  -1   7  14   10.10    0.46
  -1  -7 -14   25.28    0.63
   1  -7  14   24.69    0.67
  -1  -7 -14   24.04    0.63
   1  -7  14   24.83    0.71
  -1   7 -14   24.42    0.61
   1   7  14   24.49    0.65
   1   7  14   24.27    0.72
  -3  -7 -14    2.19    0.21
  -3  -7 -14    2.29    0.22
   3  -7  14    2.45    0.24
   3  -7  14    2.25    0.26
  -3   7 -14    2.03    0.20
   3   7  14    2.41    0.25
  10   0 -15    0.11    0.11
 -10   0  15   -0.05    0.10
  -8   0  15    0.01    0.08
  -8   0  15   -0.03    0.10
   8   0 -15   -0.04    0.08
   8   0 -15    0.05    0.08
   6   0 -15   -0.09    0.07
   6   0 -15   -0.02    0.06
  -6   0  15   -0.02    0.07
  -6   0  15    0.00    0.08
   4   0 -15   -0.04    0.05
  -4   0  15    0.04    0.07
   4   0 -15   -0.02    0.06
  -4   0  15    0.04    0.06
   2   0 -15    0.01    0.05
   2   0 -15   -0.05    0.05
  -2   0  15    0.03    0.06
   2   0 -15   -0.05    0.04
  -2   0  15    0.06    0.06
   0   0  15    0.03    0.05
   0   0  15    0.18    0.07
   0   0 -15    0.07    0.06
   0   0  15    0.09    0.07
   0   0 -15    0.04    0.04
   0   0 -15    0.04    0.05
   2   0  15   -0.05    0.06
  -2   0 -15   -0.04    0.05
  -2   0 -15    0.02    0.05
   2   0  15    0.01    0.07
  -4   0 -15    0.02    0.06
   4   0  15   -0.05    0.07
  -4   0 -15    0.04    0.07
   4   0  15    0.05    0.09
  -6   0 -15    0.07    0.07
  -6   0 -15    0.02    0.07
   6   0  15   -0.01    0.09
   8   0  15   -0.03    0.12
  -8   0 -15   -0.15    0.08
  -9  -1  15    0.04    0.11
   9  -1 -15    0.29    0.10
   9  -1 -15   -0.13    0.10
   9   1 -15    0.03    0.10
   9   1 -15    0.04    0.10
  -9   1  15   -0.01    0.11
   7  -1 -15    0.73    0.11
  -7  -1  15    0.57    0.12
   7  -1 -15    0.60    0.13
  -7  -1  15    0.75    0.13
  -7   1  15    0.68    0.14
   7   1 -15    0.95    0.13
   7   1 -15    0.75    0.14
  -7   1  15    0.65    0.14
  -5  -1  15    6.67    0.29
  -5  -1  15    6.85    0.29
   5  -1 -15    7.04    0.28
   5  -1 -15    6.26    0.24
  -5   1  15    6.20    0.29
   5   1 -15    7.07    0.27
  -5   1  15    6.85    0.28
   5   1 -15    7.26    0.26
   3  -1 -15   29.04    0.55
   3  -1 -15   28.42    0.59
  -3  -1  15   27.64    0.64
  -3  -1  15   29.55    0.62
   3   1 -15   29.57    0.57
  -3   1  15   28.24    0.65
  -3   1  15   27.86    0.59
   3   1 -15   29.90    0.57
   3   1 -15   28.77    0.56
   1  -1 -15   16.39    0.40
   1  -1 -15   15.83    0.37
  -1  -1  15   17.20    0.41
  -1  -1  15   16.90    0.46
   1   1 -15   15.98    0.37
  -1   1  15   16.39    0.38
   1   1 -15   16.27    0.38
   1   1 -15   17.08    0.37
  -1   1  15   17.08    0.39
  -1   1  15   16.94    0.46
   1  -1  15   29.02    0.63
   1  -1  15   29.15    0.64
  -1  -1 -15   29.11    0.55
  -1  -1 -15   29.08    0.57
  -1   1 -15   30.10    0.56
  -1   1 -15   28.84    0.53
   1   1  15   29.69    0.65
   1   1  15   29.50    0.62
  -1   1 -15   28.44    0.52
   3  -1  15    2.43    0.18
  -3  -1 -15    2.46    0.16
  -3  -1 -15    2.61    0.16
   3  -1  15    2.77    0.21
  -3   1 -15    2.75    0.17
   3   1  15    2.33    0.19
   3   1  15    2.77    0.20
  -5  -1 -15    2.63    0.19
   5  -1  15    2.40    0.23
  -5  -1 -15    2.33    0.17
   5   1  15    2.30    0.22
  -5   1 -15    2.51    0.17
  -7  -1 -15    3.68    0.23
   7  -1  15    3.95    0.29
  -7  -1 -15    4.07    0.24
  -7   1 -15    3.57    0.23
  10  -2 -15    2.21    0.24
 -10  -2  15    2.58    0.28
  10   2 -15    2.67    0.26
 -10   2  15    2.52    0.28
  -8  -2  15    4.05    0.27
  -8  -2  15    4.63    0.26
   8  -2 -15    4.04    0.27
   8  -2 -15    4.07    0.23
   8   2 -15    4.34    0.25
  -8   2  15    4.02    0.28
   8   2 -15    4.26    0.26
   6  -2 -15   47.82    0.86
  -6  -2  15   48.04    0.96
   6  -2 -15   48.67    0.94
  -6  -2  15   49.48    0.96
  -6   2  15   48.09    0.97
  -6   2  15   49.22    0.96
   6   2 -15   49.80    0.89
   6   2 -15   48.87    0.89
  -4  -2  15    6.78    0.29
   4  -2 -15    7.24    0.28
   4  -2 -15    7.20    0.24
  -4  -2  15    7.14    0.29
  -4   2  15    6.85    0.31
  -4   2  15    6.67    0.27
   4   2 -15    7.09    0.25
   4   2 -15    7.13    0.25
   4   2 -15    6.97    0.26
  -2  -2  15    0.31    0.09
  -2  -2  15    0.38    0.08
   2  -2 -15    0.37    0.07
   2  -2 -15    0.35    0.08
  -2   2  15    0.16    0.07
   2   2 -15    0.51    0.09
   2   2 -15    0.24    0.07
  -2   2  15    0.15    0.09
   0  -2 -15    6.68    0.25
   0  -2  15    7.35    0.28
   0  -2  15    7.43    0.30
   0  -2 -15    7.04    0.23
   0   2  15    6.89    0.25
   0   2  15    7.30    0.31
   0   2 -15    7.30    0.23
   0   2 -15    7.01    0.23
   2  -2  15   21.43    0.53
   2  -2  15   21.80    0.56
  -2  -2 -15   22.00    0.50
  -2  -2 -15   22.14    0.44
  -2  -2 -15   21.41    0.46
   2   2  15   21.12    0.54
  -2   2 -15   21.98    0.45
  -2   2 -15   21.80    0.47
   2   2  15   20.97    0.52
   4  -2  15    3.91    0.22
  -4  -2 -15    4.13    0.20
  -4  -2 -15    3.74    0.21
  -4  -2 -15    3.49    0.19
   4  -2  15    3.44    0.24
  -4   2 -15    4.15    0.20
   4   2  15    4.08    0.25
   4   2  15    3.70    0.23
  -6  -2 -15    1.16    0.16
   6  -2  15    1.30    0.19
  -6  -2 -15    1.43    0.16
   6   2  15    1.09    0.16
  -6   2 -15    1.30    0.15
   6   2  15    1.09    0.18
   8  -2  15   39.35    0.98
  -8  -2 -15   38.01    0.85
  -8  -2 -15   39.88    0.83
   8   2  15   40.03    0.96
  -8   2 -15   40.07    0.82
   9  -3 -15   19.32    0.59
  -9  -3  15   19.28    0.60
   9   3 -15   19.62    0.55
  -9   3  15   19.12    0.62
   9   3 -15   20.21    0.56
   7  -3 -15    6.56    0.26
  -7  -3  15    6.08    0.30
   7  -3 -15    6.58    0.32
  -7  -3  15    5.77    0.31
  -7   3  15    6.55    0.33
  -7   3  15    5.60    0.31
   7   3 -15    5.91    0.27
  -5  -3  15    1.07    0.16
   5  -3 -15    1.04    0.15
  -5  -3  15    1.14    0.17
   5  -3 -15    1.01    0.12
  -5   3  15    1.19    0.16
   5   3 -15    0.99    0.13
   5   3 -15    1.19    0.14
  -5   3  15    0.82    0.14
   3  -3 -15    2.61    0.19
   3  -3 -15    2.57    0.15
   3  -3 -15    2.53    0.14
  -3  -3  15    2.35    0.19
  -3   3  15    2.32    0.22
  -3   3  15    2.60    0.18
   3   3 -15    2.54    0.16
   3   3 -15    2.61    0.16
   1  -3 -15   23.73    0.48
  -1  -3  15   24.07    0.59
   1  -3 -15   24.70    0.55
  -1  -3  15   23.42    0.55
   1  -3 -15   24.35    0.47
   1   3 -15   24.51    0.51
  -1   3  15   23.77    0.53
  -1   3  15   23.68    0.61
   1   3 -15   24.37    0.50
   1  -3  15    2.10    0.19
  -1  -3 -15    1.89    0.13
  -1  -3 -15    1.95    0.16
  -1  -3 -15    1.68    0.12
   1  -3  15    1.70    0.17
  -1   3 -15    1.96    0.14
   1   3  15    1.76    0.17
  -1   3 -15    2.10    0.14
   1   3  15    2.08    0.20
  -3  -3 -15   -0.02    0.08
   3  -3  15    0.02    0.07
  -3  -3 -15    0.01    0.06
  -3  -3 -15   -0.01    0.06
   3  -3  15    0.05    0.09
   3   3  15    0.09    0.09
   3   3  15    0.01    0.08
  -3   3 -15    0.07    0.06
  -3   3 -15    0.00    0.06
  -5  -3 -15    0.05    0.08
  -5  -3 -15    0.13    0.09
  -5  -3 -15    0.06    0.07
   5  -3  15    0.06    0.11
   5   3  15    0.09    0.10
  -5   3 -15   -0.02    0.07
   5   3  15   -0.13    0.10
  -7  -3 -15    2.46    0.21
  -7  -3 -15    2.44    0.23
   7  -3  15    2.15    0.25
  -7  -3 -15    2.14    0.21
  -7   3 -15    2.13    0.19
   7   3  15    2.10    0.24
   7   3  15    2.65    0.25
  -8  -4  15    0.14    0.12
  -8  -4  15    0.38    0.12
   8  -4 -15    0.22    0.13
   8   4 -15    0.35    0.11
  -8   4  15    0.20    0.13
  -6  -4  15   79.98    1.43
   6  -4 -15   79.29    1.32
   6  -4 -15   80.01    1.40
  -6  -4  15   79.55    1.41
   6   4 -15   79.30    1.31
   6   4 -15   79.69    1.33
  -6   4  15   79.21    1.43
  -6   4  15   81.02    1.41
   4  -4 -15    2.20    0.17
   4  -4 -15    2.46    0.20
  -4  -4  15    2.62    0.23
  -4   4  15    2.14    0.20
  -4   4  15    2.21    0.23
   4   4 -15    2.21    0.17
   4   4 -15    2.26    0.18
   2  -4 -15    0.05    0.07
  -2  -4  15    0.02    0.07
   2  -4 -15   -0.07    0.05
  -2  -4  15    0.06    0.08
   2  -4 -15   -0.03    0.02
   2   4 -15    0.08    0.06
   2   4 -15   -0.06    0.06
  -2   4  15   -0.02    0.09
   0  -4  15    0.16    0.09
   0  -4 -15    0.15    0.06
   0  -4 -15    0.16    0.07
   0  -4  15    0.33    0.10
   0  -4 -15    0.13    0.08
   0   4  15    0.05    0.07
   0   4 -15    0.36    0.09
   0   4  15    0.17    0.10
   0   4 -15    0.21    0.07
   2  -4  15    3.62    0.24
  -2  -4 -15    4.13    0.20
   2  -4  15    3.60    0.25
  -2  -4 -15    3.77    0.17
  -2  -4 -15    3.50    0.21
   2   4  15    3.61    0.23
  -2   4 -15    3.61    0.19
   2   4  15    4.08    0.26
  -2   4 -15    3.62    0.19
  -4  -4 -15    2.51    0.20
  -4  -4 -15    2.40    0.17
   4  -4  15    2.54    0.25
  -4  -4 -15    2.95    0.20
   4   4  15    2.70    0.25
  -4   4 -15    2.61    0.18
  -4   4 -15    2.65    0.18
   4   4  15    3.00    0.26
  -6  -4 -15   10.03    0.34
   6  -4  15    7.49    0.41
  -6  -4 -15    9.48    0.37
  -6  -4 -15    9.55    0.36
   6   4  15    8.91    0.41
  -6   4 -15    9.36    0.33
   6   4  15    9.74    0.41
  -7  -5  15   -0.06    0.10
   7  -5 -15    0.20    0.12
   7  -5 -15    0.18    0.12
  -7  -5  15    0.04    0.11
  -7   5  15   -0.02    0.11
  -7   5  15    0.07    0.11
   7   5 -15   -0.02    0.10
   7   5 -15    0.26    0.10
  -5  -5  15    1.72    0.20
   5  -5 -15    1.84    0.19
   5  -5 -15    1.68    0.19
  -5   5  15    1.58    0.19
   5   5 -15    1.64    0.16
  -5   5  15    1.75    0.22
   5   5 -15    1.94    0.19
  -3  -5  15    0.12    0.09
   3  -5 -15   -0.01    0.09
   3  -5 -15    0.18    0.09
   3   5 -15    0.23    0.08
  -3   5  15    0.16    0.12
   3   5 -15    0.14    0.08
   1  -5 -15    0.22    0.09
  -1  -5  15    0.11    0.10
   1  -5 -15    0.17    0.08
  -1  -5  15    0.25    0.10
   1   5 -15    0.23    0.07
  -1   5  15    0.13    0.12
   1   5 -15    0.16    0.09
  -1  -5 -15    6.56    0.27
   1  -5  15    6.73    0.32
  -1  -5 -15    7.22    0.30
   1  -5  15    6.61    0.31
   1   5  15    6.28    0.29
  -1   5 -15    6.82    0.25
   1   5  15    7.57    0.37
  -1   5 -15    7.03    0.28
   3  -5  15    1.08    0.18
  -3  -5 -15    1.09    0.16
  -3  -5 -15    0.84    0.14
   3  -5  15    0.97    0.15
   3   5  15    1.44    0.20
   3   5  15    0.97    0.17
  -3   5 -15    1.14    0.13
  -3   5 -15    1.19    0.15
   5  -5  15    1.70    0.24
  -5  -5 -15    1.36    0.17
  -5  -5 -15    1.50    0.19
   5   5  15    1.93    0.24
  -5   5 -15    1.89    0.18
  -6  -6  15    1.51    0.19
   6  -6 -15    1.18    0.18
   6  -6 -15    1.41    0.20
   6   6 -15    1.58    0.18
  -6   6  15    1.25    0.21
  -6   6  15    1.61    0.22
   4  -6 -15    3.37    0.25
   4  -6 -15    3.22    0.23
  -4  -6  15    3.30    0.27
   4   6 -15    3.52    0.23
  -4   6  15    3.27    0.29
  -2  -6  15    9.92    0.41
   2  -6 -15   10.33    0.38
   2  -6 -15    9.75    0.36
  -2  -6  15   10.03    0.39
   2   6 -15    9.44    0.34
  -2   6  15    9.26    0.43
   0  -6  15    6.84    0.34
   0  -6 -15    6.18    0.29
   0  -6  15    6.59    0.33
   0  -6 -15    6.12    0.30
   0   6  15    6.63    0.36
   0   6 -15    6.32    0.28
  -2  -6 -15    0.12    0.10
   2  -6  15    0.22    0.13
   2  -6  15    0.15    0.11
  -2  -6 -15    0.28    0.11
   2   6  15    0.13    0.12
   2   6  15    0.10    0.11
  -2   6 -15    0.20    0.10
   4  -6  15    0.05    0.13
  -4  -6 -15    0.05    0.10
  -4  -6 -15    0.04    0.10
  -4   6 -15    0.06    0.10
   4   6  15   -0.15    0.12
   4   6  15    0.00    0.11
   5  -7 -15    2.35    0.24
  -5  -7  15    2.35    0.28
   5  -7 -15    2.11    0.23
  -5   7  15    2.15    0.28
   3  -7 -15   12.37    0.44
   3  -7 -15   11.70    0.44
  -3  -7  15   11.14    0.46
   3   7 -15   12.14    0.42
  -3   7  15   12.06    0.52
   1  -7 -15    0.28    0.12
  -1  -7  15    0.55    0.16
  -1  -7  15    0.25    0.13
   1  -7 -15    0.43    0.13
  -1   7  15    0.17    0.15
   1   7 -15    0.43    0.11
  -1  -7 -15    0.17    0.12
   1  -7  15    0.10    0.12
  -1  -7 -15    0.13    0.11
   1  -7  15    0.06    0.12
   1   7  15    0.23    0.14
   1   7  15    0.14    0.12
  -1   7 -15    0.22    0.11
 -10   0  16    4.37    0.31
  10   0 -16    3.67    0.29
  10   0 -16    4.29    0.28
   8   0 -16   39.29    0.85
  -8   0  16   39.20    0.84
   8   0 -16   38.01    0.79
  -8   0  16   38.01    0.88
  -6   0  16    8.22    0.34
   6   0 -16    8.08    0.33
  -6   0  16    8.49    0.34
   6   0 -16    8.34    0.30
   4   0 -16   13.01    0.35
  -4   0  16   13.94    0.43
  -4   0  16   13.24    0.40
   4   0 -16   13.65    0.38
   2   0 -16   16.72    0.41
  -2   0  16   17.12    0.48
   2   0 -16   16.30    0.38
  -2   0  16   16.98    0.42
   2   0 -16   16.01    0.39
   0   0  16   34.84    0.64
   0   0  16   34.30    0.67
   0   0 -16   34.43    0.63
   0   0 -16   33.61    0.63
   0   0 -16   33.33    0.59
   0   0  16   33.30    0.72
   2   0  16   26.58    0.62
  -2   0 -16   25.76    0.54
   2   0  16   25.85    0.61
  -2   0 -16   26.71    0.54
  -4   0 -16    4.97    0.23
  -4   0 -16    5.34    0.22
   4   0  16    4.90    0.26
   4   0  16    4.87    0.28
   6   0  16    5.60    0.33
  -6   0 -16    6.10    0.27
   8   0  16   49.83    1.12
  -8   0 -16   48.53    0.96
  -9  -1  16    0.11    0.11
   9  -1 -16    0.07    0.10
   9  -1 -16    0.22    0.13
   9   1 -16    0.01    0.10
  -9   1  16    0.13    0.12
   9   1 -16    0.04    0.10
  -7  -1  16    2.74    0.25
   7  -1 -16    2.87    0.23
  -7  -1  16    2.66    0.21
   7  -1 -16    2.67    0.19
  -7   1  16    2.46    0.23
   7   1 -16    2.51    0.19
   7   1 -16    2.06    0.20
  -7   1  16    2.24    0.22
  -5  -1  16    3.61    0.23
   5  -1 -16    3.88    0.23
   5  -1 -16    3.71    0.19
  -5  -1  16    4.11    0.24
   5   1 -16    3.90    0.20
   5   1 -16    3.96    0.22
  -5   1  16    4.22    0.23
  -5   1  16    3.82    0.24
   3  -1 -16    5.64    0.24
  -3  -1  16    5.78    0.25
   3  -1 -16    5.84    0.22
  -3  -1  16    6.10    0.28
   3   1 -16    5.89    0.23
   3   1 -16    6.09    0.23
   3   1 -16    5.84    0.23
  -3   1  16    5.69    0.25
  -3   1  16    6.09    0.29
   1  -1 -16    0.23    0.06
  -1  -1  16    0.30    0.08
   1  -1 -16    0.22    0.07
  -1  -1  16    0.15    0.08
  -1   1  16    0.15    0.06
  -1   1  16    0.14    0.08
   1   1 -16    0.12    0.06
   1   1 -16    0.15    0.06
  -1   1  16    0.14    0.06
   1   1 -16    0.25    0.06
   1  -1  16   61.95    1.08
  -1  -1 -16   59.68    1.01
  -1  -1 -16   60.11    0.98
   1  -1  16   59.69    1.08
  -1   1 -16   61.41    0.96
   1   1  16   62.04    1.11
  -1   1 -16   61.27    0.95
   1   1  16   61.78    1.06
  -1   1 -16   60.23    0.99
  -3  -1 -16   10.06    0.31
  -3  -1 -16   10.16    0.32
   3  -1  16   10.59    0.36
   3  -1  16    9.74    0.37
   3   1  16    9.77    0.37
   3   1  16    9.90    0.36
  -3   1 -16   10.22    0.31
   5  -1  16    0.47    0.13
  -5  -1 -16    0.22    0.10
  -5  -1 -16    0.31    0.09
   5   1  16    0.32    0.12
  -5   1 -16    0.43    0.10
  -7  -1 -16    0.11    0.09
   7  -1  16    0.06    0.12
  -7  -1 -16    0.00    0.09
   7   1  16    0.07    0.11
  -7   1 -16    0.07    0.09
  10   2 -16    5.98    0.32
  10   2 -16    6.84    0.36
   8  -2 -16    0.12    0.10
  -8  -2  16    0.19    0.12
   8  -2 -16    0.02    0.11
  -8  -2  16    0.13    0.10
  -8   2  16    0.16    0.12
   8   2 -16    0.23    0.11
   8   2 -16    0.25    0.11
   6  -2 -16   28.47    0.60
   6  -2 -16   29.12    0.68
  -6  -2  16   28.32    0.69
  -6  -2  16   27.79    0.68
  -6   2  16   28.55    0.68
   6   2 -16   29.88    0.63
   6   2 -16   28.72    0.63
  -6   2  16   29.50    0.71
   4  -2 -16    0.70    0.12
  -4  -2  16    0.77    0.13
  -4  -2  16    0.83    0.14
   4  -2 -16    0.88    0.11
  -4   2  16    0.71    0.12
  -4   2  16    0.62    0.14
   4   2 -16    1.14    0.13
   4   2 -16    0.83    0.12
   4   2 -16    0.80    0.11
   2  -2 -16   10.87    0.30
   2  -2 -16   11.25    0.35
  -2  -2  16   11.34    0.39
  -2   2  16   10.86    0.40
  -2   2  16   11.48    0.33
   2   2 -16   10.59    0.31
   2   2 -16   10.85    0.32
   0  -2  16    0.57    0.09
   0  -2 -16    0.65    0.09
   0  -2  16    0.65    0.12
   0  -2 -16    0.65    0.11
   0   2  16    0.78    0.11
   0   2 -16    0.52    0.08
   0   2 -16    0.56    0.09
   0   2  16    0.46    0.11
   2  -2  16   17.91    0.49
  -2  -2 -16   18.24    0.45
   2  -2  16   17.70    0.51
  -2  -2 -16   18.26    0.42
   2   2  16   17.43    0.50
  -2   2 -16   17.84    0.42
   2   2  16   17.86    0.48
  -2   2 -16   17.95    0.40
  -4  -2 -16   29.31    0.61
  -4  -2 -16   29.88    0.65
   4  -2  16   30.38    0.74
   4   2  16   30.49    0.69
  -4   2 -16   29.41    0.61
   4   2  16   28.74    0.70
  -6  -2 -16    2.70    0.21
   6  -2  16    2.33    0.25
  -6  -2 -16    2.86    0.20
   6   2  16    2.86    0.28
  -6   2 -16    2.84    0.20
  -9  -3  16    0.34    0.14
   9  -3 -16    0.09    0.09
   9  -3 -16    0.15    0.12
  -9   3  16   -0.14    0.12
   9   3 -16    0.04    0.11
  -7  -3  16    1.13    0.18
   7  -3 -16    1.05    0.16
  -7  -3  16    0.96    0.16
   7  -3 -16    1.14    0.14
  -7   3  16    1.16    0.18
   7   3 -16    0.76    0.14
  -7   3  16    1.35    0.19
  -5  -3  16    0.16    0.10
   5  -3 -16    0.24    0.10
   5  -3 -16    0.35    0.09
  -5  -3  16    0.44    0.13
  -5   3  16    0.27    0.11
   5   3 -16    0.10    0.08
  -5   3  16    0.22    0.11
   5   3 -16    0.28    0.09
   3  -3 -16    0.47    0.08
  -3  -3  16    0.50    0.12
   3  -3 -16    0.54    0.11
   3   3 -16    0.48    0.09
  -3   3  16    0.41    0.10
   3   3 -16    0.49    0.09
  -3   3  16    0.35    0.12
  -1  -3  16    2.32    0.18
   1  -3 -16    2.49    0.14
   1  -3 -16    2.46    0.17
  -1  -3  16    2.45    0.22
  -1   3  16    2.34    0.22
   1   3 -16    2.68    0.16
   1   3 -16    2.45    0.16
   1  -3  16   13.20    0.42
  -1  -3 -16   12.42    0.33
   1  -3  16   12.76    0.41
  -1  -3 -16   12.62    0.38
  -1   3 -16   12.80    0.34
   1   3  16   12.74    0.39
   1   3  16   13.11    0.45
  -1   3 -16   12.62    0.34
   3  -3  16   -0.05    0.10
  -3  -3 -16   -0.02    0.06
  -3  -3 -16   -0.08    0.06
  -3  -3 -16   -0.01    0.07
   3  -3  16    0.01    0.08
  -3   3 -16    0.00    0.06
   3   3  16    0.07    0.09
   3   3  16    0.15    0.10
  -5  -3 -16    6.54    0.27
  -5  -3 -16    6.62    0.29
   5  -3  16    6.40    0.35
  -5  -3 -16    6.45    0.30
   5   3  16    6.06    0.34
  -5   3 -16    6.09    0.26
  -7  -3 -16    4.29    0.26
   7  -3  16    4.20    0.33
  -7  -3 -16    4.19    0.27
  -7   3 -16    3.86    0.25
   7   3  16    4.46    0.31
  -8  -4  16    5.28    0.33
   8  -4 -16    5.47    0.34
  -8   4  16    4.73    0.33
   8   4 -16    4.72    0.28
  -6  -4  16   31.64    0.78
  -6  -4  16   32.55    0.77
   6  -4 -16   31.84    0.76
   6   4 -16   33.50    0.70
  -6   4  16   32.34    0.77
   6   4 -16   33.13    0.72
  -6   4  16   33.00    0.81
   4  -4 -16    6.20    0.30
  -4  -4  16    6.58    0.32
  -4   4  16    6.27    0.34
  -4   4  16    6.54    0.29
   4   4 -16    5.90    0.26
   4   4 -16    6.44    0.26
   2  -4 -16    0.06    0.07
  -2  -4  16   -0.03    0.08
   2  -4 -16    0.02    0.07
   2  -4 -16    0.04    0.05
  -2   4  16    0.11    0.10
   2   4 -16   -0.01    0.07
   2   4 -16    0.05    0.07
   0  -4  16    0.82    0.15
   0  -4  16    0.68    0.14
   0  -4 -16    0.64    0.09
   0  -4 -16    0.56    0.12
   0  -4 -16    0.71    0.11
   0   4 -16    0.60    0.11
   0   4 -16    0.61    0.10
   0   4  16    0.29    0.12
  -2  -4 -16    2.57    0.20
   2  -4  16    2.34    0.24
  -2  -4 -16    2.93    0.16
  -2  -4 -16    2.85    0.18
   2  -4  16    2.34    0.22
  -2   4 -16    2.93    0.17
   2   4  16    2.87    0.26
  -2   4 -16    2.86    0.18
   2   4  16    2.78    0.22
   4  -4  16    1.22    0.20
  -4  -4 -16    0.88    0.12
  -4  -4 -16    1.00    0.14
  -4  -4 -16    1.11    0.17
  -4   4 -16    1.16    0.14
   4   4  16    0.83    0.17
   4   4  16    0.90    0.16
   6  -4  16    2.09    0.25
  -6  -4 -16    3.00    0.21
  -6  -4 -16    2.50    0.23
  -6  -4 -16    2.86    0.25
  -6   4 -16    2.71    0.22
   6   4  16    2.51    0.27
  -7  -5  16    4.32    0.30
   7  -5 -16    4.65    0.31
  -7  -5  16    4.37    0.31
  -7   5  16    4.34    0.30
   7   5 -16    3.82    0.26
  -7   5  16    3.65    0.30
   7   5 -16    3.74    0.26
   5  -5 -16    7.24    0.34
  -5  -5  16    7.18    0.36
   5  -5 -16    7.08    0.32
  -5   5  16    7.36    0.38
   5   5 -16    7.50    0.31
   5   5 -16    7.40    0.30
  -3  -5  16    0.29    0.11
   3  -5 -16    0.34    0.11
   3  -5 -16    0.45    0.12
   3   5 -16    0.33    0.09
   3   5 -16    0.41    0.10
  -3   5  16    0.41    0.14
   1  -5 -16    0.58    0.12
  -1  -5  16    0.60    0.13
   1  -5 -16    0.39    0.10
  -1  -5  16    0.37    0.12
   1   5 -16    0.60    0.12
   1   5 -16    0.58    0.10
  -1   5  16    0.40    0.14
  -1  -5 -16   13.11    0.39
   1  -5  16   12.81    0.46
  -1  -5 -16   13.12    0.42
   1  -5  16   13.24    0.46
  -1   5 -16   12.53    0.35
   1   5  16   12.99    0.43
   1   5  16   13.27    0.49
  -1   5 -16   13.13    0.39
   3  -5  16    0.35    0.15
   3  -5  16    0.56    0.14
  -3  -5 -16    0.26    0.10
  -3  -5 -16    0.24    0.12
  -3   5 -16    0.57    0.10
   3   5  16    0.27    0.14
  -3   5 -16    0.43    0.11
   3   5  16    0.51    0.14
  -5  -5 -16    9.94    0.38
  -5  -5 -16    9.94    0.41
   5  -5  16   10.74    0.48
   5   5  16    9.49    0.44
  -6  -6  16   15.61    0.55
   6  -6 -16   14.33    0.52
   6  -6 -16   15.34    0.50
  -6   6  16   15.77    0.57
   4  -6 -16    6.46    0.34
  -4  -6  16    7.15    0.36
   4  -6 -16    6.82    0.32
   4   6 -16    6.18    0.30
  -4   6  16    6.23    0.38
  -2  -6  16    0.18    0.12
   2  -6 -16    0.18    0.10
   2  -6 -16    0.47    0.13
  -2   6  16    0.58    0.16
   2   6 -16    0.46    0.12
   0  -6  16    3.90    0.28
   0  -6 -16    3.24    0.24
   0  -6 -16    3.58    0.24
   0  -6  16    3.48    0.26
   0   6  16    3.93    0.31
   0   6 -16    3.63    0.23
   2  -6  16    9.23    0.40
  -2  -6 -16    7.90    0.34
  -2  -6 -16    8.18    0.36
   2  -6  16    8.83    0.42
   2   6  16    8.68    0.39
  -2   6 -16    8.83    0.34
   2   6  16    7.80    0.41
  -4  -6 -16    0.95    0.17
   4  -6  16    1.03    0.20
  -4   6 -16    0.82    0.14
   4   6  16    0.62    0.17
   4   6  16    0.93    0.19
  -3  -7  16    2.73    0.29
   3  -7 -16    2.96    0.27
   3  -7 -16    2.52    0.25
  -3   7  16    2.85    0.30
  -1  -7  16    4.70    0.32
   1  -7 -16    4.34    0.28
  -1  -7  16    4.88    0.32
   1  -7 -16    5.11    0.30
   1   7 -16    4.37    0.28
  -1   7  16    4.49    0.35
   1  -7  16    5.14    0.33
   1  -7  16    4.98    0.35
  -1  -7 -16    4.79    0.29
   1   7  16    5.05    0.36
  10   0 -17   -0.04    0.12
  10   0 -17   -0.08    0.10
   8   0 -17    0.01    0.10
  -8   0  17    0.03    0.09
   8   0 -17    0.16    0.10
  -8   0  17    0.07    0.10
  -6   0  17   -0.09    0.08
  -6   0  17   -0.02    0.08
   6   0 -17   -0.02    0.08
   6   0 -17    0.12    0.10
   4   0 -17   -0.06    0.07
   4   0 -17    0.02    0.06
  -4   0  17    0.13    0.08
  -4   0  17    0.02    0.07
   2   0 -17   -0.03    0.06
   2   0 -17   -0.08    0.05
  -2   0  17   -0.02    0.08
  -2   0  17   -0.06    0.06
   0   0  17    0.09    0.09
   0   0  17    0.11    0.07
   0   0 -17    0.14    0.07
   0   0 -17    0.15    0.06
   2   0  17    0.07    0.09
  -2   0 -17    0.01    0.05
   2   0  17    0.05    0.08
  -2   0 -17   -0.10    0.06
  -4   0 -17    0.04    0.07
  -4   0 -17   -0.01    0.07
   4   0  17    0.05    0.08
   6   0  17    0.06    0.12
  -6   0 -17    0.03    0.08
  -9  -1  17    2.19    0.26
   9  -1 -17    2.58    0.26
   9  -1 -17    2.18    0.21
   9   1 -17    2.22    0.24
   9   1 -17    2.43    0.22
  -9   1  17    2.29    0.25
   7  -1 -17    4.46    0.24
  -7  -1  17    4.43    0.27
   7  -1 -17    4.53    0.28
  -7  -1  17    4.79    0.29
   7   1 -17    4.40    0.24
   7   1 -17    4.50    0.27
  -7   1  17    4.75    0.29
  -7   1  17    4.57    0.28
   5  -1 -17    3.00    0.21
   5  -1 -17    3.00    0.18
  -5  -1  17    3.02    0.23
  -5  -1  17    3.02    0.22
  -5   1  17    3.07    0.21
  -5   1  17    3.10    0.24
   5   1 -17    3.02    0.20
   5   1 -17    3.09    0.19
   3  -1 -17    9.04    0.32
   3  -1 -17    9.53    0.29
  -3  -1  17    9.19    0.36
  -3  -1  17    9.82    0.34
  -3   1  17    9.70    0.33
   3   1 -17    9.26    0.30
  -3   1  17    9.40    0.37
   3   1 -17    9.62    0.31
   3   1 -17    9.91    0.30
  -1  -1  17   19.92    0.54
   1  -1 -17   19.37    0.44
   1  -1 -17   20.45    0.47
   1   1 -17   19.90    0.43
   1   1 -17   19.69    0.45
   1   1 -17   19.26    0.43
  -1   1  17   18.70    0.53
   1  -1  17    8.14    0.32
   1  -1  17    7.62    0.32
  -1  -1 -17    7.92    0.27
  -1  -1 -17    8.43    0.29
   1   1  17    8.01    0.34
   1   1  17    7.47    0.30
  -1   1 -17    7.74    0.27
  -3  -1 -17    0.78    0.12
   3  -1  17    0.52    0.12
  -3  -1 -17    0.59    0.11
   3  -1  17    0.74    0.15
   3   1  17    0.61    0.13
   3   1  17    0.64    0.14
  -3   1 -17    0.58    0.11
  -5  -1 -17    7.09    0.29
   5  -1  17    7.55    0.37
  -5  -1 -17    7.71    0.31
   5   1  17    7.83    0.37
  -5   1 -17    7.36    0.30
  -7  -1 -17   12.57    0.42
   7  -1  17   12.77    0.51
  -7  -1 -17   13.50    0.44
   7   1  17   12.97    0.52
  -7   1 -17   12.98    0.42
  -8  -2  17    0.89    0.17
   8  -2 -17    0.96    0.17
   8  -2 -17    0.79    0.14
  -8  -2  17    0.75    0.14
   8   2 -17    1.11    0.17
  -8   2  17    0.96    0.18
   8   2 -17    1.25    0.17
  -8   2  17    0.70    0.15
  -6  -2  17    0.62    0.14
   6  -2 -17    0.66    0.12
  -6  -2  17    0.86    0.15
   6  -2 -17    0.57    0.13
   6   2 -17    0.61    0.12
  -6   2  17    0.49    0.13
   6   2 -17    0.66    0.13
  -6   2  17    0.45    0.13
  -4  -2  17    4.52    0.26
  -4  -2  17    3.81    0.24
   4  -2 -17    3.69    0.23
   4  -2 -17    3.89    0.20
   4   2 -17    3.93    0.21
  -4   2  17    3.93    0.27
   4   2 -17    4.05    0.22
  -4   2  17    4.25    0.23
   2  -2 -17    3.59    0.18
  -2  -2  17    3.25    0.23
   2  -2 -17    3.42    0.21
   2   2 -17    3.59    0.18
   2   2 -17    3.24    0.19
  -2   2  17    3.61    0.25
   0  -2  17    3.04    0.22
   0  -2  17    3.28    0.21
   0  -2 -17    3.03    0.20
   0  -2 -17    2.99    0.17
   0   2 -17    3.33    0.18
   0   2  17    2.68    0.22
   0   2 -17    3.32    0.17
   2  -2  17    1.98    0.21
   2  -2  17    2.49    0.22
  -2  -2 -17    2.15    0.16
  -2  -2 -17    2.12    0.17
  -2   2 -17    2.44    0.17
   2   2  17    2.08    0.20
   2   2  17    2.69    0.23
  -4  -2 -17    1.24    0.15
   4  -2  17    1.20    0.19
  -4  -2 -17    1.21    0.16
   4   2  17    0.85    0.15
  -4   2 -17    1.48    0.16
   4   2  17    1.31    0.19
   6  -2  17    0.56    0.16
  -6  -2 -17    0.29    0.10
  -6  -2 -17    0.40    0.12
  -6   2 -17    0.36    0.12
   6   2  17    0.19    0.13
   9  -3 -17    0.12    0.11
  -9   3  17    0.13    0.14
   9   3 -17    0.25    0.13
  -7  -3  17   21.30    0.61
   7  -3 -17   20.67    0.60
  -7  -3  17   20.87    0.62
   7  -3 -17   21.34    0.52
  -7   3  17   21.43    0.63
  -7   3  17   21.56    0.62
   7   3 -17   21.51    0.56
   5  -3 -17    1.74    0.16
   5  -3 -17    1.67    0.18
  -5  -3  17    1.60    0.20
  -5  -3  17    1.45    0.19
   5   3 -17    1.83    0.17
   5   3 -17    1.75    0.18
  -5   3  17    1.62    0.20
  -5   3  17    1.82    0.19
  -3  -3  17    6.41    0.31
   3  -3 -17    6.39    0.24
   3  -3 -17    6.54    0.30
   3   3 -17    6.35    0.26
   3   3 -17    6.82    0.27
  -3   3  17    6.36    0.33
  -1  -3  17    0.93    0.15
   1  -3 -17    1.10    0.12
  -1  -3  17    1.03    0.14
   1  -3 -17    0.80    0.13
   1   3 -17    0.74    0.11
  -1   3  17    0.79    0.15
   1   3 -17    1.06    0.12
   1  -3  17  130.92    2.01
   1  -3  17  121.97    1.99
  -1  -3 -17  130.58    1.94
  -1  -3 -17  125.59    1.84
  -1   3 -17  126.85    1.86
   1   3  17  128.33    2.05
  -1   3 -17  125.62    1.86
   1   3  17  125.95    1.94
   3  -3  17    4.37    0.27
  -3  -3 -17    4.58    0.24
   3  -3  17    4.22    0.29
  -3  -3 -17    4.45    0.21
   3   3  17    3.91    0.26
   3   3  17    4.41    0.28
  -3   3 -17    4.20    0.21
  -5  -3 -17   -0.07    0.09
   5  -3  17   -0.21    0.11
  -5  -3 -17    0.11    0.08
  -5   3 -17    0.08    0.09
   5   3  17    0.07    0.12
   8  -4 -17   -0.22    0.11
  -8  -4  17    0.13    0.14
  -8  -4  17   -0.02    0.11
   8   4 -17    0.05    0.11
  -8   4  17   -0.06    0.13
   6  -4 -17    1.51    0.20
  -6  -4  17    1.55    0.19
  -6  -4  17    1.45    0.21
   6   4 -17    1.93    0.19
  -6   4  17    1.58    0.21
  -6   4  17    1.61    0.21
   6   4 -17    1.58    0.18
  -4  -4  17    0.14    0.10
   4  -4 -17    0.05    0.10
  -4   4  17    0.04    0.11
   4   4 -17    0.07    0.07
   4   4 -17   -0.06    0.07
   2  -4 -17    1.74    0.15
  -2  -4  17    2.15    0.22
   2  -4 -17    1.80    0.19
  -2   4  17    1.74    0.21
   2   4 -17    1.86    0.17
   2   4 -17    2.07    0.17
   0  -4  17   -0.05    0.08
   0  -4 -17    0.03    0.06
   0  -4 -17   -0.02    0.09
   0  -4  17   -0.04    0.09
   0   4 -17    0.02    0.07
   0   4  17    0.10    0.11
   0   4 -17   -0.01    0.06
  -2  -4 -17    2.99    0.18
   2  -4  17    2.90    0.26
  -2  -4 -17    2.81    0.22
   2  -4  17    2.94    0.25
  -2   4 -17    3.04    0.19
   2   4  17    2.70    0.22
  -2   4 -17    2.82    0.18
   2   4  17    2.83    0.27
   4  -4  17    4.48    0.32
  -4  -4 -17    4.80    0.28
  -4  -4 -17    4.95    0.23
   4   4  17    4.46    0.30
  -4   4 -17    4.95    0.25
   4   4  17    4.52    0.31
  -7  -5  17   13.80    0.51
   7   5 -17   14.82    0.47
  -7   5  17   14.52    0.52
  -7   5  17   14.03    0.54
   5  -5 -17    3.03    0.25
  -5  -5  17    3.28    0.27
   5   5 -17    3.03    0.22
   5   5 -17    2.85    0.22
  -5   5  17    3.10    0.30
  -3  -5  17   10.83    0.44
   3  -5 -17   11.08    0.41
   3   5 -17    9.73    0.35
  -3   5  17   10.57    0.46
   3   5 -17   10.90    0.35
   1  -5 -17   13.60    0.45
  -1  -5  17   13.83    0.46
   1  -5 -17   14.38    0.41
  -1  -5  17   13.10    0.48
  -1   5  17   13.94    0.52
   1   5 -17   14.49    0.39
   1   5 -17   14.18    0.42
  -1  -5 -17   15.90    0.49
  -1  -5 -17   16.47    0.45
   1  -5  17   15.83    0.52
   1  -5  17   15.37    0.53
   1   5  17   16.22    0.49
  -1   5 -17   15.70    0.44
   1   5  17   15.53    0.55
  -1   5 -17   15.79    0.41
  -3  -5 -17    6.89    0.34
  -3  -5 -17    6.36    0.29
   3  -5  17    6.00    0.32
   3  -5  17    6.06    0.36
   3   5  17    6.15    0.36
   3   5  17    7.10    0.35
  -3   5 -17    6.36    0.27
  -3   5 -17    6.68    0.29
  -4  -6  17    7.08    0.38
   4  -6 -17    7.22    0.33
   4  -6 -17    7.70    0.37
   4   6 -17    6.38    0.31
  -4   6  17    7.19    0.42
   2  -6 -17    5.60    0.30
   2  -6 -17    5.85    0.32
  -2  -6  17    6.09    0.34
  -2   6  17    5.97    0.37
   2   6 -17    5.29    0.28
   0  -6 -17    1.82    0.19
   0  -6 -17    2.03    0.22
   0  -6  17    2.26    0.24
   0  -6  17    2.08    0.24
   0   6  17    2.20    0.26
   0   6 -17    1.77    0.18
  -2  -6 -17    0.06    0.11
  -2  -6 -17    0.04    0.10
   2  -6  17    0.12    0.12
   2  -6  17    0.18    0.14
   2   6  17    0.05    0.13
  -2   6 -17   -0.03    0.09
   2   6  17    0.16    0.12
  -8   0  18    0.66    0.15
   8   0 -18    0.39    0.14
   8   0 -18    0.40    0.13
  -8   0  18    0.30    0.13
  -6   0  18   53.64    1.05
   6   0 -18   53.94    0.98
   6   0 -18   52.01    1.02
  -6   0  18   53.06    1.07
  -4   0  18    5.55    0.27
   4   0 -18    4.70    0.25
  -4   0  18    4.86    0.28
   4   0 -18    5.12    0.23
  -2   0  18    1.56    0.18
   2   0 -18    2.13    0.17
   2   0 -18    2.10    0.16
  -2   0  18    1.83    0.17
   0   0 -18    0.69    0.11
   0   0  18    0.83    0.14
   0   0  18    0.60    0.11
   0   0 -18    0.99    0.12
  -2   0 -18   18.80    0.45
   2   0  18   19.31    0.54
  -2   0 -18   19.69    0.47
   2   0  18   19.93    0.54
  -4   0 -18   18.77    0.48
   4   0  18   19.38    0.58
  -6   0 -18    1.89    0.18
   6   0  18    2.46    0.28
   9  -1 -18    0.18    0.13
  -9  -1  18    0.29    0.16
   9  -1 -18    0.23    0.11
  -9   1  18    0.41    0.15
   9   1 -18    0.42    0.15
   9   1 -18    0.31    0.13
  -7  -1  18    5.01    0.31
  -7  -1  18    5.29    0.31
   7  -1 -18    5.18    0.27
   7  -1 -18    4.58    0.29
   7   1 -18    5.32    0.28
  -7   1  18    5.23    0.32
   7   1 -18    5.71    0.30
  -7   1  18    5.54    0.31
   5  -1 -18    1.56    0.18
   5  -1 -18    1.33    0.15
  -5  -1  18    1.27    0.17
  -5  -1  18    2.15    0.21
  -5   1  18    1.37    0.19
   5   1 -18    1.56    0.16
   5   1 -18    1.58    0.17
  -5   1  18    1.43    0.17
  -3  -1  18    5.77    0.27
   3  -1 -18    5.65    0.26
   3  -1 -18    6.23    0.25
  -3  -1  18    6.05    0.30
   3   1 -18    5.51    0.25
   3   1 -18    6.17    0.24
  -3   1  18    5.93    0.26
  -3   1  18    5.68    0.31
   3   1 -18    6.00    0.25
   1  -1 -18    4.46    0.20
   1  -1 -18    4.08    0.21
  -1  -1  18    4.13    0.26
  -1  -1  18    3.98    0.23
   1   1 -18    4.29    0.21
   1   1 -18    3.90    0.18
  -1   1  18    3.99    0.26
  -1  -1 -18    4.11    0.20
  -1  -1 -18    4.20    0.22
   1  -1  18    4.72    0.27
   1  -1  18    4.89    0.26
   1   1  18    4.30    0.24
   1   1  18    4.66    0.28
  -1   1 -18    4.59    0.22
  -3  -1 -18    0.13    0.08
  -3  -1 -18    0.15    0.07
   3  -1  18    0.28    0.12
   3  -1  18    0.13    0.10
   3   1  18    0.09    0.10
   3   1  18    0.10    0.10
  -3   1 -18    0.25    0.09
   5  -1  18    5.71    0.34
  -5  -1 -18    5.41    0.26
  -5  -1 -18    6.06    0.29
  -5   1 -18    5.49    0.27
   5   1  18    4.78    0.31
   8  -2 -18   11.77    0.41
  -8  -2  18   13.40    0.50
  -8  -2  18   12.57    0.47
   8  -2 -18   13.15    0.48
  -8   2  18   12.25    0.47
   8   2 -18   12.06    0.43
  -8   2  18   12.95    0.50
  -6  -2  18    0.65    0.15
   6  -2 -18    0.62    0.14
   6  -2 -18    0.39    0.11
  -6  -2  18    0.52    0.14
  -6   2  18    0.42    0.13
   6   2 -18    0.36    0.11
  -6   2  18    0.51    0.15
   4  -2 -18    8.17    0.29
  -4  -2  18    8.83    0.35
   4  -2 -18    8.45    0.34
  -4  -2  18    8.09    0.36
   4   2 -18    8.66    0.31
  -4   2  18    8.81    0.39
  -4   2  18    8.48    0.33
   4   2 -18    8.49    0.31
   2  -2 -18    2.35    0.19
   2  -2 -18    2.66    0.16
  -2  -2  18    2.04    0.22
  -2   2  18    2.06    0.22
   2   2 -18    2.25    0.17
   2   2 -18    2.19    0.16
   0  -2  18   13.15    0.45
   0  -2 -18   13.13    0.36
   0  -2  18   14.03    0.43
   0  -2 -18   13.58    0.40
   0   2 -18   14.31    0.38
   0   2 -18   13.89    0.37
   0   2  18   13.43    0.47
   2  -2  18    2.77    0.23
   2  -2  18    2.89    0.23
  -2  -2 -18    3.29    0.21
  -2  -2 -18    3.09    0.19
   2   2  18    2.79    0.25
   2   2  18    2.73    0.22
  -2   2 -18    2.92    0.19
  -4  -2 -18    1.55    0.16
  -4  -2 -18    1.61    0.18
   4  -2  18    1.36    0.20
  -4   2 -18    1.15    0.14
   4   2  18    1.52    0.20
  -6  -2 -18    1.37    0.19
   6  -2  18    0.98    0.20
  -6  -2 -18    1.47    0.18
  -6   2 -18    1.15    0.16
   6   2  18    0.92    0.18
  -7  -3  18    1.26    0.19
   7  -3 -18    1.40    0.20
  -7  -3  18    1.08    0.20
   7  -3 -18    1.84    0.18
  -7   3  18    1.17    0.19
  -7   3  18    1.42    0.20
   7   3 -18    1.64    0.19
   5  -3 -18    1.45    0.15
   5  -3 -18    1.76    0.21
  -5  -3  18    1.17    0.18
  -5  -3  18    1.36    0.19
  -5   3  18    1.44    0.20
   5   3 -18    1.45    0.17
  -5   3  18    1.46    0.19
   5   3 -18    1.72    0.18
  -3  -3  18    0.23    0.11
   3  -3 -18    0.23    0.10
   3  -3 -18    0.25    0.07
  -3   3  18    0.24    0.12
   3   3 -18    0.39    0.10
   3   3 -18    0.19    0.09
   1  -3 -18    0.71    0.13
   1  -3 -18    0.88    0.12
  -1  -3  18    1.12    0.17
   1   3 -18    1.10    0.13
   1   3 -18    0.82    0.12
  -1   3  18    0.74    0.15
   1  -3  18    2.33    0.23
   1  -3  18    2.62    0.24
  -1  -3 -18    2.61    0.17
  -1  -3 -18    2.63    0.20
  -1   3 -18    2.52    0.18
  -1   3 -18    2.44    0.17
   1   3  18    2.66    0.20
   1   3  18    2.74    0.25
   3  -3  18    1.87    0.20
   3  -3  18    2.16    0.24
  -3  -3 -18    1.99    0.17
  -3  -3 -18    2.10    0.20
  -3   3 -18    2.40    0.19
   3   3  18    2.12    0.23
   3   3  18    1.97    0.22
  -5  -3 -18    0.73    0.15
  -5  -3 -18    0.45    0.11
   5  -3  18    0.68    0.18
  -5   3 -18    0.51    0.12
   5   3  18    0.54    0.16
   6  -4 -18    0.12    0.11
  -6  -4  18    0.23    0.13
  -6  -4  18    0.02    0.10
  -6   4  18    0.19    0.12
  -6   4  18    0.16    0.12
   6   4 -18   -0.01    0.10
   6   4 -18    0.24    0.11
   4  -4 -18   12.15    0.44
  -4  -4  18   13.06    0.47
  -4   4  18   11.75    0.49
   4   4 -18   12.54    0.39
   4   4 -18   12.56    0.40
  -2  -4  18    0.12    0.11
   2  -4 -18    0.15    0.11
  -2   4  18    0.23    0.13
   2   4 -18    0.25    0.09
   2   4 -18    0.35    0.10
   0  -4 -18    5.79    0.24
   0  -4  18    5.26    0.30
   0  -4  18    5.33    0.30
   0  -4 -18    5.83    0.29
   0   4 -18    5.61    0.25
   0   4 -18    4.86    0.24
   0   4  18    4.87    0.32
   2  -4  18   13.66    0.48
  -2  -4 -18   13.64    0.37
  -2  -4 -18   13.50    0.44
   2  -4  18   13.20    0.48
  -2   4 -18   14.00    0.39
   2   4  18   13.18    0.45
  -2   4 -18   13.14    0.39
   2   4  18   12.96    0.50
  -4  -4 -18    7.84    0.35
   4  -4  18    7.91    0.42
  -4  -4 -18    7.72    0.29
  -4   4 -18    7.60    0.31
  -5  -5  18    2.33    0.25
   5  -5 -18    1.83    0.22
  -5   5  18    2.26    0.28
   5   5 -18    2.39    0.23
   5   5 -18    2.10    0.20
   3  -5 -18   12.10    0.44
  -3  -5  18   12.15    0.47
   3   5 -18   12.15    0.40
   3   5 -18   11.73    0.37
  -3   5  18   11.76    0.50
  -1  -5  18    1.71    0.22
   1  -5 -18    1.70    0.20
   1   5 -18    1.70    0.16
   1   5 -18    1.32    0.16
  -1   5  18    1.73    0.24
   1  -5  18   14.84    0.53
  -1  -5 -18   14.61    0.48
   1  -5  18   14.26    0.50
  -1   5 -18   14.76    0.41
  -1   5 -18   14.90    0.44
   1   5  18   14.80    0.55
   3  -5  18    0.14    0.14
  -3  -5 -18    0.31    0.12
  -3   5 -18    0.42    0.11
   3   5  18    0.14    0.13
   3   5  18    0.09    0.12
  -3   5 -18    0.33    0.11
  -4   6  18    7.49    0.46
  -2  -6  18    0.68    0.17
   2  -6 -18    0.47    0.14
  -2   6  18    0.39    0.16
   2   6 -18    0.57    0.14
   0  -6 -18    5.63    0.32
   0  -6  18    6.04    0.36
   0  -6  18    5.98    0.36
   0   6 -18    5.79    0.29
   0   6  18    5.75    0.39
  -8   0  19    0.13    0.13
   8   0 -19    0.10    0.10
   8   0 -19   -0.06    0.12
  -8   0  19   -0.12    0.11
  -6   0  19    0.17    0.10
   6   0 -19    0.06    0.08
  -6   0  19    0.07    0.11
   6   0 -19    0.06    0.11
   4   0 -19   -0.09    0.09
  -4   0  19   -0.06    0.09
  -4   0  19   -0.04    0.08
   4   0 -19    0.02    0.07
  -2   0  19    0.01    0.10
   2   0 -19    0.03    0.07
   2   0 -19   -0.02    0.07
  -2   0  19   -0.08    0.06
   0   0 -19    0.03    0.06
   0   0  19    0.01    0.08
   0   0 -19    0.01    0.06
   2   0  19   -0.01    0.09
  -2   0 -19    0.03    0.07
   2   0  19   -0.13    0.09
  -4   0 -19    0.02    0.08
   4   0  19   -0.03    0.10
   6   0  19    0.05    0.13
  -6   0 -19   -0.07    0.09
  -7  -1  19    1.37    0.20
   7  -1 -19    1.48    0.20
   7  -1 -19    1.57    0.17
  -7  -1  19    1.66    0.21
  -7   1  19    1.50    0.21
   7   1 -19    1.27    0.17
   7   1 -19    1.70    0.21
  -7   1  19    1.76    0.22
  -5  -1  19    0.41    0.13
   5  -1 -19    0.38    0.11
  -5  -1  19    0.25    0.11
   5  -1 -19    0.11    0.10
  -5   1  19    0.26    0.12
  -5   1  19    0.41    0.14
   5   1 -19    0.18    0.10
   5   1 -19    0.20    0.09
   3  -1 -19    1.04    0.14
   3  -1 -19    0.86    0.12
  -3  -1  19    1.20    0.16
  -3  -1  19    0.99    0.16
  -3   1  19    1.24    0.15
   3   1 -19    1.06    0.13
   3   1 -19    1.12    0.14
  -3   1  19    0.73    0.14
   1  -1 -19    3.54    0.21
  -1  -1  19    3.30    0.25
  -1  -1  19    3.55    0.22
   1  -1 -19    3.35    0.19
   1   1 -19    3.89    0.21
  -1   1  19    3.51    0.26
   1   1 -19    3.50    0.19
   1  -1  19    9.12    0.38
  -1  -1 -19    8.84    0.32
   1  -1  19    8.97    0.37
  -1  -1 -19    9.35    0.31
   1   1  19    9.33    0.35
   1   1  19    8.68    0.38
  -1   1 -19    9.15    0.31
  -3  -1 -19    5.58    0.25
   3  -1  19    5.02    0.29
   3  -1  19    5.70    0.32
  -3  -1 -19    5.40    0.26
   3   1  19    5.34    0.30
  -3   1 -19    5.39    0.26
   3   1  19    5.37    0.31
   5  -1  19    2.74    0.27
  -5  -1 -19    3.40    0.22
  -5   1 -19    2.40    0.21
   5   1  19    2.99    0.28
  -8  -2  19    0.23    0.13
  -8  -2  19    0.37    0.14
   8  -2 -19    0.50    0.13
   8  -2 -19    0.58    0.16
   8   2 -19    0.28    0.14
  -8   2  19    0.45    0.16
  -8   2  19    0.51    0.17
   6  -2 -19   13.47    0.41
  -6  -2  19   14.05    0.50
   6  -2 -19   13.40    0.47
  -6  -2  19   13.40    0.48
  -6   2  19   14.64    0.53
   6   2 -19   14.33    0.44
  -6   2  19   13.94    0.48
  -4  -2  19    5.70    0.30
   4  -2 -19    5.66    0.25
   4  -2 -19    5.33    0.28
  -4  -2  19    5.36    0.31
  -4   2  19    5.45    0.32
  -4   2  19    6.03    0.29
   4   2 -19    5.26    0.26
   4   2 -19    5.44    0.26
   2  -2 -19    1.07    0.15
  -2  -2  19    0.94    0.17
   2  -2 -19    1.08    0.13
  -2  -2  19    0.86    0.14
   2   2 -19    0.79    0.12
  -2   2  19    1.10    0.18
   2   2 -19    1.18    0.14
   0  -2 -19   11.81    0.34
   0  -2 -19   11.83    0.38
   0  -2  19   11.82    0.44
   0   2 -19   11.96    0.36
   0   2  19   12.39    0.46
   0   2 -19   11.19    0.35
  -2  -2 -19    0.10    0.07
  -2  -2 -19    0.07    0.09
   2  -2  19    0.09    0.11
   2  -2  19   -0.02    0.10
   2   2  19    0.30    0.14
  -2   2 -19    0.22    0.09
   2   2  19    0.08    0.10
  -4  -2 -19    0.07    0.10
   4  -2  19    0.01    0.13
  -4  -2 -19    0.04    0.08
   4   2  19    0.04    0.10
  -4   2 -19    0.23    0.10
   7  -3 -19    5.77    0.34
  -7  -3  19    6.02    0.35
  -7  -3  19    6.25    0.36
   7  -3 -19    5.53    0.27
   7   3 -19    5.85    0.31
  -7   3  19    5.69    0.34
  -7   3  19    5.93    0.37
  -5  -3  19    8.33    0.39
  -5  -3  19    7.99    0.37
   5  -3 -19    8.18    0.31
   5  -3 -19    7.98    0.36
  -5   3  19    8.04    0.36
   5   3 -19    7.70    0.32
  -5   3  19    7.69    0.40
   5   3 -19    8.31    0.33
   3  -3 -19   24.83    0.63
  -3  -3  19   24.53    0.67
   3  -3 -19   23.90    0.54
   3   3 -19   24.65    0.58
  -3   3  19   25.06    0.70
   3   3 -19   24.94    0.57
   1  -3 -19   10.63    0.38
   1  -3 -19   10.38    0.32
  -1  -3  19    9.66    0.41
   1   3 -19   10.74    0.34
  -1   3  19   10.90    0.45
   1   3 -19   10.30    0.34
   1  -3  19    8.71    0.38
  -1  -3 -19    8.70    0.30
   1  -3  19    9.08    0.39
  -1  -3 -19    8.94    0.35
   1   3  19    8.33    0.40
  -1   3 -19    9.30    0.32
  -3  -3 -19    6.14    0.31
   3  -3  19    6.10    0.35
  -3  -3 -19    5.78    0.26
   3  -3  19    6.15    0.33
   3   3  19    6.53    0.36
  -3   3 -19    6.25    0.28
   3   3  19    6.41    0.34
   6  -4 -19    7.89    0.40
  -6  -4  19    8.74    0.41
  -6  -4  19    7.06    0.38
  -6   4  19    9.03    0.45
   6   4 -19    8.69    0.36
   6   4 -19    8.14    0.35
  -4  -4  19    6.35    0.35
   4  -4 -19    6.81    0.33
  -4   4  19    6.13    0.37
   4   4 -19    6.44    0.30
   4   4 -19    6.44    0.29
   2  -4 -19    9.70    0.39
  -2  -4  19   10.11    0.42
  -2   4  19    9.64    0.45
   2   4 -19   10.33    0.34
   2   4 -19    9.52    0.34
   0  -4  19   27.42    0.69
   0  -4  19   27.47    0.71
   0  -4 -19   26.53    0.66
   0   4 -19   25.88    0.60
   0   4 -19   26.67    0.59
   0   4  19   25.91    0.74
   2  -4  19    0.99    0.16
  -2  -4 -19    0.68    0.11
   2  -4  19    0.71    0.16
  -2  -4 -19    1.09    0.17
   2   4  19    0.84    0.20
   2   4  19    1.06    0.17
  -2   4 -19    0.84    0.13
   4  -4  19    0.31    0.16
  -4  -4 -19    0.46    0.10
   4   4  19    0.30    0.15
  -4   4 -19    0.08    0.11
  -5  -5  19    0.47    0.16
   5   5 -19    0.45    0.13
  -5   5  19    0.37    0.16
   3  -5 -19    1.95    0.22
  -3  -5  19    2.52    0.27
   3   5 -19    2.09    0.20
   3   5 -19    1.87    0.19
  -3   5  19    2.29    0.28
   1  -5 -19    0.22    0.12
  -1  -5  19    0.12    0.12
   1   5 -19   -0.01    0.09
  -1   5  19    0.13    0.13
   1   5 -19    0.04    0.09
  -1  -5 -19   23.27    0.64
   1  -5  19   24.19    0.69
   1  -5  19   24.07    0.68
  -1   5 -19   24.13    0.56
   1   5  19   23.50    0.72
  -1   5 -19   23.99    0.59
   8   0 -20    2.50    0.25
  -8   0  20    2.99    0.34
  -8   0  20    2.69    0.28
   8   0 -20    3.17    0.25
   6   0 -20    4.56    0.29
   6   0 -20    5.25    0.27
  -6   0  20    4.90    0.32
  -6   0  20    5.35    0.31
   4   0 -20    2.40    0.20
  -4   0  20    3.04    0.23
   4   0 -20    2.29    0.21
  -4   0  20    2.86    0.27
  -2   0  20    0.02    0.11
   2   0 -20    0.05    0.07
   2   0 -20    0.02    0.08
   0   0 -20    0.15    0.09
   0   0  20    0.22    0.12
   2   0  20    0.06    0.11
   2   0  20    0.11    0.11
  -2   0 -20   -0.06    0.07
  -4   0 -20    0.02    0.08
   4   0  20    0.28    0.14
   7  -1 -20   28.06    0.66
  -7  -1  20   26.55    0.73
  -7  -1  20   27.74    0.74
   7  -1 -20   25.98    0.70
  -7   1  20   26.18    0.74
   7   1 -20   26.79    0.68
   7   1 -20   28.28    0.68
  -7   1  20   27.03    0.73
  -5  -1  20    0.37    0.13
  -5  -1  20    0.61    0.16
   5  -1 -20    0.41    0.12
   5  -1 -20    0.29    0.10
   5   1 -20    0.30    0.11
  -5   1  20    0.20    0.13
  -5   1  20    0.50    0.14
  -3  -1  20    0.20    0.10
   3  -1 -20    0.30    0.10
   3  -1 -20    0.17    0.09
  -3  -1  20    0.22    0.11
  -3   1  20    0.05    0.10
   3   1 -20    0.30    0.10
   1  -1 -20    6.33    0.29
   1  -1 -20    5.90    0.26
  -1  -1  20    6.32    0.33
  -1   1  20    6.74    0.35
   1   1 -20    7.06    0.28
  -1  -1 -20   23.03    0.53
   1  -1  20   23.07    0.64
   1  -1  20   22.24    0.60
  -1  -1 -20   22.98    0.56
  -1   1 -20   22.52    0.54
   1   1  20   23.20    0.66
   3  -1  20   10.84    0.43
   3  -1  20   10.88    0.44
  -3  -1 -20   10.22    0.37
  -3  -1 -20   10.50    0.35
   3   1  20   10.39    0.43
  -3   1 -20    9.89    0.36
   3   1  20    9.75    0.41
   5  -1  20    4.18    0.32
  -5  -1 -20    3.93    0.24
  -5   1 -20    3.97    0.26
   5   1  20    3.82    0.30
   6  -2 -20    0.86    0.16
   6  -2 -20    0.97    0.14
  -6  -2  20    1.18    0.19
  -6  -2  20    0.89    0.17
  -6   2  20    1.06    0.17
  -6   2  20    0.87    0.18
   6   2 -20    0.91    0.16
   4  -2 -20    1.96    0.20
   4  -2 -20    1.61    0.17
  -4  -2  20    1.41    0.19
  -4  -2  20    1.87    0.21
   4   2 -20    1.80    0.18
   4   2 -20    2.12    0.20
  -4   2  20    2.22    0.26
  -2  -2  20    0.23    0.12
  -2  -2  20    0.40    0.13
   2  -2 -20    0.20    0.11
   2  -2 -20    0.28    0.09
   2   2 -20    0.31    0.10
   2   2 -20    0.16    0.09
  -2   2  20    0.24    0.12
   0  -2  20    5.21    0.31
   0  -2 -20    5.21    0.27
   0  -2 -20    4.89    0.23
   0   2 -20    5.02    0.25
   0   2  20    5.71    0.34
   2  -2  20   13.76    0.49
  -2  -2 -20   13.70    0.40
  -2  -2 -20   13.91    0.43
   2  -2  20   13.64    0.48
   2   2  20   13.17    0.50
  -2   2 -20   13.21    0.40
   2   2  20   13.39    0.46
   4  -2  20    5.66    0.35
  -4  -2 -20    5.77    0.27
  -4  -2 -20    5.66    0.30
   4   2  20    5.49    0.33
  -4   2 -20    6.17    0.29
  -7  -3  20    0.25    0.14
   7  -3 -20    0.19    0.10
  -7   3  20    0.21    0.13
   7   3 -20    0.20    0.13
  -7   3  20    0.13    0.14
  -5  -3  20    0.60    0.15
   5  -3 -20    0.55    0.12
  -5  -3  20    0.52    0.16
   5  -3 -20    0.98    0.18
   5   3 -20    0.59    0.14
   5   3 -20    0.59    0.13
  -5   3  20    0.70    0.17
   3  -3 -20    0.91    0.17
   3  -3 -20    0.85    0.13
  -3  -3  20    0.66    0.16
  -3  -3  20    0.60    0.16
  -3   3  20    1.17    0.20
   3   3 -20    0.91    0.14
   3   3 -20    0.95    0.14
   1  -3 -20    2.32    0.17
  -1  -3  20    1.80    0.22
   1  -3 -20    2.70    0.21
  -1   3  20    2.39    0.27
   1   3 -20    2.34    0.20
   1   3 -20    2.61    0.19
   1  -3  20    0.24    0.12
  -1  -3 -20    0.42    0.10
  -1  -3 -20    0.22    0.12
   1  -3  20    0.40    0.13
  -1   3 -20    0.36    0.10
   1   3  20    0.44    0.16
  -3  -3 -20    0.07    0.08
  -3  -3 -20    0.03    0.10
   3  -3  20    0.08    0.13
   3   3  20    0.20    0.14
  -3   3 -20    0.12    0.09
   3   3  20   -0.02    0.12
   4  -4 -20    6.61    0.34
  -4  -4  20    5.45    0.35
  -4  -4  20    6.10    0.36
   4   4 -20    6.29    0.31
   4   4 -20    5.78    0.29
  -4   4  20    6.66    0.40
  -2  -4  20    0.20    0.12
   2  -4 -20    0.16    0.11
   2   4 -20    0.11    0.09
   2   4 -20    0.00    0.09
  -2   4  20   -0.08    0.12
   0  -4  20    2.61    0.27
   0  -4 -20    2.24    0.22
   0   4  20    2.00    0.24
   0   4 -20    2.55    0.21
   0   4 -20    2.64    0.19
   2  -4  20    2.95    0.28
  -2  -4 -20    2.47    0.23
   2  -4  20    2.49    0.27
   2   4  20    2.90    0.30
  -2   4 -20    2.78    0.21
   3   5 -20    0.35    0.11
  -1  -5  20    0.72    0.16
  -1   5  20    0.64    0.19
   1   5 -20    1.05    0.16
   1   5 -20    0.78    0.14
   6   0 -21   -0.12    0.11
  -6   0  21    0.15    0.12
   6   0 -21   -0.12    0.09
  -6   0  21    0.10    0.12
   4   0 -21   -0.05    0.09
  -4   0  21    0.04    0.11
  -4   0  21    0.06    0.10
   4   0 -21   -0.09    0.08
   2   0 -21    0.02    0.08
  -2   0  21   -0.05    0.11
   0   0  21    0.15    0.12
   0   0 -21    0.15    0.09
   2   0  21    0.02    0.11
  -2   0 -21    0.08    0.09
   2   0  21    0.08    0.12
   4   0  21    0.01    0.12
  -4   0 -21    0.18    0.10
   7  -1 -21    1.83    0.23
  -7  -1  21    1.74    0.23
  -7  -1  21    1.78    0.23
   7  -1 -21    1.74    0.20
  -7   1  21    1.54    0.23
   7   1 -21    1.89    0.22
  -7   1  21    1.71    0.24
  -5  -1  21    1.36    0.19
   5  -1 -21    1.28    0.18
  -5  -1  21    1.43    0.21
   5  -1 -21    1.18    0.16
   5   1 -21    1.27    0.16
  -5   1  21    1.10    0.18
  -5   1  21    1.18    0.20
   3  -1 -21    9.53    0.34
  -3  -1  21   10.06    0.44
  -3  -1  21   10.39    0.39
   3  -1 -21    9.93    0.38
   3   1 -21   10.47    0.36
  -3   1  21    9.03    0.43
   1  -1 -21    2.69    0.22
   1  -1 -21    2.47    0.19
  -1  -1  21    2.49    0.26
   1   1 -21    2.62    0.20
  -1   1  21    2.46    0.27
  -1  -1 -21    4.05    0.23
  -1  -1 -21    4.20    0.25
   1  -1  21    3.51    0.28
  -1   1 -21    3.94    0.24
   1   1  21    4.28    0.30
   3  -1  21    0.66    0.16
  -3  -1 -21    0.70    0.13
   3   1  21    0.69    0.16
  -3   1 -21    0.50    0.12
   3   1  21    0.61    0.17
   6  -2 -21    3.29    0.27
  -6  -2  21    3.28    0.31
  -6  -2  21    3.79    0.29
   6  -2 -21    3.36    0.24
   6   2 -21    3.29    0.25
  -6   2  21    3.67    0.33
  -6   2  21    3.70    0.29
   4  -2 -21   13.43    0.41
  -4  -2  21   13.29    0.48
   4  -2 -21   13.95    0.47
  -4  -2  21   14.53    0.52
  -4   2  21   12.87    0.52
   4   2 -21   14.22    0.44
   4   2 -21   13.61    0.43
  -2  -2  21    2.37    0.24
   2  -2 -21    2.13    0.21
   2  -2 -21    2.60    0.19
  -2  -2  21    2.38    0.25
   2   2 -21    2.03    0.18
   2   2 -21    2.30    0.20
  -2   2  21    2.28    0.26
   0  -2  21   10.24    0.45
   0  -2 -21   11.10    0.39
   0  -2 -21   10.98    0.35
   0   2  21   10.54    0.46
   0   2 -21   11.27    0.37
   2  -2  21    1.74    0.22
  -2  -2 -21    1.16    0.14
  -2  -2 -21    1.46    0.18
   2  -2  21    1.47    0.21
   2   2  21    1.55    0.23
  -2   2 -21    1.72    0.18
   5  -3 -21    0.20    0.13
   5  -3 -21    0.11    0.10
  -5  -3  21    0.03    0.12
  -5  -3  21    0.19    0.13
  -5   3  21    0.07    0.13
   5   3 -21    0.15    0.12
   5   3 -21    0.16    0.11
   3  -3 -21    6.81    0.34
  -3  -3  21    6.88    0.37
   3  -3 -21    6.13    0.27
   3   3 -21    6.27    0.30
   3   3 -21    6.31    0.29
  -3   3  21    6.42    0.38
  -1  -3  21    0.76    0.17
   1  -3 -21    0.60    0.14
   1  -3 -21    0.63    0.12
  -1   3  21    0.88    0.19
   1   3 -21    0.80    0.13
   1   3 -21    0.84    0.15
   1  -3  21    2.56    0.27
  -1  -3 -21    2.44    0.23
  -1  -3 -21    2.67    0.20
   1   3  21    2.47    0.28
  -1   3 -21    3.07    0.21
   4   4 -21   38.22    0.81
   2  -4 -21    0.52    0.16
  -2  -4  21    0.48    0.15
   2   4 -21    0.32    0.11
  -2   4  21    0.34    0.17
   2   4 -21    0.16    0.10
   0  -4 -21    6.20    0.33
   0  -4  21    5.32    0.34
   0   4 -21    6.21    0.28
   0   4  21    6.02    0.38
   0   4 -21    6.04    0.29
  -6   0  22    6.06    0.36
   6   0 -22    6.05    0.34
  -6   0  22    6.26    0.39
   6   0 -22    6.18    0.31
  -4   0  22   18.05    0.55
  -4   0  22   17.92    0.61
   4   0 -22   18.50    0.51
   2   0 -22    0.99    0.14
  -2   0  22    0.84    0.18
   0   0  22   37.80    0.91
   0   0 -22   37.06    0.77
   2   0  22    2.48    0.26
  -2   0 -22    2.26    0.20
  -5  -1  22    2.61    0.26
   5  -1 -22    2.53    0.24
  -5  -1  22    3.03    0.30
   5  -1 -22    2.44    0.21
  -5   1  22    2.89    0.29
   5   1 -22    2.79    0.24
   3  -1 -22    6.62    0.32
  -3  -1  22    6.59    0.33
   3  -1 -22    6.45    0.29
  -3  -1  22    5.88    0.37
   3   1 -22    6.96    0.31
  -3   1  22    7.17    0.40
   1  -1 -22    4.01    0.26
  -1  -1  22    4.05    0.30
   1  -1 -22    4.48    0.25
   1   1 -22    3.91    0.24
  -1   1  22    4.34    0.33
   1  -1  22    2.07    0.25
  -1  -1 -22    2.02    0.19
  -1   1 -22    2.39    0.21
   1   1  22    2.52    0.28
  -4  -2  22    9.76    0.42
   4  -2 -22    9.40    0.40
  -4  -2  22    9.59    0.45
   4  -2 -22    9.82    0.36
  -4   2  22    9.95    0.47
   4   2 -22   10.07    0.38
  -2  -2  22    0.00    0.13
   2  -2 -22    0.01    0.11
   2  -2 -22   -0.08    0.08
  -2  -2  22    0.00    0.11
  -2   2  22    0.10    0.13
   2   2 -22   -0.06    0.08
   0  -2 -22    3.59    0.25
   0  -2  22    2.82    0.27
   0  -2 -22    3.94    0.23
   0   2 -22    3.23    0.23
   0   2  22    3.36    0.32
   2  -2  22    1.62    0.22
  -2  -2 -22    1.23    0.18
  -2  -2 -22    1.66    0.18
   2   2  22    1.36    0.22
  -2   2 -22    1.91    0.19
   3  -3 -22    0.79    0.17
  -3  -3  22    0.78    0.19
   3  -3 -22    0.89    0.13
  -3  -3  22    0.83    0.19
   3   3 -22    0.93    0.15
  -3   3  22    0.78    0.20
   3   3 -22    0.77    0.14
   1  -3 -22    3.69    0.27
  -1  -3  22    2.90    0.28
   1  -3 -22    3.70    0.23
   1   3 -22    3.70    0.24
  -1   3  22    2.89    0.30
   4   0 -23   -0.18    0.09
  -4   0  23   -0.10    0.12
  -2   0  23   -0.19    0.11
   2   0 -23    0.01    0.10
   0   0  23    0.04    0.13
   0   0 -23    0.07    0.10
  -3  -1  23    0.02    0.13
   3  -1 -23    0.19    0.12
   3  -1 -23    0.26    0.11
  -3   1  23   -0.10    0.12
   3   1 -23    0.20    0.10
   1  -1 -23    0.54    0.13
  -1  -1  23    0.38    0.16
  -1   1  23    0.27    0.16
   1   1 -23    0.34    0.12
   2  -2 -23    0.90    0.17
   2  -2 -23    1.00    0.15
   2   2 -23    0.98    0.16
   0   0   0    0.00    0.00
;
_shelx_hkl_checksum              62134
loop_
_space_group_symop_operation_xyz
'x, y, z'
'-x, y, -z+1/2'
'x+1/2, y+1/2, z'
'-x+1/2, y+1/2, -z+1/2'
'-x, -y, -z'
'x, -y, z-1/2'
'-x+1/2, -y+1/2, -z'
'x+1/2, -y+1/2, z-1/2'
loop_
_atom_site_label
_atom_site_type_symbol
_atom_site_fract_x
_atom_site_fract_y
_atom_site_fract_z
_atom_site_U_iso_or_equiv
_atom_site_adp_type
_atom_site_occupancy
_atom_site_site_symmetry_order
_atom_site_calc_flag
_atom_site_refinement_flags_posn
_atom_site_refinement_flags_adp
N1 N 0.30687(8) 0.24383(11) 0.23988(4) 0.02160(18) Uani 1 1 d . .
C1 C 0.65123(8) 0.47404(11) 0.48395(4) 0.01331(16) Uani 1 1 d . .
H1 H 0.7533 0.4578 0.4742 0.016 Uiso 1 1 calc R U
N2 N -0.02033(8) 0.43413(11) 0.40011(5) 0.02135(18) Uani 1 1 d . .
C2 C 0.53546(8) 0.42002(11) 0.42555(4) 0.01347(16) Uani 1 1 d . .
H2 H 0.5572 0.3661 0.3753 0.016 Uiso 1 1 calc R U
C4 C 0.26078(8) 0.38973(11) 0.37923(4) 0.01353(16) Uani 1 1 d . .
C3 C 0.37905(8) 0.44364(10) 0.43889(4) 0.01239(16) Uani 1 1 d . .
C6 C 0.10468(9) 0.41472(11) 0.39038(5) 0.01544(17) Uani 1 1 d . .
C5 C 0.28653(8) 0.30871(11) 0.30187(5) 0.01573(17) Uani 1 1 d . .
loop_
_atom_site_aniso_label
_atom_site_aniso_U_11
_atom_site_aniso_U_22
_atom_site_aniso_U_33
_atom_site_aniso_U_23
_atom_site_aniso_U_13
_atom_site_aniso_U_12
N1 0.0224(4) 0.0239(4) 0.0185(3) -0.0033(3) 0.0029(3) -0.0009(3)
C1 0.0128(3) 0.0141(3) 0.0137(3) 0.0005(2) 0.0041(2) 0.0011(2)
N2 0.0163(3) 0.0267(4) 0.0212(3) -0.0001(3) 0.0029(2) 0.0002(3)
C2 0.0134(3) 0.0144(3) 0.0133(3) -0.0005(2) 0.0042(2) 0.0011(2)
C4 0.0135(3) 0.0137(3) 0.0136(3) 0.0008(2) 0.0026(2) 0.0006(2)
C3 0.0128(3) 0.0120(3) 0.0127(3) 0.0011(2) 0.0030(2) 0.0006(2)
C6 0.0155(3) 0.0161(3) 0.0144(3) 0.0004(2) 0.0013(2) -0.0003(2)
C5 0.0147(3) 0.0164(3) 0.0158(3) 0.0003(3) 0.0011(2) -0.0006(3)
loop_
_atom_type_symbol
_atom_type_description
_atom_type_scat_dispersion_real
_atom_type_scat_dispersion_imag
_atom_type_scat_source
C C 0.0033 0.0016 'International Tables Vol C Tables 4.2.6.8 and 6.1.1.4'
H H 0.0000 0.0000 'International Tables Vol C Tables 4.2.6.8 and 6.1.1.4'
N N 0.0061 0.0033 'International Tables Vol C Tables 4.2.6.8 and 6.1.1.4'
loop_
_geom_angle_atom_site_label_1
_geom_angle_atom_site_label_2
_geom_angle_atom_site_label_3
_geom_angle
_geom_angle_site_symmetry_1
_geom_angle_site_symmetry_3
C2 C1 C3 120.67(6) . 5_666
C2 C1 H1 119.7 . .
C3 C1 H1 119.7 5_666 .
C1 C2 C3 120.68(6) . .
C1 C2 H2 119.7 . .
C3 C2 H2 119.7 . .
C3 C4 C6 121.87(7) . .
C3 C4 C5 122.07(7) . .
C6 C4 C5 116.04(6) . .
C4 C3 C2 120.79(7) . .
C4 C3 C1 120.56(7) . 5_666
C2 C3 C1 118.65(6) . 5_666
N2 C6 C4 179.33(8) . .
N1 C5 C4 179.88(9) . .
loop_
_geom_bond_atom_site_label_1
_geom_bond_atom_site_label_2
_geom_bond_distance
_geom_bond_site_symmetry_2
N1 C5 1.1499(11) .
C1 C2 1.3541(10) .
C1 C3 1.4486(10) 5_666
C1 H1 0.9500 .
N2 C6 1.1522(11) .
C2 C3 1.4466(10) .
C2 H2 0.9500 .
C4 C3 1.3809(10) .
C4 C6 1.4350(10) .
C4 C5 1.4360(10) .
C3 C1 1.4486(10) 5_666

_cod_database_fobs_code 2300563
