#------------------------------------------------------------------------------
#$Date: 2019-04-02 05:42:27 +0300 (Tue, 02 Apr 2019) $
#$Revision: 214447 $
#$URL: file:///home/coder/svn-repositories/cod/cif/2/30/06/2300646.cif $
#------------------------------------------------------------------------------
#
# This file is available in the Crystallography Open Database (COD),
# http://www.crystallography.net/. The original data for this entry
# were provided by IUCr Journals, http://journals.iucr.org/.
#
# The file may be used within the scientific community so long as
# proper attribution is given to the journal article from which the
# data were obtained.
#
data_2300646
loop_
_publ_author_name
'McMonagle, Charles James'
'Probert, Michael Richard'
_publ_section_title
;
 Reducing the background of ultra-low-temperature X-ray diffraction data
 through new methods and advanced materials
;
_journal_coeditor_code           KC5091SUP1
_journal_issue                   2
_journal_name_full               'Journal of Applied Crystallography'
_journal_page_first              445
_journal_page_last               450
_journal_paper_doi               10.1107/S1600576719003078
_journal_volume                  52
_journal_year                    2019
_chemical_absolute_configuration rm
_chemical_formula_moiety         'C6 H8 O6'
_chemical_formula_sum            'C6 H8 O6'
_chemical_formula_weight         176.12
_chemical_name_common            'Vitamin C'
_chemical_name_systematic        'L-ascorbic acid'
_space_group_crystal_system      monoclinic
_space_group_IT_number           4
_space_group_name_Hall           'P 2yb'
_space_group_name_H-M_alt        'P 1 21 1'
_symmetry_space_group_name_Hall  'P 2yb'
_symmetry_space_group_name_H-M   'P 1 21 1'
_atom_sites_solution_hydrogens   geom
_atom_sites_solution_primary     dual
_audit_creation_date             2019-01-17
_audit_creation_method
;
Olex2 1.2
(compiled 2018.05.29 svn.r3508 for OlexSys, GUI svn.r5506)
;
_cell_angle_alpha                90
_cell_angle_beta                 99.355(3)
_cell_angle_gamma                90
_cell_formula_units_Z            4
_cell_length_a                   6.4213(2)
_cell_length_b                   6.3622(2)
_cell_length_c                   17.1606(6)
_cell_measurement_reflns_used    1278
_cell_measurement_temperature    292.36
_cell_measurement_theta_max      23.645
_cell_measurement_theta_min      2.406
_cell_volume                     691.75(4)
_computing_cell_refinement       'SAINT V8.38A (?, 2016)'
_computing_data_reduction        'SAINT V8.38A (?, 2016)'
_computing_molecular_graphics    'Olex2 (Dolomanov et al., 2009)'
_computing_publication_material  'Olex2 (Dolomanov et al., 2009)'
_computing_structure_refinement  'ShelXL (Sheldrick, 2015)'
_computing_structure_solution    'ShelXT (Sheldrick, 2015)'
_diffrn_ambient_temperature      292.36
_diffrn_detector                 'CCD area detector'
_diffrn_detector_type            'Bruker APEXII area detector'
_diffrn_measured_fraction_theta_full 0.933
_diffrn_measured_fraction_theta_max 0.926
_diffrn_measurement_device       'XIPHOS four-circle diffractometer'
_diffrn_measurement_device_type  'Bruker APEX-II CCD'
_diffrn_measurement_method       '\f scans'
_diffrn_radiation_collimation    focused
_diffrn_radiation_monochromator  'multilayer optics'
_diffrn_radiation_probe          x-ray
_diffrn_radiation_type           MoK\a
_diffrn_radiation_wavelength     0.71073
_diffrn_reflns_av_R_equivalents  0.0452
_diffrn_reflns_av_unetI/netI     0.0552
_diffrn_reflns_Laue_measured_fraction_full 0.933
_diffrn_reflns_Laue_measured_fraction_max 0.926
_diffrn_reflns_limit_h_max       7
_diffrn_reflns_limit_h_min       -7
_diffrn_reflns_limit_k_max       7
_diffrn_reflns_limit_k_min       -7
_diffrn_reflns_limit_l_max       21
_diffrn_reflns_limit_l_min       -21
_diffrn_reflns_number            7025
_diffrn_reflns_point_group_measured_fraction_full 0.944
_diffrn_reflns_point_group_measured_fraction_max 0.935
_diffrn_reflns_theta_full        25.242
_diffrn_reflns_theta_max         26.309
_diffrn_reflns_theta_min         1.203
_diffrn_source                   'rotating anode'
_diffrn_source_target            Mo
_diffrn_source_type              'Bruker TXS with Helios Optics'
_diffrn_standards_number         0
_exptl_absorpt_coefficient_mu    0.156
_exptl_absorpt_correction_T_max  0.7454
_exptl_absorpt_correction_T_min  0.6811
_exptl_absorpt_correction_type   multi-scan
_exptl_absorpt_process_details
"'SADABS-2016/2 (Bruker,2016/2) was used for absorption correction."
_exptl_crystal_colour            'clear colourless'
_exptl_crystal_colour_lustre     clear
_exptl_crystal_colour_primary    colourless
_exptl_crystal_density_diffrn    1.691
_exptl_crystal_description       block
_exptl_crystal_F_000             368
_exptl_crystal_preparation       'As supplied'
_exptl_crystal_recrystallization_method NA
_exptl_crystal_size_max          0.035
_exptl_crystal_size_mid          0.035
_exptl_crystal_size_min          0.01
_refine_diff_density_max         0.226
_refine_diff_density_min         -0.235
_refine_diff_density_rms         0.047
_refine_ls_abs_structure_details
;
 Flack x determined using 676 quotients [(I+)-(I-)]/[(I+)+(I-)]
 (Parsons, Flack and Wagner, Acta Cryst. B69 (2013) 249-259).
;
_refine_ls_abs_structure_Flack   -0.6(10)
_refine_ls_extinction_method     none
_refine_ls_goodness_of_fit_ref   0.995
_refine_ls_hydrogen_treatment    constr
_refine_ls_matrix_type           full
_refine_ls_number_parameters     225
_refine_ls_number_reflns         2609
_refine_ls_number_restraints     1
_refine_ls_restrained_S_all      0.994
_refine_ls_R_factor_all          0.0679
_refine_ls_R_factor_gt           0.0413
_refine_ls_shift/su_max          0.000
_refine_ls_shift/su_mean         0.000
_refine_ls_structure_factor_coef Fsqd
_refine_ls_weighting_details
'w=1/[\s^2^(Fo^2^)+(0.0376P)^2^] where P=(Fo^2^+2Fc^2^)/3'
_refine_ls_weighting_scheme      calc
_refine_ls_wR_factor_gt          0.0779
_refine_ls_wR_factor_ref         0.0883
_reflns_Friedel_coverage         0.845
_reflns_Friedel_fraction_full    0.957
_reflns_Friedel_fraction_max     0.946
_reflns_number_gt                1874
_reflns_number_total             2609
_reflns_threshold_expression     'I > 2\s(I)'
_cod_data_source_file            kc5091sup1.cif
_cod_data_source_block           Collection_1_vitamin_C
_cod_database_code               2300646
_shelx_shelxl_version_number     2018/3
_shelx_space_group_comment
;
The symmetry employed for this shelxl refinement is uniquely defined
by the following loop, which should always be used as a source of
symmetry information in preference to the above space-group names.
They are only intended as comments.
;
_shelx_estimated_absorpt_t_max   0.998
_shelx_estimated_absorpt_t_min   0.995
_olex2_refinement_description
;
1. Fixed Uiso
 At 1.2 times of:
  All C(H) groups, All C(H,H) groups
 At 1.5 times of:
  All O(H) groups
2.a Ternary CH refined with riding coordinates:
 C2(H2A), C3(H3A), C8(H8A), C9(H9A)
2.b Secondary CH2 refined with riding coordinates:
 C1(H1A,H1B), C7(H7A,H7B)
2.c Idealised tetrahedral OH refined as rotating group:
 O1(H1), O2(H2), O3(H3), O4(H4), O7(H7), O8(H8), O9(H9), O10(H10)
;
_shelx_res_file
;
TITL CMM180068_fiber_0m in P2(1)
    cmm180068_fiber_0m.res
    created by SHELXL-2018/3 at 18:54:59 on 17-Jan-2019
CELL 0.71073 6.4213 6.3622 17.1606 90 99.3549 90
ZERR 4 0.0002 0.0002 0.0006 0 0.0025 0
LATT -1
SYMM -X,0.5+Y,-Z
SFAC C H O
UNIT 24 32 24

L.S. 20
PLAN  20
SIZE 0.035 0.035 0.01
TEMP 19.21
BOND
list 4
fmap 2 53
acta
REM <olex2.extras>
REM <HklSrc "%.\\CMM180068_fiber_0m.hkl">
REM </olex2.extras>

WGHT    0.037600
FVAR       0.19273
O1    3    0.917693    0.300846    0.817292    11.00000    0.03584    0.05651 =
         0.02226    0.01249    0.01048    0.01344
AFIX 147
H1    2    0.878321    0.292350    0.860308    11.00000   -1.50000
AFIX   0
O2    3    0.839290    0.699905    0.667438    11.00000    0.02945    0.03390 =
         0.02889    0.00830    0.01411    0.00539
AFIX 147
H2    2    0.900262    0.729724    0.630473    11.00000   -1.50000
AFIX   0
O3    3    1.196500    0.344054    0.588736    11.00000    0.01397    0.05188 =
         0.02212   -0.00219    0.00510    0.00308
AFIX 147
H3    2    1.244967    0.326800    0.547841    11.00000   -1.50000
AFIX   0
O4    3    0.885436    0.347964    0.430925    11.00000    0.02030    0.04157 =
         0.01720   -0.00169    0.00460    0.00223
AFIX 147
H4    2    0.778367    0.316788    0.400185    11.00000   -1.50000
AFIX   0
O5    3    0.465014    0.338676    0.485440    11.00000    0.01524    0.04703 =
         0.02167   -0.00398    0.00171   -0.00122
O6    3    0.653121    0.322633    0.607529    11.00000    0.01619    0.04603 =
         0.01702    0.00010    0.00592   -0.00387
C1    1    0.816782    0.475219    0.774562    11.00000    0.02298    0.03280 =
         0.02115   -0.00114    0.00690    0.00274
AFIX  23
H1A   2    0.834710    0.600884    0.806968    11.00000   -1.20000
H1B   2    0.666911    0.448110    0.759774    11.00000   -1.20000
AFIX   0
C2    1    0.917876    0.505216    0.701163    11.00000    0.01541    0.03228 =
         0.01863   -0.00085    0.00540    0.00034
AFIX  13
H2A   2    1.070894    0.517671    0.717411    11.00000   -1.20000
AFIX   0
C3    1    0.873860    0.323245    0.642582    11.00000    0.01510    0.03383 =
         0.01936   -0.00191    0.00392    0.00315
AFIX  13
H3A   2    0.909060    0.190036    0.670283    11.00000   -1.20000
AFIX   0
C4    1    0.986943    0.336596    0.572962    11.00000    0.01629    0.02685 =
         0.02145   -0.00281    0.00460    0.00446
C5    1    0.845720    0.337999    0.506291    11.00000    0.01954    0.02062 =
         0.02025   -0.00367    0.00789    0.00147
C6    1    0.636774    0.333107    0.527836    11.00000    0.02264    0.02074 =
         0.02002   -0.00096    0.00634    0.00116

O7    3    1.428078    0.801448    0.685206    11.00000    0.02581    0.04334 =
         0.01859   -0.00573    0.00458    0.00796
AFIX 147
H7    2    1.540275    0.760719    0.673610    11.00000   -1.50000
AFIX   0
O8    3    1.330846    1.195490    0.826969    11.00000    0.02358    0.02939 =
         0.02817   -0.00680    0.00281    0.00339
AFIX 147
H8    2    1.212779    1.230916    0.834297    11.00000   -1.50000
AFIX   0
O9    3    1.057755    0.829423    0.907331    11.00000    0.01603    0.06372 =
         0.02522   -0.00138    0.00550   -0.00504
AFIX 147
H9    2    1.010351    0.816363    0.948646    11.00000   -1.50000
AFIX   0
O10   3    1.365123    0.847022    1.064843    11.00000    0.02367    0.04544 =
         0.01736    0.00214    0.00750    0.00526
AFIX 147
H10   2    1.463594    0.795113    1.095145    11.00000   -1.50000
AFIX   0
O11   3    1.787948    0.846729    1.011073    11.00000    0.01919    0.04594 =
         0.02154    0.00578    0.00247    0.00014
O12   3    1.602039    0.840282    0.888724    11.00000    0.01614    0.03525 =
         0.01766    0.00322    0.00449    0.00428
C7    1    1.461853    0.993969    0.729175    11.00000    0.02120    0.03631 =
         0.02132   -0.00211    0.00308    0.00373
AFIX  23
H7A   2    1.427632    1.113367    0.694293    11.00000   -1.20000
H7B   2    1.608581    1.005248    0.753682    11.00000   -1.20000
AFIX   0
C8    1    1.320440    0.991700    0.791972    11.00000    0.01880    0.03020 =
         0.01794   -0.00205    0.00405    0.00367
AFIX  13
H8A   2    1.174972    0.965933    0.766230    11.00000   -1.20000
AFIX   0
C9    1    1.382141    0.822676    0.853688    11.00000    0.01621    0.02992 =
         0.01730   -0.00241    0.00370    0.00241
AFIX  13
H9A   2    1.359688    0.685001    0.828089    11.00000   -1.20000
AFIX   0
C10   1    1.266938    0.827600    0.922713    11.00000    0.01958    0.02592 =
         0.02166   -0.00192    0.00544   -0.00017
C11   1    1.406828    0.837430    0.989443    11.00000    0.02077    0.02286 =
         0.01814   -0.00008    0.00624    0.00086
C12   1    1.616665    0.841687    0.968835    11.00000    0.02241    0.02292 =
         0.01824   -0.00028    0.00349    0.00069
HKLF 4




REM  CMM180068_fiber_0m in P2(1)
REM wR2 = 0.0883, GooF = S = 0.995, Restrained GooF = 0.994 for all data
REM R1 = 0.0413 for 1874 Fo > 4sig(Fo) and 0.0679 for all 2609 data
REM 225 parameters refined using 1 restraints

END

WGHT      0.0376      0.0000

REM Highest difference peak  0.226,  deepest hole -0.235,  1-sigma level  0.047
Q1    1   1.2942  0.8279  0.8857  11.00000  0.05    0.23
Q2    1   0.9200  0.4211  0.5396  11.00000  0.05    0.20
Q3    1   0.9390  0.3533  0.6043  11.00000  0.05    0.19
Q4    1   1.5479  0.9750  0.8800  11.00000  0.05    0.18
Q5    1   1.1959  0.5248  0.7400  11.00000  0.05    0.18
Q6    1   1.4763  0.7081  0.9841  11.00000  0.05    0.18
Q7    1   1.7189  0.9094  1.0595  11.00000  0.05    0.17
Q8    1   0.7239  0.3126  0.4953  11.00000  0.05    0.17
Q9    1   0.3559  0.3488  0.4832  11.00000  0.05    0.16
Q10   1   0.5302  0.2207  0.6180  11.00000  0.05    0.16
Q11   1   1.8607  0.6238  1.0028  11.00000  0.05    0.16
Q12   1   1.4080  0.3211  0.5987  11.00000  0.05    0.16
Q13   1   1.7951  0.8345  0.7659  11.00000  0.05    0.16
Q14   1   1.5993  1.0234  1.0248  11.00000  0.05    0.16
Q15   1   0.9287  0.2718  0.5419  11.00000  0.05    0.15
Q16   1   1.0785  0.8443  1.0210  11.00000  0.05    0.15
Q17   1   1.4837  0.5921  1.0591  11.00000  0.05    0.15
Q18   1   1.3455  0.9143  0.9544  11.00000  0.05    0.15
Q19   1   1.2040  0.7068  0.7793  11.00000  0.05    0.15
Q20   1   1.1853  0.8585  0.9202  11.00000  0.05    0.14
;
_shelx_res_checksum              98074
_shelx_hkl_file
;
   1   0   0   14.22    0.36
  -1   0   0   14.39    0.40
   1   0   0   14.10    0.39
  -1   0   0   14.97    0.38
   2   0   0    0.31    0.17
  -2   0   0    0.13    0.14
  -2   0   0    0.17    0.18
   2   0   0    0.18    0.11
  -3   0   0    0.09    0.21
   3   0   0   -0.02    0.20
   3   0   0    0.22    0.14
  -3   0   0    0.42    0.17
  -4   0   0   61.67    1.61
  -4   0   0   60.25    1.54
   4   0   0   64.47    1.59
   4   0   0   63.37    1.49
   5   0   0    5.20    0.46
  -5   0   0    5.82    0.44
  -5   0   0    5.58    0.49
   5   0   0    5.08    0.38
   0  -1   0    0.03    0.10
   0  -1   0    0.08    0.07
   0   1   0   -0.05    0.09
   0   1   0   -0.10    0.07
   1  -1   0  118.16    2.50
  -1   1   0  114.79    2.51
  -1   1   0  119.14    2.57
  -2  -1   0    0.65    0.12
   2  -1   0    0.40    0.22
   2  -1   0    0.87    0.18
  -2  -1   0    0.66    0.11
   2   1   0    0.69    0.08
  -2   1   0    1.21    0.28
  -2   1   0    0.53    0.20
   2   1   0    0.64    0.12
   3  -1   0   87.22    1.97
  -3  -1   0   86.77    1.88
   3  -1   0   81.66    2.07
  -3  -1   0   83.71    1.90
   3   1   0   86.06    1.84
   3   1   0   82.90    1.89
  -3   1   0   88.73    2.03
  -3   1   0   89.32    2.11
   4  -1   0   37.19    1.06
   4  -1   0   38.64    1.19
  -4  -1   0   36.85    1.03
  -4  -1   0   38.46    1.00
   4   1   0   38.85    1.01
   4   1   0   38.40    0.95
  -4   1   0   38.85    1.12
  -4   1   0   40.53    1.23
   5  -1   0    2.03    0.30
   5  -1   0    2.58    0.39
  -5   1   0    1.85    0.32
  -5   1   0    1.94    0.41
   6  -1   0    0.92    0.29
   6  -1   0    0.72    0.35
  -6   1   0    1.04    0.31
  -6   1   0    0.50    0.37
   0  -2   0  967.16   20.38
   0  -2   0  989.96   20.47
   0   2   0  964.85   20.27
   0   2   0 1000.00   20.37
  -1  -2   0    8.04    0.29
   1  -2   0    7.39    0.34
   1  -2   0    6.99    0.45
  -1  -2   0    7.81    0.24
  -1   2   0    8.54    0.41
   1   2   0    7.64    0.26
   1   2   0    8.23    0.30
   2  -2   0    3.73    0.30
  -2   2   0    3.13    0.38
  -2   2   0    4.41    0.36
   3  -2   0    1.32    0.25
   3  -2   0    1.68    0.34
  -3   2   0    1.30    0.34
  -3   2   0    1.57    0.30
   4  -2   0   21.96    0.91
   4  -2   0   22.10    0.77
  -4   2   0   21.04    0.84
  -4   2   0   20.33    0.93
   5  -2   0   12.13    0.62
   5  -2   0   10.82    0.74
  -5   2   0   11.42    0.78
  -5   2   0   11.62    0.68
   6  -2   0    1.37    0.42
   6  -2   0    1.33    0.34
  -6   2   0    1.19    0.42
  -6   2   0    1.49    0.38
   7  -2   0    1.23    0.46
   7  -2   0    0.70    0.32
  -7   2   0    0.94    0.47
  -7   2   0    0.98    0.40
   0  -3   0   -0.01    0.21
   0  -3   0    0.01    0.14
   0   3   0   -0.21    0.21
   0   3   0   -0.21    0.18
   1  -3   0   22.11    0.80
  -1  -3   0   21.01    0.62
  -1  -3   0   21.92    0.56
   1  -3   0   22.70    0.69
  -1   3   0   20.49    0.73
   1   3   0   20.76    0.64
  -1   3   0   21.63    0.82
   1   3   0   22.07    0.59
   2  -3   0   -0.48    0.28
   2  -3   0    0.28    0.20
  -2   3   0   -0.06    0.26
  -2   3   0   -0.05    0.31
   3  -3   0   21.64    0.93
   3  -3   0   19.99    0.76
  -3   3   0   20.27    0.96
  -3   3   0   19.91    0.83
   4  -3   0   15.79    0.71
   4  -3   0   16.36    0.86
  -4   3   0   14.48    0.74
  -4   3   0   17.41    0.93
   5  -3   0    6.69    0.55
   5  -3   0    6.45    0.63
  -5   3   0    6.90    0.60
  -5   3   0    7.72    0.76
   6  -3   0    0.16    0.30
   6  -3   0   -0.33    0.37
  -6   3   0   -0.04    0.42
  -6   3   0    0.47    0.35
   7  -3   0    1.88    0.40
   7  -3   0    1.95    0.53
  -7   3   0    2.25    0.50
  -7   3   0    1.68    0.59
   0  -4   0  127.91    2.84
   0  -4   0  126.55    2.94
   0   4   0  131.37    2.97
   0   4   0  127.29    2.88
  -1  -4   0    2.35    0.21
   1  -4   0    2.41    0.28
  -1  -4   0    2.81    0.28
   1  -4   0    2.46    0.37
  -1   4   0    2.65    0.33
   1   4   0    2.72    0.26
   1   4   0    3.19    0.32
  -1   4   0    1.85    0.36
   2  -4   0    6.93    0.59
   2  -4   0    5.03    0.42
  -2   4   0    7.65    0.57
  -2   4   0    5.71    0.56
   3  -4   0    1.42    0.32
   3  -4   0    1.12    0.38
  -3   4   0    1.66    0.47
  -3   4   0    1.14    0.32
   4  -4   0    3.91    0.54
   4  -4   0    4.67    0.46
  -4   4   0    4.81    0.51
  -4   4   0    5.42    0.64
   5  -4   0    4.98    0.61
   5  -4   0    7.97    0.64
  -5   4   0    4.97    0.64
  -5   4   0    7.59    0.69
   6  -4   0    2.81    0.48
   6  -4   0    1.73    0.53
  -6   4   0    1.41    0.54
  -6   4   0    1.78    0.48
   0  -5   0    0.42    0.19
   0  -5   0   -0.02    0.24
   0   5   0   -0.08    0.26
   0   5   0    0.10    0.22
   1  -5   0   22.11    0.91
   1  -5   0   20.98    0.80
  -1   5   0   22.07    0.97
  -1   5   0   20.42    0.82
   2  -5   0   -0.37    0.29
   2  -5   0   -0.04    0.24
  -2   5   0   -0.06    0.27
  -2   5   0    0.34    0.37
   3  -5   0    7.99    0.61
   3  -5   0    6.94    0.70
  -3   5   0    7.10    0.63
  -3   5   0    6.59    0.72
   4  -5   0    6.06    0.69
   4  -5   0    6.92    0.62
  -4   5   0    6.42    0.67
  -4   5   0    5.08    0.71
   5  -5   0    1.63    0.46
   5  -5   0    1.04    0.49
  -5   5   0    0.91    0.45
  -5   5   0    0.56    0.51
   6  -5   0    0.50    0.46
  -6   5   0   -0.32    0.39
   1  -6   0    0.85    0.36
   1  -6   0    0.90    0.28
  -1   6   0    1.21    0.35
  -1   6   0    0.81    0.40
   2  -6   0    0.82    0.40
   2  -6   0    0.56    0.31
  -2   6   0    1.33    0.47
  -2   6   0    0.27    0.32
   3  -6   0    0.14    0.38
   3  -6   0    0.32    0.30
  -3   6   0    0.47    0.37
  -3   6   0    0.04    0.38
   4  -6   0    4.00    0.56
   4  -6   0    3.39    0.62
  -4   6   0    3.50    0.59
  -4   6   0    3.86    0.72
   5  -6   0    2.17    0.58
  -5   6   0    0.62    0.48
   2  -7   0    0.28    0.30
   2  -7   0   -0.20    0.36
  -2   7   0   -0.10    0.33
  -2   7   0   -0.29    0.39
   3  -7   0    0.62    0.35
   3  -7   0    0.60    0.45
  -3   7   0    0.22    0.40
  -3   7   0    1.35    0.52
   5   0  -1    0.03    0.16
  -5   0   1   -0.18    0.19
   5   0  -1    0.05    0.25
  -5   0   1    0.24    0.27
  -4   0   1    0.20    0.24
   4   0  -1   -0.11    0.22
  -4   0   1    0.05    0.18
   4   0  -1    0.00    0.15
   3   0  -1  100.49    2.21
   3   0  -1   98.02    2.14
  -3   0   1   95.38    2.16
  -3   0   1   94.64    2.22
  -2   0   1   22.72    0.66
  -2   0   1   21.76    0.60
   2   0  -1   22.88    0.59
   2   0  -1   22.80    0.64
  -1   0   1   24.72    0.61
  -1   0   1   25.55    0.58
   1   0  -1   24.57    0.57
   1   0  -1   25.28    0.60
   0   0  -1    0.00    0.00
   0   0  -1    0.00    0.01
   0   0   1   -0.01    0.00
   0   0   1    0.00    0.01
   1   0   1   41.45    0.94
   1   0   1   39.92    0.91
  -1   0  -1   41.51    0.94
  -1   0  -1   41.10    0.93
   2   0   1   86.07    1.96
  -2   0  -1   92.20    1.98
  -2   0  -1   87.40    1.94
   2   0   1   85.62    1.90
   3   0   1   17.82    0.56
  -3   0  -1   18.84    0.67
   3   0   1   17.82    0.65
  -3   0  -1   17.54    0.60
   4   0   1    0.21    0.16
  -4   0  -1    0.13    0.24
   4   0   1    0.18    0.24
  -4   0  -1    0.38    0.20
  -5   0  -1   17.04    0.76
   5   0   1   17.37    0.61
  -5   0  -1   16.94    0.72
   5   0   1   16.76    0.74
   6  -1  -1    3.33    0.36
   6  -1  -1    3.34    0.46
  -6   1   1    3.08    0.41
  -6   1   1    2.77    0.47
   5  -1  -1   19.50    0.86
   5  -1  -1   19.07    0.74
  -5   1   1   18.92    0.77
  -5   1   1   21.08    0.91
  -4  -1   1    1.67    0.21
   4  -1  -1    1.24    0.25
   4  -1  -1    1.39    0.33
  -4  -1   1    1.36    0.23
  -4   1   1    1.11    0.34
   4   1  -1    1.46    0.22
   4   1  -1    1.44    0.17
  -4   1   1    1.40    0.28
  -3  -1   1    8.41    0.32
   3  -1  -1    8.44    0.42
  -3  -1   1    9.02    0.37
   3  -1  -1    9.79    0.52
   3   1  -1    8.06    0.36
  -3   1   1    9.25    0.56
   3   1  -1    8.71    0.29
  -3   1   1    8.91    0.47
   2  -1  -1   10.79    0.51
   2  -1  -1   11.26    0.42
  -2  -1   1   11.26    0.30
   2   1  -1   11.32    0.29
   2   1  -1   10.86    0.32
  -2   1   1   10.99    0.53
  -2   1   1   10.81    0.45
  -1  -1   1  114.29    2.35
  -1  -1   1  111.97    2.34
   1  -1  -1  113.79    2.44
  -1  -1   1  112.06    2.35
   1  -1  -1  116.58    2.49
   1   1  -1  116.57    2.35
  -1   1   1  118.60    2.50
   1   1  -1  112.78    2.36
  -1   1   1  114.35    2.45
   1   1  -1  113.73    2.36
   0  -1   1    0.22    0.13
   0  -1  -1    0.10    0.08
   0  -1   1    0.30    0.09
   0   1   1    0.19    0.08
   0   1   1    0.05    0.10
   0   1  -1    0.27    0.12
   0   1  -1    0.09    0.10
   1  -1   1   40.53    0.96
  -1  -1  -1   41.04    0.87
  -1  -1  -1   40.47    0.90
   1  -1   1   41.31    1.02
   1   1   1   41.11    0.87
  -1   1  -1   40.98    0.99
  -1   1  -1   39.54    1.03
   1   1   1   41.02    0.88
  -2  -1  -1   15.35    0.44
   2  -1   1   15.82    0.52
  -2  -1  -1   15.97    0.44
   2  -1   1   15.06    0.60
  -2   1  -1   14.75    0.63
   2   1   1   15.40    0.39
   2   1   1   15.12    0.43
  -2   1  -1   15.53    0.56
   3  -1   1   10.83    0.57
   3  -1   1   10.75    0.46
  -3  -1  -1   11.58    0.44
  -3  -1  -1   11.61    0.42
  -3   1  -1   11.39    0.61
  -3   1  -1   11.59    0.53
   3   1   1   11.55    0.37
   3   1   1   12.02    0.43
  -4  -1  -1    0.04    0.17
   4  -1   1    0.15    0.18
   4  -1   1   -0.23    0.24
  -4  -1  -1    0.07    0.18
   4   1   1   -0.04    0.18
  -4   1  -1   -0.08    0.22
  -4   1  -1   -0.27    0.26
   4   1   1    0.02    0.12
   5  -1   1    4.88    0.51
   5  -1   1    5.41    0.42
  -5   1  -1    4.66    0.50
  -5   1  -1    5.46    0.49
   6  -1   1    2.83    0.45
   6  -1   1    2.54    0.34
  -6   1  -1    1.87    0.44
  -6   1  -1    2.81    0.42
   7  -2  -1    1.08    0.33
   7  -2  -1    1.33    0.47
  -7   2   1    1.04    0.37
  -7   2   1    0.98    0.46
   6  -2  -1   12.71    0.85
   6  -2  -1   14.13    0.70
  -6   2   1   12.82    0.77
  -6   2   1   13.02    0.91
   5  -2  -1    0.70    0.28
   5  -2  -1    0.86    0.36
  -5   2   1    0.98    0.31
  -5   2   1    0.43    0.34
   4  -2  -1    2.33    0.40
   4  -2  -1    1.82    0.29
  -4   2   1    1.73    0.37
  -4   2   1    2.27    0.37
   3  -2  -1   28.40    0.86
   3  -2  -1   26.62    0.97
  -3   2   1   27.45    0.90
  -3   2   1   26.26    0.97
   2  -2  -1   19.17    0.64
   2  -2  -1   20.78    0.77
  -2   2   1   18.92    0.65
  -2   2   1   20.58    0.79
   1  -2  -1    5.03    0.29
  -1  -2   1    5.37    0.20
  -1  -2   1    5.14    0.26
   1   2  -1    5.31    0.26
   1   2  -1    4.74    0.24
  -1   2   1    4.77    0.34
  -1   2   1    4.01    0.34
   0  -2   1   -0.09    0.17
   0  -2  -1    0.07    0.17
   0  -2   1    0.11    0.13
   0  -2  -1    0.27    0.13
   0   2   1   -0.02    0.13
   0   2  -1    0.04    0.15
   0   2  -1    0.10    0.19
   0   2   1   -0.03    0.17
  -1  -2  -1    7.78    0.25
  -1  -2  -1    7.47    0.29
   1  -2   1    7.63    0.46
  -1   2  -1    8.19    0.41
   1   2   1    7.42    0.26
  -1   2  -1    7.15    0.49
   2  -2   1    6.34    0.38
   2  -2   1    6.84    0.51
  -2   2  -1    6.71    0.45
  -2   2  -1    7.60    0.51
   3  -2   1    6.20    0.52
   3  -2   1    5.60    0.41
  -3   2  -1    5.56    0.54
  -3   2  -1    5.84    0.47
   4  -2   1    5.78    0.53
   4  -2   1    4.58    0.41
  -4   2  -1    5.43    0.50
  -4   2  -1    3.78    0.49
   5  -2   1   14.00    0.81
   5  -2   1   12.37    0.64
  -5   2  -1   13.05    0.83
  -5   2  -1   12.59    0.72
   6  -2   1    8.12    0.58
   6  -2   1    7.82    0.72
  -6   2  -1    8.55    0.70
  -6   2  -1    8.08    0.75
   7  -2   1    1.60    0.37
   7  -2   1    2.30    0.50
  -7   2  -1    0.97    0.49
  -7   2  -1    1.93    0.47
   7  -3  -1    0.41    0.32
   7  -3  -1    0.43    0.44
  -7   3   1    0.08    0.46
  -7   3   1    0.39    0.38
   6  -3  -1    4.35    0.49
   6  -3  -1    3.30    0.55
  -6   3   1    4.25    0.55
  -6   3   1    3.97    0.63
   5  -3  -1   11.78    0.69
   5  -3  -1   13.04    0.86
  -5   3   1   12.44    0.74
  -5   3   1   11.83    0.89
   4  -3  -1    0.20    0.33
   4  -3  -1    0.44    0.27
  -4   3   1   -0.10    0.36
  -4   3   1    0.24    0.27
   3  -3  -1    0.86    0.27
   3  -3  -1    0.60    0.34
  -3   3   1    1.61    0.43
  -3   3   1    0.78    0.30
   2  -3  -1    3.02    0.31
   2  -3  -1    4.00    0.44
  -2   3   1    3.76    0.45
  -2   3   1    3.29    0.37
  -1  -3   1   12.39    0.45
   1  -3  -1   11.70    0.49
  -1  -3   1   11.24    0.37
   1  -3  -1   11.68    0.59
   1   3  -1   10.45    0.44
  -1   3   1   12.43    0.62
  -1   3   1   10.36    0.50
   1   3  -1   11.82    0.42
   0  -3   1    0.18    0.21
   0  -3   1    0.05    0.14
   0  -3  -1    0.35    0.15
   0  -3  -1    0.02    0.20
   0   3  -1    0.30    0.23
   0   3   1   -0.37    0.22
   0   3  -1   -0.21    0.18
   0   3   1    0.08    0.15
  -1  -3  -1    1.88    0.17
  -1  -3  -1    1.48    0.21
   1  -3   1    2.33    0.34
   1  -3   1    1.97    0.24
  -1   3  -1    1.55    0.34
  -1   3  -1    2.12    0.29
   1   3   1    1.76    0.18
  -2  -3  -1    8.09    0.24
   2  -3   1    9.35    0.61
   2  -3   1    8.95    0.48
   2   3   1    8.72    0.24
  -2   3  -1    9.25    0.54
  -2   3  -1    7.86    0.62
   2   3   1    8.18    0.26
   3  -3   1    3.56    0.46
   3  -3   1    2.85    0.32
  -3   3  -1    2.32    0.41
  -3   3  -1    3.48    0.40
   4  -3   1    1.39    0.30
   4  -3   1    1.18    0.38
  -4   3  -1    1.72    0.37
  -4   3  -1    1.19    0.41
   5  -3   1    6.51    0.53
   5  -3   1    6.17    0.63
  -5   3  -1    7.64    0.75
  -5   3  -1    6.15    0.59
   6  -3   1    3.03    0.45
   6  -3   1    2.55    0.53
  -6   3  -1    2.77    0.49
  -6   3  -1    2.75    0.58
   7  -3   1    1.01    0.46
   7  -3   1    0.56    0.36
  -7   3  -1    0.78    0.51
  -7   3  -1    1.23    0.44
   6  -4  -1    8.21    0.70
   6  -4  -1    8.43    0.85
  -6   4   1    7.40    0.75
  -6   4   1    6.60    0.82
   5  -4  -1    0.65    0.34
   5  -4  -1    0.30    0.38
  -5   4   1    0.72    0.37
  -5   4   1    0.35    0.48
   4  -4  -1    4.30    0.55
   4  -4  -1    4.51    0.49
  -4   4   1    4.16    0.50
  -4   4   1    4.49    0.63
   3  -4  -1    3.77    0.40
   3  -4  -1    3.94    0.50
  -3   4   1    4.06    0.53
  -3   4   1    4.02    0.46
   2  -4  -1   16.08    0.83
   2  -4  -1   16.34    0.70
  -2   4   1   18.02    0.77
  -2   4   1   18.19    0.88
  -1  -4   1    3.42    0.26
   1  -4  -1    2.78    0.31
  -1  -4   1    3.71    0.32
   1  -4  -1    3.69    0.43
   1   4  -1    3.51    0.32
  -1   4   1    3.04    0.42
  -1   4   1    3.89    0.38
   1   4  -1    3.14    0.29
   0  -4  -1   -0.06    0.23
   0  -4   1   -0.11    0.22
   0  -4   1    0.21    0.17
   0  -4  -1    0.09    0.16
   0   4   1    0.03    0.19
   0   4   1   -0.01    0.24
   0   4  -1    0.75    0.28
   0   4  -1    0.25    0.21
   1  -4   1    2.33    0.30
  -1  -4  -1    2.33    0.28
  -1  -4  -1    2.48    0.22
   1  -4   1    1.20    0.32
  -1   4  -1    1.75    0.38
  -1   4  -1    1.81    0.31
   1   4   1    1.82    0.23
   2  -4   1   12.47    0.72
   2  -4   1   12.51    0.61
  -2   4  -1   12.54    0.78
  -2   4  -1   13.36    0.68
   3  -4   1    1.24    0.32
   3  -4   1    0.46    0.36
  -3   4  -1    1.77    0.37
  -3   4  -1    0.50    0.41
   4  -4   1    4.54    0.58
   4  -4   1    4.86    0.47
  -4   4  -1    3.82    0.51
  -4   4  -1    4.52    0.60
   5  -4   1    3.85    0.60
   5  -4   1    5.77    0.58
  -5   4  -1    5.18    0.61
  -5   4  -1    4.42    0.67
   6  -4   1    4.46    0.57
   6  -4   1    4.81    0.71
  -6   4  -1    5.06    0.65
  -6   4  -1    4.23    0.73
   6  -5  -1    0.34    0.47
  -6   5   1    0.67    0.44
   5  -5  -1    4.08    0.65
   5  -5  -1    4.95    0.58
  -5   5   1    3.73    0.58
  -5   5   1    3.93    0.73
   4  -5  -1    1.55    0.40
   4  -5  -1    1.65    0.49
  -4   5   1    2.25    0.56
  -4   5   1    2.13    0.46
   3  -5  -1    1.75    0.45
   3  -5  -1    1.81    0.35
  -3   5   1    1.68    0.40
  -3   5   1    1.87    0.48
   2  -5  -1    0.31    0.25
   2  -5  -1    0.10    0.35
  -2   5   1    0.71    0.40
  -2   5   1    0.48    0.29
   1  -5  -1   15.84    0.81
   1  -5  -1   13.21    0.61
  -1   5   1   13.57    0.67
  -1   5   1   15.63    0.85
   0  -5   1    0.06    0.19
   0  -5   1    0.35    0.27
   0  -5  -1    0.21    0.27
   0  -5  -1    0.26    0.18
   0   5  -1    0.12    0.27
   0   5   1   -0.04    0.20
   0   5  -1    0.30    0.23
   0   5   1   -0.41    0.26
   1  -5   1    9.79    0.65
   1  -5   1    9.26    0.52
  -1   5  -1    9.37    0.68
  -1   5  -1    9.33    0.59
   2  -5   1    0.91    0.27
   2  -5   1    0.81    0.35
  -2   5  -1    1.29    0.35
  -2   5  -1    1.22    0.42
   3  -5   1    3.69    0.46
   3  -5   1    3.67    0.53
  -3   5  -1    2.72    0.55
  -3   5  -1    3.61    0.51
   4  -5   1    0.49    0.34
   4  -5   1   -0.19    0.39
  -4   5  -1    0.00    0.42
  -4   5  -1   -0.61    0.33
   5  -5   1    2.59    0.46
   5  -5   1    2.03    0.53
  -5   5  -1    1.11    0.50
  -5   5  -1    2.24    0.50
   6  -5   1    0.51    0.55
  -6   5  -1    0.40    0.44
   5  -6  -1    0.74    0.50
  -5   6   1    0.72    0.48
   4  -6  -1    0.27    0.44
   4  -6  -1    0.81    0.38
  -4   6   1    0.54    0.51
  -4   6   1    0.40    0.41
   3  -6  -1    5.69    0.56
   3  -6  -1    6.39    0.71
  -3   6   1    5.26    0.63
  -3   6   1    5.49    0.75
   2  -6  -1    0.47    0.28
   2  -6  -1    0.28    0.36
  -2   6   1    0.47    0.41
  -2   6   1    0.66    0.32
   1  -6  -1    3.67    0.49
   1  -6  -1    3.10    0.37
  -1   6   1    4.42    0.55
  -1   6   1    4.02    0.45
   1  -6   1    2.83    0.47
   1  -6   1    2.06    0.34
  -1   6  -1    1.88    0.45
  -1   6  -1    2.73    0.42
   2  -6   1    1.45    0.44
   2  -6   1    1.74    0.38
  -2   6  -1    1.41    0.40
  -2   6  -1    1.71    0.50
   3  -6   1    1.11    0.37
   3  -6   1    0.29    0.41
  -3   6  -1   -0.03    0.43
  -3   6  -1    0.20    0.37
   4  -6   1    0.06    0.36
   4  -6   1    0.21    0.44
  -4   6  -1    0.00    0.47
  -4   6  -1   -0.47    0.37
   5  -6   1    1.54    0.65
  -5   6  -1    1.53    0.59
   3  -7  -1    0.11    0.32
   3  -7  -1    1.00    0.47
  -3   7   1    0.79    0.42
  -3   7   1    1.59    0.53
   2  -7  -1    0.14    0.29
   2  -7  -1    0.54    0.40
  -2   7   1    0.51    0.37
  -2   7   1   -0.50    0.37
   2  -7   1   -0.30    0.38
   2  -7   1    0.27    0.29
  -2   7  -1    0.86    0.48
  -2   7  -1    0.18    0.37
   3  -7   1    0.52    0.38
   3  -7   1    0.00    0.41
  -3   7  -1    0.05    0.47
  -3   7  -1   -0.12    0.38
   5   0  -2   17.12    0.61
  -5   0   2   18.33    0.77
   5   0  -2   16.77    0.74
  -5   0   2   17.35    0.68
  -4   0   2   24.03    0.76
   4   0  -2   26.48    0.83
   4   0  -2   24.41    0.71
  -4   0   2   23.15    0.84
   3   0  -2    3.26    0.26
  -3   0   2    3.94    0.35
  -3   0   2    3.68    0.29
   3   0  -2    2.98    0.29
  -2   0   2    0.62    0.15
   2   0  -2    0.71    0.14
   2   0  -2    0.49    0.19
  -1   0   2   40.03    0.91
   1   0  -2   40.99    0.90
   0   0   2   40.27    0.88
   0   0  -2   38.56    0.91
   1   0   2    2.93    0.20
  -1   0  -2    2.60    0.21
  -1   0  -2    3.11    0.22
   1   0   2    2.67    0.21
   2   0   2    0.39    0.14
  -2   0  -2    0.54    0.21
   2   0   2    0.69    0.21
  -2   0  -2    0.52    0.19
   3   0   2    0.96    0.24
  -3   0  -2    0.68    0.24
  -3   0  -2    0.79    0.22
   3   0   2    1.33    0.19
  -4   0  -2   27.96    0.95
   4   0   2   26.98    0.81
  -4   0  -2   28.21    0.90
   4   0   2   28.79    0.93
   5   0   2    2.39    0.28
  -5   0  -2    2.33    0.37
   5   0   2    2.61    0.38
  -5   0  -2    2.13    0.32
   6  -1  -2    0.61    0.24
   6  -1  -2    0.38    0.32
  -6   1   2    0.32    0.27
  -6   1   2    0.54    0.35
   5  -1  -2    0.65    0.31
   5  -1  -2    0.73    0.22
  -5   1   2    0.40    0.32
  -5   1   2    0.71    0.27
   4  -1  -2   13.52    0.68
  -4  -1   2   12.64    0.47
   4  -1  -2   14.41    0.56
  -4   1   2   13.54    0.61
  -4   1   2   13.66    0.72
   4   1  -2   14.35    0.45
   4   1  -2   13.73    0.52
   3  -1  -2   26.04    0.76
   3  -1  -2   26.43    0.86
  -3  -1   2   25.23    0.65
  -3   1   2   26.11    0.80
   3   1  -2   25.65    0.69
  -3   1   2   24.42    0.89
   3   1  -2   25.05    0.64
   2  -1  -2    4.77    0.36
   2  -1  -2    3.62    0.26
  -2  -1   2    4.02    0.19
  -2  -1   2    3.73    0.24
   2   1  -2    3.95    0.19
  -2   1   2    4.01    0.32
  -2   1   2    3.80    0.34
   1  -1  -2   17.59    0.49
   1  -1  -2   17.07    0.57
  -1  -1   2   17.00    0.45
  -1  -1   2   17.45    0.45
  -1   1   2   17.54    0.52
   1   1  -2   18.09    0.49
   1   1  -2   17.73    0.44
  -1   1   2   18.19    0.58
   0  -1   2   61.05    1.39
   0  -1   2   61.11    1.35
   0  -1  -2   61.09    1.34
   0   1  -2   62.68    1.38
   0   1   2   62.44    1.35
   0   1  -2   61.97    1.38
   1  -1   2   36.13    0.87
  -1  -1  -2   34.64    0.80
   1  -1   2   36.84    0.95
  -1  -1  -2   35.11    0.86
   1   1   2   37.08    0.82
   1   1   2   34.44    0.80
  -1   1  -2   34.00    0.92
  -1   1  -2   33.45    0.93
   2  -1   2    0.74    0.24
   2  -1   2    1.11    0.20
  -2  -1  -2    0.66    0.17
  -2  -1  -2    0.95    0.17
  -2   1  -2    0.59    0.22
  -2   1  -2    0.71    0.28
   2   1   2    0.63    0.12
   2   1   2    0.69    0.15
   3  -1   2   14.60    0.68
  -3  -1  -2   13.55    0.50
  -3  -1  -2   14.10    0.52
   3  -1   2   14.44    0.55
  -3   1  -2   14.96    0.62
  -3   1  -2   14.56    0.66
   3   1   2   14.12    0.50
   3   1   2   13.64    0.43
  -4  -1  -2   14.01    0.57
  -4  -1  -2   14.22    0.58
   4  -1   2   14.54    0.60
   4  -1   2   14.20    0.71
   4   1   2   14.67    0.48
  -4   1  -2   14.36    0.74
   4   1   2   14.56    0.55
  -4   1  -2   14.76    0.69
   5  -1   2   23.70    0.98
   5  -1   2   26.09    0.86
  -5   1  -2   24.63    1.01
  -5   1  -2   25.38    0.98
   6  -1   2    0.85    0.35
   6  -1   2    0.09    0.23
  -6   1  -2    0.28    0.30
  -6   1  -2    0.00    0.33
   7  -2  -2    3.07    0.56
   7  -2  -2    3.54    0.45
  -7   2   2    3.38    0.49
  -7   2   2    2.81    0.55
   6  -2  -2    0.68    0.29
   6  -2  -2    1.37    0.42
  -6   2   2    1.31    0.45
  -6   2   2    0.86    0.35
   5  -2  -2    2.93    0.37
   5  -2  -2    2.82    0.46
  -5   2   2    2.87    0.42
  -5   2   2    4.09    0.56
   4  -2  -2   15.21    0.63
   4  -2  -2   14.55    0.77
  -4   2   2   15.05    0.83
  -4   2   2   15.51    0.71
   3  -2  -2    1.78    0.35
   3  -2  -2    1.54    0.25
  -3   2   2    1.58    0.35
  -3   2   2    2.03    0.31
   2  -2  -2    0.74    0.28
   2  -2  -2    1.16    0.23
  -2  -2   2    1.12    0.08
   2   2  -2    1.32    0.11
  -2   2   2    0.89    0.22
  -2   2   2    1.07    0.32
   1  -2  -2   14.73    0.59
  -1  -2   2   15.03    0.42
   1  -2  -2   15.23    0.49
  -1  -2   2   15.59    0.46
   1   2  -2   15.05    0.46
  -1   2   2   15.64    0.61
   1   2  -2   15.97    0.47
  -1   2   2   15.10    0.52
   0  -2  -2  292.45    6.07
   0  -2   2  294.72    6.14
   0  -2  -2  296.68    6.13
   0  -2   2  291.23    6.08
   0   2  -2  285.54    6.16
   0   2  -2  295.13    6.13
   0   2   2  297.29    6.09
  -1  -2  -2   23.48    0.60
   1  -2   2   24.51    0.71
   1  -2   2   24.79    0.81
   1   2   2   23.62    0.60
   1   2   2   24.62    0.65
  -1   2  -2   23.53    0.82
  -1   2  -2   25.05    0.76
   2  -2   2    0.94    0.27
  -2  -2  -2    1.61    0.17
   2  -2   2    1.48    0.23
  -2  -2  -2    1.38    0.13
  -2   2  -2    0.91    0.26
   2   2   2    1.61    0.12
   2   2   2    1.41    0.12
  -2   2  -2    1.00    0.31
  -3  -2  -2    2.84    0.22
   3  -2   2    5.04    0.49
   3  -2   2    2.90    0.32
  -3  -2  -2    3.32    0.23
  -3   2  -2    3.23    0.39
  -3   2  -2    2.25    0.40
   3   2   2    3.34    0.17
   3   2   2    3.45    0.15
   4  -2   2    1.78    0.40
   4  -2   2    2.02    0.31
  -4   2  -2    1.52    0.40
  -4   2  -2    1.60    0.34
   5  -2   2    6.49    0.63
   5  -2   2    6.66    0.51
  -5   2  -2    7.73    0.62
  -5   2  -2    5.58    0.60
   6  -2   2    0.19    0.26
   6  -2   2    0.43    0.36
  -6   2  -2    0.50    0.36
  -6   2  -2    0.40    0.39
   7  -2   2    0.36    0.30
   7  -2   2   -0.21    0.38
  -7   2  -2    0.62    0.44
  -7   2  -2    0.38    0.42
   7  -3  -2   -0.13    0.38
   7  -3  -2    0.35    0.32
  -7   3   2    0.70    0.48
  -7   3   2    0.25    0.37
   6  -3  -2    1.36    0.45
   6  -3  -2    1.11    0.34
  -6   3   2    0.71    0.36
  -6   3   2    0.68    0.48
   5  -3  -2    1.94    0.45
   5  -3  -2    1.24    0.30
  -5   3   2    2.07    0.49
  -5   3   2    2.04    0.41
   4  -3  -2    1.99    0.34
   4  -3  -2    1.72    0.41
  -4   3   2    1.91    0.48
  -4   3   2    2.09    0.37
   3  -3  -2    9.26    0.64
   3  -3  -2    9.79    0.55
  -3   3   2    9.83    0.59
  -3   3   2   10.75    0.76
  -2  -3   2    3.33    0.16
   2  -3  -2    2.86    0.41
   2  -3  -2    2.78    0.29
  -2  -3   2    3.27    0.20
   2   3  -2    3.76    0.22
   2   3  -2    3.12    0.20
  -2   3   2    3.11    0.41
  -2   3   2    3.80    0.39
  -1  -3   2    2.11    0.18
   1  -3  -2    2.18    0.33
  -1  -3   2    2.41    0.25
   1  -3  -2    2.70    0.27
   1   3  -2    2.16    0.23
  -1   3   2    2.34    0.37
   1   3  -2    2.24    0.25
  -1   3   2    2.54    0.28
   0  -3  -2   55.12    1.36
   0  -3   2   52.71    1.29
   0  -3   2   53.16    1.39
   0  -3  -2   53.58    1.27
   0   3  -2   53.11    1.40
   0   3   2   54.60    1.38
   0   3  -2   55.94    1.35
   0   3   2   51.76    1.30
   1  -3   2    4.73    0.36
  -1  -3  -2    4.46    0.25
   1  -3   2    4.38    0.40
  -1  -3  -2    4.61    0.32
  -1   3  -2    4.04    0.38
   1   3   2    4.48    0.26
  -1   3  -2    4.37    0.44
   2  -3   2    4.94    0.39
  -2  -3  -2    4.31    0.24
  -2  -3  -2    4.47    0.21
   2  -3   2    4.22    0.47
   2   3   2    4.67    0.19
  -2   3  -2    5.02    0.53
   2   3   2    4.25    0.22
  -2   3  -2    5.16    0.46
   3  -3   2    3.05    0.42
   3  -3   2    3.03    0.34
  -3   3  -2    2.72    0.39
  -3   3  -2    3.19    0.45
   4  -3   2    8.05    0.56
   4  -3   2    8.21    0.69
  -4   3  -2    9.05    0.75
  -4   3  -2    8.48    0.64
   5  -3   2   10.87    0.84
   5  -3   2   10.13    0.65
  -5   3  -2    9.76    0.72
  -5   3  -2   10.90    0.86
   6  -3   2    1.83    0.39
   6  -3   2    3.15    0.56
  -6   3  -2    2.40    0.51
  -6   3  -2    2.35    0.57
   7  -3   2    0.59    0.45
   7  -3   2    0.28    0.34
  -7   3  -2    0.43    0.42
  -7   3  -2    0.55    0.50
   6  -4  -2    1.71    0.52
   6  -4  -2    0.91    0.38
  -6   4   2    2.05    0.48
  -6   4   2    1.82    0.56
   5  -4  -2    0.86    0.31
   5  -4  -2    0.10    0.39
  -5   4   2    0.63    0.38
  -5   4   2    0.21    0.40
   4  -4  -2    5.49    0.49
   4  -4  -2    6.77    0.69
  -4   4   2    5.39    0.64
  -4   4   2    7.95    0.67
   3  -4  -2    0.79    0.39
   3  -4  -2    0.44    0.27
  -3   4   2    1.11    0.44
  -3   4   2    0.40    0.30
   2  -4  -2    2.40    0.43
   2  -4  -2    2.15    0.31
  -2   4   2    2.25    0.46
  -2   4   2    2.35    0.37
   1  -4  -2    0.70    0.31
  -1  -4   2    0.61    0.16
  -1  -4   2    0.40    0.22
   1  -4  -2    1.00    0.23
  -1   4   2    0.63    0.24
   1   4  -2    0.78    0.22
  -1   4   2    0.62    0.32
   1   4  -2    0.87    0.24
   0  -4   2  125.72    2.73
   0  -4   2  118.36    2.84
   0  -4  -2  119.70    2.83
   0  -4  -2  123.67    2.71
   0   4   2  123.51    2.85
   0   4   2  123.85    2.75
   0   4  -2  123.92    2.87
   0   4  -2  117.29    2.78
  -1  -4  -2    9.94    0.41
   1  -4   2    9.88    0.51
  -1  -4  -2   10.72    0.50
   1  -4   2   10.94    0.64
  -1   4  -2   10.01    0.66
   1   4   2   11.69    0.44
  -1   4  -2   10.67    0.59
   2  -4   2    2.13    0.43
   2  -4   2    2.33    0.33
  -2   4  -2    2.61    0.47
  -2   4  -2    2.30    0.39
   3  -4   2    1.40    0.33
   3  -4   2    1.13    0.40
  -3   4  -2    1.80    0.40
  -3   4  -2    2.53    0.50
   4  -4   2    1.64    0.45
   4  -4   2    1.29    0.32
  -4   4  -2    0.43    0.40
  -4   4  -2    2.24    0.43
   5  -4   2    4.51    0.53
   5  -4   2    3.96    0.63
  -5   4  -2    3.82    0.56
  -5   4  -2    3.83    0.63
   6  -4   2    1.98    0.53
   6  -4   2    2.13    0.42
  -6   4  -2    1.44    0.47
  -6   4  -2    1.93    0.54
   6  -5  -2    1.88    0.57
  -6   5   2    2.24    0.54
   5  -5  -2    0.07    0.40
   5  -5  -2    0.05    0.34
  -5   5   2    0.63    0.52
  -5   5   2   -0.08    0.35
   4  -5  -2    0.61    0.42
   4  -5  -2    0.69    0.31
  -4   5   2    0.75    0.38
  -4   5   2    0.34    0.40
   3  -5  -2    2.13    0.50
   3  -5  -2    2.55    0.39
  -3   5   2    2.35    0.55
  -3   5   2    1.92    0.43
   2  -5  -2    1.26    0.41
   2  -5  -2    1.74    0.32
  -2   5   2    1.77    0.46
  -2   5   2    1.81    0.36
   1  -5  -2    2.68    0.32
   1  -5  -2    1.88    0.39
  -1   5   2    2.17    0.34
  -1   5   2    2.71    0.46
   0  -5  -2   17.16    0.78
   0  -5  -2   17.59    0.65
   0  -5   2   17.08    0.64
   0  -5   2   17.61    0.78
   0   5   2   17.13    0.69
   0   5  -2   17.90    0.81
   0   5  -2   17.45    0.75
   1  -5   2    3.74    0.36
   1  -5   2    4.27    0.50
  -1   5  -2    3.60    0.42
  -1   5  -2    4.82    0.54
   2  -5   2    1.22    0.29
   2  -5   2    1.85    0.43
  -2   5  -2    0.89    0.39
  -2   5  -2    0.82    0.35
   3  -5   2    4.17    0.56
   3  -5   2    5.25    0.53
  -3   5  -2    5.66    0.68
  -3   5  -2    3.49    0.49
   4  -5   2    2.69    0.58
   4  -5   2    3.85    0.51
  -4   5  -2    2.94    0.53
  -4   5  -2    2.99    0.61
   5  -5   2    5.97    0.76
   5  -5   2    5.22    0.59
  -5   5  -2    4.37    0.67
  -5   5  -2    3.27    0.66
   5  -6  -2    2.25    0.58
  -5   6   2    1.21    0.47
   4  -6  -2    2.46    0.56
   4  -6  -2    4.29    0.55
  -4   6   2    3.62    0.72
  -4   6   2    4.37    0.59
   3  -6  -2    0.26    0.31
   3  -6  -2    0.11    0.38
  -3   6   2   -0.59    0.40
  -3   6   2    0.38    0.34
   2  -6  -2    0.26    0.26
   2  -6  -2   -0.02    0.36
  -2   6   2    0.56    0.31
  -2   6   2   -0.33    0.34
   1  -6  -2    1.94    0.32
   1  -6  -2    1.04    0.39
  -1   6   2    1.93    0.42
  -1   6   2    1.78    0.36
   1  -6   2    0.16    0.23
   1  -6   2   -0.27    0.32
  -1   6  -2    0.33    0.31
  -1   6  -2   -0.34    0.33
   2  -6   2    0.05    0.36
   2  -6   2    0.34    0.29
  -2   6  -2    0.60    0.37
  -2   6  -2    0.03    0.39
   3  -6   2    0.82    0.42
   3  -6   2    0.01    0.31
  -3   6  -2    0.39    0.48
  -3   6  -2   -0.08    0.35
   4  -6   2    1.11    0.50
   4  -6   2    0.28    0.38
  -4   6  -2    0.79    0.44
  -4   6  -2    1.05    0.54
   3  -7  -2    1.76    0.43
   3  -7  -2    0.95    0.46
  -3   7   2    1.24    0.52
  -3   7   2    0.87    0.42
   2  -7  -2    0.47    0.32
   2  -7  -2    0.26    0.38
  -2   7   2    0.27    0.34
  -2   7   2    0.54    0.42
   2  -7   2   -0.16    0.34
   2  -7   2    0.89    0.34
  -2   7  -2   -0.34    0.38
  -2   7  -2   -0.21    0.36
   3  -7   2    0.19    0.36
   3  -7   2    0.47    0.45
  -3   7  -2    0.28    0.44
  -3   7  -2    0.31    0.49
  -5   0   3    0.14    0.21
   5   0  -3   -0.12    0.24
   5   0  -3    0.02    0.17
   4   0  -3   -0.10    0.21
  -4   0   3   -0.04    0.18
   4   0  -3    0.22    0.16
  -3   0   3    0.08    0.15
   3   0  -3    0.01    0.20
   3   0  -3   -0.07    0.15
   2   0  -3  245.68    5.05
  -2   0   3  239.44    5.05
   1   0  -3    0.03    0.11
  -1   0   3    0.09    0.13
   1   0  -3    0.04    0.21
  -1   0   3    0.42    0.18
   0   0  -3    0.18    0.11
   0   0   3    0.36    0.15
   0   0   3    0.32    0.14
   0   0  -3    0.28    0.18
   1   0   3    2.45    0.23
  -1   0  -3    2.78    0.25
   1   0   3    2.42    0.22
  -1   0  -3    2.62    0.23
  -2   0  -3  158.49    3.40
   2   0   3  159.05    3.40
   2   0   3  154.82    3.34
  -2   0  -3  153.51    3.40
   3   0   3   48.63    1.27
  -3   0  -3   47.14    1.26
   3   0   3   46.72    1.17
  -3   0  -3   46.90    1.29
  -4   0  -3    0.27    0.26
   4   0   3   -0.10    0.17
   4   0   3    0.18    0.25
  -4   0  -3    0.51    0.24
  -5   0  -3   18.24    0.79
  -5   0  -3   17.83    0.81
   5   0   3   17.60    0.66
   5   0   3   18.92    0.80
   6  -1  -3   30.75    1.18
   6  -1  -3   30.24    1.01
  -6   1   3   29.88    1.07
   5  -1  -3    0.57    0.23
   5  -1  -3    1.24    0.33
  -5   1   3    0.80    0.27
  -5   1   3    1.48    0.37
   4  -1  -3    4.93    0.46
   4  -1  -3    4.60    0.35
  -4  -1   3    5.22    0.29
  -4   1   3    3.61    0.36
   4   1  -3    4.14    0.28
   4   1  -3    4.25    0.32
  -4   1   3    3.47    0.41
   3  -1  -3    2.77    0.34
  -3  -1   3    3.04    0.22
  -3  -1   3    3.47    0.30
   3  -1  -3    3.03    0.27
  -3   1   3    2.09    0.32
   3   1  -3    3.23    0.22
   3   1  -3    3.17    0.25
  -3   1   3    3.14    0.30
   2  -1  -3   38.51    0.98
   2  -1  -3   39.87    1.09
  -2  -1   3   40.50    0.96
  -2  -1   3   38.29    0.90
  -2   1   3   39.02    1.01
   2   1  -3   38.13    0.89
  -1  -1   3    3.07    0.24
  -1  -1   3    3.37    0.23
   1  -1  -3    3.23    0.24
   1   1  -3    3.35    0.26
   1   1  -3    3.20    0.21
   0  -1  -3    0.40    0.22
   0  -1   3    0.41    0.15
   0  -1  -3    0.29    0.14
   0  -1   3    0.29    0.18
   0   1   3    0.19    0.18
   0   1   3    0.27    0.13
   0   1  -3    0.50    0.18
   0   1  -3    0.17    0.16
  -1  -1  -3   62.33    1.43
   1  -1   3   60.90    1.42
  -1  -1  -3   59.24    1.36
   1  -1   3   59.99    1.48
   1   1   3   62.02    1.36
   1   1   3   60.90    1.38
  -1   1  -3   64.14    1.48
  -1   1  -3   58.24    1.46
  -2  -1  -3  115.47    2.56
   2  -1   3  116.72    2.67
  -2  -1  -3  114.06    2.52
   2  -1   3  122.68    2.58
   2   1   3  114.13    2.49
  -2   1  -3  119.81    2.65
   2   1   3  113.60    2.52
  -2   1  -3  114.15    2.69
   3  -1   3   13.85    0.57
   3  -1   3   15.91    0.70
  -3  -1  -3   15.43    0.57
  -3  -1  -3   14.97    0.56
   3   1   3   14.95    0.48
  -3   1  -3   16.52    0.73
   3   1   3   15.05    0.54
  -3   1  -3   15.85    0.67
  -4  -1  -3    0.17    0.22
   4  -1   3    0.28    0.21
  -4  -1  -3    0.01    0.21
   4  -1   3    0.14    0.28
   4   1   3    0.03    0.13
   4   1   3    0.24    0.20
  -4   1  -3    0.15    0.25
  -4   1  -3    0.43    0.32
   5  -1   3   11.78    0.57
   5  -1   3   11.47    0.71
  -5   1  -3    9.95    0.71
  -5   1  -3   11.31    0.67
   6  -1   3    0.74    0.27
   6  -1   3    1.24    0.39
  -6   1  -3    0.72    0.33
  -6   1  -3    0.94    0.38
   7  -2  -3    0.78    0.31
   7  -2  -3    0.51    0.42
  -7   2   3    0.92    0.38
   6  -2  -3    1.84    0.34
   6  -2  -3    2.50    0.47
  -6   2   3    2.41    0.42
  -6   2   3    1.83    0.43
   5  -2  -3    0.55    0.24
   5  -2  -3    1.17    0.37
  -5   2   3    0.41    0.29
  -5   2   3    0.23    0.36
   4  -2  -3   -0.36    0.29
   4  -2  -3    0.15    0.21
  -4   2   3    0.27    0.35
  -4   2   3    0.62    0.27
  -3  -2   3   21.90    0.56
   3  -2  -3   23.42    0.88
   3  -2  -3   22.30    0.74
  -3  -2   3   22.14    0.53
  -3   2   3   22.32    0.92
   3   2  -3   22.09    0.55
   3   2  -3   22.09    0.53
  -3   2   3   22.28    0.79
  -2  -2   3  142.18    3.01
   2  -2  -3  148.45    3.16
   2  -2  -3  142.46    3.27
  -2  -2   3  141.27    3.00
   2   2  -3  146.48    3.02
  -2   2   3  140.39    3.18
  -2   2   3  143.77    3.30
   2   2  -3  146.49    3.06
   1  -2  -3   11.51    0.44
   1  -2  -3   11.78    0.56
  -1  -2   3   12.59    0.43
  -1  -2   3   11.93    0.39
   1   2  -3   12.13    0.43
   1   2  -3   12.06    0.45
  -1   2   3   12.03    0.48
   0  -2   3    0.26    0.16
   0  -2  -3    0.40    0.15
   0  -2   3    0.51    0.23
   0   2  -3    0.19    0.21
   0   2   3    0.48    0.16
   0   2  -3    0.29    0.21
   1  -2   3    4.41    0.31
   1  -2   3    3.80    0.35
  -1  -2  -3    3.70    0.24
   1   2   3    3.51    0.23
  -1   2  -3    3.54    0.32
  -1   2  -3    3.27    0.35
   1   2   3    3.59    0.27
  -2  -2  -3   19.51    0.54
   2  -2   3   19.20    0.66
  -2  -2  -3   19.57    0.59
   2  -2   3   19.65    0.80
   2   2   3   19.10    0.53
  -2   2  -3   18.83    0.75
  -2   2  -3   20.25    0.80
   2   2   3   19.36    0.51
   3  -2   3    8.00    0.45
  -3  -2  -3    7.48    0.39
  -3  -2  -3    8.06    0.34
   3  -2   3    6.65    0.55
  -3   2  -3    7.62    0.59
   3   2   3    8.16    0.30
   3   2   3    7.58    0.31
  -3   2  -3    7.70    0.57
   4  -2   3    0.22    0.32
   4  -2   3   -0.02    0.23
  -4   2  -3    0.18    0.29
  -4   2  -3    0.41    0.35
   5  -2   3   14.83    0.86
   5  -2   3   14.77    0.70
  -5   2  -3   15.10    0.89
  -5   2  -3   14.47    0.81
   6  -2   3    0.90    0.43
   6  -2   3    1.25    0.34
  -6   2  -3    1.51    0.40
  -6   2  -3    1.16    0.45
   7  -2   3    2.31    0.80
   7  -2   3    1.92    0.62
  -7   2  -3    1.26    0.51
   7  -3  -3    2.20    0.54
   7  -3  -3    3.02    0.46
  -7   3   3    1.25    0.49
  -7   3   3    1.95    0.47
   6  -3  -3   14.96    0.78
   6  -3  -3   14.18    0.94
  -6   3   3   16.61    0.89
  -6   3   3   15.79    1.02
   5  -3  -3    2.48    0.38
   5  -3  -3    1.35    0.45
  -5   3   3    1.83    0.47
  -5   3   3    2.08    0.41
   4  -3  -3    5.22    0.59
   4  -3  -3    4.59    0.41
  -4   3   3    3.91    0.54
  -4   3   3    5.43    0.53
   3  -3  -3    0.44    0.21
   3  -3  -3    0.84    0.35
  -3   3   3    0.72    0.28
  -3   3   3    0.34    0.32
  -2  -3   3    3.92    0.25
  -2  -3   3    4.30    0.20
   2  -3  -3    3.78    0.34
   2  -3  -3    4.04    0.41
   2   3  -3    3.91    0.26
  -2   3   3    3.85    0.46
  -2   3   3    3.77    0.35
   2   3  -3    3.45    0.28
  -1  -3   3    6.89    0.32
   1  -3  -3    6.81    0.39
  -1  -3   3    6.88    0.40
   1  -3  -3    7.46    0.52
   1   3  -3    6.56    0.41
  -1   3   3    6.79    0.52
   1   3  -3    6.40    0.39
  -1   3   3    6.57    0.42
   0  -3   3    0.32    0.17
   0  -3  -3   -0.10    0.15
   0  -3   3   -0.11    0.23
   0  -3  -3    0.06    0.21
   0   3   3   -0.02    0.16
   0   3  -3   -0.26    0.20
   0   3  -3    0.02    0.24
   1  -3   3   -0.09    0.26
  -1  -3  -3   -0.15    0.18
  -1  -3  -3   -0.04    0.12
   1  -3   3    0.26    0.20
   1   3   3    0.10    0.20
  -1   3  -3    0.49    0.29
  -1   3  -3    0.17    0.25
   1   3   3    0.01    0.14
   2  -3   3   20.82    0.76
  -2  -3  -3   21.34    0.56
   2  -3   3   20.28    0.86
  -2   3  -3   23.17    0.94
   2   3   3   20.90    0.55
  -2   3  -3   21.03    0.81
   2   3   3   21.69    0.60
   3  -3   3    0.52    0.34
   3  -3   3    1.37    0.29
  -3   3  -3    0.47    0.29
  -3   3  -3    1.34    0.40
   4  -3   3    5.92    0.51
   4  -3   3    6.91    0.66
  -4   3  -3    5.77    0.62
  -4   3  -3    6.07    0.60
   5  -3   3    4.76    0.48
   5  -3   3    4.85    0.59
  -5   3  -3    3.37    0.51
  -5   3  -3    4.26    0.62
   6  -3   3    0.15    0.32
   6  -3   3    0.53    0.45
  -6   3  -3    0.23    0.37
  -6   3  -3    0.22    0.42
   7  -3   3    0.23    0.33
   7  -3   3    0.33    0.45
  -7   3  -3    0.14    0.49
  -7   3  -3    0.96    0.47
   6  -4  -3    2.20    0.45
   6  -4  -3    1.48    0.52
  -6   4   3    1.46    0.52
  -6   4   3    1.78    0.47
   5  -4  -3    1.63    0.48
   5  -4  -3    0.42    0.33
  -5   4   3    1.84    0.46
  -5   4   3    1.46    0.48
   4  -4  -3   -0.29    0.33
   4  -4  -3    0.50    0.29
  -4   4   3   -0.28    0.39
  -4   4   3    0.42    0.32
   3  -4  -3   13.03    0.64
  -3   4   3   11.50    0.68
  -3   4   3   12.37    0.85
   2  -4  -3   33.11    1.02
   2  -4  -3   34.27    1.19
  -2   4   3   32.39    1.07
  -2   4   3   32.97    1.23
  -1  -4   3    4.75    0.38
  -1  -4   3    4.33    0.30
   1  -4  -3    4.56    0.46
   1  -4  -3    4.56    0.36
  -1   4   3    4.54    0.40
  -1   4   3    3.99    0.46
   1   4  -3    4.48    0.38
   1   4  -3    5.20    0.38
   0  -4   3    0.14    0.18
   0  -4   3    0.12    0.26
   0  -4  -3    0.17    0.24
   0  -4  -3    0.25    0.18
   0   4   3    0.18    0.19
   0   4  -3   -0.22    0.23
   0   4  -3    0.05    0.27
   1  -4   3    3.36    0.32
   1  -4   3    4.04    0.43
  -1  -4  -3    4.51    0.30
  -1  -4  -3    4.52    0.35
  -1   4  -3    3.24    0.44
   1   4   3    4.44    0.32
  -1   4  -3    4.21    0.44
   2  -4   3    2.45    0.44
   2  -4   3    2.52    0.34
  -2   4  -3    3.59    0.44
  -2   4  -3    2.50    0.45
   3  -4   3    0.00    0.32
   3  -4   3    0.15    0.27
  -3   4  -3    0.48    0.38
  -3   4  -3    0.17    0.32
   4  -4   3    0.51    0.40
   4  -4   3    0.18    0.29
  -4   4  -3    0.05    0.37
  -4   4  -3    0.76    0.39
   5  -4   3    4.05    0.49
   5  -4   3    4.85    0.67
  -5   4  -3    2.89    0.56
  -5   4  -3    4.10    0.62
   6  -4   3    1.58    0.41
   6  -4   3    1.09    0.51
  -6   4  -3    1.21    0.50
  -6   4  -3    0.71    0.47
   6  -5  -3   10.54    1.01
  -6   5   3   10.01    0.89
   5  -5  -3    0.91    0.39
   5  -5  -3    1.76    0.52
  -5   5   3    1.18    0.46
  -5   5   3    1.34    0.54
   4  -5  -3    1.56    0.49
   4  -5  -3    2.58    0.40
  -4   5   3    2.30    0.48
  -4   5   3    2.14    0.52
   3  -5  -3    0.54    0.29
   3  -5  -3    0.80    0.40
  -3   5   3   -0.35    0.38
  -3   5   3    0.04    0.30
   2  -5  -3    0.72    0.28
   2  -5  -3    0.77    0.36
  -2   5   3    0.56    0.29
  -2   5   3    0.35    0.37
   1  -5  -3    1.40    0.29
   1  -5  -3    1.14    0.36
  -1   5   3    1.60    0.31
   0  -5   3   -0.02    0.19
   0  -5   3    0.09    0.26
   0  -5  -3    0.23    0.27
   0  -5  -3    0.06    0.18
   0   5   3    0.14    0.20
   0   5  -3    0.05    0.25
   0   5  -3    0.07    0.29
   1  -5   3    2.54    0.44
   1  -5   3    1.73    0.30
  -1   5  -3    2.86    0.42
  -1   5  -3    2.31    0.42
   2  -5   3    2.37    0.46
   2  -5   3    4.12    0.45
  -2   5  -3    3.48    0.55
  -2   5  -3    3.44    0.47
   3  -5   3    2.52    0.50
   3  -5   3    1.45    0.34
  -3   5  -3    1.57    0.47
  -3   5  -3    1.86    0.46
   4  -5   3    2.43    0.56
   4  -5   3    2.46    0.43
  -4   5  -3    2.53    0.55
  -4   5  -3    2.16    0.56
   5  -5   3    2.49    0.55
   5  -5   3    3.49    0.55
  -5   5  -3    1.82    0.55
  -5   5  -3    2.49    0.64
   5  -6  -3    1.39    0.54
  -5   6   3    0.29    0.42
   4  -6  -3    0.06    0.32
   4  -6  -3    0.26    0.44
  -4   6   3   -0.60    0.35
  -4   6   3   -0.55    0.42
   3  -6  -3    0.48    0.41
   3  -6  -3    0.72    0.35
  -3   6   3    0.71    0.47
  -3   6   3    0.49    0.38
   2  -6  -3    6.00    0.65
   2  -6  -3    6.79    0.55
  -2   6   3    5.94    0.68
  -2   6   3    6.13    0.59
   1  -6  -3    1.45    0.41
   1  -6  -3    1.75    0.33
  -1   6   3    1.48    0.34
   1  -6   3    0.86    0.29
   1  -6   3    1.05    0.38
  -1   6  -3    0.51    0.38
  -1   6  -3    0.88    0.36
   2  -6   3    4.81    0.64
   2  -6   3    5.86    0.55
  -2   6  -3    5.11    0.61
  -2   6  -3    3.53    0.60
   3  -6   3    3.28    0.48
   3  -6   3    1.51    0.49
  -3   6  -3    2.75    0.60
  -3   6  -3    3.00    0.56
   4  -6   3   -0.12    0.39
   4  -6   3    0.14    0.35
  -4   6  -3   -0.57    0.42
  -4   6  -3   -0.43    0.41
   3  -7  -3   -0.14    0.40
   3  -7  -3    0.71    0.40
  -3   7   3    0.04    0.38
   2  -7  -3    1.08    0.45
   2  -7  -3    0.13    0.32
  -2   7   3    0.66    0.38
   2  -7   3    0.52    0.34
   2  -7   3    0.62    0.43
  -2   7  -3    0.47    0.42
  -2   7  -3    0.55    0.43
   3  -7   3    0.73    0.40
   3  -7   3    0.44    0.49
  -3   7  -3    1.66    0.58
  -3   7  -3    0.64    0.46
   5   0  -4   24.70    0.92
  -5   0   4   26.60    0.84
   5   0  -4   25.81    0.82
  -4   0   4    9.23    0.46
   4   0  -4    9.36    0.43
   4   0  -4    8.76    0.51
   3   0  -4   23.96    0.80
   3   0  -4   25.38    0.71
  -3   0   4   24.51    0.73
  -2   0   4    0.62    0.25
   2   0  -4    0.22    0.16
  -2   0   4    0.22    0.15
  -1   0   4    0.67    0.16
   1   0  -4    0.73    0.24
  -1   0   4    1.02    0.24
   1   0  -4    0.77    0.16
   0   0   4   -0.07    0.17
   0   0  -4   -0.08    0.22
   0   0  -4    0.15    0.15
   0   0   4    0.14    0.19
  -1   0  -4   82.14    1.94
   1   0   4   82.97    1.91
   1   0   4   87.41    1.89
  -1   0  -4   83.78    1.90
   2   0   4    0.27    0.18
  -2   0  -4    0.37    0.22
  -2   0  -4    0.21    0.22
   2   0   4    0.50    0.22
  -3   0  -4   13.52    0.62
  -3   0  -4   13.79    0.62
   3   0   4   13.02    0.60
   3   0   4   13.67    0.52
  -4   0  -4    3.46    0.39
   4   0   4    4.24    0.34
  -4   0  -4    4.65    0.46
   4   0   4    3.72    0.39
  -5   0  -4   25.23    0.98
  -5   0  -4   23.22    0.93
   5   0   4   23.46    0.92
   5   0   4   24.62    0.81
   6  -1  -4    0.09    0.31
   6  -1  -4    0.17    0.24
  -6   1   4   -0.06    0.25
   5  -1  -4    4.39    0.39
   5  -1  -4    2.85    0.42
  -5   1   4    2.59    0.35
  -4  -1   4    3.75    0.35
   4  -1  -4    3.51    0.40
   4  -1  -4    3.50    0.34
  -4  -1   4    3.52    0.27
   4   1  -4    3.50    0.26
  -4   1   4    3.67    0.36
   4   1  -4    3.31    0.29
  -3  -1   4    1.96    0.19
  -3  -1   4    2.05    0.25
   3  -1  -4    1.98    0.33
   3  -1  -4    1.96    0.25
  -3   1   4    1.61    0.25
   3   1  -4    2.05    0.20
   2  -1  -4    0.93    0.21
  -2  -1   4    1.09    0.16
  -2  -1   4    0.68    0.20
   2   1  -4    0.89    0.15
  -2   1   4    0.76    0.18
   2   1  -4    0.64    0.23
   1  -1  -4    0.15    0.17
  -1  -1   4    0.20    0.18
  -1  -1   4    0.02    0.15
   1   1  -4    0.20    0.15
  -1   1   4    0.02    0.16
   1   1  -4    0.22    0.21
   0  -1   4  146.63    3.09
   0  -1  -4  144.42    3.06
   0  -1   4  144.18    3.11
   0  -1  -4  140.68    3.16
   0   1   4  143.38    3.06
   0   1  -4  140.59    3.09
   0   1   4  145.51    3.13
   0   1  -4  143.24    3.13
  -1  -1  -4    6.51    0.33
  -1  -1  -4    7.55    0.45
   1  -1   4    6.76    0.38
   1  -1   4    7.24    0.45
  -1   1  -4    6.93    0.45
  -1   1  -4    6.59    0.44
   1   1   4    6.19    0.35
   1   1   4    6.70    0.34
   2  -1   4    2.13    0.31
  -2  -1  -4    2.70    0.26
   2  -1   4    2.16    0.26
  -2  -1  -4    2.27    0.29
   2   1   4    2.59    0.24
  -2   1  -4    2.25    0.31
   2   1   4    2.43    0.23
  -2   1  -4    2.50    0.32
  -3  -1  -4    7.07    0.43
   3  -1   4    7.66    0.43
  -3  -1  -4    6.47    0.44
   3  -1   4    5.74    0.47
  -3   1  -4    6.49    0.50
   3   1   4    6.46    0.35
  -3   1  -4    7.74    0.59
   3   1   4    7.09    0.41
  -4  -1  -4   12.42    0.60
   4  -1   4   12.60    0.73
   4  -1   4   12.20    0.56
  -4  -1  -4   12.22    0.59
   4   1   4   11.88    0.47
   4   1   4   13.14    0.57
  -4   1  -4   13.06    0.69
  -4   1  -4   13.65    0.74
   5  -1   4   11.54    0.75
   5  -1   4   12.28    0.61
  -5   1  -4   11.53    0.75
  -5   1  -4   12.87    0.75
   6  -1   4   -0.02    0.32
   6  -1   4    0.06    0.24
  -6   1  -4   -0.28    0.31
  -6   1  -4   -0.03    0.33
   7  -2  -4    2.19    0.40
   7  -2  -4    2.61    0.54
  -7   2   4    1.88    0.44
   6  -2  -4    1.36    0.42
   6  -2  -4    1.40    0.34
  -6   2   4    1.36    0.37
   5  -2  -4    8.24    0.50
   5  -2  -4    7.05    0.64
  -5   2   4    4.87    0.55
  -5   2   4    7.70    0.59
   4  -2  -4    0.90    0.27
   4  -2  -4    0.93    0.33
  -4   2   4    0.52    0.28
  -4   2   4    1.28    0.38
   3  -2  -4   12.06    0.55
  -3  -2   4   12.12    0.37
  -3  -2   4   12.50    0.41
   3  -2  -4   11.52    0.68
  -3   2   4   11.78    0.70
   3   2  -4   12.34    0.38
  -3   2   4   12.65    0.60
   2  -2  -4    1.03    0.21
  -2  -2   4    1.49    0.17
  -2  -2   4    1.51    0.17
   2  -2  -4    1.34    0.31
  -2   2   4    1.02    0.23
   2   2  -4    1.21    0.23
   2   2  -4    1.49    0.18
  -1  -2   4    8.15    0.40
   1  -2  -4    7.84    0.38
  -1  -2   4    8.54    0.35
   1   2  -4    8.52    0.41
  -1   2   4    7.41    0.40
   1   2  -4    7.85    0.43
   0  -2   4   58.78    1.36
   0  -2   4   56.87    1.42
   0  -2  -4   55.65    1.33
   0   2  -4   58.25    1.43
   0   2   4   55.73    1.34
   0   2   4   55.75    1.44
   0   2  -4   57.41    1.42
  -1  -2  -4    5.59    0.39
   1  -2   4    4.50    0.34
  -1  -2  -4    4.43    0.28
   1  -2   4    5.12    0.43
   1   2   4    4.20    0.28
  -1   2  -4    5.19    0.41
   1   2   4    4.51    0.33
  -1   2  -4    3.34    0.35
  -2  -2  -4    0.74    0.17
  -2  -2  -4    0.72    0.22
   2  -2   4    0.81    0.22
   2  -2   4    0.72    0.31
  -2   2  -4    0.82    0.31
   2   2   4    0.87    0.17
   2   2   4    0.99    0.16
  -2   2  -4    1.11    0.30
  -3  -2  -4    8.89    0.46
   3  -2   4    7.70    0.49
  -3  -2  -4    8.61    0.39
   3  -2   4    8.26    0.62
   3   2   4    7.67    0.35
  -3   2  -4    7.10    0.57
   3   2   4    8.16    0.34
  -3   2  -4    9.40    0.68
   4  -2   4   16.68    0.71
   4  -2   4   16.65    0.85
  -4   2  -4   16.65    0.82
  -4   2  -4   16.34    0.88
   5  -2   4   10.60    0.63
   5  -2   4   10.10    0.77
  -5   2  -4   10.93    0.73
  -5   2  -4   10.58    0.79
   6  -2   4    0.75    0.31
   6  -2   4    0.03    0.36
  -6   2  -4    0.02    0.34
  -6   2  -4    0.55    0.41
   7  -3  -4    2.10    0.44
   7  -3  -4    2.62    0.57
  -7   3   4    3.07    0.54
   6  -3  -4    1.50    0.46
   6  -3  -4    0.97    0.31
  -6   3   4    1.49    0.42
   5  -3  -4    0.29    0.35
   5  -3  -4    0.04    0.26
  -5   3   4    0.09    0.36
  -5   3   4    0.43    0.32
   4  -3  -4    1.17    0.27
   4  -3  -4    1.26    0.39
  -4   3   4    1.03    0.37
  -4   3   4    1.23    0.33
   3  -3  -4    5.91    0.44
   3  -3  -4    4.55    0.50
  -3   3   4    5.74    0.46
  -3   3   4    5.68    0.56
   2  -3  -4    1.05    0.26
  -2  -3   4    1.22    0.16
  -2  -3   4    1.48    0.19
   2  -3  -4    2.09    0.38
   2   3  -4    1.55    0.21
  -2   3   4    1.94    0.32
   2   3  -4    1.53    0.24
  -1  -3   4    8.22    0.45
   1  -3  -4    7.60    0.54
   1  -3  -4    8.21    0.43
  -1  -3   4    7.89    0.37
  -1   3   4    8.45    0.45
   1   3  -4    8.17    0.46
   1   3  -4    7.82    0.45
   0  -3  -4   28.75    0.89
   0  -3   4   26.87    0.79
   0  -3  -4   27.41    0.78
   0  -3   4   27.13    0.90
   0   3   4   27.95    0.81
   0   3  -4   26.24    0.91
   0   3  -4   28.14    0.89
   1  -3   4   28.07    1.00
   1  -3   4   29.98    0.89
  -1  -3  -4   28.25    0.78
  -1   3  -4   28.32    1.03
   1   3   4   28.71    0.87
   1   3   4   29.69    0.78
  -1   3  -4   29.13    0.97
  -2  -3  -4    5.05    0.28
   2  -3   4    5.96    0.44
   2  -3   4    4.91    0.49
  -2   3  -4    5.00    0.49
   2   3   4    5.78    0.33
   2   3   4    5.65    0.28
  -2   3  -4    4.97    0.53
   3  -3   4    9.59    0.53
   3  -3   4   10.01    0.72
  -3   3  -4    9.20    0.69
  -3   3  -4    9.66    0.69
   4  -3   4    5.72    0.50
   4  -3   4    4.11    0.53
  -4   3  -4    4.55    0.54
  -4   3  -4    5.34    0.64
   5  -3   4    2.62    0.53
   5  -3   4    1.93    0.37
  -5   3  -4    2.55    0.50
  -5   3  -4    2.60    0.57
   6  -3   4    2.94    0.46
   6  -3   4    3.68    0.63
  -6   3  -4    2.87    0.54
  -6   3  -4    4.16    0.69
   6  -4  -4    0.90    0.36
   6  -4  -4    0.69    0.44
  -6   4   4    0.68    0.42
  -6   4   4    0.37    0.43
   5  -4  -4    1.00    0.35
   5  -4  -4    1.28    0.45
  -5   4   4    0.55    0.41
  -5   4   4    0.78    0.37
   4  -4  -4    3.13    0.41
   4  -4  -4    2.86    0.54
  -4   4   4    2.13    0.51
  -4   4   4    2.55    0.44
   3  -4  -4    3.83    0.41
   3  -4  -4    2.99    0.48
  -3   4   4    3.55    0.55
  -3   4   4    3.04    0.41
   2  -4  -4    0.05    0.31
   2  -4  -4   -0.03    0.20
  -2   4   4    0.01    0.24
   1  -4  -4    9.46    0.60
  -1  -4   4    8.58    0.49
  -1  -4   4    7.91    0.38
   1  -4  -4    8.48    0.47
  -1   4   4    7.84    0.50
   1   4  -4    7.70    0.49
   1   4  -4    8.99    0.52
   0  -4   4    1.38    0.24
   0  -4   4    1.46    0.33
   0  -4  -4    1.21    0.23
   0  -4  -4    1.29    0.30
   0   4  -4    1.20    0.32
   0   4  -4    1.74    0.32
   0   4   4    1.38    0.24
  -1  -4  -4    1.43    0.28
   1  -4   4    1.80    0.39
  -1  -4  -4    1.78    0.22
   1  -4   4    1.94    0.29
   1   4   4    1.86    0.31
  -1   4  -4    1.86    0.40
   1   4   4    1.62    0.22
  -1   4  -4    2.10    0.36
   2  -4   4    0.32    0.32
   2  -4   4    0.33    0.23
  -2   4  -4    0.25    0.32
  -2   4  -4   -0.24    0.31
   3  -4   4    2.32    0.39
   3  -4   4    2.52    0.47
  -3   4  -4    2.32    0.51
  -3   4  -4    2.32    0.46
   4  -4   4    3.93    0.46
   4  -4   4    4.99    0.60
  -4   4  -4    3.89    0.59
  -4   4  -4    3.46    0.54
   5  -4   4    1.47    0.50
   5  -4   4    1.99    0.40
  -5   4  -4    1.72    0.54
  -5   4  -4    2.13    0.51
   6  -4   4   -0.21    0.43
   6  -4   4    0.15    0.35
  -6   4  -4   -0.40    0.40
  -6   4  -4   -0.09    0.45
   6  -5  -4    1.08    0.53
  -6   5   4    1.66    0.53
   5  -5  -4    1.77    0.53
   5  -5  -4    1.92    0.41
  -5   5   4    0.51    0.43
  -5   5   4    0.91    0.45
   4  -5  -4    0.36    0.41
   4  -5  -4    0.88    0.31
  -4   5   4    0.35    0.34
  -4   5   4    0.71    0.39
   3  -5  -4    2.14    0.37
   3  -5  -4    2.61    0.49
  -3   5   4    1.95    0.48
  -3   5   4    2.17    0.42
   2  -5  -4    1.67    0.33
   2  -5  -4    0.79    0.38
  -2   5   4    2.00    0.36
   1  -5  -4    1.08    0.27
   1  -5  -4    1.25    0.36
  -1   5   4    1.24    0.30
   0  -5  -4    0.46    0.21
   0  -5  -4    0.59    0.30
   0  -5   4    0.58    0.30
   0  -5   4    0.65    0.24
   0   5   4    0.44    0.23
   0   5  -4    0.40    0.31
   0   5  -4    0.38    0.28
   1  -5   4    0.74    0.34
   1  -5   4    0.63    0.26
  -1   5  -4    0.58    0.32
  -1   5  -4    0.88    0.38
   2  -5   4    1.96    0.36
   2  -5   4    1.72    0.43
  -2   5  -4    0.31    0.35
  -2   5  -4    2.33    0.51
   3  -5   4    1.00    0.33
   3  -5   4    1.41    0.44
  -3   5  -4    0.84    0.45
  -3   5  -4    0.80    0.40
   4  -5   4    3.13    0.49
   4  -5   4    3.34    0.60
  -4   5  -4    3.01    0.58
  -4   5  -4    3.60    0.64
   5  -5   4    1.72    0.58
   5  -5   4    2.05    0.47
  -5   5  -4    2.25    0.57
  -5   5  -4    2.62    0.60
   5  -6  -4    1.11    0.56
  -5   6   4    1.65    0.52
   4  -6  -4    0.66    0.37
   4  -6  -4    0.56    0.46
  -4   6   4    0.26    0.41
   3  -6  -4    2.10    0.42
   3  -6  -4    0.69    0.43
  -3   6   4    1.41    0.41
   2  -6  -4    0.06    0.28
   2  -6  -4    0.12    0.36
  -2   6   4    0.24    0.31
   1  -6  -4    2.50    0.37
   1  -6  -4    1.62    0.41
  -1   6   4    2.10    0.37
   1  -6   4    4.92    0.60
   1  -6   4    5.74    0.50
  -1   6  -4    6.55    0.61
  -1   6  -4    5.95    0.66
   2  -6   4   -0.06    0.28
   2  -6   4    0.53    0.37
  -2   6  -4    0.11    0.35
  -2   6  -4   -0.42    0.37
   3  -6   4    2.32    0.43
   3  -6   4    2.32    0.56
  -3   6  -4    2.21    0.53
  -3   6  -4    1.96    0.52
   4  -6   4    0.31    0.45
   4  -6   4   -0.11    0.35
  -4   6  -4    0.17    0.50
  -4   6  -4   -0.06    0.44
   3  -7  -4    0.66    0.48
   3  -7  -4    0.40    0.36
  -3   7   4    0.48    0.41
   2  -7  -4   -0.09    0.39
   2  -7  -4   -0.19    0.29
  -2   7   4    0.32    0.35
   2  -7   4   -0.22    0.30
   2  -7   4   -0.11    0.39
  -2   7  -4    0.08    0.39
  -2   7  -4   -0.74    0.37
   3  -7   4   -0.12    0.37
   3  -7   4    0.32    0.45
  -3   7  -4   -0.36    0.48
  -3   7  -4    0.72    0.47
   5   0  -5    0.00    0.25
   5   0  -5    0.19    0.21
  -5   0   5    0.21    0.22
   4   0  -5    0.07    0.17
   4   0  -5    0.23    0.24
  -4   0   5   -0.01    0.17
  -3   0   5    6.88    0.37
   3   0  -5    6.47    0.38
  -2   0   5  404.22    8.26
   2   0  -5  399.10    8.25
  -2   0   5  390.87    8.34
   1   0  -5   11.78    0.57
   1   0  -5   10.75    0.41
  -1   0   5   10.47    0.50
  -1   0   5   10.53    0.44
   0   0  -5    0.77    0.25
   0   0   5    0.32    0.19
   0   0   5    0.53    0.20
   0   0  -5    0.09    0.17
  -1   0  -5   33.64    0.92
   1   0   5   32.52    0.94
  -1   0  -5   34.43    1.00
   1   0   5   34.87    0.93
  -2   0  -5    6.10    0.44
  -2   0  -5    6.44    0.44
   2   0   5    5.33    0.42
   2   0   5    5.34    0.37
  -3   0  -5    1.27    0.30
   3   0   5    1.90    0.31
   3   0   5    1.70    0.25
  -3   0  -5    1.26    0.30
   4   0   5    0.49    0.28
   4   0   5    0.20    0.20
  -4   0  -5    0.69    0.29
  -4   0  -5    0.74    0.33
  -5   0  -5    4.07    0.47
  -5   0  -5    4.29    0.49
   5   0   5    4.30    0.47
   5   0   5    3.76    0.36
   6  -1  -5    7.89    0.68
   6  -1  -5    9.70    0.57
  -6   1   5    9.27    0.63
   5  -1  -5   30.29    1.12
   5  -1  -5   31.21    0.99
  -5   1   5   32.60    1.05
   4  -1  -5    1.63    0.27
  -4  -1   5    1.69    0.29
   4  -1  -5    2.54    0.39
  -4  -1   5    1.93    0.22
   4   1  -5    1.97    0.29
  -4   1   5    2.32    0.32
   4   1  -5    2.04    0.23
   3  -1  -5   14.91    0.58
  -3  -1   5   14.58    0.49
  -3  -1   5   14.43    0.57
   3  -1  -5   14.64    0.69
   3   1  -5   14.05    0.48
  -3   1   5   13.74    0.59
  -2  -1   5    1.44    0.19
  -2  -1   5    1.03    0.24
   2  -1  -5    1.09    0.21
   2   1  -5    1.31    0.27
   2   1  -5    0.86    0.17
  -2   1   5    0.97    0.20
   1  -1  -5    0.38    0.27
  -1  -1   5    0.52    0.20
  -1  -1   5    0.10    0.20
   1  -1  -5    0.56    0.19
   1   1  -5    0.30    0.17
   1   1  -5    0.65    0.26
  -1   1   5    0.50    0.17
  -1   1   5    0.53    0.28
   0  -1  -5    0.40    0.18
   0  -1   5    0.49    0.21
   0  -1  -5    0.49    0.27
   0  -1   5    0.21    0.22
   0   1  -5    0.30    0.25
   0   1  -5    0.61    0.21
   0   1   5    0.18    0.17
   0   1   5    0.51    0.25
   1  -1   5   25.92    0.78
  -1  -1  -5   26.66    0.75
   1  -1   5   27.43    0.86
  -1  -1  -5   24.71    0.85
  -1   1  -5   25.77    0.87
   1   1   5   27.14    0.79
  -1   1  -5   26.51    0.85
   1   1   5   27.75    0.76
  -2  -1  -5   21.93    0.77
  -2  -1  -5   22.01    0.70
   2  -1   5   22.01    0.73
   2  -1   5   21.49    0.81
   2   1   5   22.25    0.69
   2   1   5   20.78    0.67
  -2   1  -5   22.10    0.82
  -2   1  -5   22.70    0.83
   3  -1   5   15.58    0.73
  -3  -1  -5   14.85    0.62
   3  -1   5   15.05    0.61
  -3  -1  -5   14.96    0.66
  -3   1  -5   15.98    0.77
  -3   1  -5   14.16    0.71
   3   1   5   15.65    0.60
   3   1   5   14.80    0.54
   4  -1   5    0.89    0.24
  -4  -1  -5    0.69    0.27
   4  -1   5    0.28    0.30
  -4  -1  -5    0.56    0.27
  -4   1  -5   -0.01    0.31
   4   1   5    1.01    0.26
   4   1   5    0.66    0.19
  -4   1  -5    0.18    0.30
   5  -1   5    8.75    0.66
   5  -1   5    7.50    0.52
  -5   1  -5    9.69    0.70
  -5   1  -5    7.44    0.68
   6  -1   5    0.32    0.25
   6  -1   5    0.11    0.33
  -6   1  -5    0.25    0.37
  -6   1  -5    0.31    0.36
   7  -2  -5    1.06    0.42
   7  -2  -5    1.37    0.35
  -7   2   5    1.48    0.42
   6  -2  -5    3.38    0.51
   6  -2  -5    4.23    0.46
  -6   2   5    4.34    0.52
   5  -2  -5    0.49    0.35
   5  -2  -5    0.45    0.27
  -5   2   5    0.25    0.27
   4  -2  -5    0.67    0.33
   4  -2  -5    1.63    0.31
  -4   2   5    1.89    0.33
  -3  -2   5    2.69    0.20
  -3  -2   5    2.91    0.25
   3  -2  -5    3.04    0.43
   3  -2  -5    2.22    0.28
   3   2  -5    2.80    0.22
  -3   2   5    3.37    0.37
  -2  -2   5   89.29    2.01
   2  -2  -5   90.17    2.23
   2  -2  -5   87.25    2.10
  -2  -2   5   93.34    2.01
   2   2  -5   92.14    2.09
  -2   2   5   88.19    2.12
   2   2  -5   90.72    2.02
   1  -2  -5   16.24    0.56
  -1  -2   5   15.12    0.55
  -1  -2   5   16.09    0.58
   1   2  -5   15.94    0.63
  -1   2   5   16.07    0.59
   1   2  -5   15.58    0.56
   0  -2   5    0.10    0.18
   0  -2  -5    0.10    0.18
   0  -2   5   -0.22    0.23
   0   2   5   -0.02    0.24
   0   2   5    0.30    0.17
   0   2  -5    0.14    0.24
   0   2  -5    0.09    0.24
  -1  -2  -5   38.72    0.98
   1  -2   5   38.85    1.06
   1  -2   5   37.98    1.14
  -1  -2  -5   38.46    1.10
   1   2   5   37.72    1.05
  -1   2  -5   36.03    1.12
   1   2   5   38.86    0.98
  -1   2  -5   39.81    1.15
   2  -2   5   33.28    0.99
  -2  -2  -5   32.62    0.89
  -2  -2  -5   32.55    0.98
   2  -2   5   31.85    1.08
   2   2   5   34.61    0.87
   2   2   5   32.99    0.89
  -2   2  -5   31.53    1.06
  -2   2  -5   34.46    1.13
  -3  -2  -5    4.53    0.39
   3  -2   5    5.99    0.56
  -3  -2  -5    4.85    0.37
   3  -2   5    5.44    0.45
  -3   2  -5    5.39    0.53
   3   2   5    5.81    0.32
   3   2   5    5.24    0.33
  -3   2  -5    5.21    0.56
   4  -2   5    1.62    0.40
   4  -2   5    1.22    0.27
  -4   2  -5    1.51    0.40
  -4   2  -5    2.58    0.44
   5  -2   5    3.62    0.43
   5  -2   5    3.09    0.50
  -5   2  -5    3.42    0.51
  -5   2  -5    2.90    0.52
   6  -2   5    1.12    0.43
   6  -2   5    1.41    0.35
  -6   2  -5    1.25    0.44
  -6   2  -5    1.08    0.45
   7  -3  -5    0.65    0.44
   7  -3  -5   -0.20    0.29
  -7   3   5    0.05    0.36
   6  -3  -5    5.43    0.68
   6  -3  -5    5.28    0.55
  -6   3   5    5.39    0.59
   5  -3  -5    1.86    0.46
   5  -3  -5    1.84    0.36
  -5   3   5    1.50    0.37
   4  -3  -5    1.49    0.30
   4  -3  -5    1.78    0.43
  -4   3   5    1.21    0.34
   3  -3  -5    0.17    0.23
   3  -3  -5    0.54    0.34
  -3   3   5    0.40    0.27
   2  -3  -5    6.02    0.41
  -2  -3   5    5.76    0.35
   2  -3  -5    7.21    0.58
  -2  -3   5    6.55    0.33
  -2   3   5    6.56    0.48
   2   3  -5    5.95    0.44
   2   3  -5    6.69    0.37
   1  -3  -5    2.80    0.31
   1  -3  -5    3.54    0.42
  -1  -3   5    3.19    0.27
  -1  -3   5    2.96    0.32
  -1   3   5    2.94    0.33
   1   3  -5    3.41    0.34
   1   3  -5    3.24    0.33
   0  -3   5    0.17    0.19
   0  -3   5    0.37    0.26
   0  -3  -5    0.57    0.19
   0   3  -5    0.26    0.26
   0   3   5    0.22    0.26
   0   3   5    0.29    0.18
   0   3  -5    0.61    0.26
   1  -3   5   43.51    1.32
   1  -3   5   43.70    1.20
  -1  -3  -5   44.09    1.10
  -1   3  -5   46.63    1.38
  -1   3  -5   42.34    1.29
   1   3   5   43.56    1.20
   1   3   5   42.32    1.10
  -2  -3  -5    8.66    0.38
   2  -3   5    8.10    0.65
   2  -3   5    8.76    0.50
   2   3   5    8.63    0.37
   2   3   5    8.82    0.43
  -2   3  -5    9.19    0.70
   3  -3   5   43.40    1.22
   3  -3   5   38.09    1.38
  -3   3  -5   39.81    1.34
  -3   3  -5   38.26    1.38
   4  -3   5    3.75    0.56
   4  -3   5    3.29    0.43
  -4   3  -5    3.63    0.52
  -4   3  -5    4.18    0.60
   5  -3   5    3.53    0.58
   5  -3   5    4.71    0.49
  -5   3  -5    4.76    0.59
  -5   3  -5    2.92    0.53
   6  -3   5    0.05    0.33
   6  -3   5   -0.29    0.43
  -6   3  -5    0.59    0.50
  -6   3  -5    0.34    0.43
   6  -4  -5    1.62    0.42
   6  -4  -5    2.39    0.54
  -6   4   5    2.28    0.53
   5  -4  -5    0.91    0.44
   5  -4  -5    0.14    0.30
  -5   4   5    0.02    0.35
   4  -4  -5    2.11    0.49
   4  -4  -5    2.15    0.39
  -4   4   5    2.26    0.41
   3  -4  -5    0.02    0.26
   3  -4  -5    0.35    0.37
  -3   4   5    0.44    0.31
   2  -4  -5   10.24    0.71
   2  -4  -5   11.45    0.56
  -2   4   5   11.74    0.63
  -1  -4   5    3.60    0.38
   1  -4  -5    4.64    0.39
  -1  -4   5    4.85    0.34
   1  -4  -5    5.45    0.51
   1   4  -5    5.05    0.43
   1   4  -5    4.18    0.40
  -1   4   5    4.85    0.42
   0  -4  -5    1.24    0.31
   0  -4   5    0.90    0.23
   0  -4   5    1.18    0.30
   0  -4  -5    1.32    0.24
   0   4   5    0.94    0.23
   0   4  -5    0.32    0.29
   0   4  -5    1.38    0.32
  -1  -4  -5   11.12    0.48
   1  -4   5   11.38    0.56
   1  -4   5   11.80    0.72
  -1  -4  -5   11.21    0.58
  -1   4  -5   10.98    0.66
  -1   4  -5    9.96    0.70
   1   4   5   10.66    0.48
   1   4   5   10.60    0.57
   2  -4   5    5.85    0.60
   2  -4   5    6.52    0.47
  -2   4  -5    5.68    0.57
  -2   4  -5    6.06    0.61
   3  -4   5    5.99    0.52
   3  -4   5    4.54    0.57
  -3   4  -5    5.25    0.63
  -3   4  -5    4.34    0.55
   4  -4   5    0.62    0.33
   4  -4   5    1.08    0.45
  -4   4  -5    0.11    0.38
  -4   4  -5    1.08    0.47
   5  -4   5    1.16    0.51
   5  -4   5    0.84    0.37
  -5   4  -5    1.60    0.48
  -5   4  -5    1.14    0.47
   6  -4   5    0.29    0.49
   6  -4   5    0.81    0.40
  -6   4  -5    0.75    0.52
  -6   4  -5    1.68    0.53
   6  -5  -5    0.39    0.42
  -6   5   5    1.95    0.54
   5  -5  -5    3.48    0.62
   5  -5  -5    4.00    0.55
  -5   5   5    4.21    0.64
   4  -5  -5    1.31    0.36
   4  -5  -5    1.14    0.50
  -4   5   5    1.07    0.43
   3  -5  -5    3.18    0.41
   3  -5  -5    3.59    0.59
  -3   5   5    4.03    0.50
   2  -5  -5    3.42    0.50
   2  -5  -5    2.56    0.36
  -2   5   5    3.16    0.42
   1  -5  -5    1.94    0.40
   1  -5  -5    1.81    0.32
  -1   5   5    2.17    0.35
   0  -5  -5    0.48    0.28
   0  -5  -5    0.06    0.20
   0  -5   5    0.41    0.21
   0  -5   5    0.82    0.32
   0   5  -5    0.61    0.30
   0   5   5    0.13    0.22
   0   5  -5    0.24    0.31
   1  -5   5    4.85    0.44
   1  -5   5    5.91    0.59
  -1   5  -5    4.22    0.51
  -1   5  -5    4.37    0.54
   2  -5   5    3.64    0.54
   2  -5   5    3.51    0.42
  -2   5  -5    3.32    0.53
  -2   5  -5    3.34    0.50
   3  -5   5    6.12    0.71
   3  -5   5    6.15    0.57
  -3   5  -5    4.89    0.65
  -3   5  -5    6.81    0.71
   4  -5   5    0.78    0.37
   4  -5   5    0.76    0.46
  -4   5  -5    0.09    0.41
  -4   5  -5    0.56    0.47
   5  -5   5    2.66    0.63
   5  -5   5    2.58    0.49
  -5   5  -5    2.74    0.64
  -5   5  -5    1.52    0.55
   5  -6  -5    0.13    0.45
  -5   6   5    0.09    0.43
   4  -6  -5    2.21    0.47
   4  -6  -5    1.87    0.56
  -4   6   5    1.42    0.47
   3  -6  -5    0.74    0.43
   3  -6  -5    0.68    0.38
  -3   6   5    0.55    0.38
   2  -6  -5    6.62    0.71
   2  -6  -5    7.82    0.59
  -2   6   5    7.82    0.66
   1  -6  -5    0.69    0.38
   1  -6  -5    0.56    0.27
  -1   6   5    1.43    0.33
   0  -6   5   -0.13    0.25
   1  -6   5    0.72    0.39
   1  -6   5    0.40    0.28
  -1   6  -5    0.78    0.37
  -1   6  -5    0.45    0.40
   2  -6   5    0.93    0.43
   2  -6   5    1.38    0.36
  -2   6  -5    0.80    0.48
  -2   6  -5    1.10    0.45
   3  -6   5   -0.26    0.30
   3  -6   5   -0.32    0.39
  -3   6  -5   -0.01    0.43
  -3   6  -5    0.46    0.44
   4  -6   5   -0.23    0.44
   4  -6   5   -0.07    0.37
  -4   6  -5    0.83    0.52
  -4   6  -5   -0.28    0.46
   3  -7  -5   -0.04    0.35
   3  -7  -5    0.46    0.47
  -3   7   5    1.03    0.45
   2  -7  -5    0.41    0.33
   2  -7  -5    0.34    0.42
  -2   7   5    0.21    0.37
   2  -7   5    0.73    0.38
   2  -7   5    1.06    0.47
  -2   7  -5    1.04    0.51
  -2   7  -5    0.73    0.47
   5   0  -6    1.89    0.35
  -5   0   6    2.11    0.30
   5   0  -6    1.95    0.29
  -4   0   6    5.28    0.41
  -4   0   6    5.95    0.52
   4   0  -6    5.96    0.49
   4   0  -6    5.50    0.40
   3   0  -6    0.31    0.18
  -3   0   6    0.37    0.28
  -3   0   6   -0.21    0.17
   2   0  -6    0.99    0.33
   2   0  -6    1.20    0.21
  -2   0   6    1.27    0.22
  -2   0   6    1.29    0.30
   1   0  -6    5.64    0.45
  -1   0   6    4.19    0.36
  -1   0   6    4.50    0.36
   1   0  -6    4.85    0.31
   0   0  -6   11.18    0.61
   0   0   6    9.92    0.50
   0   0   6    9.82    0.52
   0   0  -6   10.67    0.48
  -1   0  -6   22.98    0.74
   1   0   6   24.68    0.78
   1   0   6   22.27    0.73
  -1   0  -6   23.58    0.84
   2   0   6    0.32    0.20
   2   0   6    0.29    0.24
  -2   0  -6    0.07    0.23
  -2   0  -6    0.49    0.28
  -3   0  -6   28.18    0.98
  -3   0  -6   30.18    1.02
   3   0   6   29.76    0.90
   3   0   6   31.65    0.99
  -4   0  -6    3.94    0.46
  -4   0  -6    3.54    0.46
   4   0   6    3.54    0.42
   4   0   6    3.90    0.36
   5   0   6    0.57    0.23
  -5   0  -6    0.19    0.32
  -5   0  -6   -0.08    0.31
   5   0   6    0.70    0.32
   6  -1  -6    0.51    0.27
   6  -1  -6    0.43    0.33
  -6   1   6    0.42    0.27
   5  -1  -6    5.74    0.54
   5  -1  -6    6.12    0.47
  -5   1   6    6.37    0.50
   4  -1  -6   -0.04    0.28
   4  -1  -6    0.07    0.20
  -4  -1   6    0.09    0.17
  -4  -1   6   -0.03    0.22
   4   1  -6    0.32    0.18
  -4   1   6    0.36    0.22
  -3  -1   6   14.41    0.62
  -3  -1   6   15.56    0.53
   3  -1  -6   14.75    0.59
  -3   1   6   15.72    0.62
   3   1  -6   15.16    0.52
  -2  -1   6    1.90    0.28
   2  -1  -6    2.12    0.25
  -2  -1   6    1.98    0.23
   2   1  -6    1.89    0.24
   2   1  -6    2.27    0.32
  -2   1   6    1.94    0.27
  -2   1   6    1.65    0.37
  -1  -1   6    7.54    0.46
  -1  -1   6    8.46    0.43
   1  -1  -6    7.41    0.59
   1  -1  -6    7.92    0.42
   1   1  -6    6.83    0.39
   1   1  -6    8.70    0.54
  -1   1   6    7.95    0.43
  -1   1   6    7.47    0.54
   0  -1   6   73.04    1.75
   0  -1  -6   75.02    1.71
   0  -1   6   72.21    1.77
   0  -1  -6   71.29    1.84
   0   1  -6   73.95    1.75
   0   1   6   75.13    1.81
   0   1   6   72.13    1.72
  -1  -1  -6   28.19    0.95
  -1  -1  -6   29.88    0.82
   1  -1   6   28.01    0.91
   1  -1   6   29.21    0.87
   1   1   6   28.15    0.87
  -1   1  -6   29.19    0.96
   1   1   6   27.23    0.82
  -1   1  -6   26.69    0.90
   2  -1   6    1.10    0.31
  -2  -1  -6    0.85    0.27
   2  -1   6    0.91    0.22
  -2  -1  -6    0.81    0.23
   2   1   6    0.84    0.21
   2   1   6    0.97    0.24
  -2   1  -6    1.01    0.28
  -2   1  -6    1.26    0.33
   3  -1   6    5.46    0.51
  -3  -1  -6    3.73    0.40
  -3  -1  -6    5.49    0.43
   3  -1   6    4.17    0.39
   3   1   6    4.72    0.39
  -3   1  -6    4.43    0.48
  -3   1  -6    4.82    0.50
   3   1   6    4.57    0.35
  -4  -1  -6   16.07    0.76
   4  -1   6   15.84    0.69
  -4  -1  -6   17.99    0.75
   4  -1   6   17.92    0.85
   4   1   6   17.47    0.71
  -4   1  -6   18.90    0.86
   4   1   6   16.97    0.63
  -4   1  -6   18.03    0.90
   5  -1   6    0.43    0.26
   5  -1   6    0.50    0.34
  -5   1  -6    0.13    0.36
  -5   1  -6    0.60    0.35
   6  -1   6    0.19    0.26
   6  -1   6    0.01    0.35
  -6   1  -6   -0.14    0.35
  -6   1  -6    0.46    0.38
   7  -2  -6    0.46    0.31
   7  -2  -6    0.08    0.38
  -7   2   6   -0.14    0.32
   6  -2  -6    1.33    0.34
   6  -2  -6    1.50    0.43
  -6   2   6    1.41    0.36
   5  -2  -6    1.16    0.31
   5  -2  -6    0.80    0.34
  -5   2   6    0.98    0.32
   4  -2  -6    5.92    0.48
   4  -2  -6    6.79    0.61
  -4   2   6    6.77    0.53
  -3  -2   6    1.00    0.18
   3  -2  -6    1.18    0.37
   3  -2  -6    1.08    0.25
  -3  -2   6    1.02    0.21
  -3   2   6    0.53    0.27
   3   2  -6    0.61    0.26
   3   2  -6    1.32    0.20
  -2  -2   6    5.84    0.37
  -2  -2   6    4.80    0.34
   2  -2  -6    5.35    0.38
   2   2  -6    5.98    0.44
   2   2  -6    4.94    0.36
  -2   2   6    5.72    0.42
  -1  -2   6    5.92    0.39
   1  -2  -6    4.35    0.34
  -1  -2   6    5.23    0.39
   1   2  -6    5.03    0.42
  -1   2   6    4.66    0.37
   1   2  -6    5.91    0.39
  -1   2   6    4.46    0.44
   0  -2  -6   43.02    1.30
   0  -2  -6   47.12    1.17
   0  -2   6   46.69    1.25
   0   2  -6   44.18    1.27
   0   2   6   44.59    1.27
   0   2  -6   44.55    1.25
   0   2   6   45.49    1.16
  -1  -2  -6   32.83    1.04
   1  -2   6   34.15    1.07
  -1  -2  -6   32.89    0.92
   1  -2   6   32.82    0.97
   1   2   6   32.73    0.90
   1   2   6   33.53    0.98
  -1   2  -6   32.53    1.06
  -1   2  -6   34.40    1.09
  -2  -2  -6    2.91    0.36
   2  -2   6    2.55    0.41
   2  -2   6    1.50    0.27
  -2  -2  -6    2.18    0.27
  -2   2  -6    2.35    0.37
  -2   2  -6    2.49    0.42
   2   2   6    2.60    0.28
   2   2   6    2.37    0.25
  -3  -2  -6   31.82    1.02
  -3  -2  -6   33.20    0.94
   3  -2   6   30.39    1.14
   3  -2   6   32.03    1.01
  -3   2  -6   31.61    1.18
  -3   2  -6   29.48    1.13
   3   2   6   31.26    0.88
   3   2   6   32.12    0.89
   4  -2   6   13.57    0.85
   4  -2   6   14.60    0.67
  -4   2  -6   13.92    0.84
  -4   2  -6   15.87    0.85
   5  -2   6    2.11    0.37
   5  -2   6    2.12    0.47
  -5   2  -6    1.88    0.48
  -5   2  -6    2.67    0.49
   6  -2   6    0.81    0.31
   6  -2   6    1.08    0.44
  -6   2  -6    1.20    0.46
  -6   2  -6    1.29    0.45
   7  -3  -6    1.33    0.49
   7  -3  -6    1.16    0.39
  -7   3   6    1.78    0.50
   6  -3  -6    0.29    0.41
   6  -3  -6    0.59    0.32
  -6   3   6    0.72    0.37
   5  -3  -6    1.30    0.43
   5  -3  -6    1.85    0.35
  -5   3   6    1.62    0.40
   4  -3  -6    1.29    0.39
   4  -3  -6    1.26    0.32
  -4   3   6    1.23    0.33
   3  -3  -6    0.45    0.23
   3  -3  -6    0.80    0.35
  -3   3   6    0.09    0.25
   2  -3  -6    0.51    0.34
  -2  -3   6    0.58    0.20
  -2  -3   6    0.63    0.17
   2  -3  -6    0.52    0.23
   2   3  -6    0.63    0.22
  -2   3   6    0.89    0.28
   2   3  -6    0.69    0.27
  -1  -3   6    3.12    0.29
   1  -3  -6    3.80    0.35
  -1  -3   6    3.42    0.35
   1   3  -6    2.53    0.33
  -1   3   6    3.64    0.34
   1   3  -6    4.14    0.40
   0  -3   6   29.50    0.90
   0  -3   6   28.45    0.98
   0  -3  -6   29.39    0.86
   0   3  -6   29.23    0.99
   0   3   6   29.92    1.00
   0   3   6   29.41    0.88
   0   3  -6   29.56    0.99
   1  -3   6    3.45    0.44
   1  -3   6    3.50    0.36
  -1  -3  -6    3.42    0.29
   1   3   6    3.38    0.30
  -1   3  -6    3.22    0.43
   1   3   6    3.33    0.37
  -1   3  -6    3.21    0.44
  -2  -3  -6    0.72    0.26
  -2  -3  -6    0.27    0.18
   2  -3   6    0.27    0.22
   2  -3   6   -0.26    0.31
  -2   3  -6    0.07    0.31
   2   3   6    0.25    0.20
   2   3   6    0.49    0.16
  -2   3  -6    0.80    0.36
   3  -3   6    3.65    0.39
   3  -3   6    4.34    0.55
  -3   3  -6    3.27    0.49
  -3   3  -6    3.88    0.53
   4  -3   6   17.23    0.98
   4  -3   6   17.62    0.78
  -4   3  -6   16.30    0.97
  -4   3  -6   18.96    0.99
   5  -3   6    9.73    0.86
   5  -3   6    7.44    0.61
  -5   3  -6    6.27    0.70
  -5   3  -6    7.24    0.76
   6  -3   6    0.68    0.34
   6  -3   6    1.25    0.51
  -6   3  -6    1.16    0.48
  -6   3  -6    1.43    0.51
   6  -4  -6    1.65    0.52
   6  -4  -6    2.42    0.48
  -6   4   6    2.45    0.53
   5  -4  -6   -0.06    0.31
   5  -4  -6    0.07    0.41
  -5   4   6    0.24    0.35
   4  -4  -6    7.51    0.56
   4  -4  -6    7.98    0.73
  -4   4   6    7.94    0.67
   3  -4  -6    1.20    0.29
   3  -4  -6    1.67    0.44
  -3   4   6    1.58    0.37
   2  -4  -6    2.13    0.43
   2  -4  -6    1.41    0.31
  -2   4   6    1.73    0.35
   1  -4  -6    2.22    0.31
   1  -4  -6    2.91    0.42
  -1  -4   6    2.16    0.26
  -1  -4   6    2.22    0.32
   1   4  -6    2.32    0.35
  -1   4   6    1.68    0.30
   1   4  -6    1.86    0.33
   0  -4   6    1.53    0.27
   0  -4  -6    1.21    0.33
   0  -4  -6    1.76    0.27
   0  -4   6    1.26    0.32
   0   4   6    1.62    0.37
   0   4  -6    1.78    0.37
   0   4   6    1.51    0.27
   0   4  -6    2.34    0.37
   1  -4   6   10.22    0.57
   1  -4   6   11.00    0.71
  -1  -4  -6    9.90    0.48
  -1   4  -6   10.56    0.69
  -1   4  -6   10.35    0.74
   1   4   6   10.29    0.48
   1   4   6   11.20    0.60
   2  -4   6    3.41    0.49
   2  -4   6    3.42    0.41
  -2   4  -6    3.68    0.55
  -2   4  -6    2.96    0.48
   3  -4   6   11.70    0.68
   3  -4   6   10.33    0.81
  -3   4  -6   12.89    0.84
  -3   4  -6   10.84    0.87
   4  -4   6    5.06    0.54
   4  -4   6    4.35    0.61
  -4   4  -6    3.61    0.61
  -4   4  -6    4.72    0.61
   5  -4   6    2.04    0.53
   5  -4   6    1.98    0.43
  -5   4  -6    1.97    0.56
  -5   4  -6    1.93    0.53
   6  -4   6    0.21    0.47
  -6   4  -6    0.41    0.48
   6  -5  -6   -0.51    0.41
  -6   5   6    0.26    0.47
   5  -5  -6    2.42    0.55
   5  -5  -6    3.75    0.55
  -5   5   6    2.82    0.53
   4  -5  -6    1.27    0.50
   4  -5  -6    1.03    0.34
  -4   5   6    0.90    0.38
   3  -5  -6    4.58    0.49
   3  -5  -6    4.79    0.61
  -3   5   6    5.00    0.54
   2  -5  -6    0.51    0.28
   2  -5  -6    0.32    0.36
  -2   5   6    0.52    0.29
  -1  -5   6    4.03    0.49
  -1  -5   6    3.39    0.36
   1  -5  -6    3.10    0.36
   1  -5  -6    3.35    0.46
  -1   5   6    3.74    0.42
   1   5  -6    2.61    0.62
   0  -5  -6    1.45    0.35
   0  -5  -6    1.52    0.28
   0  -5   6    1.08    0.34
   0  -5   6    1.70    0.28
   0   5  -6    1.36    0.36
   0   5  -6    0.89    0.36
   0   5   6    1.68    0.41
   0   5   6    2.18    0.32
   1  -5   6    0.74    0.35
   1  -5   6    0.98    0.29
  -1   5  -6    0.92    0.39
  -1   5  -6    0.83    0.38
   2  -5   6    0.58    0.37
   2  -5   6    0.71    0.28
  -2   5  -6    0.28    0.36
  -2   5  -6    0.08    0.36
   3  -5   6   -0.10    0.27
   3  -5   6    0.14    0.38
  -3   5  -6    0.39    0.40
  -3   5  -6    0.10    0.40
   4  -5   6    2.12    0.46
   4  -5   6    2.95    0.58
  -4   5  -6    3.74    0.66
  -4   5  -6    2.95    0.59
   5  -5   6    0.76    0.52
  -5   5  -6    1.68    0.56
  -5   5  -6    0.46    0.53
   4  -6  -6    2.19    0.57
   4  -6  -6    0.35    0.37
  -4   6   6    1.82    0.50
   3  -6  -6    1.22    0.48
   3  -6  -6    0.20    0.33
  -3   6   6   -0.08    0.32
   2  -6  -6    0.42    0.41
   2  -6  -6    0.59    0.31
  -2   6   6    1.08    0.34
   1  -6  -6    2.07    0.44
   1  -6  -6    1.38    0.32
  -1   6   6    1.38    0.35
   0  -6   6    0.62    0.28
   0  -6   6    0.60    0.54
   0   6  -6    0.58    0.58
   1  -6   6    0.90    0.39
   1  -6   6    0.95    0.32
  -1   6  -6    1.59    0.48
  -1   6  -6    0.92    0.41
   2  -6   6    0.31    0.29
   2  -6   6    0.39    0.40
  -2   6  -6    0.48    0.42
  -2   6  -6    0.24    0.43
   3  -6   6    0.47    0.44
   3  -6   6    0.77    0.34
  -3   6  -6    0.93    0.48
  -3   6  -6    0.46    0.42
   4  -6   6   -0.24    0.43
  -4   6  -6    1.08    0.53
   3  -7  -6    0.82    0.50
   3  -7  -6    1.57    0.45
  -3   7   6    1.28    0.45
   2  -7  -6    0.46    0.33
   2  -7  -6   -0.37    0.36
  -2   7   6    0.01    0.33
   2  -7   6   -0.39    0.31
   2  -7   6    0.10    0.40
  -2   7  -6    0.16    0.44
  -2   7  -6    0.90    0.51
   5   0  -7   14.14    0.63
  -5   0   7   14.21    0.79
  -5   0   7   15.03    0.66
   5   0  -7   15.61    0.75
  -4   0   7    0.78    0.35
   4   0  -7    1.64    0.25
  -4   0   7    1.53    0.26
  -3   0   7    2.14    0.35
   3   0  -7    1.49    0.26
  -3   0   7    1.79    0.26
   2   0  -7  123.67    2.99
   2   0  -7  130.24    2.82
  -2   0   7  126.31    2.82
  -2   0   7  124.43    2.93
  -1   0   7   -0.01    0.24
   1   0  -7    0.00    0.29
   1   0  -7    0.09    0.18
  -1   0   7    0.24    0.20
   0   0  -7    0.22    0.19
   0   0  -7   -0.09    0.29
   0   0   7    0.36    0.23
   0   0   7    0.10    0.22
  -1   0  -7    0.27    0.21
  -1   0  -7    0.56    0.30
   1   0   7    0.48    0.22
   1   0   7    0.53    0.24
  -2   0  -7   30.18    1.03
   2   0   7   31.16    0.97
   2   0   7   28.09    0.90
  -2   0  -7   29.42    0.95
  -3   0  -7    1.75    0.35
   3   0   7    1.82    0.29
  -3   0  -7    1.97    0.35
   3   0   7    1.52    0.32
  -4   0  -7   -0.37    0.28
  -4   0  -7    0.25    0.30
   4   0   7    0.01    0.27
   4   0   7   -0.27    0.20
  -5   0  -7    0.85    0.37
   5   0   7    0.95    0.27
   5   0   7    0.86    0.33
  -5   0  -7    1.54    0.40
   6  -1  -7    0.01    0.31
   6  -1  -7   -0.55    0.22
  -6   1   7    0.23    0.27
   5  -1  -7    8.97    0.55
   5  -1  -7    9.72    0.70
  -5   1   7    9.75    0.59
   4  -1  -7    0.54    0.25
  -4  -1   7    0.73    0.21
  -4  -1   7    0.45    0.27
   4  -1  -7    0.67    0.33
  -4   1   7    0.64    0.27
   4   1  -7    0.82    0.20
  -3  -1   7   11.98    0.50
  -3  -1   7   13.01    0.63
   3  -1  -7   12.86    0.55
   3   1  -7   14.51    0.70
   3   1  -7   13.07    0.52
  -3   1   7   13.57    0.60
  -3   1   7   13.15    0.71
  -2  -1   7    6.88    0.48
   2  -1  -7    6.67    0.43
  -2  -1   7    6.75    0.39
   2   1  -7    5.81    0.39
  -2   1   7    5.25    0.42
   2   1  -7    6.50    0.49
  -2   1   7    6.36    0.52
   1  -1  -7  108.53    2.63
  -1  -1   7  105.64    2.45
  -1  -1   7  107.98    2.50
   1   1  -7  110.35    2.44
   1   1  -7  107.82    2.56
  -1   1   7  103.76    2.45
   0  -1  -7    0.07    0.20
   0  -1   7    0.41    0.22
   0  -1   7    0.17    0.21
   0  -1  -7    0.49    0.32
   0   1   7    0.50    0.23
   0   1  -7    0.56    0.23
   0   1  -7    0.16    0.30
   0   1   7    0.20    0.28
   1  -1   7    3.49    0.33
   1  -1   7    4.77    0.44
  -1  -1  -7    3.26    0.32
  -1  -1  -7    3.32    0.42
   1   1   7    2.47    0.29
   1   1   7    3.51    0.37
  -1   1  -7    3.04    0.35
  -1   1  -7    3.53    0.44
  -2  -1  -7    2.89    0.33
   2  -1   7    2.05    0.34
   2  -1   7    2.26    0.31
  -2  -1  -7    3.23    0.40
   2   1   7    2.46    0.31
   2   1   7    2.73    0.31
  -2   1  -7    2.76    0.39
  -2   1  -7    3.31    0.41
   3  -1   7   26.97    1.03
  -3  -1  -7   28.26    1.01
   3  -1   7   27.95    0.94
  -3  -1  -7   28.00    0.94
   3   1   7   28.43    0.86
   3   1   7   28.19    0.91
  -3   1  -7   27.18    1.04
  -3   1  -7   26.52    1.05
  -4  -1  -7    0.27    0.27
  -4  -1  -7    0.35    0.31
   4  -1   7    0.61    0.33
   4  -1   7    0.82    0.28
   4   1   7    0.48    0.27
   4   1   7    0.82    0.24
  -4   1  -7    0.35    0.33
  -4   1  -7    0.68    0.38
   5  -1   7    2.19    0.35
   5  -1   7    1.48    0.42
  -5   1  -7    1.66    0.44
  -5   1  -7    1.32    0.44
   6  -1   7    6.31    0.61
   6  -1   7    6.28    0.79
  -6   1  -7    6.64    0.89
  -6   1  -7    6.38    0.72
   7  -2  -7    0.76    0.32
   7  -2  -7    0.82    0.42
  -7   2   7    0.49    0.36
   6  -2  -7    0.78    0.33
   6  -2  -7    2.05    0.47
  -6   2   7    1.69    0.40
   5  -2  -7   10.29    0.76
   5  -2  -7   11.38    0.64
  -5   2   7   10.75    0.67
   4  -2  -7    3.68    0.49
   4  -2  -7    4.26    0.43
  -4   2   7    3.45    0.39
   3  -2  -7    1.46    0.30
  -3  -2   7    1.13    0.20
  -3  -2   7    1.11    0.24
   3  -2  -7    1.62    0.39
   3   2  -7    1.38    0.21
   3   2  -7    1.83    0.33
  -3   2   7    2.13    0.33
  -2  -2   7    5.56    0.41
  -2  -2   7    6.02    0.40
   2  -2  -7    5.80    0.41
   2   2  -7    6.56    0.40
   2   2  -7    6.97    0.51
  -2   2   7    4.73    0.40
   1  -2  -7    4.90    0.38
  -1  -2   7    5.41    0.42
  -1  -2   7    5.32    0.39
  -1   2   7    5.57    0.51
  -1   2   7    3.59    0.33
   1   2  -7    5.53    0.47
   1   2  -7    5.25    0.41
   0  -2  -7    0.27    0.32
   0  -2   7   -0.14    0.21
   0  -2   7    0.24    0.26
   0  -2  -7    0.19    0.21
   0   2  -7    0.51    0.25
   0   2  -7    0.63    0.30
   0   2   7    0.29    0.28
   0   2   7    0.64    0.21
  -1  -2  -7    3.17    0.40
   1  -2   7    2.68    0.33
   1  -2   7    2.38    0.37
  -1  -2  -7    2.36    0.28
  -1   2  -7    2.40    0.39
  -1   2  -7    2.97    0.40
   1   2   7    2.91    0.28
   1   2   7    2.98    0.35
  -2  -2  -7   31.41    1.05
  -2  -2  -7   31.13    0.94
   2  -2   7   32.86    1.11
  -2   2  -7   31.20    1.11
   2   2   7   33.63    0.93
   2   2   7   30.92    0.95
   3  -2   7    3.57    0.48
  -3  -2  -7    3.31    0.41
   3  -2   7    2.68    0.35
  -3  -2  -7    3.28    0.35
  -3   2  -7    2.65    0.45
  -3   2  -7    2.53    0.47
   3   2   7    3.29    0.31
   3   2   7    3.04    0.31
   4  -2   7    1.70    0.42
   4  -2   7    2.38    0.38
  -4   2  -7    2.52    0.48
  -4   2  -7    2.66    0.54
   5  -2   7    5.24    0.50
   5  -2   7    5.08    0.63
  -5   2  -7    7.09    0.72
  -5   2  -7    6.74    0.73
   6  -2   7    1.16    0.45
   6  -2   7    1.36    0.38
  -6   2  -7    0.05    0.38
  -6   2  -7    0.53    0.44
   7  -3  -7    1.12    0.38
   7  -3  -7    0.65    0.43
  -7   3   7    1.12    0.45
   6  -3  -7    0.44    0.33
   6  -3  -7    0.24    0.41
  -6   3   7    0.46    0.35
   5  -3  -7    0.25    0.36
   5  -3  -7    0.22    0.30
  -5   3   7    0.13    0.31
   4  -3  -7    0.88    0.38
   4  -3  -7    1.07    0.29
  -4   3   7    0.66    0.31
   3  -3  -7    3.03    0.39
   3  -3  -7    2.41    0.47
  -3   3   7    3.19    0.40
  -2  -3   7    2.60    0.27
  -2  -3   7    2.87    0.31
   2  -3  -7    2.41    0.42
   2  -3  -7    2.10    0.31
  -2   3   7    2.39    0.34
   2   3  -7    2.19    0.36
   2   3  -7    2.69    0.32
   1  -3  -7   42.24    1.17
  -1  -3   7   40.41    1.11
  -1  -3   7   42.31    1.18
   1   3  -7   39.20    1.18
  -1   3   7   39.74    1.33
   1   3  -7   42.05    1.25
  -1   3   7   40.44    1.17
   0  -3  -7    0.34    0.21
   0  -3   7    0.44    0.22
   0  -3   7    0.33    0.27
   0   3  -7    0.75    0.32
   0   3   7    0.19    0.20
   0   3   7    0.21    0.29
   0   3  -7    0.54    0.29
   1  -3   7    3.15    0.34
  -1  -3  -7    4.36    0.34
   1  -3   7    3.19    0.41
  -1   3  -7    4.43    0.50
  -1   3  -7    3.62    0.43
   1   3   7    4.19    0.34
   1   3   7    3.71    0.39
   2  -3   7   11.01    0.72
   2  -3   7    9.83    0.55
  -2  -3  -7   10.05    0.48
  -2  -3  -7    9.64    0.60
  -2   3  -7   10.43    0.73
   2   3   7   10.07    0.52
   2   3   7    9.80    0.45
   3  -3   7    1.15    0.33
   3  -3   7    0.83    0.38
  -3   3  -7    1.28    0.45
  -3   3  -7    0.14    0.36
   4  -3   7    0.38    0.25
   4  -3   7    0.09    0.36
  -4   3  -7    0.71    0.41
  -4   3  -7    0.06    0.37
   5  -3   7    0.12    0.42
   5  -3   7    0.85    0.35
  -5   3  -7    0.49    0.46
  -5   3  -7    0.10    0.42
   6  -3   7    0.90    0.37
   6  -3   7    2.38    0.54
  -6   3  -7    0.48    0.49
  -6   3  -7    0.68    0.49
   6  -4  -7    0.89    0.48
   6  -4  -7    1.14    0.42
  -6   4   7   -0.13    0.39
   5  -4  -7    5.88    0.58
   5  -4  -7    6.10    0.73
  -5   4   7    4.51    0.59
   4  -4  -7    2.38    0.40
   4  -4  -7    2.31    0.49
  -4   4   7    2.65    0.44
   3  -4  -7    0.28    0.38
   3  -4  -7    0.40    0.29
  -3   4   7    0.42    0.31
   2  -4  -7    5.17    0.58
   2  -4  -7    4.09    0.40
  -2   4   7    4.75    0.47
  -1  -4   7    3.59    0.35
   1  -4  -7    2.48    0.32
  -1  -4   7    3.30    0.39
   1  -4  -7    3.64    0.49
   1   4  -7    3.35    0.42
  -1   4   7    3.10    0.37
   1   4  -7    3.05    0.39
   0  -4   7    0.70    0.24
   0  -4  -7    0.94    0.25
   0  -4   7    1.18    0.34
   0   4   7    1.18    0.26
   0   4   7    1.30    0.36
   0   4  -7    1.51    0.36
   0   4  -7    1.26    0.36
  -1  -4  -7    0.62    0.21
   1  -4   7    0.38    0.27
   1  -4   7    0.37    0.31
   1   4   7    0.28    0.28
  -1   4  -7    0.72    0.38
  -1   4  -7    0.08    0.32
   1   4   7    0.16    0.18
   2  -4   7    0.68    0.30
   2  -4   7    1.08    0.40
  -2   4  -7    0.44    0.39
  -2   4  -7    1.07    0.41
   3  -4   7    0.66    0.33
   3  -4   7    0.18    0.38
  -3   4  -7   -0.31    0.39
  -3   4  -7    0.47    0.41
   4  -4   7    2.25    0.50
   4  -4   7    3.50    0.49
  -4   4  -7    2.17    0.57
  -4   4  -7    2.56    0.52
   5  -4   7    3.23    0.63
   5  -4   7    3.69    0.52
  -5   4  -7    5.32    0.75
  -5   4  -7    2.84    0.58
   5  -5  -7    2.26    0.43
   5  -5  -7    1.03    0.48
  -5   5   7    2.89    0.54
   4  -5  -7    0.45    0.43
   4  -5  -7   -0.19    0.28
  -4   5   7   -0.03    0.35
   3  -5  -7    4.89    0.53
   3  -5  -7    5.41    0.63
  -3   5   7    4.41    0.51
   2  -5  -7    2.69    0.49
   2  -5  -7    2.23    0.36
  -2   5   7    3.51    0.45
   1  -5  -7   10.10    0.72
   1  -5  -7    9.96    0.58
  -1  -5   7   11.56    0.55
  -1  -5   7    9.99    0.63
   1   5  -7    9.27    0.75
  -1   5   7   10.62    0.62
   1   5  -7   10.07    0.76
   0  -5   7   -0.08    0.22
   0  -5  -7    0.12    0.22
   0  -5   7    0.15    0.31
   0  -5  -7    0.10    0.29
   0   5  -7    0.21    0.32
   0   5  -7    0.29    0.33
   0   5   7    0.23    0.34
   0   5   7    0.21    0.23
   1  -5   7    0.88    0.38
   1  -5   7    0.78    0.28
  -1   5  -7    0.63    0.37
  -1   5  -7    0.49    0.37
   2  -5   7    0.96    0.41
   2  -5   7    0.87    0.32
  -2   5  -7    0.33    0.41
  -2   5  -7    0.68    0.42
   3  -5   7    2.42    0.41
   3  -5   7    1.78    0.49
  -3   5  -7    1.04    0.44
  -3   5  -7    2.81    0.57
   4  -5   7   -0.08    0.35
   4  -5   7    0.49    0.47
  -4   5  -7    0.50    0.47
  -4   5  -7    0.05    0.43
   5  -5   7   -0.22    0.42
  -5   5  -7    0.73    0.54
   4  -6  -7    0.36    0.48
   4  -6  -7    0.99    0.38
  -4   6   7    1.08    0.45
   3  -6  -7    0.05    0.43
   3  -6  -7    0.66    0.36
  -3   6   7    0.18    0.32
   2  -6  -7    3.52    0.57
   2  -6  -7    3.14    0.46
  -2   6   7    3.37    0.50
   1  -6  -7    1.47    0.34
   1  -6  -7    1.17    0.40
  -1   6   7    0.79    0.32
   0  -6   7    0.28    0.26
   0  -6   7   -0.02    0.41
   0   6  -7    0.36    0.43
   0   6  -7    0.48    0.49
   1  -6   7    0.37    0.29
   1  -6   7    0.35    0.36
  -1   6  -7    0.07    0.40
  -1   6  -7    0.10    0.38
   2  -6   7    0.27    0.38
   2  -6   7    0.95    0.34
  -2   6  -7    0.16    0.40
  -2   6  -7    0.14    0.42
   3  -6   7    0.08    0.40
   3  -6   7   -0.08    0.34
  -3   6  -7    0.70    0.53
  -3   6  -7   -0.69    0.42
   4  -6   7    1.81    0.64
  -4   6  -7    0.96    0.61
   3  -7  -7    0.77    0.48
   3  -7  -7   -0.12    0.34
  -3   7   7    0.55    0.41
   2  -7  -7    0.28    0.34
   2  -7  -7    0.19    0.41
  -2   7   7    0.85    0.39
   2  -7   7    0.26    0.35
   2  -7   7    0.42    0.43
  -2   7  -7    0.11    0.47
  -2   7  -7    1.79    0.55
   5   0  -8   19.88    0.76
  -5   0   8   19.10    0.93
   5   0  -8   19.45    0.88
  -5   0   8   20.49    0.78
   4   0  -8   51.28    1.39
  -4   0   8   53.71    1.55
  -4   0   8   51.54    1.39
  -3   0   8   13.64    0.58
  -3   0   8   13.39    0.71
   3   0  -8   13.47    0.57
   2   0  -8    3.06    0.45
  -2   0   8    1.97    0.35
  -2   0   8    2.44    0.30
   2   0  -8    2.33    0.29
   1   0  -8  114.71    2.65
   1   0  -8  118.48    2.82
  -1   0   8  116.70    2.66
  -1   0   8  115.93    2.74
   0   0   8   11.07    0.56
   0   0  -8   11.54    0.54
   0   0   8   10.02    0.60
   0   0  -8   11.40    0.71
  -1   0  -8    0.73    0.35
  -1   0  -8    0.78    0.25
   1   0   8    1.07    0.29
   1   0   8    0.14    0.22
   2   0   8   -0.08    0.24
   2   0   8   -0.50    0.21
  -2   0  -8   -0.01    0.29
  -2   0  -8   -0.06    0.26
  -3   0  -8    3.70    0.46
   3   0   8    3.36    0.37
  -3   0  -8    3.82    0.44
   3   0   8    3.19    0.41
   4   0   8   20.99    0.91
  -4   0  -8   20.04    0.96
   4   0   8   20.98    0.83
  -4   0  -8   20.76    0.94
   5   0   8    0.21    0.31
   5   0   8    0.15    0.24
  -5   0  -8   -0.19    0.35
  -5   0  -8   -0.01    0.33
   6  -1  -8    1.40    0.33
   6  -1  -8    1.55    0.39
  -6   1   8    0.41    0.30
   5  -1  -8   10.43    0.60
   5  -1  -8   10.65    0.73
  -5   1   8   10.38    0.62
  -4  -1   8   12.43    0.66
   4  -1  -8   11.53    0.59
   4  -1  -8   10.16    0.73
  -4  -1   8   11.37    0.52
   4   1  -8   11.34    0.52
  -4   1   8   13.21    0.81
  -4   1   8   10.88    0.60
  -3  -1   8   15.10    0.69
  -3  -1   8   12.67    0.55
   3  -1  -8   13.69    0.58
  -3   1   8   14.06    0.78
   3   1  -8   12.83    0.72
   3   1  -8   13.01    0.55
  -3   1   8   14.30    0.63
  -2  -1   8    1.52    0.25
   2  -1  -8    0.92    0.24
  -2  -1   8    1.00    0.29
   2   1  -8    0.77    0.23
   2   1  -8    1.34    0.35
  -2   1   8    1.06    0.26
  -2   1   8    1.15    0.33
   1  -1  -8   28.24    0.84
  -1  -1   8   25.63    0.88
   1  -1  -8   26.34    1.02
  -1  -1   8   26.38    0.85
  -1   1   8   24.45    0.96
  -1   1   8   26.17    0.84
   1   1  -8   24.67    0.82
   1   1  -8   26.35    0.98
   0  -1  -8   28.16    1.05
   0  -1   8   28.91    0.93
   0  -1  -8   27.48    0.88
   0  -1   8   28.62    0.93
   0   1   8   27.98    0.89
   0   1  -8   29.50    0.94
   0   1   8   28.87    0.98
   0   1  -8   28.00    1.03
  -1  -1  -8    1.00    0.36
  -1  -1  -8    0.99    0.25
   1  -1   8    1.22    0.31
   1  -1   8    1.01    0.29
   1   1   8    0.79    0.24
  -1   1  -8    0.95    0.35
  -1   1  -8    0.62    0.30
   1   1   8    1.30    0.31
  -2  -1  -8    0.46    0.24
  -2  -1  -8    1.07    0.35
   2  -1   8    0.79    0.25
   2  -1   8    0.72    0.33
  -2   1  -8    0.59    0.33
   2   1   8    0.30    0.24
   2   1   8    0.63    0.24
  -2   1  -8    0.49    0.28
   3  -1   8    6.44    0.50
  -3  -1  -8    5.85    0.54
  -3  -1  -8    6.51    0.51
   3  -1   8    4.94    0.51
   3   1   8    6.16    0.49
  -3   1  -8    6.58    0.60
  -3   1  -8    5.35    0.55
   3   1   8    6.45    0.44
   4  -1   8    5.71    0.57
  -4  -1  -8    5.65    0.57
  -4  -1  -8    6.43    0.55
   4  -1   8    5.41    0.48
  -4   1  -8    5.91    0.63
   4   1   8    5.53    0.43
   4   1   8    5.81    0.49
  -4   1  -8    5.26    0.57
   5  -1   8    6.11    0.53
   5  -1   8    8.01    0.72
  -5   1  -8    6.31    0.70
  -5   1  -8    8.39    0.75
  -6   1  -8    0.81    0.53
   7  -2  -8    0.72    0.34
   7  -2  -8   -0.12    0.35
  -7   2   8    0.57    0.36
   6  -2  -8    0.16    0.29
   6  -2  -8    0.15    0.37
  -6   2   8    0.32    0.32
   5  -2  -8    5.75    0.51
   5  -2  -8    4.36    0.54
  -5   2   8    5.12    0.51
   4  -2  -8    5.51    0.58
   4  -2  -8    6.60    0.52
  -4   2   8    7.01    0.55
  -3  -2   8    2.83    0.28
   3  -2  -8    2.84    0.35
  -3  -2   8    4.06    0.38
   3   2  -8    3.37    0.31
   3   2  -8    3.31    0.41
  -3   2   8    3.28    0.37
  -2  -2   8    2.35    0.29
   2  -2  -8    2.71    0.33
  -2  -2   8    2.32    0.30
   2   2  -8    1.95    0.30
  -2   2   8    1.29    0.41
  -2   2   8    1.92    0.29
   2   2  -8    2.08    0.38
  -1  -2   8   25.85    0.87
   1  -2  -8   26.93    0.87
  -1  -2   8   26.71    0.88
   1   2  -8   27.18    0.88
   1   2  -8   26.25    0.98
  -1   2   8   27.41    0.87
  -1   2   8   27.03    1.02
   0  -2  -8    6.54    0.56
   0  -2   8    7.10    0.53
   0  -2  -8    6.42    0.45
   0  -2   8    7.61    0.47
   0   2  -8    7.51    0.57
   0   2  -8    8.41    0.53
   0   2   8    8.03    0.60
   0   2   8    7.10    0.46
  -1  -2  -8    5.62    0.40
   1  -2   8    4.37    0.45
   1  -2   8    5.76    0.45
  -1  -2  -8    4.89    0.48
   1   2   8    4.98    0.40
   1   2   8    4.95    0.45
  -1   2  -8    5.40    0.51
  -1   2  -8    4.79    0.50
   2  -2   8    0.84    0.26
  -2  -2  -8    1.13    0.34
   2  -2   8    1.88    0.40
  -2  -2  -8    1.86    0.30
  -2   2  -8    1.97    0.42
   2   2   8    1.97    0.30
   2   2   8    1.43    0.25
  -2   2  -8    1.26    0.35
   3  -2   8    1.07    0.32
  -3  -2  -8    0.86    0.33
   3  -2   8    0.69    0.35
  -3  -2  -8    1.04    0.27
  -3   2  -8    1.01    0.38
  -3   2  -8    0.91    0.40
   3   2   8    0.90    0.24
   3   2   8    0.85    0.24
   4  -2   8   12.95    0.86
   4  -2   8   12.45    0.70
  -4   2  -8   14.75    0.88
  -4   2  -8   12.73    0.91
   5  -2   8    1.06    0.44
   5  -2   8    1.71    0.37
  -5   2  -8    1.61    0.47
  -5   2  -8    2.40    0.55
   6  -2   8    0.33    0.31
   6  -2   8    0.84    0.46
  -6   2  -8    1.95    0.55
  -6   2  -8    0.42    0.45
   7  -3  -8    0.56    0.37
   7  -3  -8    0.71    0.45
  -7   3   8    0.10    0.37
   6  -3  -8    0.20    0.32
   6  -3  -8    0.44    0.38
  -6   3   8    0.78    0.39
   5  -3  -8    6.23    0.55
   5  -3  -8    4.77    0.59
  -5   3   8    5.99    0.57
   4  -3  -8    8.88    0.75
   4  -3  -8    8.75    0.61
  -4   3   8    8.67    0.64
   3  -3  -8    0.87    0.29
   3  -3  -8    0.61    0.39
  -3   3   8    0.08    0.28
  -2  -3   8    0.58    0.22
   2  -3  -8   -0.18    0.23
  -2  -3   8   -0.38    0.18
   2   3  -8    0.13    0.23
  -2   3   8    0.13    0.24
   2   3  -8    0.14    0.29
  -1  -3   8    8.38    0.55
   1  -3  -8    9.09    0.52
  -1  -3   8    9.14    0.50
   1   3  -8    9.37    0.65
  -1   3   8    9.27    0.54
   1   3  -8    8.81    0.56
  -1   3   8    8.73    0.68
   0  -3   8    1.78    0.34
   0  -3  -8    1.65    0.27
   0  -3   8    1.90    0.30
   0   3   8    1.21    0.34
   0   3  -8    1.77    0.35
   0   3   8    1.38    0.27
   0   3  -8    1.48    0.37
  -1  -3  -8    2.94    0.31
   1  -3   8    4.05    0.42
   1  -3   8    2.87    0.44
  -1  -3  -8    3.18    0.43
  -1   3  -8    3.60    0.49
  -1   3  -8    3.38    0.47
   1   3   8    3.22    0.31
   1   3   8    4.18    0.44
  -2  -3  -8    2.54    0.40
   2  -3   8    2.33    0.40
   2  -3   8    2.23    0.34
  -2  -3  -8    2.67    0.30
  -2   3  -8    1.77    0.41
   2   3   8    2.20    0.33
  -2   3  -8    2.00    0.41
   2   3   8    2.08    0.26
   3  -3   8    5.35    0.60
   3  -3   8    5.66    0.51
  -3   3  -8    5.40    0.63
  -3   3  -8    5.36    0.65
   4  -3   8   14.01    0.77
   4  -3   8   14.92    0.93
  -4   3  -8   14.72    1.01
  -4   3  -8   12.04    0.91
   5  -3   8    1.63    0.51
   5  -3   8    0.85    0.35
  -5   3  -8    0.64    0.51
  -5   3  -8    0.56    0.47
   6  -3   8   -0.43    0.39
   6  -3   8    0.03    0.35
  -6   3  -8   -0.65    0.40
  -6   3  -8   -0.21    0.44
   6  -4  -8    1.63    0.52
   6  -4  -8    1.21    0.39
  -6   4   8    1.12    0.45
   5  -4  -8    0.81    0.38
   5  -4  -8    0.50    0.42
  -5   4   8    1.76    0.45
   4  -4  -8    1.06    0.35
   4  -4  -8    0.92    0.46
  -4   4   8    1.44    0.40
   3  -4  -8    1.22    0.34
   3  -4  -8    1.14    0.43
  -3   4   8    0.84    0.34
  -2  -4   8    0.38    0.24
   2  -4  -8    0.61    0.37
   2  -4  -8    0.33    0.26
  -2  -4   8    0.30    0.23
  -2   4   8    0.96    0.30
   2   4  -8    0.49    0.51
   1  -4  -8    4.38    0.43
  -1  -4   8    4.04    0.43
   1  -4  -8    3.49    0.50
  -1  -4   8    4.58    0.39
  -1   4   8    4.32    0.55
   1   4  -8    3.76    0.43
  -1   4   8    4.17    0.42
   1   4  -8    4.74    0.51
   0  -4   8    2.97    0.42
   0  -4   8    2.93    0.37
   0  -4  -8    2.50    0.33
   0   4  -8    2.54    0.43
   0   4  -8    2.52    0.43
   0   4   8    2.80    0.44
   0   4   8    2.36    0.32
   1  -4   8    4.16    0.51
  -1  -4  -8    3.58    0.36
   1  -4   8    3.87    0.39
   1   4   8    4.30    0.47
  -1   4  -8    3.31    0.50
  -1   4  -8    4.49    0.56
   1   4   8    4.72    0.38
   2  -4   8    2.09    0.39
   2  -4   8    2.04    0.45
  -2   4  -8    3.63    0.54
  -2   4  -8    1.66    0.47
   3  -4   8   -0.31    0.34
   3  -4   8    0.00    0.27
  -3   4  -8    0.16    0.36
  -3   4  -8    0.42    0.42
   4  -4   8    6.11    0.68
   4  -4   8    6.52    0.63
  -4   4  -8    5.96    0.73
  -4   4  -8    7.71    0.86
   5  -4   8    0.09    0.45
   5  -4   8   -0.43    0.31
  -5   4  -8    0.65    0.48
  -5   4  -8   -0.28    0.45
   5  -5  -8    1.83    0.47
   5  -5  -8    1.10    0.49
  -5   5   8    0.67    0.43
   4  -5  -8    6.36    0.72
   4  -5  -8    5.15    0.55
  -4   5   8    4.33    0.58
   3  -5  -8    2.36    0.40
   3  -5  -8    3.08    0.57
  -3   5   8    3.88    0.52
   2  -5  -8    0.36    0.28
   2  -5  -8    0.17    0.37
  -2   5   8    0.59    0.31
   1  -5  -8    4.87    0.47
   1  -5  -8    3.13    0.49
  -1  -5   8    4.04    0.46
  -1  -5   8    5.10    0.43
   1   5  -8    5.39    0.56
   1   5  -8    4.53    0.52
  -1   5   8    5.25    0.63
  -1   5   8    4.14    0.44
   0  -5   8    0.83    0.27
   0  -5  -8    1.83    0.31
   0  -5   8    0.35    0.33
   0  -5  -8    1.68    0.39
   0   5   8    0.97    0.39
   0   5  -8    1.86    0.43
   0   5   8    2.03    0.33
   0   5  -8    1.67    0.43
   1  -5   8    0.26    0.34
   1  -5   8    0.01    0.26
  -1   5  -8    0.19    0.36
  -1   5  -8    0.13    0.37
   2  -5   8    0.30    0.36
   2  -5   8    0.17    0.29
  -2   5  -8   -0.76    0.34
  -2   5  -8   -0.14    0.38
   3  -5   8    0.79    0.35
   3  -5   8    1.02    0.47
  -3   5  -8    0.29    0.44
  -3   5  -8    0.85    0.49
   4  -5   8    1.92    0.47
   4  -5   8    1.83    0.53
  -4   5  -8    2.66    0.61
  -4   5  -8    2.32    0.61
   4  -6  -8    2.41    0.50
   4  -6  -8    1.97    0.61
  -4   6   8    1.33    0.47
   3  -6  -8    2.28    0.55
   3  -6  -8    2.73    0.48
  -3   6   8    3.27    0.53
   2  -6  -8    0.47    0.39
   2  -6  -8    0.20    0.29
  -2   6   8    0.17    0.32
   1  -6  -8    5.31    0.53
   1  -6  -8    4.45    0.57
  -1   6   8    5.12    0.52
  -1   6   8    4.91    0.67
   0  -6   8    0.66    0.41
   0  -6   8    0.30    0.27
   0   6  -8    0.85    0.44
   0   6  -8    0.34    0.41
   1  -6   8    0.89    0.41
   1  -6   8    0.26    0.31
  -1   6  -8   -0.28    0.38
  -1   6  -8    0.07    0.40
   2  -6   8    0.59    0.35
   2  -6   8   -0.02    0.38
  -2   6  -8    0.11    0.43
  -2   6  -8    0.36    0.46
   3  -6   8    0.47    0.39
   3  -6   8    0.73    0.46
  -3   6  -8   -0.29    0.47
  -3   6  -8    1.14    0.54
   2  -7  -8    0.50    0.36
   2  -7  -8    0.05    0.43
  -2   7   8   -0.09    0.33
   5   0  -9    4.98    0.53
   5   0  -9    5.13    0.46
  -5   0   9    5.66    0.48
  -5   0   9    5.00    0.57
   4   0  -9    0.73    0.26
  -4   0   9    1.18    0.36
  -4   0   9    0.70    0.25
   3   0  -9    6.29    0.44
  -3   0   9    6.35    0.45
  -3   0   9    6.48    0.56
  -2   0   9    0.03    0.30
   2   0  -9    0.51    0.34
  -2   0   9    0.09    0.21
   2   0  -9    0.05    0.21
  -1   0   9   65.35    1.72
   1   0  -9   63.27    1.62
   1   0  -9   63.34    1.80
  -1   0   9   62.09    1.62
   0   0   9    0.52    0.28
   0   0  -9   -0.06    0.33
   0   0  -9   -0.12    0.21
   0   0   9    0.10    0.23
   1   0   9    0.64    0.29
   1   0   9    0.35    0.27
  -1   0  -9    0.59    0.27
  -1   0  -9    0.46    0.36
  -2   0  -9    0.15    0.27
  -2   0  -9   -0.50    0.30
   2   0   9   -0.14    0.25
   2   0   9    0.05    0.24
  -3   0  -9    7.60    0.60
   3   0   9    8.27    0.53
   3   0   9    6.38    0.55
  -3   0  -9    6.57    0.61
  -4   0  -9    0.42    0.34
  -4   0  -9    0.34    0.37
   4   0   9    0.86    0.30
   4   0   9    0.78    0.32
  -5   0  -9    5.74    0.62
   5   0   9    4.68    0.46
  -5   0  -9    5.63    0.66
   5   0   9    4.18    0.53
   6  -1  -9    1.13    0.34
   6  -1  -9    0.59    0.37
  -6   1   9    1.05    0.48
  -6   1   9    1.44    0.34
   5  -1  -9   14.06    0.70
   5  -1  -9   13.82    0.84
  -5   1   9   12.78    0.87
  -5   1   9   14.46    0.73
  -4  -1   9    1.21    0.34
  -4  -1   9    0.91    0.23
   4  -1  -9    0.24    0.26
  -4   1   9    0.51    0.39
  -4   1   9   -0.07    0.24
   4   1  -9    0.61    0.23
  -3  -1   9    4.00    0.44
   3  -1  -9    5.48    0.44
  -3  -1   9    4.14    0.36
   3   1  -9    4.96    0.53
  -3   1   9    4.49    0.54
  -3   1   9    5.13    0.42
   3   1  -9    4.10    0.36
  -2  -1   9   21.89    0.79
   2  -1  -9   22.58    1.03
  -2  -1   9   22.27    0.86
   2  -1  -9   23.59    0.81
  -2   1   9   23.22    0.96
  -2   1   9   23.27    0.82
   2   1  -9   22.66    0.78
   2   1  -9   22.32    0.94
  -1  -1   9   30.41    0.96
  -1  -1   9   29.35    1.02
   1  -1  -9   32.01    0.96
   1  -1  -9   28.78    1.11
  -1   1   9   28.47    0.95
  -1   1   9   29.57    1.08
   1   1  -9   30.70    0.96
   1   1  -9   31.06    1.12
   0  -1   9    0.40    0.26
   0  -1  -9    0.75    0.38
   0  -1   9    0.30    0.24
   0  -1  -9    0.41    0.21
   0   1  -9    0.96    0.36
   0   1   9    0.57    0.25
   0   1   9    0.25    0.27
   0   1  -9    0.62    0.25
   1  -1   9    0.39    0.28
  -1  -1  -9    0.14    0.21
  -1  -1  -9    0.15    0.32
   1  -1   9   -0.02    0.24
   1   1   9    0.58    0.25
  -1   1  -9    0.44    0.33
  -1   1  -9   -0.05    0.25
   1   1   9    0.33    0.28
   2  -1   9    0.16    0.28
   2  -1   9    0.51    0.27
  -2  -1  -9    0.71    0.26
  -2  -1  -9    0.77    0.34
  -2   1  -9    0.36    0.34
   2   1   9    0.46    0.26
   2   1   9    0.36    0.25
  -2   1  -9    0.58    0.33
   3  -1   9    0.49    0.27
   3  -1   9    0.66    0.34
  -3  -1  -9    0.65    0.29
  -3  -1  -9    0.59    0.35
  -3   1  -9   -0.26    0.32
   3   1   9    0.61    0.28
  -3   1  -9    0.48    0.36
   3   1   9    0.40    0.23
  -4  -1  -9    0.08    0.33
  -4  -1  -9    0.51    0.32
   4  -1   9    0.30    0.27
   4  -1   9    0.34    0.35
   4   1   9    0.66    0.30
  -4   1  -9    0.00    0.36
   4   1   9    0.24    0.24
  -4   1  -9    0.56    0.39
   5  -1   9    0.63    0.38
   5  -1   9    0.38    0.30
  -5   1  -9    0.73    0.45
  -5   1  -9    0.57    0.41
   7  -2  -9    0.82    0.36
   7  -2  -9    1.60    0.49
  -7   2   9    1.07    0.37
   6  -2  -9   12.24    0.74
   6  -2  -9   10.23    0.82
  -6   2   9   11.06    0.74
   5  -2  -9    2.85    0.49
   5  -2  -9    4.14    0.47
  -5   2   9    2.83    0.43
   4  -2  -9   -0.03    0.34
   4  -2  -9   -0.22    0.25
  -4   2   9   -0.04    0.26
  -4   2   9    0.44    0.42
  -3  -2   9    3.80    0.34
  -3  -2   9    3.41    0.39
   3  -2  -9    3.10    0.37
  -3   2   9    2.24    0.48
  -3   2   9    2.63    0.35
   3   2  -9    3.60    0.34
   3   2  -9    2.51    0.41
  -2  -2   9   18.83    0.74
  -2  -2   9   16.88    0.68
   2  -2  -9   17.58    0.73
   2   2  -9   17.34    0.70
   2   2  -9   17.60    0.85
  -2   2   9   18.12    0.73
  -2   2   9   17.48    0.90
  -1  -2   9   13.62    0.64
  -1  -2   9   14.48    0.68
   1  -2  -9   13.32    0.60
   1  -2  -9   13.41    0.82
  -1   2   9   13.42    0.72
   1   2  -9   13.69    0.75
  -1   2   9   14.48    0.63
   1   2  -9   13.62    0.64
   0  -2  -9    0.29    0.24
   0  -2   9    0.81    0.30
   0  -2   9    0.52    0.26
   0  -2  -9    0.97    0.39
   0   2   9    0.98    0.27
   0   2  -9    0.67    0.28
   0   2  -9    0.40    0.33
   0   2   9    0.61    0.30
   1  -2   9    2.61    0.42
  -1  -2  -9    2.95    0.33
   1  -2   9    2.24    0.32
  -1  -2  -9    3.03    0.46
   1   2   9    2.72    0.37
  -1   2  -9    4.15    0.52
   1   2   9    3.16    0.33
  -1   2  -9    3.39    0.44
   2  -2   9    2.91    0.35
  -2  -2  -9    4.05    0.48
  -2  -2  -9    3.55    0.38
   2  -2   9    3.32    0.47
  -2   2  -9    4.00    0.54
   2   2   9    3.07    0.34
  -2   2  -9    2.82    0.42
   2   2   9    3.99    0.40
  -3  -2  -9    8.71    0.69
   3  -2   9    8.72    0.60
  -3  -2  -9    9.16    0.56
   3  -2   9    9.34    0.72
  -3   2  -9    8.19    0.71
  -3   2  -9    9.76    0.70
   3   2   9    8.35    0.53
   3   2   9    7.61    0.51
   4  -2   9    1.21    0.36
   4  -2   9    2.10    0.48
  -4   2  -9    2.57    0.54
  -4   2  -9    1.97    0.52
   5  -2   9   -0.30    0.28
   5  -2   9    0.34    0.41
  -5   2  -9    0.64    0.46
  -5   2  -9    0.04    0.39
   6  -2   9    0.80    0.37
   6  -2   9    1.56    0.48
  -6   2  -9    0.53    0.50
  -6   2  -9    1.01    0.49
   7  -3  -9    0.70    0.47
   7  -3  -9   -0.16    0.34
  -7   3   9    0.31    0.40
   6  -3  -9    0.69    0.36
   6  -3  -9    0.15    0.39
  -6   3   9    0.22    0.35
   5  -3  -9   22.15    1.12
   5  -3  -9   21.43    0.95
  -5   3   9   20.43    0.98
   4  -3  -9    1.77    0.38
   4  -3  -9    1.50    0.43
  -4   3   9    1.29    0.35
   3  -3  -9    7.83    0.54
   3  -3  -9    9.29    0.78
  -3   3   9    8.11    0.61
   2  -3  -9   12.12    0.62
  -2  -3   9   11.87    0.59
  -2  -3   9   12.29    0.60
  -2   3   9   13.35    0.66
  -2   3   9   11.30    0.82
   2   3  -9   11.75    0.73
   2   3  -9   11.73    0.62
  -1  -3   9   28.23    0.97
  -1  -3   9   28.92    0.92
   1  -3  -9   29.30    0.96
  -1   3   9   26.69    1.10
  -1   3   9   27.67    0.95
   1   3  -9   27.27    1.07
   1   3  -9   27.03    1.00
   0  -3   9    0.23    0.28
   0  -3  -9    0.15    0.22
   0  -3   9    0.45    0.26
   0   3   9    0.23    0.22
   0   3   9   -0.30    0.28
   0   3  -9    0.62    0.31
   0   3  -9    0.44    0.33
  -1  -3  -9    2.39    0.32
   1  -3   9    1.81    0.39
   1  -3   9    1.89    0.34
  -1  -3  -9    2.47    0.44
  -1   3  -9    1.36    0.40
   1   3   9    2.24    0.30
   1   3   9    2.81    0.40
  -1   3  -9    2.13    0.40
   2  -3   9    3.92    0.53
   2  -3   9    3.39    0.45
  -2  -3  -9    3.79    0.47
  -2  -3  -9    4.21    0.38
  -2   3  -9    3.60    0.55
   2   3   9    4.48    0.37
  -2   3  -9    3.76    0.53
   2   3   9    4.08    0.42
   3  -3   9    0.36    0.37
   3  -3   9   -0.03    0.28
  -3   3  -9    0.55    0.44
  -3   3  -9    0.47    0.40
   4  -3   9    1.57    0.50
   4  -3   9    1.90    0.42
  -4   3  -9    2.15    0.56
  -4   3  -9    2.00    0.58
   5  -3   9    0.62    0.35
   5  -3   9    0.69    0.46
  -5   3  -9    0.30    0.45
  -5   3  -9    0.97    0.55
   6  -4  -9    7.58    0.85
   6  -4  -9    9.14    0.77
  -6   4   9    7.83    0.79
   5  -4  -9    0.56    0.37
   5  -4  -9    0.16    0.41
  -5   4   9    0.51    0.38
   4  -4  -9    0.71    0.42
   4  -4  -9    0.45    0.32
  -4   4   9    0.54    0.36
   3  -4  -9    4.15    0.46
   3  -4  -9    2.97    0.51
  -3   4   9    3.71    0.46
   2  -4  -9   11.84    0.65
  -2  -4   9   11.01    0.61
  -2  -4   9   10.40    0.54
   2  -4  -9   11.71    0.82
   2   4  -9   11.42    0.73
  -2   4   9   11.00    0.67
   2   4  -9   10.89    0.64
  -2   4   9   10.98    0.85
   1  -4  -9    1.33    0.28
  -1  -4   9    1.23    0.33
  -1  -4   9    1.20    0.29
   1   4  -9    1.29    0.39
   1   4  -9    1.32    0.34
  -1   4   9    1.39    0.31
  -1   4   9    1.69    0.43
   0  -4  -9    0.25    0.24
   0  -4   9    0.59    0.27
   0  -4   9    0.44    0.31
   0   4  -9    0.40    0.33
   0   4  -9    0.57    0.37
   0   4   9    0.28    0.23
   0   4   9    0.41    0.33
   1  -4   9    2.79    0.39
   1  -4   9    2.22    0.43
  -1  -4  -9    2.88    0.33
  -1   4  -9    1.53    0.43
   1   4   9    2.01    0.39
  -1   4  -9    2.45    0.45
   1   4   9    2.84    0.32
   2  -4   9    0.05    0.33
   2  -4   9    0.21    0.30
  -2   4  -9    0.39    0.41
  -2   4  -9    0.51    0.43
   3  -4   9    0.80    0.32
   3  -4   9    1.16    0.43
  -3   4  -9    1.65    0.49
  -3   4  -9    1.42    0.49
   4  -4   9    1.65    0.41
   4  -4   9    0.96    0.47
  -4   4  -9    1.80    0.59
  -4   4  -9    0.73    0.49
   5  -4   9   -0.20    0.35
   5  -4   9    0.38    0.47
  -5   4  -9   -0.54    0.44
  -5   4  -9   -0.18    0.46
   5  -5  -9    6.03    0.78
   5  -5  -9    6.80    0.69
  -5   5   9    7.22    0.77
   4  -5  -9    1.27    0.41
   4  -5  -9    1.04    0.46
  -4   5   9    0.94    0.40
   3  -5  -9    0.86    0.46
   3  -5  -9    2.32    0.43
  -3   5   9    1.44    0.41
   2  -5  -9    4.96    0.50
   2  -5  -9    4.91    0.60
  -2   5   9    4.05    0.63
  -2   5   9    5.05    0.52
  -1  -5   9    6.71    0.58
   1  -5  -9    7.92    0.55
   1  -5  -9    7.31    0.67
  -1  -5   9    6.43    0.50
  -1   5   9    6.67    0.55
  -1   5   9    7.92    0.74
   1   5  -9    7.81    0.66
   1   5  -9    6.25    0.59
   0  -5  -9   -0.09    0.24
   0  -5   9    0.29    0.33
   0  -5   9    0.56    0.28
   0  -5  -9   -0.05    0.29
   0   5   9    0.31    0.36
   0   5  -9    0.03    0.34
   0   5  -9    0.11    0.35
   0   5   9   -0.03    0.24
   1  -5   9    0.27    0.28
   1  -5   9   -0.18    0.33
  -1   5  -9    0.47    0.40
  -1   5  -9    0.06    0.37
   2  -5   9   -0.16    0.36
   2  -5   9    0.23    0.32
  -2   5  -9    0.31    0.43
  -2   5  -9   -0.45    0.38
   3  -5   9   -0.17    0.30
   3  -5   9    0.13    0.38
  -3   5  -9   -0.09    0.44
  -3   5  -9    0.30    0.44
   4  -5   9    0.20    0.45
   4  -5   9    0.01    0.36
  -4   5  -9    0.53    0.51
  -4   5  -9    0.57    0.50
   4  -6  -9    0.30    0.46
   4  -6  -9    0.07    0.38
  -4   6   9    0.27    0.42
   3  -6  -9    0.65    0.44
   3  -6  -9    0.10    0.34
  -3   6   9    0.11    0.35
   2  -6  -9    0.13    0.38
   2  -6  -9   -0.02    0.31
  -2   6   9    0.30    0.46
  -2   6   9    0.49    0.33
   1  -6  -9    3.22    0.53
   1  -6  -9    3.24    0.44
  -1   6   9    3.67    0.47
  -1   6   9    3.66    0.59
   0  -6   9   -0.13    0.36
   0  -6   9    0.40    0.28
   0   6  -9   -0.32    0.38
   0   6  -9    0.41    0.42
   1  -6   9    0.97    0.43
   1  -6   9    0.77    0.33
  -1   6  -9    0.57    0.44
  -1   6  -9    0.87    0.43
   2  -6   9   -0.29    0.30
   2  -6   9    0.24    0.38
  -2   6  -9   -0.37    0.43
  -2   6  -9   -0.37    0.40
   3  -6   9    0.64    0.37
   3  -6   9    0.64    0.45
  -3   6  -9    0.85    0.55
  -3   6  -9    0.41    0.50
   2  -7  -9    1.70    0.51
   2  -7  -9    0.38    0.37
  -2   7   9    0.71    0.39
  -2   7   9   -0.04    0.50
   5   0 -10    0.96    0.29
  -5   0  10    1.06    0.30
  -5   0  10    0.90    0.40
   4   0 -10    2.44    0.35
  -4   0  10    2.30    0.44
  -4   0  10    1.49    0.30
  -3   0  10    8.53    0.64
   3   0 -10    9.95    0.52
  -3   0  10    9.71    0.54
   3   0 -10    9.84    0.76
  -2   0  10    0.16    0.23
   2   0 -10    0.34    0.25
   2   0 -10    0.38    0.35
  -2   0  10    0.04    0.32
   1   0 -10    4.93    0.57
   1   0 -10    3.67    0.36
  -1   0  10    3.99    0.43
  -1   0  10    5.64    0.46
   0   0  10   40.71    1.32
   0   0 -10   42.17    1.42
   0   0  10   42.64    1.24
   0   0 -10   42.09    1.24
  -1   0 -10    1.72    0.32
   1   0  10    1.80    0.32
  -1   0 -10    2.10    0.42
   1   0  10    2.12    0.35
   2   0  10    0.50    0.28
  -2   0 -10    0.36    0.36
   2   0  10    0.91    0.31
  -2   0 -10    0.61    0.32
  -3   0 -10    1.99    0.44
   3   0  10    2.49    0.41
   3   0  10    2.36    0.38
  -3   0 -10    3.02    0.46
  -4   0 -10   -0.10    0.32
   4   0  10    0.06    0.24
   4   0  10    0.68    0.34
  -4   0 -10    0.22    0.38
   5   0  10    0.36    0.37
  -5   0 -10   -0.13    0.43
   5   0  10   -0.29    0.27
  -5   0 -10   -0.51    0.36
   6  -1 -10    1.44    0.43
   6  -1 -10    2.05    0.39
  -6   1  10    1.70    0.39
  -6   1  10    1.38    0.51
   5  -1 -10    0.25    0.28
   5  -1 -10   -0.55    0.30
  -5   1  10   -0.08    0.27
  -5   1  10   -0.55    0.36
  -4  -1  10   24.90    0.84
   4  -1 -10   23.55    0.90
  -4  -1  10   24.16    0.98
  -4   1  10   23.70    1.09
   4   1 -10   24.06    0.82
  -4   1  10   22.52    0.89
   3  -1 -10   17.48    0.73
  -3  -1  10   17.17    0.69
  -3  -1  10   14.95    0.76
   3   1 -10   15.19    0.87
   3   1 -10   17.02    0.69
  -3   1  10   16.59    0.90
  -3   1  10   16.81    0.73
  -2  -1  10    0.67    0.26
   2  -1 -10    0.76    0.41
  -2  -1  10    0.85    0.32
   2  -1 -10    0.90    0.28
  -2   1  10    0.32    0.25
   2   1 -10    0.99    0.38
   2   1 -10    0.65    0.26
  -2   1  10    0.55    0.38
   1  -1 -10   10.85    0.78
  -1  -1  10    8.54    0.64
  -1  -1  10   11.33    0.59
   1  -1 -10   11.30    0.56
  -1   1  10   11.14    0.59
  -1   1  10   10.88    0.68
   1   1 -10   11.23    0.76
   1   1 -10   11.47    0.61
   0  -1  10   33.12    1.07
   0  -1 -10   34.03    1.05
   0  -1 -10   32.28    1.23
   0  -1  10   33.38    1.11
   0   1 -10   34.96    1.25
   0   1  10   32.66    1.14
   0   1  10   32.82    1.04
   0   1 -10   32.73    1.08
   1  -1  10    4.68    0.48
  -1  -1 -10    4.17    0.42
   1  -1  10    4.55    0.48
  -1  -1 -10    4.00    0.50
   1   1  10    3.71    0.44
  -1   1 -10    4.40    0.48
  -1   1 -10    4.50    0.55
   1   1  10    3.91    0.41
   2  -1  10    0.08    0.23
   2  -1  10   -0.27    0.27
  -2  -1 -10    0.63    0.35
  -2  -1 -10    0.21    0.26
   2   1  10   -0.02    0.25
   2   1  10    0.40    0.26
  -2   1 -10    0.45    0.32
  -2   1 -10    0.05    0.32
   3  -1  10    2.96    0.47
   3  -1  10    1.83    0.34
  -3  -1 -10    1.90    0.38
  -3  -1 -10    2.44    0.46
   3   1  10    1.83    0.32
   3   1  10    2.60    0.38
  -3   1 -10    2.10    0.44
  -3   1 -10    2.00    0.42
   4  -1  10   55.02    1.77
  -4  -1 -10   53.03    1.64
   4  -1  10   53.35    1.64
  -4  -1 -10   56.48    1.78
   4   1  10   58.15    1.56
  -4   1 -10   55.40    1.85
   4   1  10   53.94    1.62
  -4   1 -10   58.50    1.82
   5  -1  10    0.28    0.38
   5  -1  10    0.17    0.29
  -5   1 -10    0.56    0.43
  -5   1 -10    0.43    0.47
   7  -2 -10    0.79    0.35
   7  -2 -10   -0.42    0.37
  -7   2  10    0.20    0.53
  -7   2  10    0.40    0.37
   6  -2 -10    0.43    0.38
   6  -2 -10    0.15    0.31
  -6   2  10    0.03    0.31
  -6   2  10   -0.37    0.44
   5  -2 -10    8.53    0.63
   5  -2 -10    9.71    0.81
  -5   2  10    9.39    0.67
  -5   2  10    8.21    0.83
   4  -2 -10   10.47    0.81
   4  -2 -10    9.75    0.62
  -4   2  10   10.67    0.86
  -4   2  10   11.23    0.67
  -3  -2  10   17.21    0.76
  -3  -2  10   17.67    0.68
   3  -2 -10   17.34    0.77
   3   2 -10   17.53    0.70
   3   2 -10   17.15    0.87
  -3   2  10   17.17    0.79
  -3   2  10   17.12    0.96
  -2  -2  10    0.96    0.26
   2  -2 -10    0.74    0.26
  -2  -2  10    0.59    0.28
  -2   2  10    0.72    0.36
   2   2 -10    0.55    0.27
   2   2 -10    1.51    0.40
  -2   2  10    0.54    0.28
   1  -2 -10   23.99    0.84
  -1  -2  10   23.50    0.89
   1  -2 -10   25.89    1.12
  -1  -2  10   24.74    0.90
  -1   2  10   25.42    1.02
  -1   2  10   23.16    0.86
   1   2 -10   22.53    1.03
   1   2 -10   25.69    0.91
   0  -2  10   17.49    0.79
   0  -2  10   18.11    0.76
   0  -2 -10   18.77    0.74
   0  -2 -10   17.45    0.91
   0   2 -10   15.54    0.88
   0   2  10   17.54    0.86
   0   2  10   17.49    0.72
   0   2 -10   17.22    0.78
   1  -2  10   10.84    0.71
  -1  -2 -10   12.13    0.60
   1  -2  10   10.18    0.59
  -1  -2 -10   11.97    0.76
  -1   2 -10   11.21    0.78
   1   2  10   11.33    0.67
  -1   2 -10   10.82    0.67
   1   2  10   11.12    0.58
  -2  -2 -10    1.00    0.29
   2  -2  10    1.18    0.36
  -2  -2 -10    0.57    0.38
   2  -2  10    0.52    0.29
   2   2  10    0.84    0.29
  -2   2 -10    1.17    0.39
  -2   2 -10    1.97    0.45
   2   2  10    0.86    0.27
  -3  -2 -10    0.94    0.29
   3  -2  10    1.30    0.35
   3  -2  10   -0.06    0.32
  -3  -2 -10    0.64    0.36
  -3   2 -10    0.73    0.40
   3   2  10    1.10    0.29
  -3   2 -10   -0.04    0.35
   3   2  10    0.53    0.25
   4  -2  10    0.55    0.41
   4  -2  10    0.77    0.33
  -4   2 -10    0.79    0.49
  -4   2 -10    0.35    0.44
   5  -2  10    2.19    0.53
   5  -2  10    1.61    0.41
  -5   2 -10    0.71    0.48
  -5   2 -10    2.06    0.61
   6  -2  10   -0.24    0.30
   6  -2  10    0.02    0.44
  -6   2 -10    0.55    0.55
  -6   2 -10    0.68    0.49
   6  -3 -10    2.68    0.49
   6  -3 -10    3.14    0.59
  -6   3  10    2.73    0.50
   5  -3 -10    1.86    0.42
   5  -3 -10    1.85    0.51
  -5   3  10    3.05    0.50
   4  -3 -10   12.99    0.71
   4  -3 -10   12.92    0.89
  -4   3  10   12.69    0.76
  -4   3  10   14.28    0.93
  -3  -3  10    0.17    0.21
   3  -3 -10    0.56    0.29
  -3  -3  10    0.20    0.24
   3   3 -10   -0.01    0.27
  -3   3  10    0.58    0.43
   3   3 -10    0.04    0.35
  -3   3  10    0.30    0.28
   2  -3 -10    2.24    0.35
  -2  -3  10    2.77    0.36
  -2  -3  10    2.17    0.33
   2   3 -10    2.57    0.37
  -2   3  10    1.45    0.42
   2   3 -10    2.45    0.44
  -2   3  10    2.48    0.39
  -1  -3  10   20.32    0.83
   1  -3 -10   19.94    0.80
  -1  -3  10   18.74    0.77
   1   3 -10   19.14    0.93
  -1   3  10   20.05    0.97
   1   3 -10   19.54    0.85
  -1   3  10   21.09    0.81
   0  -3  10    9.43    0.58
   0  -3  10    8.26    0.62
   0  -3 -10    8.37    0.55
   0   3 -10    7.01    0.59
   0   3  10    7.91    0.67
   0   3 -10    7.82    0.67
   0   3  10    8.58    0.54
  -1  -3 -10    0.46    0.26
  -1  -3 -10    1.12    0.40
   1  -3  10    0.50    0.30
   1  -3  10    0.94    0.36
  -1   3 -10    0.62    0.37
   1   3  10    0.84    0.26
  -1   3 -10    0.48    0.39
   1   3  10    1.12    0.34
   2  -3  10    2.85    0.46
   2  -3  10    3.20    0.41
  -2  -3 -10    3.37    0.47
  -2  -3 -10    3.27    0.37
  -2   3 -10    2.63    0.48
   2   3  10    3.32    0.41
  -2   3 -10    2.55    0.45
   2   3  10    2.98    0.34
   3  -3  10    1.37    0.45
   3  -3  10    0.93    0.31
  -3   3 -10    1.50    0.50
  -3   3 -10    0.02    0.37
   4  -3  10   14.08    1.00
   4  -3  10   15.86    0.85
  -4   3 -10   16.14    1.10
  -4   3 -10   17.08    1.08
   5  -3  10   -0.13    0.42
   5  -3  10   -0.34    0.30
  -5   3 -10   -0.58    0.45
  -5   3 -10    0.61    0.55
   6  -4 -10   -0.12    0.41
   6  -4 -10    0.05    0.37
  -6   4  10   -0.03    0.41
   5  -4 -10    7.35    0.67
   5  -4 -10    8.50    0.85
  -5   4  10    8.54    0.77
   4  -4 -10    5.17    0.68
   4  -4 -10    5.38    0.55
  -4   4  10    5.77    0.62
   3  -4 -10    8.85    0.65
   3  -4 -10    7.99    0.76
  -3   4  10    9.37    0.88
  -3   4  10    8.89    0.67
  -2  -4  10    1.23    0.29
  -2  -4  10    0.65    0.28
   2  -4 -10    1.65    0.47
   2  -4 -10    0.81    0.30
   2   4 -10    1.27    0.32
   2   4 -10    1.36    0.42
  -2   4  10    1.57    0.36
  -2   4  10    1.45    0.49
  -1  -4  10   13.95    0.66
   1  -4 -10   13.43    0.70
  -1  -4  10   12.58    0.73
  -1   4  10   14.64    0.71
   1   4 -10   15.30    0.87
  -1   4  10   14.32    0.85
   1   4 -10   16.05    0.79
   0  -4  10    7.92    0.57
   0  -4 -10    8.65    0.54
   0  -4  10    8.44    0.66
   0   4  10    6.99    0.51
   0   4  10    7.31    0.68
   0   4 -10    7.86    0.70
   0   4 -10    8.66    0.68
   1  -4  10    6.49    0.62
   1  -4  10    7.94    0.61
  -1  -4 -10    7.66    0.52
  -1   4 -10    8.30    0.72
   1   4  10    8.02    0.63
  -1   4 -10    6.89    0.64
   1   4  10    8.02    0.51
   2  -4  10    0.30    0.37
   2  -4  10   -0.02    0.29
  -2   4 -10    0.13    0.41
  -2   4 -10    0.58    0.43
   3  -4  10    1.20    0.46
   3  -4  10    1.37    0.39
  -3   4 -10    1.05    0.51
  -3   4 -10    0.96    0.51
   4  -4  10    0.57    0.48
   4  -4  10   -0.01    0.35
  -4   4 -10    1.52    0.57
  -4   4 -10    0.25    0.47
   5  -4  10    1.49    0.57
  -5   4 -10    1.09    0.59
   5  -5 -10    0.46    0.46
   5  -5 -10    0.12    0.34
  -5   5  10    1.16    0.44
   4  -5 -10    5.03    0.62
   4  -5 -10    5.74    0.76
  -4   5  10    5.39    0.66
   3  -5 -10    1.95    0.43
   3  -5 -10    1.53    0.51
  -3   5  10    1.02    0.55
  -3   5  10    2.31    0.48
   2  -5 -10    0.40    0.31
   2  -5 -10    0.18    0.38
  -2   5  10    0.06    0.29
  -2   5  10   -0.50    0.43
   1  -5 -10    2.44    0.50
  -1  -5  10    2.76    0.44
  -1  -5  10    3.40    0.40
   1  -5 -10    3.16    0.43
   1   5 -10    2.83    0.50
  -1   5  10    3.06    0.43
  -1   5  10    2.72    0.54
   1   5 -10    2.78    0.47
   0  -5  10    1.19    0.33
   0  -5 -10    1.97    0.36
   0  -5 -10    2.44    0.46
   0  -5  10    1.01    0.39
   0   5  10    1.68    0.45
   0   5 -10    0.66    0.42
   0   5 -10    2.14    0.48
   0   5  10    1.67    0.34
   1  -5  10    0.42    0.36
   1  -5  10    0.46    0.32
  -1   5 -10    0.04    0.40
  -1   5 -10    0.76    0.45
   2  -5  10    1.05    0.36
   2  -5  10    0.04    0.38
  -2   5 -10    0.02    0.44
  -2   5 -10    0.45    0.48
   3  -5  10   -0.01    0.41
   3  -5  10    0.65    0.37
  -3   5 -10    0.26    0.50
  -3   5 -10   -0.32    0.45
   4  -5  10    9.67    0.96
  -4   5 -10   12.29    1.08
   4  -6 -10    0.52    0.47
  -4   6  10    0.18    0.39
   3  -6 -10    0.44    0.38
   3  -6 -10    0.41    0.44
  -3   6  10    0.25    0.54
  -3   6  10    0.48    0.38
   2  -6 -10    0.04    0.40
   2  -6 -10    0.18    0.32
  -2   6  10    0.06    0.33
  -2   6  10   -0.02    0.48
   1  -6 -10    0.24    0.30
   1  -6 -10    0.83    0.40
  -1   6  10    0.47    0.44
  -1   6  10    0.37    0.32
   0  -6  10    1.58    0.37
   0  -6  10    1.36    0.50
   0   6 -10    1.65    0.57
   0   6 -10    2.23    0.56
   1  -6  10    0.15    0.37
   1  -6  10    0.74    0.35
  -1   6 -10    0.53    0.48
  -1   6 -10    0.48    0.45
   2  -6  10   -0.47    0.32
   2  -6  10    0.44    0.43
  -2   6 -10   -0.30    0.44
  -2   6 -10    0.70    0.49
   3  -6  10    0.44    0.48
  -3   6 -10    0.53    0.56
  -5   0  11    8.81    0.73
  -5   0  11    9.44    0.60
   5   0 -11    8.85    0.59
  -4   0  11    2.89    0.37
   4   0 -11    2.75    0.36
  -4   0  11    3.55    0.52
   3   0 -11   21.08    0.83
  -3   0  11   23.10    1.01
   3   0 -11   21.74    1.09
  -3   0  11   22.60    0.84
  -2   0  11    0.54    0.27
   2   0 -11   -0.08    0.25
   2   0 -11    0.66    0.40
  -2   0  11    0.82    0.38
  -1   0  11   18.55    0.86
   1   0 -11   17.63    0.75
   1   0 -11   15.62    0.92
  -1   0  11   17.84    0.75
   0   0 -11    0.36    0.26
   0   0  11    0.09    0.29
   0   0  11    0.36    0.28
   0   0 -11    0.36    0.39
   1   0  11    0.34    0.28
  -1   0 -11    0.20    0.30
  -1   0 -11    0.16    0.34
   1   0  11    0.06    0.28
   2   0  11    4.86    0.50
  -2   0 -11    5.06    0.60
   2   0  11    5.33    0.50
  -2   0 -11    5.87    0.54
  -3   0 -11    0.36    0.34
   3   0  11    0.81    0.34
  -3   0 -11    0.87    0.41
   3   0  11    0.65    0.31
   4   0  11   -0.11    0.27
  -4   0 -11    0.00    0.38
   4   0  11    0.10    0.32
  -4   0 -11   -0.58    0.32
  -5   0 -11    2.62    0.80
   6  -1 -11    0.62    0.34
   6  -1 -11    0.28    0.37
  -6   1  11    0.46    0.46
  -6   1  11    1.18    0.34
   5  -1 -11   11.31    0.82
   5  -1 -11   11.66    0.69
  -5   1  11   11.72    0.87
  -5   1  11   12.14    0.71
  -4  -1  11    1.70    0.39
  -4  -1  11    2.40    0.33
   4  -1 -11    1.60    0.34
  -4   1  11    2.12    0.49
   4   1 -11    1.85    0.32
  -4   1  11    2.10    0.36
  -3  -1  11    9.97    0.58
   3  -1 -11   10.50    0.61
  -3  -1  11   11.51    0.70
   3   1 -11   12.38    0.60
  -3   1  11   10.31    0.77
   3   1 -11   11.47    0.82
  -3   1  11   11.59    0.63
   2  -1 -11   40.36    1.25
  -2  -1  11   43.26    1.34
   2  -1 -11   41.84    1.50
  -2  -1  11   40.93    1.25
  -2   1  11   41.07    1.26
  -2   1  11   42.01    1.43
   2   1 -11   40.97    1.42
   2   1 -11   39.77    1.22
  -1  -1  11   13.44    0.67
   1  -1 -11   15.08    0.90
  -1  -1  11   13.68    0.76
   1  -1 -11   13.45    0.67
  -1   1  11   13.85    0.67
  -1   1  11   14.60    0.82
   1   1 -11   13.04    0.69
   1   1 -11   12.92    0.84
   0  -1 -11    0.64    0.41
   0  -1 -11    0.42    0.24
   0  -1  11   -0.02    0.29
   0  -1  11    0.35    0.28
   0   1  11    0.44    0.30
   0   1  11    0.26    0.27
   0   1 -11    0.49    0.38
   0   1 -11    0.46    0.32
  -1  -1 -11    9.59    0.75
   1  -1  11    8.32    0.58
   1  -1  11    7.81    0.58
  -1  -1 -11    9.12    0.60
   1   1  11    8.71    0.58
  -1   1 -11    8.61    0.65
   1   1  11    9.49    0.66
  -1   1 -11    9.50    0.76
  -2  -1 -11    1.61    0.43
   2  -1  11    1.12    0.31
   2  -1  11    1.39    0.39
  -2  -1 -11    0.91    0.30
  -2   1 -11    0.94    0.35
   2   1  11    1.19    0.31
   2   1  11    0.64    0.28
  -2   1 -11    0.33    0.40
   3  -1  11    0.47    0.34
   3  -1  11   -0.38    0.25
  -3  -1 -11   -0.06    0.36
  -3  -1 -11    0.18    0.30
   3   1  11    0.32    0.27
  -3   1 -11    0.41    0.40
  -3   1 -11    0.32    0.36
   3   1  11    0.22    0.29
  -4  -1 -11   -0.10    0.31
  -4  -1 -11   -0.07    0.36
   4  -1  11    0.03    0.29
   4  -1  11   -0.20    0.35
  -4   1 -11    0.47    0.40
  -4   1 -11   -0.54    0.37
   4   1  11   -0.02    0.25
   4   1  11   -0.06    0.29
   5  -1  11   -0.32    0.36
   5  -1  11    0.23    0.31
  -5   1 -11    0.21    0.42
  -5   1 -11    0.13    0.46
   7  -2 -11    1.62    0.49
   7  -2 -11    0.77    0.36
  -7   2  11    0.83    0.55
  -7   2  11    0.80    0.39
   6  -2 -11    3.94    0.60
   6  -2 -11    6.40    0.62
  -6   2  11    5.45    0.76
  -6   2  11    5.46    0.60
   5  -2 -11    9.08    0.68
   5  -2 -11    8.71    0.80
  -5   2  11    7.24    0.66
  -5   2  11   10.02    0.93
   4  -2 -11    0.68    0.28
  -4  -2  11    0.27    0.30
  -4  -2  11    0.19    0.31
   4   2 -11    0.29    0.62
  -4   2  11    0.47    0.31
  -4   2  11    0.51    0.40
   4   2 -11    0.35    0.41
  -3  -2  11    5.30    0.50
   3  -2 -11    5.26    0.50
  -3  -2  11    4.45    0.40
   3   2 -11    5.12    0.45
  -3   2  11    4.91    0.49
  -3   2  11    4.96    0.63
   3   2 -11    3.87    0.53
  -2  -2  11   16.67    0.75
   2  -2 -11   17.69    0.77
  -2  -2  11   17.54    0.78
   2   2 -11   17.74    0.76
  -2   2  11   18.65    0.96
   2   2 -11   16.24    0.92
  -2   2  11   18.31    0.79
   1  -2 -11   31.35    1.06
  -1  -2  11   33.64    1.12
   1  -2 -11   33.81    1.34
  -1  -2  11   32.06    1.12
   1   2 -11   32.86    1.11
  -1   2  11   33.47    1.09
  -1   2  11   32.58    1.22
   1   2 -11   31.70    1.24
   0  -2  11    1.32    0.35
   0  -2 -11    1.04    0.31
   0  -2 -11    1.20    0.41
   0  -2  11    0.84    0.32
   0   2 -11    1.34    0.37
   0   2  11    0.79    0.37
   0   2 -11    1.26    0.44
   0   2  11    1.03    0.30
  -1  -2 -11    1.33    0.32
  -1  -2 -11    0.14    0.35
   1  -2  11    0.87    0.32
   1  -2  11    1.08    0.29
   1   2  11    1.73    0.36
  -1   2 -11    1.12    0.40
  -1   2 -11    0.94    0.34
   1   2  11    1.28    0.30
   2  -2  11    3.08    0.41
   2  -2  11    2.73    0.48
  -2  -2 -11    3.07    0.41
  -2  -2 -11    3.65    0.52
   2   2  11    3.25    0.42
  -2   2 -11    3.78    0.58
  -2   2 -11    2.47    0.44
   2   2  11    3.04    0.37
  -3  -2 -11    2.29    0.38
   3  -2  11    2.23    0.47
  -3  -2 -11    2.95    0.50
   3  -2  11    2.63    0.40
  -3   2 -11    2.33    0.46
   3   2  11    2.84    0.39
  -3   2 -11    1.99    0.51
   3   2  11    2.13    0.36
   4  -2  11    1.79    0.41
   4  -2  11    1.91    0.47
  -4   2 -11    1.38    0.50
  -4   2 -11    1.88    0.55
   5  -2  11   -0.07    0.33
   5  -2  11    0.74    0.45
  -5   2 -11   -0.45    0.46
  -5   2 -11    0.61    0.47
   6  -3 -11    0.14    0.39
   6  -3 -11    0.27    0.36
  -6   3  11    0.37    0.37
  -6   3  11    0.12    0.55
   5  -3 -11    5.74    0.61
   5  -3 -11    3.26    0.57
  -5   3  11    5.43    0.77
  -5   3  11    5.09    0.60
   4  -3 -11    2.51    0.43
   4  -3 -11    2.51    0.54
  -4   3  11    2.83    0.61
  -4   3  11    2.68    0.46
  -3  -3  11    0.56    0.27
  -3  -3  11    0.34    0.24
   3  -3 -11    0.41    0.28
  -3   3  11   -0.26    0.36
  -3   3  11    0.42    0.29
   3   3 -11    1.11    0.41
   3   3 -11    0.51    0.27
  -2  -3  11   24.39    0.91
  -2  -3  11   25.55    0.93
   2  -3 -11   24.85    0.94
   2   3 -11   22.55    1.08
  -2   3  11   25.01    1.11
   2   3 -11   25.02    0.94
  -2   3  11   24.19    0.96
  -1  -3  11    0.95    0.32
  -1  -3  11    0.66    0.29
   1  -3 -11    0.74    0.27
  -1   3  11    1.00    0.30
   1   3 -11    0.62    0.33
   1   3 -11    0.13    0.37
  -1   3  11    0.58    0.39
   0  -3  11    1.42    0.34
   0  -3  11    1.25    0.37
   0  -3 -11    1.44    0.31
   0  -3 -11    0.50    0.40
   0   3 -11    0.87    0.40
   0   3  11    1.45    0.40
   0   3  11    1.60    0.30
   0   3 -11    1.15    0.39
  -1  -3 -11    2.49    0.35
   1  -3  11    2.11    0.42
   1  -3  11    2.85    0.42
  -1  -3 -11    1.68    0.46
   1   3  11    3.08    0.37
  -1   3 -11    3.11    0.49
   1   3  11    2.79    0.45
  -1   3 -11    1.59    0.44
   2  -3  11    3.78    0.45
  -2  -3 -11    4.69    0.47
  -2  -3 -11    4.99    0.58
   2  -3  11    4.41    0.57
   2   3  11    4.87    0.44
  -2   3 -11    4.20    0.55
   2   3  11    5.59    0.52
  -2   3 -11    4.06    0.60
   3  -3  11    0.98    0.36
   3  -3  11    0.35    0.39
  -3   3 -11    1.26    0.44
  -3   3 -11    0.87    0.46
   4  -3  11    1.07    0.46
   4  -3  11    1.97    0.43
  -4   3 -11    1.09    0.55
  -4   3 -11    1.37    0.54
   5  -3  11    0.71    0.48
   5  -3  11    1.58    0.44
  -5   3 -11    2.03    0.66
  -5   3 -11    1.55    0.58
   6  -4 -11    1.77    0.54
  -6   4  11    2.47    0.55
   5  -4 -11    3.05    0.61
   5  -4 -11    2.35    0.48
  -5   4  11    2.37    0.66
  -5   4  11    2.11    0.49
   4  -4 -11    0.24    0.39
   4  -4 -11   -0.32    0.27
  -4   4  11    0.11    0.33
  -4   4  11    0.63    0.50
   3  -4 -11    0.26    0.31
   3  -4 -11    1.12    0.48
  -3   4  11    0.58    0.35
  -3   4  11    0.05    0.45
  -2  -4  11    2.62    0.36
  -2  -4  11    2.86    0.40
   2  -4 -11    2.61    0.41
   2   4 -11    2.74    0.41
  -2   4  11    2.23    0.39
   2   4 -11    3.43    0.52
  -2   4  11    3.15    0.58
  -1  -4  11   17.55    0.84
  -1  -4  11   18.53    0.79
   1  -4 -11   17.20    0.80
  -1   4  11   17.40    1.00
  -1   4  11   18.02    0.82
   1   4 -11   17.96    0.89
   1   4 -11   19.01    0.97
   0  -4  11    0.52    0.30
   0  -4  11    0.27    0.32
   0  -4 -11   -0.15    0.25
   0   4  11   -0.02    0.24
   0   4 -11   -0.15    0.34
   0   4 -11   -0.10    0.37
   0   4  11    0.07    0.37
   1  -4  11    1.10    0.39
  -1  -4 -11    0.66    0.28
   1  -4  11    0.27    0.32
   1   4  11    0.60    0.26
  -1   4 -11    0.60    0.38
   1   4  11    0.00    0.33
  -1   4 -11    0.40    0.42
   2  -4  11    0.01    0.35
   2  -4  11    0.72    0.35
  -2   4 -11    0.46    0.42
  -2   4 -11   -0.16    0.43
   3  -4  11    2.18    0.46
   3  -4  11    1.60    0.48
  -3   4 -11    2.54    0.61
  -3   4 -11    2.22    0.60
   4  -4  11    0.18    0.43
   4  -4  11    0.00    0.38
  -4   4 -11    0.54    0.56
  -4   4 -11    0.40    0.52
   5  -5 -11    1.96    0.55
  -5   5  11    2.76    0.56
   4  -5 -11    0.92    0.39
   4  -5 -11    1.23    0.52
  -4   5  11    1.86    0.60
  -4   5  11    1.99    0.49
   3  -5 -11    0.87    0.46
   3  -5 -11    1.27    0.41
  -3   5  11    0.39    0.53
  -3   5  11    0.36    0.36
   2  -5 -11    2.18    0.43
   2  -5 -11    1.65    0.50
  -2   5  11    2.34    0.59
  -2   5  11    1.99    0.41
  -1  -5  11    0.52    0.28
   1  -5 -11    0.26    0.30
  -1  -5  11    0.15    0.31
   1  -5 -11    0.79    0.39
   1   5 -11    0.80    0.41
  -1   5  11    0.46    0.43
  -1   5  11    0.00    0.29
   1   5 -11    0.20    0.34
   0  -5 -11    0.47    0.27
   0  -5  11    0.33    0.34
   0  -5  11   -0.19    0.28
   0   5 -11    0.03    0.39
   0   5  11    0.46    0.27
   0   5 -11   -0.22    0.36
   0   5  11    0.76    0.40
   1  -5  11    2.18    0.47
   1  -5  11    2.15    0.42
  -1   5 -11    1.50    0.52
  -1   5 -11    1.78    0.47
   2  -5  11    2.33    0.53
   2  -5  11    1.93    0.45
  -2   5 -11    2.24    0.59
  -2   5 -11    2.46    0.59
   3  -5  11    0.82    0.41
   3  -5  11    1.52    0.51
  -3   5 -11    1.39    0.57
  -3   5 -11    0.37    0.51
   3  -6 -11    2.81    0.60
   3  -6 -11    1.77    0.46
  -3   6  11    2.43    0.52
  -3   6  11    2.90    0.69
   2  -6 -11   -0.14    0.31
   2  -6 -11    0.42    0.42
  -2   6  11   -0.16    0.48
  -2   6  11    0.29    0.34
   1  -6 -11    1.58    0.39
   1  -6 -11    2.41    0.52
  -1   6  11    1.48    0.52
  -1   6  11    1.78    0.41
   0  -6  11    0.28    0.29
   0  -6  11   -0.10    0.42
   0   6 -11    0.45    0.49
   0   6 -11    0.13    0.52
   1  -6  11    0.53    0.41
   1  -6  11    2.09    0.43
  -1   6 -11    1.45    0.50
  -1   6 -11    1.10    0.52
   2  -6  11    0.37    0.36
   2  -6  11    1.33    0.50
  -2   6 -11    0.16    0.49
  -2   6 -11   -0.19    0.45
  -5   0  12    5.39    0.65
   5   0 -12    3.76    0.45
  -5   0  12    5.01    0.48
   4   0 -12   -0.39    0.23
  -4   0  12    0.32    0.26
  -4   0  12    0.59    0.38
   3   0 -12    6.42    0.52
  -3   0  12    6.87    0.54
   3   0 -12    6.06    0.70
  -3   0  12    5.65    0.60
  -2   0  12    0.82    0.37
   2   0 -12    0.51    0.41
   2   0 -12    0.38    0.29
  -2   0  12    0.65    0.29
  -1   0  12   -0.10    0.27
  -1   0  12    0.39    0.36
   1   0 -12    0.13    0.27
   1   0 -12    0.11    0.39
   0   0 -12   27.72    1.03
   0   0 -12   27.07    1.20
   0   0  12   28.86    1.04
   0   0  12   27.47    1.10
   1   0  12   19.57    0.86
  -1   0 -12   16.39    0.96
   1   0  12   17.26    0.84
  -1   0 -12   16.40    0.83
   2   0  12    0.88    0.34
  -2   0 -12    0.30    0.39
   2   0  12    0.79    0.32
  -2   0 -12    0.81    0.35
   3   0  12    3.32    0.43
   3   0  12    4.58    0.53
  -3   0 -12    4.18    0.63
  -3   0 -12    3.59    0.49
  -4   0 -12    1.21    0.51
   4   0  12    1.62    0.44
   4   0  12    2.15    0.38
  -4   0 -12    2.19    0.47
   6  -1 -12    0.66    0.40
   6  -1 -12    0.46    0.32
  -6   1  12    0.97    0.49
  -6   1  12    0.07    0.32
   5  -1 -12    4.94    0.52
  -5   1  12    5.18    0.66
  -5   1  12    6.33    0.57
   4  -1 -12    7.21    0.59
  -4  -1  12    6.69    0.62
  -4  -1  12    6.60    0.52
   4   1 -12    6.68    0.53
  -4   1  12    6.98    0.58
  -4   1  12    6.96    0.73
  -3  -1  12   21.89    0.96
  -3  -1  12   23.47    0.86
   3  -1 -12   21.79    0.88
   3   1 -12   21.79    0.85
  -3   1  12   22.08    1.07
   3   1 -12   21.18    1.07
  -3   1  12   21.19    0.88
  -2  -1  12    3.44    0.41
   2  -1 -12    2.49    0.37
  -2  -1  12    1.86    0.41
   2  -1 -12    2.98    0.57
   2   1 -12    1.99    0.37
  -2   1  12    1.63    0.44
   2   1 -12    2.08    0.50
  -2   1  12    2.64    0.40
   1  -1 -12    3.30    0.41
   1  -1 -12    2.91    0.54
  -1  -1  12    3.04    0.41
  -1  -1  12    2.98    0.46
   1   1 -12    4.09    0.58
  -1   1  12    4.27    0.51
   1   1 -12    3.60    0.45
  -1   1  12    2.93    0.40
   0  -1 -12    6.32    0.68
   0  -1  12    5.83    0.53
   0  -1  12    6.81    0.56
   0  -1 -12    5.66    0.49
   0   1  12    5.62    0.56
   0   1  12    8.25    0.59
   0   1 -12    6.27    0.66
   0   1 -12    6.55    0.56
  -1  -1 -12    0.21    0.39
   1  -1  12    0.75    0.34
   1  -1  12    0.55    0.32
  -1  -1 -12    0.39    0.29
  -1   1 -12    0.12    0.39
   1   1  12    0.66    0.33
  -1   1 -12    0.55    0.35
   1   1  12    0.32    0.27
   2  -1  12    0.33    0.31
  -2  -1 -12    0.67    0.41
  -2  -1 -12   -0.02    0.28
   2  -1  12   -0.09    0.31
  -2   1 -12    0.34    0.36
   2   1  12   -0.08    0.26
   2   1  12    0.73    0.32
  -2   1 -12    0.44    0.40
  -3  -1 -12    0.55    0.34
   3  -1  12    0.00    0.35
  -3  -1 -12   -0.13    0.37
   3  -1  12    0.52    0.33
  -3   1 -12    0.43    0.44
   3   1  12    0.09    0.28
  -3   1 -12   -0.05    0.36
   3   1  12    0.47    0.31
   4  -1  12   10.44    0.83
  -4  -1 -12    9.62    0.76
  -4  -1 -12    9.60    0.89
   4  -1  12   10.37    0.71
  -4   1 -12   10.29    0.86
   4   1  12    8.92    0.67
  -4   1 -12    9.34    0.87
   4   1  12    9.87    0.76
   5  -1  12    0.16    0.33
   5  -1  12    0.36    0.41
  -5   1 -12   -0.35    0.43
  -5   1 -12    0.18    0.49
   6  -2 -12    0.07    0.33
   6  -2 -12    0.81    0.43
  -6   2  12    1.12    0.41
  -6   2  12   -0.63    0.45
   5  -2 -12    1.30    0.38
   5  -2 -12    0.77    0.41
  -5   2  12    1.65    0.54
  -5   2  12    1.39    0.40
  -4  -2  12    3.95    0.48
  -4  -2  12    3.66    0.45
   4  -2 -12    3.79    0.45
  -4   2  12    3.88    0.49
  -4   2  12    2.98    0.55
   4   2 -12    3.74    0.65
   4   2 -12    3.75    0.46
  -3  -2  12    2.73    0.37
  -3  -2  12    3.67    0.47
   3  -2 -12    2.70    0.39
  -3   2  12    3.39    0.44
   3   2 -12    3.01    0.52
   3   2 -12    3.33    0.40
  -3   2  12    3.16    0.56
   2  -2 -12    0.06    0.25
  -2  -2  12    0.24    0.31
  -2  -2  12   -0.34    0.23
  -2   2  12    0.01    0.26
  -2   2  12    0.07    0.35
   2   2 -12   -0.09    0.37
   2   2 -12    0.09    0.28
   1  -2 -12    4.71    0.62
  -1  -2  12    4.09    0.47
   1  -2 -12    3.97    0.45
  -1  -2  12    3.65    0.45
   1   2 -12    4.34    0.49
   1   2 -12    4.04    0.57
  -1   2  12    3.51    0.55
  -1   2  12    3.74    0.44
   0  -2  12   24.61    0.99
   0  -2  12   24.72    0.97
   0  -2 -12   23.69    0.93
   0  -2 -12   24.55    1.14
   0   2  12   23.20    1.04
   0   2 -12   24.23    1.14
   0   2 -12   22.88    0.97
   0   2  12   23.49    0.93
   1  -2  12    6.64    0.59
  -1  -2 -12    8.58    0.75
  -1  -2 -12    8.21    0.57
   1  -2  12    8.53    0.63
  -1   2 -12    9.43    0.73
   1   2  12    8.77    0.58
  -1   2 -12    6.52    0.69
   1   2  12    7.44    0.63
   2  -2  12    1.48    0.40
  -2  -2 -12    2.51    0.39
  -2  -2 -12    1.75    0.46
   2  -2  12    1.50    0.37
  -2   2 -12    1.16    0.39
  -2   2 -12    1.13    0.45
   2   2  12    1.52    0.35
   2   2  12    1.81    0.35
   3  -2  12    4.34    0.52
   3  -2  12    3.97    0.58
  -3  -2 -12    3.13    0.45
  -3  -2 -12    4.02    0.57
   3   2  12    3.22    0.42
  -3   2 -12    4.09    0.65
  -3   2 -12    2.93    0.56
   3   2  12    3.83    0.45
   4  -2  12    3.24    0.49
   4  -2  12    2.46    0.56
  -4   2 -12    2.02    0.56
  -4   2 -12    2.59    0.62
   5  -2  12    1.65    0.42
   5  -2  12    2.61    0.58
  -5   2 -12    0.86    0.53
  -5   2 -12    3.63    0.71
   6  -3 -12    0.12    0.41
   6  -3 -12    0.53    0.39
  -6   3  12    0.51    0.39
  -6   3  12   -0.19    0.55
   5  -3 -12   -0.21    0.32
   5  -3 -12    0.32    0.42
  -5   3  12    0.90    0.38
  -5   3  12    0.78    0.55
   4  -3 -12    3.81    0.50
   4  -3 -12    5.25    0.69
  -4   3  12    3.46    0.51
  -4   3  12    3.46    0.65
  -3  -3  12   24.36    0.93
  -3  -3  12   25.56    0.96
   3  -3 -12   26.17    1.05
   3   3 -12   24.87    1.14
  -3   3  12   27.41    1.05
  -3   3  12   28.25    1.27
   3   3 -12   26.14    0.96
  -2  -3  12    1.91    0.37
  -2  -3  12    2.37    0.37
   2  -3 -12    1.70    0.37
  -2   3  12    2.07    0.39
  -2   3  12    2.40    0.52
   2   3 -12    1.97    0.40
   2   3 -12    2.03    0.49
   1  -3 -12    2.37    0.36
  -1  -3  12    2.24    0.39
  -1  -3  12    1.83    0.38
  -1   3  12    1.68    0.48
   1   3 -12    2.08    0.47
  -1   3  12    2.44    0.39
   1   3 -12    1.76    0.42
   0  -3 -12    3.77    0.60
   0  -3  12    2.62    0.42
   0  -3  12    3.86    0.47
   0  -3 -12    3.92    0.44
   0   3 -12    3.65    0.52
   0   3 -12    3.32    0.53
   0   3  12    3.73    0.53
   0   3  12    3.71    0.42
  -1  -3 -12   11.02    0.63
  -1  -3 -12   10.37    0.83
   1  -3  12    9.81    0.69
   1  -3  12   11.73    0.79
   1   3  12   11.72    0.63
   1   3  12    9.70    0.71
  -1   3 -12   10.59    0.79
  -1   3 -12   11.33    0.89
   2  -3  12    0.81    0.36
   2  -3  12    0.91    0.43
  -2  -3 -12    0.71    0.41
  -2  -3 -12    0.79    0.31
  -2   3 -12    0.98    0.45
   2   3  12    0.73    0.33
  -2   3 -12    1.39    0.51
   2   3  12    0.43    0.27
   3  -3  12    0.61    0.44
   3  -3  12    0.02    0.34
  -3   3 -12    0.94    0.51
  -3   3 -12    0.41    0.48
   4  -3  12   13.30    1.01
   4  -3  12   12.54    0.83
  -4   3 -12   14.66    1.17
  -4   3 -12   14.38    1.16
   5  -3  12    0.57    0.46
  -5   3 -12    1.67    0.58
   5  -4 -12    0.89    0.39
   5  -4 -12    0.16    0.45
  -5   4  12    1.16    0.56
  -5   4  12    0.88    0.43
   4  -4 -12    0.91    0.38
   4  -4 -12    0.11    0.41
  -4   4  12    0.60    0.52
  -4   4  12   -0.15    0.33
   3  -4 -12    0.69    0.45
   3  -4 -12    0.82    0.33
  -3   4  12    0.16    0.45
  -3   4  12    0.25    0.34
  -2  -4  12    0.16    0.27
  -2  -4  12    0.08    0.28
   2  -4 -12    0.42    0.29
  -2   4  12    0.34    0.40
   2   4 -12    0.04    0.29
   2   4 -12    0.75    0.42
  -2   4  12    0.12    0.29
  -1  -4  12    2.36    0.41
  -1  -4  12    2.11    0.39
   1  -4 -12    2.29    0.40
  -1   4  12    2.65    0.42
   1   4 -12    2.01    0.42
   1   4 -12    2.10    0.52
  -1   4  12    2.44    0.54
   0  -4  12    5.17    0.52
   0  -4 -12    4.20    0.46
   0  -4  12    4.99    0.57
   0   4 -12    4.77    0.58
   0   4  12    4.55    0.46
   0   4 -12    5.61    0.70
   0   4  12    4.23    0.59
   1  -4  12    1.82    0.44
   1  -4  12    1.86    0.39
  -1  -4 -12    2.62    0.38
   1   4  12    2.57    0.48
   1   4  12    1.28    0.31
  -1   4 -12    1.49    0.48
  -1   4 -12    1.71    0.43
   2  -4  12    0.17    0.37
   2  -4  12   -0.34    0.33
  -2   4 -12    0.88    0.52
  -2   4 -12    0.35    0.43
   3  -4  12    1.00    0.40
   3  -4  12    2.19    0.55
  -3   4 -12    1.83    0.62
  -3   4 -12    1.62    0.61
   4  -4  12    2.26    0.61
   4  -4  12    3.44    0.53
  -4   4 -12    2.65    0.70
  -4   4 -12    3.00    0.72
   4  -5 -12    5.18    0.64
   4  -5 -12    2.89    0.62
  -4   5  12    4.87    0.65
  -4   5  12    3.92    0.79
   3  -5 -12    3.12    0.50
   3  -5 -12    4.71    0.72
  -3   5  12    5.40    0.76
  -3   5  12    5.89    0.64
   2  -5 -12    0.09    0.31
   2  -5 -12   -0.14    0.39
  -2   5  12    0.16    0.32
  -2   5  12    0.10    0.48
   1  -5 -12    0.49    0.39
  -1  -5  12    0.34    0.30
  -1  -5  12   -0.23    0.29
   1  -5 -12   -0.16    0.29
   1   5 -12    0.35    0.42
  -1   5  12    0.12    0.28
   1   5 -12    0.04    0.33
  -1   5  12    0.19    0.45
   0  -5 -12    1.34    0.37
   0  -5  12    1.60    0.42
   0  -5  12    0.85    0.40
   0   5  12    1.10    0.47
   0   5 -12    1.68    0.51
   0   5 -12    1.21    0.44
   0   5  12    1.37    0.34
   1  -5  12    1.85    0.38
   1  -5  12    1.45    0.46
  -1   5 -12    1.26    0.49
  -1   5 -12    2.01    0.56
   2  -5  12    0.35    0.38
   2  -5  12    0.71    0.39
  -2   5 -12   -0.09    0.47
  -2   5 -12    0.10    0.48
   3  -5  12    0.30    0.41
   3  -5  12    0.08    0.43
  -3   5 -12   -0.59    0.48
  -3   5 -12    0.33    0.53
   3  -6 -12    1.59    0.56
   3  -6 -12    1.75    0.47
  -3   6  12    2.65    0.71
  -3   6  12    2.09    0.48
   2  -6 -12    0.27    0.43
   2  -6 -12    0.52    0.38
  -2   6  12   -0.19    0.49
  -2   6  12    0.34    0.37
   1  -6 -12   -0.02    0.39
   1  -6 -12    0.00    0.33
  -1   6  12    0.21    0.33
  -1   6  12    0.86    0.49
   0  -6  12    2.02    0.79
   0  -6  12    1.69    0.41
   0   6 -12    2.40    0.62
   0   6 -12    3.64    0.97
   1  -6  12    1.68    0.51
   1  -6  12    2.24    0.47
  -1   6 -12    2.52    0.60
  -1   6 -12    2.31    0.61
  -5   0  13    0.85    0.43
  -5   0  13    0.07    0.27
   5   0 -13   -0.02    0.28
   4   0 -13    0.15    0.26
  -4   0  13    0.04    0.25
  -4   0  13   -0.17    0.35
  -3   0  13   12.02    0.69
   3   0 -13   12.49    0.93
   3   0 -13   12.65    0.71
  -3   0  13   12.18    0.83
   2   0 -13    9.20    0.78
   2   0 -13    8.25    0.60
  -2   0  13    7.59    0.58
  -2   0  13    9.50    0.75
  -1   0  13    7.08    0.62
   1   0 -13    7.60    0.73
   1   0 -13    7.23    0.56
  -1   0  13    7.43    0.59
   0   0 -13    0.15    0.28
   0   0  13    0.15    0.31
   0   0  13    0.56    0.30
   0   0 -13    0.37    0.41
  -1   0 -13    2.09    0.53
  -1   0 -13    2.09    0.41
   1   0  13    2.18    0.41
   1   0  13    1.99    0.40
  -2   0 -13    0.55    0.44
   2   0  13    0.66    0.36
  -2   0 -13    1.00    0.39
   2   0  13    0.42    0.34
   3   0  13    1.30    0.40
  -3   0 -13    1.04    0.50
  -3   0 -13    0.89    0.39
   3   0  13    0.72    0.33
   4   0  13    0.03    0.33
  -4   0 -13   -0.05    0.43
   4   0  13    0.31    0.31
  -4   0 -13   -0.17    0.39
   6  -1 -13    1.69    0.41
   6  -1 -13    2.47    0.52
  -6   1  13    1.95    0.59
  -6   1  13    1.91    0.43
  -5  -1  13   -0.27    0.56
   5  -1 -13    0.11    0.32
  -5   1  13   -0.14    0.44
  -5   1  13    0.02    0.29
  -4  -1  13    1.63    0.33
   4  -1 -13    1.52    0.35
  -4  -1  13    1.46    0.42
   4   1 -13    2.08    0.52
  -4   1  13    1.62    0.37
   4   1 -13    1.40    0.33
  -4   1  13    0.98    0.46
  -3  -1  13    1.83    0.42
   3  -1 -13    2.08    0.41
  -3  -1  13    1.79    0.35
  -3   1  13    1.74    0.37
   3   1 -13    2.26    0.51
  -3   1  13    2.59    0.53
   3   1 -13    1.77    0.35
   2  -1 -13    6.82    0.73
  -2  -1  13    8.35    0.60
   2  -1 -13    8.35    0.61
  -2  -1  13    6.74    0.61
   2   1 -13    7.34    0.58
  -2   1  13    8.15    0.58
  -2   1  13    7.18    0.71
   2   1 -13    7.82    0.74
   1  -1 -13    1.69    0.34
  -1  -1  13    1.41    0.36
  -1  -1  13    1.69    0.39
   1  -1 -13    3.54    0.57
  -1   1  13    3.37    0.41
   1   1 -13    3.02    0.55
   1   1 -13    2.60    0.40
  -1   1  13    2.05    0.44
   0  -1 -13   -0.23    0.39
   0  -1  13    0.57    0.34
   0  -1  13   -0.16    0.30
   0  -1 -13    0.40    0.28
   0   1  13    0.03    0.31
   0   1  13    0.55    0.30
   0   1 -13    0.20    0.33
   0   1 -13    0.07    0.40
  -1  -1 -13   13.37    0.76
  -1  -1 -13   12.39    0.91
   1  -1  13   12.05    0.78
   1  -1  13   13.99    0.79
   1   1  13   12.64    0.77
  -1   1 -13   11.77    0.78
   1   1  13   12.68    0.73
  -1   1 -13   13.78    0.94
  -2  -1 -13   55.12    1.64
   2  -1  13   55.39    1.63
  -2  -1 -13   51.87    1.85
   2  -1  13   52.45    1.70
   2   1  13   53.54    1.64
   2   1  13   56.38    1.64
  -2   1 -13   54.48    1.88
  -2   1 -13   52.41    1.72
  -3  -1 -13    3.39    0.60
   3  -1  13    3.09    0.47
   3  -1  13    3.31    0.53
  -3  -1 -13    3.33    0.52
   3   1  13    2.41    0.43
  -3   1 -13    2.58    0.58
   3   1  13    3.49    0.48
  -3   1 -13    3.17    0.53
   4  -1  13    1.15    0.38
   4  -1  13    1.32    0.46
  -4  -1 -13    0.99    0.48
  -4   1 -13    1.83    0.52
  -4   1 -13    0.90    0.51
   5  -1  13    0.12    0.31
   5  -1  13   -0.37    0.38
  -5   1 -13    0.08    0.51
  -5   1 -13    0.11    0.47
   6  -2 -13    1.40    0.50
   6  -2 -13    2.98    0.50
  -6   2  13    1.52    0.45
  -6   2  13    1.87    0.64
   5  -2 -13    0.37    0.41
   5  -2 -13   -0.11    0.27
  -5   2  13    0.46    0.44
  -5   2  13    0.42    0.35
  -4  -2  13    2.55    0.44
   4  -2 -13    2.21    0.40
  -4  -2  13    2.95    0.40
   4   2 -13    2.72    0.43
  -4   2  13    2.21    0.52
   4   2 -13    2.57    0.56
  -4   2  13    2.40    0.42
  -3  -2  13    9.18    0.68
   3  -2 -13    9.75    0.67
  -3  -2  13   10.14    0.63
  -3   2  13    9.63    0.84
   3   2 -13    8.68    0.62
   3   2 -13    9.64    0.79
  -3   2  13    9.39    0.66
  -2  -2  13   12.76    0.76
   2  -2 -13   14.46    0.77
  -2  -2  13   13.92    0.74
   2   2 -13   14.30    0.77
   2   2 -13   15.41    0.94
  -2   2  13   13.93    0.74
  -2   2  13   14.67    0.96
   1  -2 -13   16.47    0.80
  -1  -2  13   16.61    0.83
   1  -2 -13   17.39    1.06
  -1  -2  13   16.45    0.82
  -1   2  13   14.75    0.77
  -1   2  13   15.58    0.95
   1   2 -13   14.82    0.99
   1   2 -13   16.17    0.83
   0  -2 -13    0.36    0.42
   0  -2  13   -0.01    0.33
   0  -2  13    0.18    0.33
   0  -2 -13   -0.04    0.27
   0   2 -13    0.05    0.34
   0   2  13    0.38    0.29
   0   2 -13    0.44    0.43
   0   2  13   -0.07    0.35
   1  -2  13    8.06    0.66
   1  -2  13    7.70    0.70
  -1  -2 -13    6.02    0.68
  -1  -2 -13    7.91    0.60
   1   2  13    6.49    0.55
   1   2  13    8.07    0.70
  -1   2 -13    8.36    0.74
  -1   2 -13    9.14    0.85
  -2  -2 -13    0.94    0.46
   2  -2  13    1.45    0.42
  -2  -2 -13    1.32    0.36
   2  -2  13    1.80    0.41
  -2   2 -13    1.90    0.47
  -2   2 -13    0.59    0.47
   2   2  13    1.55    0.36
   2   2  13    0.96    0.34
  -3  -2 -13    0.43    0.34
   3  -2  13   -0.03    0.31
  -3  -2 -13    0.09    0.40
   3  -2  13   -0.11    0.37
   3   2  13    0.18    0.30
  -3   2 -13    0.40    0.46
  -3   2 -13   -0.17    0.38
   3   2  13    0.24    0.29
   4  -2  13    1.48    0.43
   4  -2  13    2.08    0.55
  -4   2 -13    1.03    0.54
  -4   2 -13    1.55    0.58
   5  -2  13    1.20    0.43
   5  -2  13    0.68    0.48
  -5   2 -13    0.61    0.62
  -5   2 -13    0.89    0.55
   6  -3 -13    0.53    0.39
   6  -3 -13    0.61    0.47
  -6   3  13    1.14    0.46
  -6   3  13    1.35    0.61
   5  -3 -13   -0.24    0.38
   5  -3 -13   -0.16    0.34
  -5   3  13    0.23    0.50
  -5   3  13   -0.09    0.34
   4  -3 -13   -0.33    0.31
  -4   3  13   -0.02    0.47
  -4   3  13    0.43    0.35
   3  -3 -13   10.78    0.73
  -3  -3  13   11.13    0.68
  -3  -3  13   12.14    0.70
  -3   3  13   10.87    0.74
   3   3 -13   10.96    0.68
   3   3 -13   11.70    0.87
  -3   3  13   12.05    0.89
  -2  -3  13   19.79    0.86
  -2  -3  13   19.29    0.89
   2  -3 -13   18.72    0.85
   2   3 -13   18.80    1.07
   2   3 -13   19.12    0.91
  -2   3  13   18.11    1.03
  -2   3  13   19.83    0.90
  -1  -3  13    2.07    0.40
   1  -3 -13    2.93    0.44
  -1  -3  13    2.56    0.42
  -1   3  13    1.89    0.37
   1   3 -13    2.60    0.56
  -1   3  13    2.18    0.53
   1   3 -13    2.11    0.45
   0  -3 -13    0.36    0.28
   0  -3 -13    0.34    0.42
   0  -3  13   -0.35    0.30
   0  -3  13    0.65    0.34
   0   3  13    0.56    0.28
   0   3 -13   -0.01    0.33
   0   3  13    0.44    0.39
   0   3 -13    0.12    0.41
  -1  -3 -13   11.13    0.92
   1  -3  13   12.09    0.77
  -1  -3 -13   12.34    0.69
   1  -3  13   11.69    0.82
  -1   3 -13   12.21    0.95
  -1   3 -13   11.64    0.85
   1   3  13   11.94    0.67
   1   3  13   10.07    0.76
  -2  -3 -13   41.16    1.37
  -2  -3 -13   42.66    1.58
   2  -3  13   42.10    1.58
   2  -3  13   43.07    1.47
   2   3  13   44.52    1.42
   2   3  13   41.53    1.33
  -2   3 -13   41.78    1.60
  -2   3 -13   41.69    1.69
   3  -3  13    0.95    0.49
   3  -3  13    1.24    0.44
  -3   3 -13    1.20    0.57
  -3   3 -13    0.76    0.51
   4  -3  13    1.02    0.42
   4  -3  13   -0.03    0.45
  -4   3 -13    0.29    0.56
  -4   3 -13    1.33    0.60
   5  -4 -13    0.30    0.40
   5  -4 -13    0.51    0.40
  -5   4  13    0.30    0.59
  -5   4  13    0.74    0.43
   4  -4 -13    2.14    0.58
   4  -4 -13    1.48    0.43
  -4   4  13    1.11    0.44
  -4   4  13    0.86    0.57
   3  -4 -13    3.50    0.66
   3  -4 -13    4.59    0.58
  -3   4  13    5.09    0.59
  -3   4  13    4.95    0.75
   2  -4 -13    5.08    0.55
  -2  -4  13    4.19    0.48
  -2  -4  13    5.03    0.54
   2   4 -13    4.74    0.54
   2   4 -13    4.80    0.65
  -2   4  13    5.65    0.72
  -2   4  13    4.89    0.53
  -1  -4  13    4.84    0.52
   1  -4 -13    5.26    0.54
  -1  -4  13    6.15    0.60
   1   4 -13    4.99    0.57
  -1   4  13    5.91    0.58
  -1   4  13    6.17    0.71
   1   4 -13    5.70    0.72
   0  -4  13    0.53    0.34
   0  -4  13    0.80    0.36
   0  -4 -13    0.18    0.29
   0   4 -13    0.06    0.44
   0   4 -13    0.07    0.40
   0   4  13    0.31    0.28
   0   4  13   -0.11    0.37
  -1  -4 -13    3.61    0.45
   1  -4  13    2.28    0.47
   1  -4  13    3.62    0.51
  -1   4 -13    3.47    0.57
   1   4  13    2.68    0.39
   1   4  13    3.45    0.53
  -1   4 -13    1.72    0.55
   2  -4  13    0.26    0.40
   2  -4  13    0.84    0.40
  -2   4 -13    0.93    0.53
  -2   4 -13    0.39    0.44
   3  -4  13    0.05    0.44
   3  -4  13    0.61    0.41
  -3   4 -13    1.18    0.57
  -3   4 -13    0.53    0.56
  -4   4 -13    0.49    0.71
   4  -5 -13   -0.54    0.35
   4  -5 -13   -0.24    0.44
  -4   5  13   -0.01    0.54
  -4   5  13   -0.24    0.39
   3  -5 -13    2.13    0.55
   3  -5 -13    4.40    0.58
  -3   5  13    3.06    0.52
  -3   5  13    1.68    0.62
   2  -5 -13    3.78    0.62
   2  -5 -13    2.14    0.44
  -2   5  13    2.25    0.57
  -2   5  13    2.78    0.48
  -1  -5  13    0.37    0.33
  -1  -5  13    0.14    0.32
   1  -5 -13    0.19    0.32
  -1   5  13    0.65    0.33
   1   5 -13    0.52    0.38
   1   5 -13    0.65    0.48
  -1   5  13    0.74    0.47
   0  -5  13    0.13    0.35
   0  -5 -13   -0.09    0.28
   0  -5  13    0.47    0.37
   0   5 -13   -0.10    0.43
   0   5 -13   -0.02    0.40
   0   5  13   -0.23    0.27
   0   5  13    0.21    0.40
   1  -5  13    2.32    0.53
   1  -5  13    3.57    0.52
  -1   5 -13    1.76    0.56
  -1   5 -13    2.18    0.63
   2  -5  13   12.34    0.99
   2  -5  13   15.29    0.87
  -2   5 -13   10.99    1.02
  -2   5 -13   14.31    1.14
  -3   5 -13   -0.98    0.87
   2  -6 -13    3.44    0.64
   2  -6 -13    2.98    0.51
  -2   6  13    1.77    0.62
  -2   6  13    3.53    0.56
   1  -6 -13   -0.17    0.32
   1  -6 -13    1.04    0.49
  -1   6  13    0.58    0.35
  -1   6  13    0.31    0.45
   0  -6  13   -0.22    0.33
   1  -6  13    0.01    0.36
   1  -6  13   -0.33    0.40
  -1   6 -13   -0.52    0.45
  -1   6 -13   -0.28    0.45
  -5   0  14    0.49    0.46
   5   0 -14    0.66    0.33
  -5   0  14    0.35    0.31
   4   0 -14    2.28    0.41
  -4   0  14    1.68    0.37
  -4   0  14    2.79    0.54
   3   0 -14   18.81    0.88
   3   0 -14   18.22    1.14
  -3   0  14   17.92    1.00
  -3   0  14   17.64    0.86
   2   0 -14    0.07    0.26
  -2   0  14    0.35    0.29
   2   0 -14    0.01    0.42
  -2   0  14    0.28    0.33
  -1   0  14    0.28    0.37
  -1   0  14    0.02    0.26
   1   0 -14    0.05    0.39
   1   0 -14   -0.08    0.27
   0   0 -14    0.45    0.36
   0   0  14    0.89    0.35
   0   0 -14    0.49    0.46
   0   0  14    1.23    0.41
  -1   0 -14   17.51    1.08
  -1   0 -14   16.69    0.88
   1   0  14   17.79    0.90
   1   0  14   17.15    0.86
   2   0  14    2.94    0.50
   2   0  14    3.17    0.49
  -2   0 -14    3.11    0.52
  -2   0 -14    2.56    0.57
   3   0  14   -0.06    0.32
  -3   0 -14    0.35    0.40
  -3   0 -14    0.22    0.45
   3   0  14    0.09    0.33
   4   0  14    0.42    0.34
  -4   0 -14    0.76    0.50
  -4   0 -14   -0.72    0.37
   4   0  14    0.55    0.40
   6  -1 -14    1.62    0.49
   6  -1 -14    1.84    0.44
  -6   1  14    1.74    0.44
  -6   1  14    2.91    0.63
  -5  -1  14    1.58    0.73
   5  -1 -14    1.62    0.41
  -5   1  14    0.95    0.53
  -5   1  14    1.94    0.42
  -4  -1  14    5.23    0.50
  -4  -1  14    4.68    0.58
   4  -1 -14    5.19    0.56
  -4   1  14    4.78    0.54
   4   1 -14    4.83    0.50
  -4   1  14    4.30    0.68
   4   1 -14    6.05    0.75
  -3  -1  14    7.33    0.66
   3  -1 -14    7.84    0.63
  -3  -1  14    8.72    0.62
  -3   1  14    7.76    0.62
  -3   1  14    8.74    0.80
   3   1 -14   10.15    0.87
   3   1 -14    9.05    0.63
  -2  -1  14    0.18    0.37
   2  -1 -14    0.23    0.31
   2  -1 -14    0.65    0.47
  -2  -1  14    0.39    0.31
   2   1 -14    1.02    0.48
  -2   1  14    0.92    0.32
  -2   1  14    0.69    0.43
   2   1 -14    0.65    0.30
  -1  -1  14   11.01    0.71
   1  -1 -14   11.80    0.95
  -1  -1  14   10.95    0.77
   1  -1 -14   11.61    0.70
   1   1 -14    8.40    0.80
   1   1 -14   12.46    0.73
  -1   1  14   10.55    0.82
  -1   1  14   12.74    0.72
   0  -1 -14    2.44    0.41
   0  -1  14    3.00    0.49
   0  -1 -14    1.88    0.56
   0  -1  14    2.47    0.44
   0   1 -14    2.24    0.58
   0   1  14    3.03    0.52
   0   1  14    2.38    0.42
   0   1 -14    3.06    0.49
  -1  -1 -14    2.84    0.59
  -1  -1 -14    2.55    0.46
   1  -1  14    2.95    0.49
   1  -1  14    2.40    0.43
  -1   1 -14    2.08    0.47
   1   1  14    2.60    0.43
   1   1  14    3.09    0.50
  -1   1 -14    3.69    0.62
  -2  -1 -14    0.50    0.46
   2  -1  14    0.43    0.34
   2  -1  14    1.23    0.41
  -2  -1 -14    0.37    0.34
   2   1  14    0.65    0.34
  -2   1 -14    0.17    0.40
  -2   1 -14    0.28    0.48
   2   1  14    0.18    0.32
  -3  -1 -14    0.13    0.37
   3  -1  14    0.01    0.36
   3  -1  14   -0.59    0.29
  -3  -1 -14    0.29    0.45
  -3   1 -14   -0.02    0.46
   3   1  14    0.18    0.33
   3   1  14   -0.06    0.29
  -3   1 -14    0.72    0.41
   4  -1  14    0.45    0.42
   4  -1  14   -0.11    0.31
  -4   1 -14    0.70    0.44
  -4   1 -14    0.58    0.51
   5  -1  14    4.74    0.61
   5  -1  14    4.88    0.68
  -5   1 -14    3.51    0.73
  -5   1 -14    4.55    0.79
   6  -2 -14    0.78    0.40
   6  -2 -14    0.48    0.44
  -6   2  14    0.38    0.37
  -6   2  14   -0.29    0.52
   5  -2 -14    1.88    0.44
  -5   2  14    1.58    0.58
  -5   2  14    1.61    0.42
  -4  -2  14    0.93    0.31
   4  -2 -14    0.68    0.37
  -4  -2  14    1.74    0.43
   4   2 -14    0.91    0.34
  -4   2  14    1.37    0.38
   4   2 -14    1.06    0.50
  -4   2  14    0.99    0.52
  -3  -2  14   18.92    0.94
   3  -2 -14   18.92    0.87
  -3  -2  14   19.50    0.86
  -3   2  14   18.32    1.06
  -3   2  14   18.42    0.89
   3   2 -14   20.85    1.11
   3   2 -14   18.87    0.90
   2  -2 -14   -0.16    0.29
  -2  -2  14   -0.30    0.26
  -2  -2  14   -0.47    0.31
   2  -2 -14    0.36    0.49
  -2   2  14    1.00    0.45
  -2   2  14   -0.30    0.27
   2   2 -14   -0.29    0.31
   2   2 -14    0.16    0.42
  -1  -2  14    3.76    0.49
   1  -2 -14    3.23    0.62
  -1  -2  14    3.14    0.45
   1  -2 -14    3.64    0.45
  -1   2  14    2.70    0.51
  -1   2  14    4.16    0.47
   1   2 -14    3.21    0.60
   1   2 -14    3.17    0.45
   0  -2 -14    6.62    0.57
   0  -2  14    5.87    0.57
   0  -2  14    6.58    0.63
   0  -2 -14    6.08    0.73
   0   2 -14    7.79    0.69
   0   2  14    6.12    0.65
   0   2  14    6.26    0.56
   0   2 -14    6.67    0.74
   1  -2  14   16.86    0.92
  -1  -2 -14   16.25    1.05
   1  -2  14   17.01    0.85
  -1  -2 -14   17.46    0.85
  -1   2 -14   15.38    0.90
   1   2  14   16.77    0.83
   1   2  14   14.53    0.91
  -1   2 -14   16.44    1.08
  -2  -2 -14    2.91    0.60
   2  -2  14    3.66    0.52
  -2  -2 -14    1.69    0.40
   2  -2  14    2.41    0.51
   2   2  14    2.89    0.45
  -2   2 -14    2.58    0.53
  -2   2 -14    3.42    0.66
   2   2  14    3.30    0.46
  -3  -2 -14    0.58    0.35
   3  -2  14    0.78    0.40
   3  -2  14    0.49    0.41
   3   2  14    0.13    0.50
   3   2  14   -0.17    0.49
  -3   2 -14    0.13    0.50
  -3   2 -14    0.32    0.45
   4  -2  14    0.29    0.39
   4  -2  14    0.14    0.46
  -4   2 -14    0.27    0.50
  -4   2 -14    0.40    0.56
   6  -3 -14    0.32    0.44
  -6   3  14   -0.19    0.39
   5  -3 -14    0.61    0.40
   5  -3 -14    0.00    0.43
  -5   3  14   -0.47    0.33
  -5   3  14    0.83    0.56
   4  -3 -14    7.23    0.68
  -4   3  14    6.25    0.83
  -4   3  14    7.39    0.70
  -3  -3  14    3.59    0.47
  -3  -3  14    2.68    0.43
   3  -3 -14    2.31    0.45
  -3   3  14    2.71    0.48
   3   3 -14    2.20    0.55
  -3   3  14    3.53    0.66
   3   3 -14    2.47    0.42
  -2  -3  14    0.05    0.31
  -2  -3  14    0.43    0.31
   2  -3 -14   -0.05    0.31
  -2   3  14    0.68    0.48
   2   3 -14    0.20    0.32
   2   3 -14    0.80    0.46
  -2   3  14    0.04    0.30
  -1  -3  14    1.12    0.37
   1  -3 -14   -0.05    0.30
  -1  -3  14    0.62    0.35
  -1   3  14    0.02    0.41
  -1   3  14    0.86    0.34
   1   3 -14    0.19    0.44
   1   3 -14    0.93    0.41
   0  -3  14   14.93    0.85
   0  -3 -14   13.54    1.02
   0  -3  14   16.11    0.89
   0  -3 -14   15.73    0.83
   0   3  14   16.12    0.96
   0   3 -14   17.05    0.96
   0   3  14   16.34    0.81
   0   3 -14   16.07    1.06
  -1  -3 -14    0.07    0.44
   1  -3  14    0.03    0.32
  -1  -3 -14   -0.03    0.30
   1  -3  14    0.83    0.39
  -1   3 -14    0.09    0.37
   1   3  14    0.32    0.29
   1   3  14    0.71    0.38
  -1   3 -14    0.37    0.48
   2  -3  14   -0.03    0.38
  -2  -3 -14    0.34    0.32
  -2  -3 -14   -0.29    0.41
   2  -3  14    0.06    0.33
  -2   3 -14   -0.31    0.47
   2   3  14   -0.04    0.28
  -2   3 -14   -0.24    0.35
   2   3  14   -0.14    0.30
   3  -3  14    0.38    0.35
   3  -3  14    0.10    0.43
  -3   3 -14    0.53    0.55
  -3   3 -14    0.18    0.42
   4  -3  14    0.44    0.49
   4  -3  14    0.13    0.35
  -4   3 -14   -0.02    0.55
  -4   3 -14    0.20    0.61
   5  -4 -14    1.49    0.54
  -5   4  14    2.07    0.53
   4  -4 -14    0.02    0.40
   4  -4 -14   -0.06    0.46
  -4   4  14   -0.11    0.51
  -4   4  14   -0.18    0.37
   3  -4 -14    6.54    0.65
  -3   4  14    6.39    0.77
  -3   4  14    7.07    0.69
   2  -4 -14   -0.15    0.32
  -2  -4  14    0.32    0.32
  -2  -4  14    0.71    0.31
   2   4 -14    0.41    0.35
  -2   4  14    0.52    0.48
   2   4 -14    0.44    0.49
  -2   4  14    0.14    0.33
  -1  -4  14    0.68    0.36
   1  -4 -14    0.26    0.34
  -1  -4  14    0.10    0.31
   1   4 -14    0.25    0.43
  -1   4  14    0.31    0.47
  -1   4  14    0.19    0.31
   1   4 -14    0.39    0.38
   0  -4  14    0.92    0.36
   0  -4 -14    1.54    0.39
   0  -4  14    1.59    0.45
   0   4 -14    1.47    0.45
   0   4 -14    0.92    0.50
   0   4  14    1.98    0.53
   0   4  14    1.10    0.35
  -1  -4 -14    7.97    0.64
   1  -4  14    8.30    0.79
   1  -4  14    6.53    0.63
   1   4  14    7.90    0.62
  -1   4 -14    6.10    0.83
  -1   4 -14    5.32    0.66
   1   4  14    6.84    0.70
   2  -4  14    1.77    0.50
   2  -4  14    2.40    0.56
  -2   4 -14    2.17    0.59
  -2   4 -14    1.58    0.63
   3  -4  14    0.55    0.41
   3  -4  14   -0.07    0.46
  -3   4 -14    0.53    0.56
  -3   4 -14   -0.90    0.49
   4  -5 -14    1.06    0.53
  -4   5  14    1.27    0.50
   3  -5 -14    2.65    0.48
   3  -5 -14    1.83    0.57
  -3   5  14    2.29    0.60
  -3   5  14    1.81    0.49
   2  -5 -14   -0.05    0.36
   2  -5 -14    0.27    0.46
  -2   5  14    0.42    0.51
  -2   5  14    0.17    0.36
  -1  -5  14    1.22    0.39
   1  -5 -14    0.92    0.38
  -1  -5  14    1.04    0.43
  -1   5  14    1.82    0.41
   1   5 -14    1.47    0.45
   1   5 -14    1.07    0.54
  -1   5  14    2.09    0.57
   0  -5 -14    0.62    0.36
   0  -5  14    0.85    0.41
   0  -5  14    0.87    0.40
   0   5 -14    0.50    0.42
   0   5  14    1.23    0.49
   0   5  14    1.68    0.39
   0   5 -14    2.26    0.61
   1  -5  14    0.90    0.40
   1  -5  14    0.65    0.42
  -1   5 -14    0.26    0.50
  -1   5 -14    0.82    0.50
   2  -5  14   -0.02    0.43
   2  -5  14    0.12    0.38
  -2   5 -14    0.24    0.55
  -2   5 -14    0.09    0.48
   1  -6 -14    0.49    0.41
  -5   0  15    0.70    0.46
   5   0 -15    0.37    0.33
  -5   0  15    0.31    0.32
  -4   0  15    0.40    0.31
   4   0 -15    0.26    0.31
  -4   0  15    0.19    0.41
   3   0 -15   -0.58    0.29
  -3   0  15    0.57    0.43
   3   0 -15    0.51    0.50
  -3   0  15   -0.02    0.28
  -2   0  15    2.74    0.42
   2   0 -15    3.77    0.49
  -2   0  15    3.96    0.59
   2   0 -15    2.84    0.56
  -1   0  15   27.61    1.24
   1   0 -15   28.71    1.36
  -1   0  15   29.05    1.14
   1   0 -15   27.67    1.11
   0   0  15    0.25    0.34
   0   0 -15    0.17    0.34
   0   0  15    0.20    0.32
   0   0 -15    0.97    0.47
  -1   0 -15   -0.17    0.45
   1   0  15    0.62    0.35
   1   0  15    0.57    0.37
  -1   0 -15    0.85    0.39
   2   0  15    3.91    0.56
   2   0  15    3.74    0.52
  -2   0 -15    3.66    0.57
  -2   0 -15    3.57    0.62
  -3   0 -15    0.03    0.44
  -3   0 -15    0.04    0.41
   3   0  15   -0.03    0.35
   3   0  15    0.06    0.34
   4   0  15    1.40    0.41
  -4   0 -15    1.01    0.51
  -4   0 -15    2.03    0.60
   4   0  15    0.82    0.43
   6  -1 -15    0.80    0.45
   6  -1 -15    0.69    0.36
  -6   1  15    0.81    0.39
  -6   1  15    1.41    0.60
   5  -1 -15   10.81    0.77
  -5   1  15   11.18    1.01
  -5   1  15   10.58    0.76
  -4  -1  15    0.56    0.31
   4  -1 -15    0.65    0.36
  -4  -1  15    0.88    0.43
  -4   1  15    0.57    0.33
   4   1 -15    1.54    0.55
  -4   1  15    1.24    0.53
   4   1 -15    1.61    0.37
   3  -1 -15    6.01    0.59
   3  -1 -15    5.84    0.79
  -3  -1  15    6.33    0.67
  -3  -1  15    6.57    0.58
   3   1 -15    7.68    0.79
   3   1 -15    6.05    0.60
  -3   1  15    6.88    0.79
  -3   1  15    7.38    0.61
  -2  -1  15   30.67    1.26
  -2  -1  15   28.65    1.13
   2  -1 -15   27.92    1.41
   2  -1 -15   29.43    1.13
  -2   1  15   29.33    1.27
  -2   1  15   29.79    1.12
   2   1 -15   30.89    1.38
   2   1 -15   27.28    1.12
  -1  -1  15    0.76    0.41
  -1  -1  15    1.16    0.38
   1  -1 -15    1.14    0.49
   1  -1 -15    0.78    0.31
   1   1 -15    0.18    0.47
   1   1 -15    0.30    0.37
  -1   1  15    0.79    0.34
  -1   1  15    0.83    0.39
   0  -1  15    0.63    0.35
   0  -1 -15    0.24    0.32
   0  -1  15    0.20    0.31
   0  -1 -15   -0.02    0.41
   0   1  15    0.37    0.40
   0   1  15   -0.09    0.29
   0   1 -15    1.06    0.50
   0   1 -15    0.08    0.32
  -1  -1 -15    1.24    0.50
   1  -1  15    0.82    0.41
   1  -1  15    1.42    0.42
  -1  -1 -15    1.78    0.42
  -1   1 -15    2.13    0.58
  -1   1 -15    1.61    0.46
   1   1  15    1.44    0.39
   1   1  15    1.07    0.39
   2  -1  15   41.02    1.43
  -2  -1 -15   39.76    1.43
   2  -1  15   39.94    1.51
  -2  -1 -15   42.30    1.70
  -2   1 -15   40.09    1.55
   2   1  15   40.61    1.44
  -2   1 -15   39.23    1.66
   2   1  15   40.45    1.42
   3  -1  15    1.89    0.48
   3  -1  15    1.32    0.42
  -3  -1 -15    1.96    0.49
  -3  -1 -15    1.15    0.51
   3   1  15    1.22    0.40
   3   1  15    1.58    0.41
  -3   1 -15    1.81    0.59
  -3   1 -15    2.16    0.54
   4  -1  15    0.76    0.44
   4  -1  15    0.96    0.39
  -4   1 -15    1.09    0.49
  -4   1 -15    0.55    0.55
   6  -2 -15    5.64    0.66
   6  -2 -15    4.52    0.70
  -6   2  15    7.70    0.95
  -6   2  15    5.57    0.66
   5  -2 -15    0.56    0.39
  -5   2  15    1.78    0.42
  -5   2  15    0.34    0.54
  -4  -2  15    0.65    0.39
   4  -2 -15    0.34    0.35
  -4  -2  15    0.52    0.33
  -4   2  15    1.78    0.60
  -4   2  15    1.63    0.41
   4   2 -15    0.08    0.46
   4   2 -15    0.94    0.36
  -3  -2  15    3.56    0.47
  -3  -2  15    3.47    0.53
   3  -2 -15    4.11    0.55
   3   2 -15    3.55    0.63
  -3   2  15    2.49    0.60
   3   2 -15    4.33    0.53
  -3   2  15    3.31    0.46
   2  -2 -15    5.93    0.78
  -2  -2  15    6.04    0.61
   2  -2 -15    5.97    0.61
  -2  -2  15    6.00    0.58
  -2   2  15    5.95    0.57
   2   2 -15    4.95    0.54
   2   2 -15    6.68    0.75
  -2   2  15    5.99    0.76
   1  -2 -15   20.68    0.97
   1  -2 -15   20.80    1.23
  -1  -2  15   19.56    0.97
  -1  -2  15   21.49    0.98
  -1   2  15   21.63    0.95
   1   2 -15   18.96    1.16
  -1   2  15   20.52    1.10
   1   2 -15   19.33    0.95
   0  -2  15   -0.02    0.34
   0  -2 -15   -0.26    0.29
   0  -2  15    0.50    0.35
   0  -2 -15    0.34    0.48
   0   2  15    0.64    0.41
   0   2 -15    0.25    0.36
   0   2 -15    0.25    0.45
   0   2  15    0.03    0.31
   1  -2  15    1.78    0.41
  -1  -2 -15    1.17    0.51
   1  -2  15    1.48    0.45
  -1  -2 -15    1.86    0.41
   1   2  15    1.11    0.37
   1   2  15    1.13    0.41
  -1   2 -15    1.98    0.60
  -1   2 -15    1.66    0.47
   2  -2  15    3.30    0.49
  -2  -2 -15    2.77    0.61
  -2  -2 -15    3.39    0.50
   2  -2  15    2.74    0.52
   2   2  15    2.92    0.47
  -2   2 -15    3.26    0.54
   2   2  15    4.06    0.53
  -2   2 -15    4.66    0.75
   3  -2  15    1.33    0.49
   3  -2  15    2.02    0.47
  -3   2 -15    1.89    0.65
  -3   2 -15    1.05    0.50
   4  -2  15    0.25    0.35
   4  -2  15    1.06    0.50
  -4   2 -15    0.06    0.54
  -4   2 -15    0.35    0.45
   5  -3 -15    2.86    0.61
   5  -3 -15    3.23    0.56
  -5   3  15    3.77    0.76
  -5   3  15    3.64    0.58
   4  -3 -15    0.88    0.37
  -4   3  15    0.33    0.38
  -4   3  15   -0.15    0.45
   3  -3 -15    1.41    0.39
  -3  -3  15    1.18    0.38
  -3  -3  15    1.50    0.39
   3   3 -15    1.15    0.52
  -3   3  15    1.28    0.42
   3   3 -15    2.07    0.42
  -3   3  15    1.99    0.54
  -2  -3  15    2.80    0.47
  -2  -3  15    4.76    0.56
   2  -3 -15    3.79    0.53
  -2   3  15    3.72    0.52
   2   3 -15    3.35    0.52
  -2   3  15    3.93    0.68
   2   3 -15    2.78    0.60
  -1  -3  15    0.71    0.39
  -1  -3  15    0.24    0.34
   1  -3 -15    1.21    0.37
   1   3 -15    0.52    0.42
   1   3 -15    0.30    0.48
  -1   3  15    0.24    0.39
  -1   3  15   -0.29    0.28
   0  -3  15   -0.19    0.32
   0  -3 -15    0.25    0.31
   0  -3 -15    0.24    0.44
   0  -3  15    0.46    0.37
   0   3 -15    0.19    0.46
   0   3 -15    0.27    0.41
   0   3  15    0.07    0.29
   0   3  15    0.52    0.40
   1  -3  15    0.86    0.41
  -1  -3 -15   -0.14    0.44
  -1  -3 -15    0.48    0.34
   1  -3  15    0.56    0.37
  -1   3 -15    0.59    0.53
  -1   3 -15    0.75    0.43
   1   3  15    0.88    0.42
   1   3  15    0.36    0.32
   2  -3  15    7.16    0.68
  -2  -3 -15    6.88    0.68
   2  -3  15    7.67    0.79
   2   3  15   11.26    1.27
  -2   3 -15    6.46    0.73
  -2   3 -15   11.56    1.09
   3  -3  15    0.59    0.42
   3  -3  15    0.33    0.41
  -3   3 -15    0.84    0.51
  -3   3 -15    0.85    0.55
   4  -4 -15    0.82    0.49
   4  -4 -15    0.46    0.41
  -4   4  15    1.40    0.46
  -4   4  15    0.92    0.61
   3  -4 -15    3.22    0.54
  -3   4  15    2.39    0.66
  -3   4  15    2.44    0.47
  -2  -4  15    1.80    0.41
   2  -4 -15    2.17    0.46
  -2  -4  15    1.40    0.40
   2   4 -15    0.76    0.39
   2   4 -15    1.68    0.55
  -2   4  15    1.14    0.41
  -2   4  15    0.89    0.56
   1  -4 -15   10.59    0.75
  -1  -4  15   10.22    0.74
  -1  -4  15   10.81    0.83
  -1   4  15   10.32    0.94
   1   4 -15   10.21    0.82
  -1   4  15   11.08    0.75
   1   4 -15   10.27    0.95
   0  -4  15    0.38    0.36
   0  -4  15   -0.12    0.34
   0  -4 -15   -0.47    0.29
   0   4  15    0.27    0.31
   0   4  15    0.68    0.43
   0   4 -15    0.26    0.41
   0   4 -15   -0.47    0.45
   1  -4  15    0.29    0.39
   1  -4  15    0.26    0.36
  -1  -4 -15    0.15    0.33
  -1   4 -15    0.22    0.50
  -1   4 -15    0.83    0.48
   1   4  15    0.26    0.44
   1   4  15    0.42    0.40
   2  -4  15    2.56    0.58
   2  -4  15    2.37    0.51
  -2   4 -15    1.61    0.52
  -2   4 -15    1.17    0.63
  -3   4 -15    1.92    1.22
   3  -5 -15   -0.21    0.51
   3  -5 -15    1.03    0.51
  -3   5  15    0.26    0.54
  -3   5  15    0.64    0.43
   2  -5 -15    8.56    0.75
  -2   5  15    7.16    0.69
  -2   5  15    7.11    0.89
  -1  -5  15    0.06    0.39
  -1  -5  15   -0.30    0.32
   1  -5 -15    0.44    0.36
   1   5 -15   -0.07    0.35
  -1   5  15    0.05    0.33
  -1   5  15    0.71    0.49
   1   5 -15   -0.57    0.43
   0  -5 -15   -0.25    0.32
   0  -5  15   -0.30    0.33
   0  -5  15    0.14    0.38
   0   5 -15    0.01    0.41
   0   5 -15   -0.70    0.48
   1  -5  15    0.23    0.44
   1  -5  15    1.16    0.47
  -1   5 -15    0.62    0.52
  -1   5 -15    1.11    0.61
   5   0 -16    9.03    0.74
  -5   0  16    9.50    0.71
  -5   0  16    8.61    0.87
  -4   0  16    0.52    0.44
   4   0 -16    0.33    0.36
  -4   0  16    0.95    0.34
  -3   0  16    3.47    0.59
   3   0 -16    4.25    0.53
   3   0 -16    5.07    0.80
  -3   0  16    3.45    0.48
   2   0 -16    3.04    0.63
  -2   0  16    1.97    0.53
  -2   0  16    2.68    0.47
   2   0 -16    2.60    0.48
   1   0 -16    2.79    0.49
   1   0 -16    1.95    0.54
  -1   0  16    2.75    0.59
  -1   0  16    2.85    0.45
   0   0  16   -0.23    0.30
   0   0 -16   -0.26    0.35
   0   0 -16    0.49    0.50
   0   0  16    0.43    0.41
  -1   0 -16    2.86    0.52
   1   0  16    2.37    0.45
  -1   0 -16    2.43    0.61
   1   0  16    3.46    0.56
  -2   0 -16    0.84    0.41
   2   0  16   -0.66    0.33
   2   0  16    0.36    0.34
  -2   0 -16   -0.04    0.46
   3   0  16    1.71    0.46
   3   0  16    1.64    0.47
  -3   0 -16    1.61    0.61
  -3   0 -16    2.02    0.54
  -4   0 -16    1.48    0.60
  -4   0 -16    1.26    0.50
   4   0  16    2.54    0.54
   4   0  16    2.31    0.46
   6  -1 -16   -0.03    0.37
   6  -1 -16   -0.27    0.40
  -6   1  16   -0.09    0.33
  -6   1  16   -0.24    0.49
   5  -1 -16    0.81    0.40
  -5   1  16    0.10    0.33
  -5   1  16    1.18    0.57
  -4  -1  16    2.61    0.54
  -4  -1  16    2.09    0.40
   4  -1 -16    2.16    0.44
  -4   1  16    2.07    0.57
   4   1 -16    2.12    0.60
  -4   1  16    1.51    0.41
   4   1 -16    2.27    0.44
  -3  -1  16    2.48    0.53
  -3  -1  16    2.27    0.43
   3  -1 -16    1.36    0.60
   3  -1 -16    1.78    0.44
  -3   1  16    0.51    0.49
  -3   1  16    1.37    0.38
   3   1 -16    2.30    0.44
   3   1 -16    1.69    0.57
   2  -1 -16    0.75    0.54
   2  -1 -16    0.12    0.30
  -2  -1  16    0.16    0.34
  -2  -1  16    0.50    0.42
  -2   1  16   -0.01    0.29
   2   1 -16   -0.42    0.32
  -2   1  16    0.60    0.41
   2   1 -16   -0.27    0.42
  -1  -1  16    7.49    0.72
  -1  -1  16    6.68    0.62
   1  -1 -16    6.34    0.64
   1  -1 -16    7.34    0.87
  -1   1  16    8.52    0.71
   1   1 -16    7.20    0.69
  -1   1  16    6.62    0.73
   1   1 -16    5.49    0.73
   0  -1  16    4.34    0.58
   0  -1 -16    4.37    0.72
   0  -1  16    3.01    0.48
   0  -1 -16    3.30    0.52
   0   1  16    4.87    0.57
   0   1  16    4.30    0.62
   0   1 -16    3.82    0.69
   0   1 -16    3.91    0.58
   1  -1  16    0.56    0.37
  -1  -1 -16    0.11    0.47
  -1  -1 -16   -0.06    0.37
   1  -1  16    0.17    0.38
   1   1  16    0.79    0.41
  -1   1 -16    0.13    0.40
   1   1  16    0.25    0.33
  -1   1 -16    0.67    0.48
   2  -1  16    0.77    0.38
  -2  -1 -16    0.18    0.52
   2  -1  16    0.08    0.36
  -2  -1 -16    0.62    0.41
   2   1  16    0.59    0.38
  -2   1 -16    0.27    0.47
   2   1  16    0.14    0.37
  -2   1 -16    1.06    0.46
   3  -1  16    0.63    0.40
   3  -1  16   -0.16    0.40
  -3  -1 -16    0.15    0.43
  -3  -1 -16   -0.77    0.44
   3   1  16    0.69    0.39
  -3   1 -16    1.16    0.58
   3   1  16    0.39    0.38
  -3   1 -16    0.85    0.48
   4  -1  16    0.60    0.42
   4  -1  16    0.03    0.43
  -4   1 -16   -0.28    0.45
  -4   1 -16    0.48    0.57
   5  -2 -16    2.69    0.52
  -5   2  16    2.40    0.51
  -5   2  16    3.18    0.71
  -4  -2  16    1.66    0.48
   4  -2 -16    1.32    0.44
  -4  -2  16    1.26    0.41
  -4   2  16    1.78    0.63
  -4   2  16    1.75    0.46
   4   2 -16    2.12    0.64
   4   2 -16    1.88    0.48
  -3  -2  16    3.37    0.47
   3  -2 -16    2.79    0.45
  -3  -2  16    2.69    0.49
  -3   2  16    2.50    0.46
   3   2 -16    3.06    0.49
  -3   2  16    2.25    0.55
   3   2 -16    2.78    0.61
  -2  -2  16    1.24    0.38
   2  -2 -16    1.48    0.60
   2  -2 -16    1.27    0.39
  -2  -2  16    1.35    0.40
  -2   2  16    1.53    0.39
   2   2 -16    0.69    0.40
  -2   2  16    1.07    0.48
   2   2 -16    1.18    0.54
   1  -2 -16    3.82    0.52
  -1  -2  16    3.12    0.48
   1  -2 -16    2.71    0.63
  -1  -2  16    3.68    0.57
   1   2 -16    3.55    0.64
  -1   2  16    2.99    0.46
   1   2 -16    3.34    0.55
  -1   2  16    3.55    0.61
   0  -2  16    1.86    0.45
   0  -2 -16    1.24    0.41
   0  -2 -16    1.25    0.55
   0  -2  16    1.75    0.44
   0   2 -16    1.48    0.46
   0   2 -16    2.18    0.60
   0   2  16    2.01    0.53
   0   2  16    2.66    0.45
   1  -2  16    4.40    0.60
  -1  -2 -16    4.75    0.58
  -1  -2 -16    5.66    0.77
   1  -2  16    4.48    0.55
  -1   2 -16    4.25    0.60
   1   2  16    6.49    0.68
   1   2  16    5.71    0.59
  -1   2 -16    4.81    0.77
  -2  -2 -16   -0.30    0.33
   2  -2  16   -0.24    0.36
   2  -2  16   -0.45    0.32
  -2  -2 -16   -0.67    0.40
   2   2  16    0.62    0.38
  -2   2 -16   -0.22    0.40
   2   2  16   -0.19    0.31
  -2   2 -16    0.52    0.53
   3  -2  16    0.23    0.37
   3  -2  16    0.02    0.40
  -3   2 -16    0.22    0.45
  -3   2 -16    0.41    0.57
   5  -3 -16   -0.07    0.45
  -5   3  16    0.47    0.41
   4  -3 -16    0.76    0.37
  -4   3  16    0.97    0.55
  -4   3  16    1.60    0.44
   3  -3 -16    0.30    0.34
  -3  -3  16    1.30    0.40
  -3  -3  16    0.95    0.38
  -3   3  16    1.99    0.57
  -3   3  16    1.64    0.45
   3   3 -16    0.96    0.53
   3   3 -16    1.06    0.41
   2  -3 -16    0.31    0.38
  -2  -3  16    0.63    0.36
  -2  -3  16   -0.11    0.33
  -2   3  16   -0.06    0.31
   2   3 -16   -0.13    0.46
   2   3 -16   -0.09    0.35
  -2   3  16   -0.10    0.48
  -1  -3  16    6.08    0.64
  -1  -3  16    6.69    0.65
   1  -3 -16    7.04    0.69
   1   3 -16    6.06    0.69
  -1   3  16    7.11    0.64
  -1   3  16    6.99    0.82
   1   3 -16    6.67    0.81
   0  -3 -16    2.37    0.44
   0  -3 -16    3.11    0.67
   0  -3  16    3.43    0.57
   0  -3  16    3.48    0.54
   0   3  16    2.38    0.54
   0   3 -16    3.57    0.71
   0   3  16    2.97    0.48
   0   3 -16    3.40    0.62
   1  -3  16   -0.52    0.34
   1  -3  16    0.16    0.35
  -1  -3 -16   -0.10    0.33
  -1  -3 -16   -0.06    0.49
   1   3  16   -0.13    0.30
  -1   3 -16   -0.05    0.39
   1   3  16    0.59    0.44
  -1   3 -16    0.14    0.51
   2  -3  16    0.27    0.38
   2  -3  16   -0.23    0.38
  -2   3 -16    0.20    0.53
  -2   3 -16   -0.07    0.43
   3  -3  16    0.89    0.50
  -3   3 -16    1.00    0.63
   4  -4 -16    1.81    0.58
  -4   4  16    1.12    0.47
   3  -4 -16    4.16    0.60
  -3   4  16    4.92    0.62
  -3   4  16    4.67    0.81
  -2  -4  16    1.21    0.41
  -2  -4  16    0.03    0.33
   2  -4 -16    0.78    0.41
   2   4 -16    0.10    0.35
  -2   4  16    0.55    0.37
   2   4 -16    0.89    0.58
  -2   4  16    0.87    0.55
  -1  -4  16    2.01    0.49
  -1  -4  16    1.55    0.43
   1  -4 -16    1.49    0.42
   1   4 -16    0.13    0.53
  -1   4  16    2.06    0.59
  -1   4  16    2.77    0.48
   1   4 -16    1.91    0.50
   0  -4  16    1.82    0.49
   0  -4 -16    1.80    0.44
   0  -4  16    1.11    0.42
   0   4 -16    1.88    0.65
   0   4  16    0.88    0.49
   0   4  16    1.47    0.39
   0   4 -16    1.36    0.49
   1  -4  16    4.44    0.62
   1  -4  16    3.77    0.61
  -1   4 -16    2.97    0.65
  -1   4 -16    3.79    0.72
   2  -4  16    0.31    0.44
  -2   4 -16    0.90    0.62
   2  -5 -16    0.62    0.43
  -2   5  16    0.28    0.57
  -2   5  16    0.86    0.41
   1  -5 -16    2.08    0.48
  -1  -5  16    2.17    0.47
  -1  -5  16    2.42    0.75
  -1   5  16    2.66    0.64
  -1   5  16    1.78    0.45
   1   5 -16    2.05    0.60
   1   5 -16    2.40    0.81
   0  -5  16    0.60    0.41
   0  -5  16    0.88    0.42
   0   5 -16    1.69    0.63
   0   5 -16    0.35    0.42
  -5   0  17    1.80    0.58
   5   0 -17    1.49    0.45
  -5   0  17    1.27    0.42
  -4   0  17    1.08    0.37
  -4   0  17    1.09    0.49
   4   0 -17    1.35    0.42
  -3   0  17    0.37    0.46
   3   0 -17    0.31    0.54
   3   0 -17   -0.02    0.36
  -3   0  17    0.41    0.35
   2   0 -17   -0.48    0.46
   2   0 -17   -0.03    0.36
  -2   0  17    0.07    0.43
  -2   0  17    0.13    0.33
  -1   0  17    1.30    0.40
   1   0 -17    0.51    0.53
  -1   0  17    1.10    0.45
   1   0 -17    0.27    0.34
   0   0  17    0.34    0.37
   0   0 -17    0.44    0.48
   0   0 -17    0.12    0.36
   0   0  17    0.42    0.32
   1   0  17    3.79    0.59
   1   0  17    4.05    0.57
  -1   0 -17    3.70    0.71
  -1   0 -17    3.23    0.56
  -2   0 -17    0.98    0.48
   2   0  17    1.25    0.47
   2   0  17    1.03    0.41
  -2   0 -17    0.26    0.54
   3   0  17   -0.11    0.32
  -3   0 -17    0.69    0.44
  -3   0 -17    0.59    0.56
   3   0  17    0.63    0.41
   5  -1 -17    4.31    0.58
  -5   1  17    3.37    0.55
  -5   1  17    3.03    0.68
  -4  -1  17    0.97    0.35
   4  -1 -17    0.55    0.40
  -4  -1  17    0.46    0.46
  -4   1  17    0.69    0.38
   4   1 -17    1.03    0.56
   4   1 -17    0.68    0.39
  -4   1  17    0.93    0.55
  -3  -1  17    0.10    0.42
   3  -1 -17    0.92    0.40
  -3  -1  17    0.87    0.37
   3  -1 -17   -0.04    0.51
   3   1 -17    1.10    0.53
  -3   1  17    0.42    0.47
  -3   1  17    0.37    0.32
   3   1 -17    0.57    0.35
  -2  -1  17    0.06    0.35
  -2  -1  17    0.12    0.40
   2  -1 -17    0.67    0.37
   2  -1 -17    0.48    0.55
  -2   1  17   -0.47    0.28
  -2   1  17    0.31    0.46
   2   1 -17    0.04    0.36
   2   1 -17   -0.27    0.46
  -1  -1  17   10.45    0.85
  -1  -1  17   10.79    0.83
   1  -1 -17   11.00    0.81
   1  -1 -17   10.63    1.03
   1   1 -17    9.61    0.83
  -1   1  17   10.79    0.78
  -1   1  17   12.04    0.97
   1   1 -17   10.51    1.01
   0  -1 -17    0.03    0.33
   0  -1  17   -0.28    0.33
   0  -1 -17    0.47    0.51
   0  -1  17    0.27    0.40
   0   1  17    0.16    0.32
   0   1 -17   -0.14    0.52
   0   1 -17    0.00    0.39
   0   1  17    0.24    0.39
  -1  -1 -17    0.18    0.38
   1  -1  17    0.36    0.37
   1  -1  17    0.86    0.46
  -1  -1 -17    1.54    0.58
   1   1  17    0.78    0.38
  -1   1 -17    1.07    0.55
   1   1  17    1.34    0.43
  -1   1 -17    0.96    0.50
   2  -1  17    0.33    0.38
  -2  -1 -17   -0.29    0.37
  -2  -1 -17    0.04    0.51
   2  -1  17    0.63    0.43
  -2   1 -17    0.80    0.57
   2   1  17    0.71    0.41
  -2   1 -17   -0.18    0.39
   2   1  17    0.27    0.38
  -3  -1 -17    1.52    0.53
  -3  -1 -17    2.17    0.63
   3  -1  17    1.39    0.47
   3  -1  17    0.50    0.43
   3   1  17    0.63    0.41
  -3   1 -17    0.42    0.51
  -3   1 -17    1.18    0.61
   3   1  17    1.31    0.45
   5  -2 -17    0.58    0.38
  -5   2  17    1.24    0.57
  -5   2  17    0.71    0.42
   4  -2 -17   -0.11    0.36
  -4  -2  17    0.46    0.41
  -4   2  17    0.56    0.55
   4   2 -17    1.09    0.72
   4   2 -17    0.51    0.53
  -4   2  17   -0.55    0.32
  -3  -2  17    0.02    0.33
   3  -2 -17   -0.23    0.35
  -3  -2  17   -0.18    0.38
   3   2 -17    0.27    0.36
  -3   2  17   -0.13    0.50
   3   2 -17    0.59    0.53
  -3   2  17    0.57    0.36
  -2  -2  17    0.10    0.35
   2  -2 -17    0.54    0.55
   2  -2 -17    0.69    0.37
  -2  -2  17    0.58    0.40
   2   2 -17    0.27    0.52
  -2   2  17    0.30    0.46
  -2   2  17    0.99    0.37
   2   2 -17   -0.11    0.36
  -1  -2  17    2.15    0.46
   1  -2 -17    2.23    0.65
   1  -2 -17    2.78    0.45
  -1  -2  17    4.37    0.59
  -1   2  17    3.92    0.63
   1   2 -17    2.14    0.63
  -1   2  17    3.01    0.48
   1   2 -17    2.96    0.55
   0  -2 -17   -0.01    0.35
   0  -2  17   -0.01    0.39
   0  -2 -17    0.16    0.48
   0  -2  17    0.20    0.35
   0   2 -17    0.14    0.49
   0   2 -17   -0.02    0.39
   0   2  17    0.44    0.37
   0   2  17    0.29    0.45
  -1  -2 -17    0.69    0.54
  -1  -2 -17    1.27    0.45
   1  -2  17    1.62    0.47
   1  -2  17    1.47    0.47
   1   2  17    1.41    0.41
   1   2  17    1.21    0.49
  -1   2 -17    1.90    0.53
  -1   2 -17    0.62    0.60
  -2  -2 -17    2.67    0.65
   2  -2  17    1.96    0.50
  -2  -2 -17    2.80    0.53
   2  -2  17    2.48    0.58
   2   2  17    2.66    0.49
  -2   2 -17    4.38    0.83
   2   2  17    2.80    0.52
  -2   2 -17    3.54    0.65
   3  -2  17    0.65    0.45
  -3   2 -17    1.52    0.68
   4  -3 -17    1.34    0.49
  -4   3  17    1.33    0.67
  -4   3  17    1.95    0.46
  -3  -3  17    0.30    0.39
  -3  -3  17    1.03    0.41
   3  -3 -17    0.20    0.40
  -3   3  17    0.75    0.39
  -3   3  17    0.78    0.56
   3   3 -17    0.48    0.40
   3   3 -17    0.33    0.51
   2  -3 -17    2.75    0.49
  -2  -3  17    3.09    0.54
  -2  -3  17    2.63    0.51
  -2   3  17    3.56    0.66
   2   3 -17    3.36    0.68
   2   3 -17    2.92    0.55
  -2   3  17    2.45    0.49
  -1  -3  17    4.60    0.61
   1  -3 -17    5.39    0.65
  -1  -3  17    4.34    0.58
   1   3 -17    5.51    0.71
  -1   3  17    5.13    0.61
  -1   3  17    6.48    0.81
   1   3 -17    6.36    0.87
   0  -3 -17    0.38    0.39
   0  -3 -17   -0.96    0.48
   0  -3  17    0.08    0.37
   0  -3  17    0.35    0.37
   0   3 -17    1.03    0.48
   0   3  17    0.39    0.47
   0   3  17   -0.02    0.33
   0   3 -17    0.34    0.52
  -1  -3 -17    2.19    0.50
   1  -3  17    2.05    0.50
   1  -3  17    0.48    0.43
  -1  -3 -17    2.17    0.62
  -1   3 -17    2.18    0.67
  -1   3 -17    0.87    0.44
   1   3  17    1.29    0.50
   1   3  17    1.83    0.43
   2  -3  17    4.09    0.59
   2  -3  17    2.74    0.57
  -2   3 -17    4.17    0.78
  -2   3 -17    3.41    0.65
  -3   4  17    0.33    0.40
  -3   4  17    0.05    0.63
   2  -4 -17    2.50    0.50
  -2  -4  17    2.39    0.51
  -2  -4  17    3.16    0.59
  -2   4  17    2.26    0.62
   2   4 -17    2.35    0.66
   2   4 -17    3.05    0.55
  -2   4  17    3.95    0.60
   1  -4 -17    2.91    0.54
  -1  -4  17    3.34    0.57
  -1  -4  17    3.29    0.58
   1   4 -17    2.41    0.67
  -1   4  17    2.20    0.49
   1   4 -17    2.83    0.57
  -1   4  17    1.58    0.61
   0  -4 -17    0.14    0.37
   0  -4  17   -0.63    0.35
   0  -4  17    0.38    0.41
   0   4  17    0.34    0.43
   0   4  17    0.29    0.35
   0   4 -17    0.61    0.56
   0   4 -17   -0.04    0.43
   1  -4  17    0.83    0.45
   1  -4  17    0.77    0.43
  -1   4 -17    0.91    0.61
  -1   4 -17    0.70    0.47
  -5   0  18   -0.49    0.46
   5   0 -18    0.08    0.39
  -5   0  18   -0.06    0.33
  -4   0  18    2.76    0.50
   4   0 -18    2.82    0.54
  -4   0  18    3.03    0.64
   3   0 -18    2.90    0.52
  -3   0  18    4.46    0.68
   3   0 -18    5.17    0.85
  -3   0  18    5.16    0.60
  -2   0  18    1.20    0.53
   2   0 -18    0.55    0.55
  -2   0  18    0.48    0.37
   2   0 -18   -0.36    0.34
   1   0 -18   -0.28    0.36
  -1   0  18    0.51    0.45
   1   0 -18   -0.14    0.51
  -1   0  18    0.37    0.35
   0   0  18    0.14    0.44
   0   0  18    0.04    0.34
   0   0 -18    0.00    0.52
   0   0 -18    0.18    0.43
  -1   0 -18    1.30    0.47
   1   0  18    1.91    0.51
   1   0  18    2.78    0.54
  -1   0 -18    3.35    0.73
  -2   0 -18    0.60    0.59
   2   0  18    0.61    0.41
   2   0  18    1.85    0.50
  -2   0 -18    1.38    0.53
  -3   0 -18    5.55    0.88
   3   0  18    6.65    0.74
   3   0  18    5.54    0.68
  -3   0 -18    5.55    0.78
   5  -1 -18   -0.26    0.38
  -5   1  18    0.11    0.53
  -5   1  18    0.66    0.37
  -4  -1  18    2.48    0.46
   4  -1 -18    2.36    0.54
  -4  -1  18    1.85    0.55
  -4   1  18    1.59    0.60
  -4   1  18    1.75    0.45
   4   1 -18    1.90    0.45
   4   1 -18    2.16    0.65
   3  -1 -18    0.14    0.57
  -3  -1  18    0.22    0.37
  -3  -1  18    0.63    0.49
   3  -1 -18    0.01    0.35
   3   1 -18    0.29    0.55
  -3   1  18    0.42    0.50
  -3   1  18    0.64    0.36
   3   1 -18    0.53    0.40
   2  -1 -18    0.13    0.32
  -2  -1  18    0.48    0.37
  -2  -1  18    0.98    0.48
   2  -1 -18    0.86    0.62
   2   1 -18    0.14    0.52
   2   1 -18   -0.15    0.38
  -2   1  18    0.80    0.39
  -2   1  18    0.10    0.42
   1  -1 -18    0.81    0.42
  -1  -1  18    0.80    0.46
  -1  -1  18    0.49    0.36
   1  -1 -18    1.38    0.59
   1   1 -18    0.39    0.54
   1   1 -18    0.55    0.44
  -1   1  18   -0.21    0.46
  -1   1  18    0.88    0.41
   0  -1  18   16.47    0.99
   0  -1 -18   13.31    1.14
   0  -1  18   16.70    1.02
   0  -1 -18   16.98    1.02
   0   1  18   16.00    0.93
   0   1  18   16.07    1.04
   0   1 -18   18.26    1.04
   0   1 -18   16.25    1.23
   1  -1  18    1.03    0.49
   1  -1  18    0.70    0.42
  -1  -1 -18    1.55    0.49
  -1  -1 -18    0.44    0.54
  -1   1 -18    1.09    0.61
   1   1  18    0.93    0.47
  -1   1 -18    1.56    0.53
   1   1  18    1.62    0.45
  -2  -1 -18   -0.11    0.55
  -2  -1 -18    0.26    0.42
   2  -1  18   -0.19    0.38
   2  -1  18    0.71    0.40
  -2   1 -18   -0.13    0.55
   2   1  18   -0.02    0.37
   2   1  18    0.03    0.38
  -2   1 -18   -0.59    0.35
  -3  -1 -18    1.26    0.54
   3  -1  18    0.52    0.45
  -3  -1 -18    0.64    0.56
   3   1  18    0.82    0.43
  -3   1 -18    0.23    0.57
   3   1  18    0.58    0.44
   4  -2 -18    2.39    0.53
  -4  -2  18    2.22    0.59
  -4   2  18    1.89    0.50
  -4   2  18    2.70    0.72
  -3  -2  18    5.04    0.65
  -3  -2  18    4.85    0.60
   3  -2 -18    4.74    0.63
   3   2 -18    5.50    0.81
  -3   2  18    4.42    0.76
  -3   2  18    4.40    0.60
   3   2 -18    2.82    0.56
  -2  -2  18   -0.23    0.35
   2  -2 -18    0.72    0.60
   2  -2 -18   -0.03    0.32
  -2  -2  18    0.18    0.35
   2   2 -18   -0.39    0.37
  -2   2  18    0.07    0.34
   2   2 -18    0.13    0.50
  -2   2  18    0.14    0.43
   1  -2 -18    0.75    0.42
  -1  -2  18    0.61    0.39
   1  -2 -18    0.21    0.56
  -1  -2  18    0.75    0.46
   1   2 -18    0.13    0.41
  -1   2  18   -0.14    0.47
  -1   2  18    0.50    0.38
   1   2 -18    0.41    0.55
   0  -2 -18    0.68    0.40
   0  -2 -18    0.21    0.53
   0  -2  18    1.44    0.46
   0  -2  18    1.12    0.40
   0   2 -18    1.21    0.50
   0   2  18    1.36    0.54
   0   2  18    1.39    0.43
   0   2 -18    1.14    0.60
   1  -2  18    0.40    0.40
   1  -2  18    0.65    0.41
  -1  -2 -18    1.13    0.60
  -1  -2 -18    0.90    0.46
   1   2  18    0.90    0.41
   1   2  18    0.56    0.45
  -1   2 -18    1.08    0.61
  -1   2 -18    0.70    0.44
   2  -2  18    0.67    0.43
  -2  -2 -18    0.03    0.40
   2  -2  18    0.67    0.43
  -2  -2 -18   -0.33    0.48
  -2   2 -18    0.12    0.41
   2   2  18    0.53    0.42
  -2   2 -18   -0.14    0.59
   2   2  18    1.05    0.42
  -4   3  18    3.89    0.70
  -3  -3  18    0.95    0.43
  -3  -3  18    0.60    0.53
   3  -3 -18    0.36    0.43
  -3   3  18    1.14    0.57
  -3   3  18    0.18    0.39
   3   3 -18    0.66    0.60
   3   3 -18    0.60    0.44
  -2  -3  18    0.61    0.41
  -2  -3  18    1.13    0.43
   2  -3 -18    0.57    0.45
   2   3 -18   -0.09    0.39
   2   3 -18    0.67    0.55
  -2   3  18   -0.88    0.46
  -2   3  18    0.95    0.41
  -1  -3  18    0.18    0.39
   1  -3 -18    1.01    0.44
  -1  -3  18    0.84    0.42
   1   3 -18    0.82    0.61
   1   3 -18    0.27    0.42
  -1   3  18    0.68    0.53
  -1   3  18    0.61    0.39
   0  -3 -18    1.62    0.61
   0  -3 -18    2.20    0.50
   0  -3  18    2.34    0.53
   0  -3  18    0.99    0.45
   0   3 -18    1.33    0.51
   0   3  18    0.60    0.50
   0   3 -18    2.37    0.66
   0   3  18    1.31    0.43
   1  -3  18    0.33    0.43
   1  -3  18    1.10    0.48
  -1  -3 -18    1.06    0.59
  -1  -3 -18   -0.26    0.38
   1   3  18    0.22    0.36
  -1   3 -18    1.27    0.64
   1   3  18    0.72    0.47
  -1   3 -18    0.43    0.45
  -2  -4  18    0.66    0.40
   2   4 -18    0.38    0.70
  -2   4  18    0.17    0.39
   2   4 -18    0.70    0.53
  -1  -4  18   -0.08    0.37
   1  -4 -18    1.13    0.48
  -1  -4  18    0.26    0.41
   1   4 -18    0.51    0.45
  -1   4  18    0.49    0.55
  -1   4  18    0.64    0.39
   1   4 -18    0.19    0.56
   0  -4 -18    1.63    0.47
   0  -4  18    2.26    0.60
   0  -4  18    2.46    0.57
   0   4 -18    1.70    0.54
   0   4  18    2.47    0.49
   0   4 -18    1.45    0.68
   0   4  18    2.28    0.62
   4   0 -19    0.96    0.42
  -4   0  19    0.14    0.36
  -4   0  19    1.29    0.56
   3   0 -19    0.64    0.60
  -3   0  19    0.47    0.45
  -3   0  19    0.88    0.39
   3   0 -19   -0.46    0.33
  -2   0  19    0.22    0.39
  -2   0  19    0.28    0.45
   2   0 -19    0.55    0.40
   2   0 -19    0.63    0.58
   1   0 -19    0.28    0.58
  -1   0  19    0.80    0.41
  -1   0  19    1.09    0.53
   1   0 -19    0.92    0.49
   0   0 -19    0.13    0.43
   0   0 -19    0.12    0.57
   0   0  19    0.67    0.40
   0   0  19    0.30    0.45
   1   0  19    2.19    0.54
   1   0  19    2.48    0.55
  -1   0 -19    2.44    0.55
  -1   0 -19    3.68    0.78
   2   0  19    2.14    0.52
  -2   0 -19    1.03    0.65
  -2   0 -19    0.97    0.48
   2   0  19    1.55    0.49
   4  -1 -19    1.23    0.47
  -4  -1  19   -0.11    0.46
  -4  -1  19    0.98    0.40
  -4   1  19    0.07    0.54
  -4   1  19    0.72    0.40
   4   1 -19    0.53    0.41
   4   1 -19    0.46    0.59
  -3  -1  19    1.98    0.58
   3  -1 -19    1.59    0.50
  -3  -1  19    1.66    0.45
   3  -1 -19    3.20    0.79
   3   1 -19    1.24    0.50
   3   1 -19    2.23    0.69
  -3   1  19    2.27    0.64
  -3   1  19    2.94    0.52
  -2  -1  19   -0.25    0.34
  -2  -1  19    0.78    0.48
   2  -1 -19    0.29    0.60
   2  -1 -19   -0.23    0.39
  -2   1  19    1.09    0.56
   2   1 -19    0.46    0.43
   2   1 -19    0.20    0.55
  -2   1  19   -0.59    0.30
  -1  -1  19    0.27    0.41
   1  -1 -19    0.30    0.52
  -1  -1  19    0.95    0.42
   1  -1 -19    0.50    0.43
   1   1 -19    0.30    0.57
  -1   1  19    1.15    0.53
   1   1 -19    0.93    0.44
  -1   1  19    0.00    0.35
   0  -1  19    0.53    0.45
   0  -1 -19    0.29    0.44
   0  -1 -19   -0.17    0.49
   0  -1  19   -0.04    0.35
   0   1 -19   -0.09    0.38
   0   1  19   -0.30    0.43
   0   1  19    0.13    0.35
   0   1 -19    0.87    0.57
   1  -1  19    0.52    0.45
   1  -1  19    0.03    0.37
  -1  -1 -19    0.06    0.41
  -1  -1 -19    0.66    0.59
  -1   1 -19    0.01    0.43
   1   1  19    0.22    0.39
   1   1  19    0.22    0.43
  -1   1 -19    0.81    0.63
   2  -1  19    3.14    0.57
  -2  -1 -19    2.72    0.76
  -2  -1 -19    2.55    0.56
   2   1  19    4.90    0.66
   2   1  19    3.71    0.60
  -2   1 -19    2.03    0.72
  -4  -2  19   -0.31    0.55
  -4   2  19    0.06    0.38
   3  -2 -19    1.00    0.46
  -3  -2  19    1.08    0.43
  -3  -2  19    0.68    0.48
   3   2 -19    1.35    0.49
  -3   2  19    0.76    0.59
  -3   2  19    0.90    0.39
   3   2 -19    1.26    0.60
   2  -2 -19    0.77    0.63
  -2  -2  19    0.55    0.40
   2  -2 -19    0.62    0.42
  -2  -2  19    0.57    0.42
   2   2 -19    0.82    0.42
  -2   2  19    0.39    0.52
  -2   2  19    1.07    0.42
   2   2 -19    0.82    0.60
  -1  -2  19   -0.52    0.33
  -1  -2  19   -0.16    0.37
   1  -2 -19    0.25    0.59
   1  -2 -19   -0.04    0.39
   1   2 -19    0.64    0.57
  -1   2  19    0.84    0.52
  -1   2  19    0.00    0.35
   1   2 -19    0.43    0.41
   0  -2  19    0.48    0.43
   0  -2  19    0.76    0.43
   0  -2 -19    0.19    0.42
   0  -2 -19    1.76    0.67
   0   2 -19    0.47    0.63
   0   2  19    0.91    0.41
   0   2 -19    0.09    0.42
   0   2  19    0.05    0.48
  -1  -2 -19    0.31    0.44
   1  -2  19    0.00    0.41
   1  -2  19    0.74    0.43
  -1  -2 -19    1.47    0.64
  -1   2 -19    0.08    0.59
  -1   2 -19    0.69    0.47
   1   2  19    0.85    0.42
   1   2  19    0.93    0.50
  -3  -3  19   -0.21    0.38
  -3   3  19    0.22    0.49
  -2  -3  19    0.74    0.43
  -2  -3  19    0.03    0.41
   2  -3 -19    0.40    0.76
  -2   3  19   -0.18    0.56
   2   3 -19    1.27    0.53
   2   3 -19   -0.17    0.56
  -2   3  19    1.16    0.44
  -1  -3  19    1.78    0.52
   1  -3 -19    1.64    0.49
  -1  -3  19    2.10    0.53
  -1   3  19    3.32    0.55
   1   3 -19    1.77    0.57
  -1   3  19    2.31    0.61
   1   3 -19    1.95    0.70
   0  -3  19   -0.33    0.44
   0  -3  19    0.01    0.41
   0  -3 -19    1.30    0.66
   0  -3 -19    0.25    0.38
   0   3  19    0.51    0.39
   0   3 -19    0.94    0.63
   0   3  19   -0.60    0.44
   0   3 -19    0.10    0.45
  -4   0  20    0.85    0.43
  -3   0  20    0.12    0.38
  -3   0  20   -0.45    0.42
   3   0 -20    0.36    0.38
   3   0 -20    0.06    0.58
  -2   0  20    0.36    0.54
   2   0 -20    0.49    0.58
   2   0 -20    0.18    0.44
  -2   0  20   -0.49    0.33
   1   0 -20    0.98    0.52
   1   0 -20    0.71    0.64
  -1   0  20    1.30    0.57
  -1   0  20    1.23    0.45
   0   0  20    1.30    0.46
   0   0 -20    2.61    0.71
   0   0  20    2.52    0.59
   0   0 -20    2.19    0.56
   1   0  20    2.47    0.85
  -1   0 -20    3.20    0.76
   1   0  20    4.01    0.62
  -3  -1  20    2.39    0.53
   3  -1 -20    2.88    0.78
   3  -1 -20    3.31    0.63
  -3  -1  20    2.39    0.58
   3   1 -20    3.03    0.77
  -3   1  20    2.33    0.50
  -3   1  20    1.85    0.67
   3   1 -20    1.90    0.51
   2  -1 -20    0.23    0.61
  -2  -1  20   -0.01    0.45
   2  -1 -20   -0.32    0.39
  -2  -1  20   -0.11    0.36
   2   1 -20    0.67    0.49
   2   1 -20    0.66    0.58
  -2   1  20   -0.63    0.33
  -2   1  20   -0.33    0.51
   1  -1 -20    0.54    0.61
   1  -1 -20    0.76    0.44
  -1  -1  20    0.49    0.52
  -1  -1  20    0.57    0.42
   1   1 -20    1.19    0.53
   1   1 -20    0.87    0.61
  -1   1  20    0.96    0.43
  -1   1  20    0.99    0.52
   0  -1 -20    1.14    0.53
   0  -1  20    0.80    0.44
   0  -1 -20    0.96    0.63
   0  -1  20    0.79    0.48
   0   1 -20    0.82    0.65
   0   1  20    0.87    0.53
   0   1  20    0.21    0.39
   0   1 -20    0.97    0.49
   1  -1  20    0.79    0.45
  -1  -1 -20    2.36    0.62
  -1  -1 -20    0.45    0.62
   1   1  20    0.90    0.45
  -1   1 -20    1.34    0.71
   1   1  20    0.40    0.47
  -3  -2  20    2.00    0.51
  -3  -2  20    0.84    0.49
   3   2 -20    1.11    0.49
  -3   2  20    1.63    0.79
   3   2 -20    1.65    0.66
  -2  -2  20    0.91    0.50
  -2  -2  20    0.36    0.44
   2  -2 -20    0.01    0.59
   2   2 -20    0.42    0.59
  -2   2  20    0.35    0.38
   2   2 -20   -0.24    0.44
  -1  -2  20    0.70    0.42
  -1  -2  20    1.67    0.52
   1  -2 -20   -0.01    0.38
   1  -2 -20    0.55    0.63
  -1   2  20   -0.35    0.49
  -1   2  20    0.64    0.42
   1   2 -20    0.06    0.44
   1   2 -20    0.12    0.59
   0  -2  20   -0.44    0.36
   0  -2 -20   -0.21    0.60
   0  -2 -20    1.22    0.51
   0   2  20    0.72    0.43
   0   2  20    0.67    0.49
   0   2 -20    0.80    0.63
  -2   0  21   -0.25    0.37
   2   0 -21    0.35    0.64
   1   0 -21    2.94    0.79
  -1   0  21    3.62    0.60
   0   0  21   -0.41    0.46
   0   0 -21   -0.42    0.78
  -2  -1  21    0.28    0.41
   2   1 -21    0.12    0.57
  -2   1  21   -1.28    0.49
   1  -1 -21    0.01    0.59
  -1  -1  21    0.15    0.39
   1   1 -21    0.71    0.66
  -1   1  21    0.22    0.45
   0   0   0    0.00    0.00
;
_shelx_hkl_checksum              64361
_olex2_date_sample_data_collection 2018-11-10
_olex2_date_sample_submission    2018-11-10
_olex2_exptl_crystal_mounting_method 'MiTeGen loop'
_olex2_submission_original_sample_id 'Vitamin C - Fiber'
_olex2_submission_special_instructions 'No special instructions were received'
loop_
_space_group_symop_operation_xyz
'x, y, z'
'-x, y+1/2, -z'
loop_
_atom_site_label
_atom_site_type_symbol
_atom_site_fract_x
_atom_site_fract_y
_atom_site_fract_z
_atom_site_U_iso_or_equiv
_atom_site_adp_type
_atom_site_occupancy
_atom_site_site_symmetry_order
_atom_site_calc_flag
_atom_site_refinement_flags_posn
O1 O 0.9177(5) 0.3008(6) 0.81729(17) 0.0376(10) Uani 1 1 d .
H1 H 0.878321 0.292350 0.860308 0.056 Uiso 1 1 calc GR
O2 O 0.8393(5) 0.6999(5) 0.66744(17) 0.0297(8) Uani 1 1 d .
H2 H 0.900262 0.729724 0.630473 0.045 Uiso 1 1 calc GR
O3 O 1.1965(4) 0.3441(7) 0.58874(14) 0.0291(7) Uani 1 1 d .
H3 H 1.244967 0.326800 0.547841 0.044 Uiso 1 1 calc GR
O4 O 0.8854(4) 0.3480(6) 0.43092(13) 0.0262(7) Uani 1 1 d .
H4 H 0.778367 0.316788 0.400185 0.039 Uiso 1 1 calc GR
O5 O 0.4650(4) 0.3387(7) 0.48544(14) 0.0281(6) Uani 1 1 d .
O6 O 0.6531(4) 0.3226(6) 0.60753(14) 0.0261(7) Uani 1 1 d .
C1 C 0.8168(7) 0.4752(7) 0.7746(2) 0.0253(10) Uani 1 1 d .
H1A H 0.834710 0.600884 0.806968 0.030 Uiso 1 1 calc R
H1B H 0.666911 0.448110 0.759774 0.030 Uiso 1 1 calc R
C2 C 0.9179(6) 0.5052(7) 0.7012(2) 0.0218(10) Uani 1 1 d .
H2A H 1.070894 0.517671 0.717411 0.026 Uiso 1 1 calc R
C3 C 0.8739(6) 0.3232(9) 0.6426(2) 0.0226(9) Uani 1 1 d .
H3A H 0.909060 0.190036 0.670283 0.027 Uiso 1 1 calc R
C4 C 0.9869(5) 0.3366(9) 0.57296(19) 0.0214(8) Uani 1 1 d .
C5 C 0.8457(5) 0.3380(8) 0.5063(2) 0.0196(8) Uani 1 1 d .
C6 C 0.6368(6) 0.3331(9) 0.52784(19) 0.0208(8) Uani 1 1 d .
O7 O 1.4281(5) 0.8014(6) 0.68521(15) 0.0291(9) Uani 1 1 d .
H7 H 1.540275 0.760719 0.673610 0.044 Uiso 1 1 calc GR
O8 O 1.3308(5) 1.1955(5) 0.82697(17) 0.0272(7) Uani 1 1 d .
H8 H 1.212779 1.230916 0.834297 0.041 Uiso 1 1 calc GR
O9 O 1.0578(4) 0.8294(8) 0.90733(15) 0.0348(7) Uani 1 1 d .
H9 H 1.010351 0.816363 0.948646 0.052 Uiso 1 1 calc GR
O10 O 1.3651(4) 0.8470(7) 1.06484(14) 0.0284(7) Uani 1 1 d .
H10 H 1.463594 0.795113 1.095145 0.043 Uiso 1 1 calc GR
O11 O 1.7879(4) 0.8467(6) 1.01107(14) 0.0290(7) Uani 1 1 d .
O12 O 1.6020(4) 0.8403(6) 0.88872(13) 0.0228(6) Uani 1 1 d .
C7 C 1.4619(7) 0.9940(7) 0.7292(2) 0.0263(11) Uani 1 1 d .
H7A H 1.427632 1.113367 0.694293 0.032 Uiso 1 1 calc R
H7B H 1.608581 1.005248 0.753682 0.032 Uiso 1 1 calc R
C8 C 1.3204(6) 0.9917(7) 0.7920(2) 0.0222(10) Uani 1 1 d .
H8A H 1.174972 0.965933 0.766230 0.027 Uiso 1 1 calc R
C9 C 1.3821(6) 0.8227(9) 0.85369(19) 0.0210(9) Uani 1 1 d .
H9A H 1.359688 0.685001 0.828089 0.025 Uiso 1 1 calc R
C10 C 1.2669(6) 0.8276(9) 0.9227(2) 0.0222(9) Uani 1 1 d .
C11 C 1.4068(5) 0.8374(9) 0.98944(19) 0.0202(8) Uani 1 1 d .
C12 C 1.6167(6) 0.8417(8) 0.96883(19) 0.0212(9) Uani 1 1 d .
loop_
_atom_site_aniso_label
_atom_site_aniso_U_11
_atom_site_aniso_U_22
_atom_site_aniso_U_33
_atom_site_aniso_U_23
_atom_site_aniso_U_13
_atom_site_aniso_U_12
O1 0.0358(19) 0.057(3) 0.0223(16) 0.0125(17) 0.0105(13) 0.013(2)
O2 0.0295(19) 0.034(2) 0.0289(16) 0.0083(16) 0.0141(13) 0.0054(17)
O3 0.0140(15) 0.052(2) 0.0221(14) -0.002(2) 0.0051(10) 0.003(2)
O4 0.0203(15) 0.0416(19) 0.0172(13) -0.0017(18) 0.0046(10) 0.002(2)
O5 0.0152(15) 0.0470(18) 0.0217(13) -0.0040(19) 0.0017(11) -0.0012(19)
O6 0.0162(14) 0.046(2) 0.0170(13) 0.0001(17) 0.0059(10) -0.0039(18)
C1 0.023(3) 0.033(3) 0.021(2) -0.001(2) 0.0069(18) 0.003(2)
C2 0.015(2) 0.032(3) 0.019(2) -0.0009(19) 0.0054(17) 0.000(2)
C3 0.015(2) 0.034(3) 0.0194(18) -0.002(2) 0.0039(15) 0.003(2)
C4 0.016(2) 0.027(2) 0.0215(19) -0.003(3) 0.0046(15) 0.004(3)
C5 0.020(2) 0.021(2) 0.0203(18) -0.004(2) 0.0079(15) 0.001(3)
C6 0.023(2) 0.021(2) 0.0200(18) -0.001(2) 0.0063(17) 0.001(3)
O7 0.0258(17) 0.043(2) 0.0186(13) -0.0057(15) 0.0046(12) 0.0080(17)
O8 0.0236(18) 0.0294(19) 0.0282(15) -0.0068(15) 0.0028(13) 0.0034(16)
O9 0.0160(16) 0.064(2) 0.0252(14) -0.001(2) 0.0055(11) -0.005(2)
O10 0.0237(16) 0.045(2) 0.0174(13) 0.0021(18) 0.0075(11) 0.005(2)
O11 0.0192(15) 0.046(2) 0.0215(14) 0.0058(19) 0.0025(12) 0.0001(19)
O12 0.0161(14) 0.0352(17) 0.0177(13) 0.0032(17) 0.0045(10) 0.0043(18)
C7 0.021(2) 0.036(3) 0.021(2) -0.002(2) 0.0031(18) 0.004(2)
C8 0.019(2) 0.030(3) 0.018(2) -0.0020(19) 0.0041(16) 0.004(2)
C9 0.016(2) 0.030(3) 0.0173(18) -0.002(2) 0.0037(15) 0.002(3)
C10 0.020(2) 0.026(2) 0.0217(19) -0.002(3) 0.0054(16) 0.000(3)
C11 0.021(2) 0.023(2) 0.0181(18) 0.000(2) 0.0062(15) 0.001(3)
C12 0.022(2) 0.023(2) 0.0182(18) 0.000(3) 0.0035(16) 0.001(3)
loop_
_atom_type_symbol
_atom_type_description
_atom_type_scat_dispersion_real
_atom_type_scat_dispersion_imag
_atom_type_scat_source
C C 0.0033 0.0016 'International Tables Vol C Tables 4.2.6.8 and 6.1.1.4'
H H 0.0000 0.0000 'International Tables Vol C Tables 4.2.6.8 and 6.1.1.4'
O O 0.0106 0.0060 'International Tables Vol C Tables 4.2.6.8 and 6.1.1.4'
loop_
_geom_angle_atom_site_label_1
_geom_angle_atom_site_label_2
_geom_angle_atom_site_label_3
_geom_angle
C6 O6 C3 109.2(3)
O1 C1 C2 107.7(3)
O2 C2 C1 106.0(3)
O2 C2 C3 112.1(3)
C1 C2 C3 113.0(3)
O6 C3 C2 109.8(3)
O6 C3 C4 103.8(3)
C4 C3 C2 114.8(4)
O3 C4 C3 116.4(3)
O3 C4 C5 134.1(3)
C5 C4 C3 109.4(3)
O4 C5 C6 124.6(3)
C4 C5 O4 127.4(3)
C4 C5 C6 108.0(3)
O5 C6 O6 121.2(3)
O5 C6 C5 129.2(3)
O6 C6 C5 109.6(3)
C12 O12 C9 108.8(3)
O7 C7 C8 107.9(3)
O8 C8 C7 107.3(3)
O8 C8 C9 111.2(3)
C9 C8 C7 112.6(3)
O12 C9 C8 111.2(4)
O12 C9 C10 104.1(3)
C10 C9 C8 115.6(4)
O9 C10 C9 117.3(3)
O9 C10 C11 133.5(3)
C11 C10 C9 109.2(3)
O10 C11 C12 124.4(3)
C10 C11 O10 127.3(3)
C10 C11 C12 108.3(3)
O11 C12 O12 120.6(3)
O11 C12 C11 130.0(3)
O12 C12 C11 109.4(3)
loop_
_geom_bond_atom_site_label_1
_geom_bond_atom_site_label_2
_geom_bond_distance
O1 C1 1.426(5)
O2 C2 1.424(5)
O3 C4 1.330(4)
O4 C5 1.360(4)
O5 C6 1.219(4)
O6 C3 1.447(4)
O6 C6 1.356(4)
C1 C2 1.520(5)
C2 C3 1.529(6)
C3 C4 1.498(5)
C4 C5 1.339(5)
C5 C6 1.449(5)
O7 C7 1.436(5)
O8 C8 1.426(5)
O9 C10 1.326(4)
O10 C11 1.365(4)
O11 C12 1.215(4)
O12 C9 1.446(4)
O12 C12 1.363(4)
C7 C8 1.518(5)
C8 C9 1.516(6)
C9 C10 1.495(5)
C10 C11 1.337(5)
C11 C12 1.448(5)

_cod_database_fobs_code 2300646
