#------------------------------------------------------------------------------
#$Date: 2016-06-17 04:55:25 +0300 (Fri, 17 Jun 2016) $
#$Revision: 183647 $
#$URL: file:///home/coder/svn-repositories/cod/cif/2/30/06/2300621.cif $
#------------------------------------------------------------------------------
#
# This file is available in the Crystallography Open Database (COD),
# http://www.crystallography.net/. The original data for this entry
# were provided by IUCr Journals, http://journals.iucr.org/.
#
# The file may be used within the scientific community so long as
# proper attribution is given to the journal article from which the
# data were obtained.
#
data_2300621
loop_
_publ_author_name
'Dyadkin, Vadim'
'Wright, Jon'
'Pattison, Philip'
'Chernyshov, Dmitry'
_publ_section_title
;
 Probing structural chirality with high-energy synchrotron radiation
;
_journal_coeditor_code           TO5136SUP1
_journal_issue                   3
_journal_name_full               'Journal of Applied Crystallography'
_journal_page_first              918
_journal_page_last               922
_journal_paper_doi               10.1107/S1600576716006282
_journal_volume                  49
_journal_year                    2016
_chemical_formula_sum            'Co0.3 Fe0.7 Si'
_chemical_formula_weight         84.86
_space_group_crystal_system      cubic
_space_group_IT_number           198
_space_group_name_Hall           'P 2ac 2ab 3'
_space_group_name_H-M_alt        'P 21 3'
_symmetry_space_group_name_Hall  'P 2ac 2ab 3'
_symmetry_space_group_name_H-M   'P 21 3'
_audit_creation_method           SHELXL-2014/7
_audit_update_record
;
2016-01-21 # Formatted by publCIF

;
_cell_angle_alpha                90.000(10)
_cell_angle_beta                 90.000(10)
_cell_angle_gamma                90.000(10)
_cell_formula_units_Z            4
_cell_length_a                   4.4732(5)
_cell_length_b                   4.4732(5)
_cell_length_c                   4.4732(5)
_cell_measurement_reflns_used    5730
_cell_measurement_temperature    120(1)
_cell_measurement_theta_max      19.6120
_cell_measurement_theta_min      1.7120
_cell_volume                     89.507(17)
_computing_structure_refinement  'SHELXL-2014/7 (Sheldrick, 2014)'
_diffrn_ambient_temperature      120(5)
_diffrn_measured_fraction_theta_full 1.000
_diffrn_measured_fraction_theta_max 0.915
_diffrn_measurement_device_type  'Huber \c at ID11@ESRF'
_diffrn_measurement_method       '\f scan'
_diffrn_radiation_wavelength     0.190
_diffrn_reflns_av_unetI/netI     0.0134
_diffrn_reflns_Laue_measured_fraction_full 1.000
_diffrn_reflns_Laue_measured_fraction_max 0.915
_diffrn_reflns_limit_h_max       14
_diffrn_reflns_limit_h_min       -14
_diffrn_reflns_limit_k_max       15
_diffrn_reflns_limit_k_min       -14
_diffrn_reflns_limit_l_max       12
_diffrn_reflns_limit_l_min       -12
_diffrn_reflns_number            8860
_diffrn_reflns_point_group_measured_fraction_full 1.000
_diffrn_reflns_point_group_measured_fraction_max 0.888
_diffrn_reflns_theta_full        6.546
_diffrn_reflns_theta_max         19.662
_diffrn_reflns_theta_min         1.721
_exptl_absorpt_coefficient_mu    0.477
_exptl_crystal_colour            'metallic dark grey'
_exptl_crystal_density_diffrn    6.298
_exptl_crystal_description       block
_exptl_crystal_F_000             161
_refine_diff_density_max         0.986
_refine_diff_density_min         -2.261
_refine_diff_density_rms         0.231
_refine_ls_abs_structure_details
;
 Flack x determined using 509 quotients [(I+)-(I-)]/[(I+)+(I-)]
 (Parsons, Flack and Wagner, Acta Cryst. B69 (2013) 249-259).
;
_refine_ls_abs_structure_Flack   -0.08(10)
_refine_ls_extinction_method     none
_refine_ls_goodness_of_fit_ref   1.055
_refine_ls_hydrogen_treatment    undef
_refine_ls_matrix_type           full
_refine_ls_number_parameters     7
_refine_ls_number_reflns         8860
_refine_ls_number_restraints     0
_refine_ls_restrained_S_all      1.055
_refine_ls_R_factor_all          0.0240
_refine_ls_R_factor_gt           0.0236
_refine_ls_shift/su_max          0.000
_refine_ls_shift/su_mean         0.000
_refine_ls_structure_factor_coef Fsqd
_refine_ls_weighting_details
'w=1/[\s^2^(Fo^2^)+(0.0331P)^2^+0.1327P] where P=(Fo^2^+2Fc^2^)/3'
_refine_ls_weighting_scheme      calc
_refine_ls_wR_factor_gt          0.0614
_refine_ls_wR_factor_ref         0.0617
_reflns_Friedel_coverage         0.710
_reflns_Friedel_fraction_full    1.000
_reflns_Friedel_fraction_max     0.851
_reflns_number_gt                8781
_reflns_number_total             8860
_reflns_threshold_expression     'I > 2\s(I)'
_cod_data_source_file            to5136sup1.cif
_cod_data_source_block           FeCoSi_65keV
_cod_depositor_comments
'Adding full bibliography for 2300619--2300621.cif.'
_cod_original_cell_volume        89.51(3)
_cod_original_formula_sum        'Co0.30 Fe0.70 Si'
_cod_database_code               2300621
_cod_database_fobs_code          2300621
_publcif_datablock.id            {e91cbd34-598a-48bc-acaa-bbe466f08cee}
_shelx_shelxl_version_number     2014/7
_shelx_space_group_comment
;
The symmetry employed for this shelxl refinement is uniquely defined
by the following loop, which should always be used as a source of
symmetry information in preference to the above space-group names.
They are only intended as comments.
;
_shelx_res_file
;

    FeCoSi_T120K_att-18__a.res created by SHELXL-2014/7


TITL FeCoSi_T120K_att-18__a.res in P2(1)3
REM Old TITL FeCoSi_T120K_att-18_ in P2(1)3

REM SHELXT solution in P2(1)3
REM R1 0.009,  Rweak 0.015,  Alpha 0.036,  Orientation as input
REM Flack x =  0.430 ( 0.018 ) from Parsons' quotients
REM Formula found by SHELXT:  Si Fe

CELL  0.19000   4.4732   4.4732   4.4732   90.000   90.000   90.000
ZERR    4.000   0.0005   0.0005   0.0005    0.010    0.010    0.010
LATT -1
SYMM 1/2-X, -Y, 1/2+Z
SYMM -X, 1/2+Y, 1/2-Z
SYMM 1/2+X, 1/2-Y, -Z
SYMM Z, X, Y
SYMM 1/2+Z, 1/2-X, -Y
SYMM 1/2-Z, -X, 1/2+Y
SYMM -Z, 1/2+X, 1/2-Y
SYMM Y, Z, X
SYMM -Y, 1/2+Z, 1/2-X
SYMM 1/2+Y, 1/2-Z, -X
SYMM 1/2-Y, -Z, 1/2+X
SFAC SI FE CO
DISP $Si -0.00419  0.00425 13.25797!source kissel
DISP $Fe  0.02586  0.06505 89.39373!source kissel
DISP $Co  0.03100  0.07639 102.70488!source kissel
UNIT 4 2.8 1.2
L.S. 10
ACTA
LIST 4
MERG 0
FMAP 2
PLAN 20
EADP FE01 CO01
EXYZ FE01 CO01
WGHT    0.033100    0.132700
FVAR       1.23936
FE01  2    0.137570    0.137570    0.137570    10.23331    0.00264    0.00264 =
         0.00264    0.00004    0.00004    0.00004
CO01  3    0.137570    0.137570    0.137570    10.09999    0.00264    0.00264 =
         0.00264    0.00004    0.00004    0.00004
SI01  1    0.842184    0.842184    0.842184    10.33333    0.00333    0.00333 =
         0.00333   -0.00021   -0.00021   -0.00021
HKLF 4

REM  FeCoSi_T120K_att-18__a.res in P2(1)3
REM R1 =  0.0236 for    8781 Fo > 4sig(Fo)  and  0.0240 for all    8860 data
REM      7 parameters refined using      0 restraints

END

WGHT      0.0331      0.1327

REM Highest difference peak  0.986,  deepest hole -2.261,  1-sigma level  0.231
Q1    1   0.1980  0.1408  0.2160  11.00000  0.05    0.99
Q2    1   0.0770  0.1353  0.2181  11.00000  0.05    0.97
Q3    1   0.2017  0.1399  0.0577  11.00000  0.05    0.90
Q4    1   0.1406  0.3392  0.2922  11.00000  0.05    0.89
Q5    1   0.8500  0.8963  0.5788  11.00000  0.05    0.71
Q6    1   0.0561  0.1392  0.3690  11.00000  0.05    0.69
Q7    1   0.8545  0.9022  1.1558  11.00000  0.05    0.68
Q8    1   0.6452  0.6452  0.6452  10.33333  0.05    0.67
Q9    1   0.0451 -0.0862  0.0777  11.00000  0.05    0.65
Q10   1   0.1213  0.2750  0.2495  11.00000  0.05    0.64
Q11   1   0.0737  0.1353  0.0591  11.00000  0.05    0.64
Q12   1   0.3428  0.2946  0.2683  11.00000  0.05    0.62
Q13   1   0.3433  0.2230  0.2296  11.00000  0.05    0.61
Q14   1   0.1480  0.1379  0.2839  11.00000  0.05    0.58
Q15   1   0.8616  0.6268  0.9167  11.00000  0.05    0.58
Q16   1   0.5911  0.6821  0.8260  11.00000  0.05    0.58
Q17   1   1.1014  0.8423  0.8154  11.00000  0.05    0.57
Q18   1   1.1258  0.9134  0.8499  11.00000  0.05    0.56
Q19   1   0.1084  0.2504 -0.0960  11.00000  0.05    0.56
Q20   1   0.1367  0.1391 -0.0053  11.00000  0.05    0.55
;
_shelx_res_checksum              11389
_shelx_hkl_file
;
   1   1  -1 1518.73    5.05
  -1  -1  -1 1514.33    5.08
  -1   1   1 1513.43    4.32
   0   1   1  887.12    3.46
   0  -1  -1  881.70    3.45
   0   1  -1  877.79    3.38
   0  -1   1  877.38    3.35
   1   1   1 1514.14    5.01
  -1  -1   1 1521.94    4.98
   0   0  -2 1123.38    4.75
   0   2   0 1153.81    4.58
   0  -2   0 1148.23    4.49
   0   0   2 1121.45    4.78
  -1   2   0 1323.14    4.17
   1  -2   0 1314.18    4.12
   0  -1   2 1332.86    5.35
   0   1   2 1320.23    5.40
   2   0  -1 1313.18    4.44
  -2   0  -1 1235.51    4.13
  -1  -2   0 1350.18    5.50
   0   1  -2 1312.69    5.27
   2   0   1 1272.56    4.23
  -2   0   1 1299.56    4.48
   1   2   0 1299.55    5.34
   0  -1  -2 1310.19    5.29
  -2   1   1 3370.74    6.51
  -1   2   1 3422.04    7.74
   1  -1   2 3374.74    7.96
  -1  -1  -2 3431.67    9.01
   1   1  -2 3397.27    8.98
  -2  -1  -1 3330.84    8.31
   2   1  -1 3337.59    8.28
  -1  -2  -1 3309.25    9.64
   1   2  -1 3398.20    8.85
   1  -2   1 3390.56    6.87
  -1   1   2 3421.55    8.63
  -1   0   2 9782.42   14.47
  -1   0  -2 9539.74   13.79
   0   2  -1 9999.00   14.12
   1   0  -2 9553.61   14.14
  -2  -1   0 9573.90   13.43
   0  -2   1 9561.52   13.54
  -1   1  -2 3378.82    7.99
   2  -1  -1 3378.81    6.31
   1  -1  -2 3389.89    8.38
  -2  -1   1 3372.01    8.36
  -1  -1   2 3401.09    8.96
  -1   2  -1 3396.80    7.01
  -1  -2   1 3408.20    8.95
   1   1   2 3395.49    8.97
  -2  -2  -2 1561.90    7.26
   2  -2   2 1573.92    5.45
   2   2  -1  416.19    3.44
  -2  -2  -1  421.83    3.53
   2  -1   2  398.83    2.66
  -2   2   1  419.42    2.60
   2   1  -2  410.34    3.39
  -2  -1  -2  407.58    3.31
  -2   1   2  422.46    3.11
   1  -2   2  410.58    3.02
  -2   0  -2   61.67    1.16
   0   2  -2   70.13    1.38
   0   2   2   70.11    1.41
   0  -2  -2   71.18    1.44
   2   2   0   69.44    1.42
   0  -2   2   71.44    1.40
  -2   0   2   68.88    1.34
   2   0   2   67.74    1.23
   2   0  -2   69.03    1.30
  -2  -2   0   64.16    1.32
  -2  -1   2  420.31    3.44
  -2   1  -2  411.42    2.76
   1  -2  -2  433.06    3.34
   1   2   2  417.80    3.51
   2   2   1  418.02    3.45
   2  -2  -1  430.56    2.55
  -1   2  -2  423.16    3.07
  -2  -2   1  423.87    3.54
   2  -1  -2  425.90    3.08
  -1  -2   2  429.28    3.59
  -2   2  -2 1583.72    5.55
  -2  -2   2 1577.62    7.26
   3   0   0    0.32    0.21
   0   3   0   -0.39    0.36
   0   0   3    0.62    0.38
   1  -3   0  316.56    2.58
   0   1   3  314.69    3.17
  -1   3   0  337.76    2.82
   1   3   0  321.49    3.13
  -3   0  -1  280.88    2.21
  -3   0   1  304.96    2.41
  -3   0   1  308.71    2.46
   0   1  -3  310.08    3.09
   0  -1   3  308.47    3.07
  -2   3   0 1571.59    5.27
   0   2   3 1600.94    7.51
   2   3   0 1592.69    7.50
   2  -3   0 1568.20    5.20
   0  -2  -3 1594.07    7.43
   3   0  -2 1557.45    6.36
   3   0   2 1504.06    6.04
   0   2  -3 1565.00    7.24
  -2  -3   0 1639.49    7.75
   0  -2   3 1561.36    7.20
  -3   0   2 1544.25    6.46
  -3   0  -2 1473.19    5.92
  -1  -2  -3 4537.16   12.97
  -3   1   2 4440.57   10.34
   3  -1   2 4364.81    8.95
  -2   3   1 4532.96   10.10
   2  -3   1 4436.09    8.71
   1   2  -3 4430.78   12.81
  -3  -1  -2 4359.57   11.74
   2   3  -1 4432.27   12.69
  -1   2   3 4492.82   12.40
  -2  -3  -1 4480.02   12.80
   1  -2   3 4440.30   11.62
   3   1  -1 1560.90    6.25
  -1  -3  -1 1642.26    7.28
  -3   1   1 1572.55    4.79
  -1   1   3 1599.50    7.07
   1  -3   1 1621.97    5.95
  -1   3   1 1692.97    6.59
  -3  -1  -1 1529.11    6.37
   1  -1   3 1579.86    6.70
   1   3  -1 1660.37    7.28
  -1  -1  -3 1594.80    7.20
   1   1  -3 1615.14    7.30
  -1   0   3  470.97    3.85
   3   1   0  436.32    3.26
  -1   0  -3  452.86    3.66
   0   3  -1  474.53    3.61
   0  -3   1  485.98    3.61
   1   0   3  451.76    3.65
  -3  -1   0  438.85    3.21
   0   3   1  487.69    3.76
   3   1   1 1548.99    6.37
  -1  -1   3 1647.49    7.31
   1  -3  -1 1656.93    6.40
   1   1   3 1576.94    7.08
  -1   3  -1 1644.30    6.12
  -1   1  -3 1582.64    6.73
   3  -1  -1 1591.02    4.67
  -3  -1   1 1563.52    6.45
  -1  -3   1 1613.36    7.13
   1   3   1 1623.43    7.28
   1  -2  -3 4498.33   12.19
   2   3   1 4462.50   12.88
   2  -3  -1 4517.44    9.66
   3   1   2 4349.51   11.57
  -1  -2   3 4431.63   12.84
   3  -1  -2 4413.36   10.04
  -2   3  -1 4571.04    9.20
  -3   1  -2 4385.91    9.03
  -1   2  -3 4431.75   11.60
  -3  -1   2 4421.04   11.79
   1   2   3 4488.42   12.90
  -3  -1   2 4434.07   11.89
  -2  -3   1 4489.19   12.70
  -3   2   2   59.49    1.24
  -2  -2  -3   57.73    1.57
   2  -3   2   57.65    1.14
   3  -2   2   57.41    0.99
  -3  -2  -2   60.52    1.59
   2   3  -2   56.94    1.56
   2   2  -3   57.05    1.57
  -2  -3  -2   57.83    1.56
   3   2  -2   58.31    1.54
  -2   2   3   59.65    1.45
  -2   3   2   59.25    1.38
   2  -3   2   55.74    1.19
   2  -2   3   56.80    1.30
  -3   2   1  596.57    2.96
   1  -3   2  617.41    4.10
  -2   1   3  620.22    4.48
  -2  -1  -3  600.13    4.51
   2  -1   3  634.67    4.24
   2   1  -3  604.86    4.63
   1   3  -2  591.09    4.54
  -1   3   2  648.02    4.53
   1  -3   2  618.53    4.02
  -1  -3  -2  622.45    4.75
  -3  -2  -1  602.44    4.51
   3   2  -1  573.54    4.27
   2   0  -3  664.11    4.66
  -2   0   3  655.41    4.67
   0   3   2  687.73    4.91
   0  -3   2  663.43    4.47
   2   0   3  643.71    4.40
   3   2   0  632.26    4.49
  -3  -2   0  623.78    4.43
   0  -3  -2  681.82    4.80
   0   3  -2  657.44    4.60
  -2   0  -3  623.84    4.36
   3  -2  -1  624.63    2.94
   3   2   1  619.83    4.54
  -2  -1   3  621.90    4.75
  -3  -2   1  612.34    4.57
  -2   1  -3  599.90    4.11
  -1  -3   2  612.22    4.56
   2   1   3  611.58    4.61
  -2   2  -3   56.30    1.33
   2   2   3   59.17    1.65
   3  -2  -2   54.14    1.15
   2  -2  -3   58.04    1.43
  -3  -2   2   54.76    1.49
  -2  -3   2   56.48    1.56
  -3   2  -2   54.53    1.00
   3   2   2   56.72    1.52
  -2  -2   3   53.05    1.52
   2   3   2   60.02    1.62
   3  -3   3 2909.23    8.85
  -3  -3  -3 2928.33   12.23
  -3   2   3  754.18    5.14
  -2  -3  -3  757.50    5.92
   3  -3   2  738.13    3.60
  -3   3   2  757.68    4.59
   3  -2   3  740.54    4.35
   3  -3   2  747.13    3.80
   2  -3   3  750.41    4.82
  -2   3   3  748.49    5.29
  -3  -3  -2  744.56    5.80
   3   3  -2  732.94    5.64
   3  -1   3 1908.25    7.19
  -1  -3  -3 1973.93    9.07
   3   1  -3 1991.74    8.80
  -3   3   1 1947.81    6.20
  -3  -3  -1 1970.47    9.15
  -3   1   3 1944.75    8.07
   1  -3   3 1950.09    8.11
   3  -3   1 1929.77    5.03
  -3  -1  -3 1906.27    8.57
  -1   3   3 1969.81    8.66
  -3   0   3  430.45    3.92
  -3   0  -3  408.33    3.61
   3   0   3  405.40    3.52
  -3   3   0  403.58    2.30
   3   3   0  403.59    3.99
  -3  -3   0  408.73    4.03
   3   0  -3  418.62    3.79
   0  -3   3  436.77    3.97
   0  -3  -3  427.68    4.13
   0  -3   3  433.20    4.07
   0   3   3  466.89    4.49
   3  -3   0  402.34    2.32
   3  -1  -3 1950.41    7.84
  -3   1  -3 1906.56    7.34
  -1  -3   3 1954.13    8.84
   3  -3  -1 1931.66    5.87
  -3  -3   1 1931.20    8.95
  -1   3  -3 1917.94    8.20
   1   3   3 1935.85    9.17
  -3  -1   3 1952.98    8.78
   3   3   1 1951.09    9.13
   3   1   3 1954.26    8.60
  -1  -3   3 1955.93    9.19
   2   3   3  742.19    5.82
   3   3   2  741.10    5.71
   3   2   3  745.83    5.71
  -2  -3   3  742.94    5.92
   3  -3  -2  755.30    4.42
   3  -2  -3  739.23    4.85
  -2  -3   3  746.45    5.76
  -3  -2   3  746.57    5.70
  -3   2  -3  742.13    4.45
  -3  -2   3  750.63    5.83
   2  -3  -3  765.40    5.24
  -2   3  -3  760.18    4.94
   3  -3  -3 2904.64    9.89
  -3   3  -3 2898.68    9.11
   3   3   3 2883.46   11.95
  -3  -3   3 2879.54   11.83
   0  -4   0 6484.82   14.63
   0   4   0 6466.24   14.99
  -4   0  -1    0.81    0.26
  -4   0   1    0.95    0.28
  -1   4   0    0.75    0.40
   0   1  -4    1.12    0.46
   4   0   1    1.43    0.26
   0  -1   4    1.10    0.39
  -1  -4   0    1.01    0.53
  -4   0   1    1.18    0.33
   0  -1  -4    0.61    0.44
   0   1   4    1.25    0.51
   1   4   0    0.17    0.42
  -4   0   2  259.91    2.81
   0   2   4  263.69    3.41
   0  -2  -4  263.42    3.40
  -2   4   0  269.69    2.68
  -4   0  -2  232.65    2.45
   2   4   0  273.86    3.53
   0   2  -4  254.94    3.30
  -2  -4   0  264.22    3.41
   0  -2   4  262.30    3.37
   4   0   2  236.35    2.48
   2  -4   0  274.89    2.67
   0  -3  -4   35.51    1.43
   0   3   4   34.18    1.35
  -3  -4   0   33.47    1.38
   4   0  -3   31.52    1.14
  -4   0   3   33.70    1.23
   0  -3   4   35.11    1.34
   4   0   3   31.37    1.08
   0   3  -4   33.02    1.28
  -4   0  -3   28.51    1.00
   3  -4   0   34.23    0.90
   3   4   0   30.42    1.32
  -3   4   0   32.77    0.89
   3   4  -1  289.89    3.84
  -4   1   3  287.79    3.25
   4  -1   3  275.46    2.77
  -1   3   4  294.45    3.79
   1  -3   4  291.23    3.53
  -3   4   1  293.88    2.84
   1   3  -4  280.83    3.73
   3  -4   1  290.97    2.45
  -4  -1  -3  269.24    3.31
  -3  -4  -1  297.08    3.89
   4   1  -3  272.55    3.34
  -2  -4  -1  646.90    5.39
  -1   2   4  642.92    5.31
   2  -4   1  635.48    4.01
  -1  -2  -4  639.12    5.47
  -4   1   2  618.26    4.04
  -2   4   1  643.81    4.41
   4  -1   2  567.30    3.30
   2   4  -1  620.91    5.28
  -4  -1  -2  568.03    4.38
   1  -2   4  605.22    4.87
   1   2  -4  623.62    5.29
   4   1  -1  668.48    4.40
  -1   4   1  713.10    4.89
   1   4  -1  686.38    5.27
  -1   1   4  686.01    5.34
  -4  -1  -1  628.89    4.44
  -1  -1  -4  690.36    5.35
  -1  -4  -1  727.39    5.46
  -4   1   1  660.12    3.38
   1  -1   4  685.60    5.10
   1   1  -4  693.22    5.38
  -1   0  -4 1074.30    6.42
  -1   0   4 1100.45    6.66
  -4  -1   0 1030.17    5.49
   1   0   4 1081.41    6.44
   0   4   1 1144.87    6.50
   0  -4   1 1128.59    6.17
   4   1   0 1014.24    5.24
   0   4  -1 1148.86    6.43
   1   0  -4 1104.49    6.61
   0  -4  -1 1170.96    6.48
  -1  -1   4  710.34    5.47
  -1   4  -1  716.64    4.77
   1   4   1  730.32    5.55
   1  -4  -1  709.17    4.79
  -1  -4   1  696.64    5.20
   4   1   1  636.48    4.34
   1   1   4  692.12    5.40
  -4  -1   1  648.18    4.46
   1  -1  -4  677.83    5.19
  -1   1  -4  693.69    5.19
   1   2   4  608.83    5.21
  -1   2  -4  607.51    4.96
  -2  -4   1  619.45    5.24
  -1  -2   4  619.44    5.29
   4  -1  -2  617.80    3.92
   1  -2  -4  614.09    5.03
  -4  -1   2  625.79    4.79
  -4  -1   2  631.05    4.88
   2   4   1  592.18    5.15
  -2   4  -1  623.79    4.07
  -4   1  -2  582.19    3.38
   1   3   4  277.53    3.76
   3   4   1  300.38    4.00
   4   1   3  277.87    3.33
  -4   1  -3  275.13    2.79
  -3  -4   1  286.29    3.76
   4  -1  -3  285.11    3.12
  -4  -1   3  286.18    3.55
  -1  -3   4  296.14    3.85
  -1   3  -4  281.46    3.51
  -3   4  -1  295.58    2.56
   1  -3  -4  282.04    3.57
   3  -4  -1  289.34    2.70
  -3   4   2  652.02    4.69
  -3  -4  -2  628.86    5.67
  -4   2   3  627.14    4.69
   3   4  -2  611.39    5.60
  -4  -2  -3  626.42    5.47
   3  -4   2  625.33    3.86
   4  -2   3  600.77    3.82
   2  -3   4  619.21    4.87
  -2   3   4  635.49    5.43
  -2  -3  -4  671.61    6.02
   3  -4   2  628.07    3.79
   2   4  -2   17.20    1.04
  -2  -2  -4   15.43    0.89
   4  -2   2   13.06    0.50
  -2   2   4   14.90    0.88
  -2  -4  -2   16.54    1.01
  -4   2   2   14.41    0.71
  -4  -2  -2   12.94    0.85
   2  -2   4   16.18    0.90
   2   2  -4   19.04    1.04
  -2   4   2   17.67    0.91
   4   2  -2   14.31    0.87
   2  -1   4 2819.08   10.17
  -4   2   1 2780.82    6.43
   1  -4   2 2838.34    9.41
  -1  -4  -2 2927.83   11.30
  -4  -2  -1 2736.24   10.29
   2   1  -4 2800.93   11.06
  -2   1   4 2855.69   10.84
   4   2  -1 2785.71   10.10
   1   4  -2 2843.63   11.01
  -2  -1  -4 2819.79   10.94
  -1   4   2 2879.96   10.34
   0   4   2  281.80    3.49
  -2   0  -4  264.44    3.25
   2   0  -4  266.75    3.37
   2   0   4  259.66    3.21
   4   2   0  257.14    3.13
   0  -4  -2  284.71    3.46
   0   4  -2  278.43    3.34
  -2   0   4  257.92    3.35
   0  -4   2  267.62    3.15
  -4  -2   0  255.94    3.14
  -2   1  -4 2784.96   10.32
   4   2   1 2779.46   10.59
   4  -2  -1 2799.53    6.18
   2   1   4 2821.99   10.97
   1  -4  -2 2877.25   10.20
  -2  -1   4 2838.37   11.23
  -4  -2   1 2782.72   10.44
  -1  -4   2 2874.39   10.98
  -1   4  -2 2852.81    9.86
   2  -1  -4 2839.38   10.68
   2   2   4   16.18    0.99
  -2  -4   2   21.06    1.11
   4   2   2   17.18    0.94
  -4  -2   2   17.71    0.94
   2   4   2   18.81    1.07
   4  -2  -2   18.92    0.75
   2  -2  -4   18.12    0.99
  -2  -2   4   17.79    1.04
   2  -4  -2   18.35    0.93
  -4   2  -2   17.47    0.56
  -2   2  -4   18.20    0.90
  -2   3  -4  642.23    5.12
   3  -4  -2  656.25    4.50
   2   3   4  627.29    5.80
  -4  -2   3  635.64    5.53
   4  -2  -3  644.14    4.57
  -4  -2   3  630.79    5.55
   4   2   3  627.41    5.33
  -2  -3   4  613.53    5.70
   3   4   2  624.96    5.67
   2  -3  -4  666.48    5.42
  -3  -4   2  611.62    5.57
  -4   2  -3  627.67    4.04
   3  -4   3  305.99    3.08
   3   4  -3  297.03    4.01
  -3   4   3  313.37    3.63
  -3  -4  -3  302.51    4.11
  -4  -3  -3  305.12    4.05
   3  -3   4  310.89    3.32
  -3  -3  -4  303.66    4.12
  -3   3   4  316.57    3.88
   3  -4   3  313.04    3.00
  -4   3   3  314.68    3.40
   4  -3   3  305.79    2.70
   4  -3   2  473.42    2.58
  -2   4   3  522.53    4.86
  -3   2   4  489.36    4.66
  -2  -4  -3  499.96    5.14
   3   2  -4  494.41    5.04
   4   3  -2  468.52    4.73
   2  -4   3  473.83    3.91
   2  -4   3  481.79    4.07
  -4  -3  -2  459.83    4.71
  -3  -2  -4  489.93    5.03
   2   4  -3  461.86    4.78
   4  -3   2  471.97    2.69
   3  -2   4  468.41    4.06
  -3  -1  -4  850.16    6.31
   3  -1   4  811.60    5.42
   1  -4   3  833.39    5.48
  -4   3   1  799.75    3.74
  -3   1   4  839.68    6.03
  -1   4   3  868.79    6.32
   3   1  -4  835.14    6.18
  -4  -3  -1  791.37    6.09
   1  -4   3  839.49    5.69
  -1  -4  -3  912.51    6.87
  -3   0  -4  119.43    2.25
   0  -4   3  129.09    2.40
   3   0  -4  124.45    2.38
  -3   0   4  120.51    2.35
   0  -4  -3  125.34    2.42
   0  -4   3  120.75    2.22
   3   0   4  116.51    2.18
   4   3   0  124.67    2.38
  -4  -3   0  122.96    2.46
   1   4   3  868.46    6.66
  -4  -3   1  806.59    6.14
   1  -4  -3  876.42    6.13
   3  -1  -4  834.84    5.83
  -1  -4   3  844.75    6.41
   4  -3  -1  831.70    3.58
  -1  -4   3  838.51    6.19
  -3   1  -4  806.69    5.48
  -3  -1   4  829.37    6.35
   4   3   1  807.78    6.04
   3  -2  -4  484.58    4.47
   4  -3  -2  480.14    3.39
  -2  -4   3  473.64    4.82
  -4  -3   2  483.80    4.89
   2   4   3  499.41    5.20
   4   3   2  471.21    4.72
  -3  -2   4  479.78    4.91
   2  -4  -3  503.40    4.52
   3   2   4  471.36    4.81
  -3   2  -4  472.03    4.14
  -3  -3   4  308.75    4.22
   3  -3  -4  323.22    3.73
  -3  -3   4  323.09    4.26
   3   4   3  327.41    4.49
   4  -3  -3  316.93    3.23
   3  -4  -3  344.31    3.70
  -4   3  -3  321.39    2.89
   3   3   4  313.43    4.26
  -4  -3   3  305.26    4.08
  -3  -4   3  309.53    4.16
  -4  -3   3  308.90    4.21
  -3   3  -4  311.55    3.43
   4   3   3  305.13    4.00
  -4  -4  -4 1315.84    9.49
   4  -4   4 1278.80    6.58
  -3  -4  -4   54.38    1.94
   4   4  -3   49.58    1.80
  -4   3   4   56.58    1.68
   4  -3   4   53.55    1.36
   4  -4   3   58.58    1.37
  -4  -4  -3   53.40    1.92
   3  -4   4   60.38    1.62
  -4  -3  -4   56.27    1.87
  -3   4   4   58.49    1.83
  -4   4   3   58.89    1.59
   4  -4   2  135.66    1.65
  -4   4   2  136.27    2.12
  -4  -4  -2  134.93    2.87
   2  -4   4  138.28    2.46
  -4  -2  -4  138.19    2.74
   4   4  -2  138.40    2.79
  -4   2   4  137.26    2.52
   4  -4   2  130.53    1.57
  -2   4   4  142.59    2.80
   4  -2   4  129.90    2.10
  -4   1   4  356.68    4.03
   1  -4   4  357.71    4.04
   4   4  -1  352.70    4.36
  -4   4   1  353.74    2.90
  -4  -1  -4  354.05    4.09
  -4  -4  -1  350.10    4.38
   4  -1   4  338.10    3.48
   4  -4   1  331.72    2.28
   4   1  -4  351.90    4.12
   0  -4   4 2429.39   10.65
   4   0   4 2402.43    9.79
   0  -4   4 2394.67   10.83
  -4  -4   0 2416.02   11.33
   0   4   4 2568.86   12.04
  -4   0  -4 2339.50    9.90
   4  -4   0 2385.83    6.28
   4   0  -4 2398.13   10.22
  -4   0   4 2419.17   10.63
  -4   4   0 2348.49    6.33
   4   4   0 2369.20   11.15
   0  -4  -4 2502.64   11.40
  -4  -4   1  361.33    4.46
   4  -1  -4  359.62    3.93
   1   4   4  336.51    4.34
  -1   4  -4  357.59    4.14
   4   1   4  351.41    4.01
  -1  -4   4  345.81    4.14
  -4  -1   4  354.87    4.32
   4   4   1  347.94    4.38
   1  -4  -4  367.49    4.35
  -4   4  -1  363.32    2.46
  -4   1  -4  348.78    3.60
   4  -4  -1  371.59    2.79
  -1  -4   4  357.24    4.41
   4  -2  -4  131.27    2.34
  -4   2  -4  133.69    2.18
  -4  -2   4  130.53    2.74
   2   4   4  131.89    2.81
  -2  -4   4  129.28    2.76
   4   2   4  134.30    2.70
   2  -4  -4  130.73    2.56
  -4  -2   4  134.23    2.77
  -4  -4   2  129.77    2.74
  -2   4  -4  141.20    2.54
  -4  -3   4   51.27    1.78
   4   4   3   52.92    1.87
   4  -3  -4   54.92    1.62
  -3   4  -4   60.12    1.60
   3   4   4   51.80    1.81
  -4  -3   4   57.04    1.92
  -3  -4   4   53.69    1.85
   3  -4  -4   55.51    1.67
   4  -4  -3   57.35    1.52
  -4   3  -4   51.91    1.39
   4   3   4   55.60    1.91
  -4  -4   3   49.28    1.77
  -4  -4   4 1274.15    9.07
   4   4   4 1296.78    9.28
  -4   4  -4 1297.60    7.01
   4  -4  -4 1324.96    7.64
  -4  -4   4 1336.94    9.72
   5   0   0    0.42    0.26
  -5   0   0    0.50    0.26
   0   0   5    0.31    0.31
   0   5   0   -0.40    0.43
   1   5   0  369.21    4.28
   1  -5   0  381.48    3.79
   0  -1  -5  368.89    4.30
   5   0   1  330.91    2.81
   0   1  -5  356.28    4.17
   0   1   5  364.22    4.30
   0  -1   5  367.43    4.24
  -1   5   0  378.00    3.85
  -1  -5   0  390.83    4.37
  -5   0   1  363.20    3.20
  -5   0   1  341.81    3.07
  -5   0  -2 3858.40   10.97
  -5   0   2 3878.93   11.39
   5   0   2 3873.14   10.72
   0  -2   5 3939.88   14.01
  -5   0   2 3885.82   11.60
  -2   5   0 4022.51   11.72
   0  -2  -5 3911.69   14.16
   0   2  -5 3892.41   14.03
   2  -5   0 4017.00   11.31
  -2  -5   0 3948.74   14.19
   0   2   5 3932.45   14.38
   2   5   0 3953.97   14.32
   5   0   3   83.37    1.76
  -3   5   0   90.39    1.69
   0  -3   5   87.91    2.25
  -5   0  -3   82.94    1.78
  -5   0   3   89.11    1.96
   5   0  -3   86.70    1.90
   0   3   5   93.10    2.33
   0   3  -5   88.57    2.20
   4   5   0  589.57    5.98
   0   4   5  616.35    6.17
   4  -5   0  641.30    4.08
   5   0  -4  604.01    5.33
  -5   0   4  621.87    5.67
  -5   0  -4  588.97    5.07
   0  -4   5  607.66    5.88
  -4   5   0  613.16    3.94
   0  -4  -5  632.20    6.18
   5   0   4  592.00    5.01
   0   4  -5  578.87    5.78
  -1  -4  -5  225.98    3.78
   4   5  -1  217.15    3.67
   5   1  -4  209.75    3.30
  -4   5   1  213.93    2.55
  -4  -5  -1  225.45    3.75
   1   4  -5  207.24    3.58
  -5   1   4  218.33    3.26
   1  -4   5  221.10    3.45
  -5  -1  -4  212.15    3.26
   5  -1   4  208.37    2.79
  -1   4   5  209.20    3.53
   4  -5   1  217.12    2.26
   5  -1   3  172.33    2.23
   1  -3   5  185.07    3.04
  -3   5   1  203.15    2.73
  -5  -1  -3  161.01    2.60
  -1   3   5  189.67    3.31
   3   5  -1  199.29    3.60
  -5   1   3  177.84    2.64
  -3  -5  -1  190.51    3.36
   1   3  -5  181.37    3.28
   2   5  -1   72.49    2.03
   2  -5   1   80.48    1.65
  -1  -2  -5   75.95    2.10
  -2   5   1   74.58    1.76
  -2  -5  -1   78.91    2.12
  -5  -1  -2   68.21    1.71
  -5   1   2   76.61    1.57
   1  -2   5   69.24    1.91
   1   2  -5   70.41    1.99
  -1   2   5   70.01    1.96
   5   1  -1   97.52    1.81
  -1  -1  -5   99.73    2.26
  -1   1   5  101.54    2.32
  -5   1   1  105.53    1.50
  -5  -1  -1   97.98    1.91
   1  -5   1  108.61    2.06
   1  -1   5  102.70    2.26
  -1   5   1  112.40    2.24
  -5   1   1   96.23    1.46
  -1  -5  -1  106.02    2.33
   1   5  -1  104.96    2.29
   1   1  -5  100.34    2.31
   0  -5  -1  262.10    3.49
  -1   0   5  239.94    3.47
   0   5   1  250.33    3.36
   5  -1   0  213.83    1.67
   0   5  -1  254.30    3.37
   1   0  -5  233.06    3.39
   5   1   0  218.68    2.58
   0  -5   1  242.93    3.20
  -1   0  -5  223.69    3.27
  -5  -1   0  205.07    2.61
   1   0   5  234.24    3.35
   1  -5  -1  111.34    2.17
   1   1   5  108.19    2.43
   5   1   1   95.11    1.76
  -1   1  -5  101.98    2.25
  -1  -1   5  103.99    2.34
  -5  -1   1  100.65    1.90
   1   5   1  112.76    2.48
  -1   5  -1  111.97    2.16
   1  -1  -5  104.09    2.30
  -1  -5   1  105.11    2.24
   5  -1  -2   70.07    1.40
  -1   2  -5   70.75    1.94
   2   5   1   79.33    2.22
  -5   1  -2   66.69    1.22
  -5  -1   2   64.93    1.64
   5   1   2   64.95    1.57
   1   2   5   71.38    2.01
  -5  -1   2   69.65    1.71
  -2   5  -1   71.15    1.64
  -2  -5   1   71.35    2.00
  -1  -2   5   76.58    2.15
   2  -5  -1   77.86    1.74
   1  -2  -5   69.42    1.91
  -5   1  -3  174.44    2.31
   5  -1  -3  183.40    2.57
  -1  -3   5  184.44    3.28
   1  -3  -5  190.95    3.23
   5   1   3  171.90    2.69
  -5  -1   3  187.07    3.00
  -5  -1   3  186.59    2.98
  -3   5  -1  194.59    2.44
   3  -5  -1  193.50    2.52
   3   5   1  185.10    3.27
   1   3   5  187.13    3.32
  -1   3  -5  183.71    3.11
   5  -1  -4  222.39    3.16
  -5  -1   4  217.63    3.42
  -4  -5   1  216.25    3.73
   5   1   4  200.02    3.10
  -1  -4   5  209.82    3.56
   1  -4  -5  219.74    3.62
  -1   4  -5  213.77    3.48
  -4   5  -1  222.29    2.38
   1   4   5  232.70    4.03
  -5   1  -4  206.28    2.81
  -5   2   4  291.70    3.68
   4   5  -2  280.13    4.16
   5  -2   4  274.91    3.02
  -4   5   2  285.39    3.22
  -4  -5  -2  288.09    4.25
  -2  -4  -5  297.02    4.40
  -5  -2  -4  279.31    3.93
   2  -4   5  304.77    3.96
  -2   4   5  298.41    4.26
   4  -5   2  298.35    2.74
   4  -5   2  292.00    2.73
   2  -3   5 2333.57   10.37
  -3  -5  -2 2366.66   11.95
   2   3  -5 2339.15   11.93
   5  -2   3 2282.79    7.44
  -2   3   5 2357.31   11.43
  -5   2   3 2357.32    9.15
   3  -5   2 2364.60    8.31
  -5  -2  -3 2329.83   10.91
  -3   5   2 2389.16    9.63
  -2  -3  -5 2267.33   11.47
   3   5  -2 2309.67   11.63
  -2   2   5  212.24    3.34
   5   2  -2  205.95    2.98
  -5  -2  -2  206.96    3.08
  -2  -2  -5  222.44    3.58
   2  -5   2  229.69    2.83
  -5   2   2  216.13    2.43
  -2   5   2  213.34    3.04
   2   5  -2  212.46    3.40
   2  -2   5  210.34    3.13
  -5   2   1 1414.18    4.82
   1   5  -2 1460.68    8.61
   2   1  -5 1462.92    8.70
   2  -1   5 1409.32    8.01
  -1  -5  -2 1496.36    8.61
   5   2  -1 1409.49    7.53
   1  -5   2 1476.12    7.49
  -5  -2  -1 1370.50    7.72
  -2   1   5 1441.68    8.53
  -2  -1  -5 1429.51    8.59
  -1   5   2 1527.39    8.41
   5   2   0  473.33    4.37
  -2   0  -5  502.83    4.95
   2   0  -5  497.93    4.99
  -2   0   5  505.17    5.13
   0   5  -2  523.19    4.96
   0  -5  -2  528.65    4.99
   0  -5   2  511.36    4.72
   2   0   5  495.71    4.87
  -5  -2   0  487.65    4.56
  -1  -5   2 1523.68    8.70
   2  -1  -5 1467.97    8.46
  -2   1  -5 1446.22    8.28
   1   5   2 1486.89    8.85
   5  -2  -1 1416.40    4.53
  -5  -2   1 1417.19    7.83
  -2  -1   5 1453.84    8.75
   2   1   5 1426.18    8.49
  -1   5  -2 1453.66    7.72
   5   2   1 1351.46    7.49
   1  -5  -2 1485.15    7.94
   5   2   2  197.04    2.93
   2   2   5  216.06    3.48
  -5  -2   2  209.76    3.15
  -2   5  -2  225.44    2.97
   5  -2  -2  220.63    2.29
   2  -2  -5  212.50    3.29
  -2   2  -5  217.07    3.23
  -5   2  -2  204.88    1.76
  -2  -2   5  208.07    3.47
   2   5   2  214.61    3.50
   5   2   3 2264.77   10.68
   2  -3  -5 2386.27   11.02
  -3   5  -2 2375.62    8.79
  -5  -2   3 2336.33   11.18
   3  -5  -2 2429.72    9.34
  -3  -5   2 2375.97   11.93
  -5  -2   3 2403.99   11.30
  -2  -3   5 2303.78   11.78
   2   3   5 2541.78   12.77
  -2   3  -5 2350.09   10.77
   3   5   2 2320.64   11.67
   5  -2  -3 2421.05    8.91
  -5   2  -3 2316.33    7.64
  -5  -2   4  292.98    4.21
  -4  -5   2  284.94    4.29
  -5   2  -4  288.08    3.20
   4   5   2  282.74    4.28
   2   4   5  290.40    4.41
  -2   4  -5  296.07    4.01
   5  -2  -4  299.94    3.61
  -2  -4   5  289.20    4.30
  -2  -4   5  285.98    4.35
  -5  -2   4  292.83    4.20
   5   2   4  287.44    4.01
  -3  -4  -5  224.44    3.90
   4   5  -3  229.14    3.89
  -4   5   3  256.94    3.47
  -4  -5  -3  235.27    4.01
   5  -3   4  230.32    2.70
   4  -5   3  231.73    2.69
  -5   3   4  252.48    3.51
  -5  -3  -4  239.81    4.00
  -3   4   5  246.47    3.91
   3  -4   5  231.97    3.27
  -5   3   3  116.08    2.10
   3  -5   3  115.81    2.07
  -3  -5  -3  117.86    2.84
  -5  -3  -3  106.38    2.50
  -3   3   5  111.66    2.51
  -3   5   3  118.40    2.42
   3   5  -3  110.61    2.64
   3  -5   3  120.97    2.06
   3  -3   5  112.51    2.26
   5   3  -2   51.31    1.74
   2   5  -3   53.69    1.80
   3   2  -5   53.41    1.85
  -5  -3  -2   47.51    1.62
   3  -2   5   53.51    1.58
  -3   2   5   57.63    1.85
  -2   5   3   57.96    1.76
   2  -5   3   56.08    1.51
  -2  -5  -3   60.03    2.06
   2  -5   3   56.19    1.59
  -3  -2  -5   53.89    1.83
  -5   3   2   54.25    1.22
   1  -5   3  197.68    3.01
   1   5  -3  185.60    3.24
   5   3  -1  177.03    2.99
  -5   3   1  163.72    1.60
  -3  -1  -5  190.43    3.22
  -1   5   3  195.70    3.28
  -5  -3  -1  168.72    2.90
   1  -5   3  184.92    2.79
   3   1  -5  177.42    3.10
   3  -1   5  182.73    2.88
  -3   1   5  191.76    3.26
   3   0  -5  158.76    2.92
   0  -5   3  165.98    2.83
  -5  -3   0  156.65    2.93
   0  -5  -3  165.28    3.05
  -3   0   5  153.60    2.92
   5   3   0  148.96    2.73
   3   0   5  155.45    2.77
   0   5   3  160.05    3.02
  -3   0  -5  148.32    2.70
   0   5  -3  159.52    2.88
   5   3   1  175.17    3.02
   5  -3  -1  180.27    1.55
  -1  -5   3  187.53    3.15
  -3  -1   5  182.29    3.24
   1  -5  -3  195.19    3.12
   1   5   3  189.49    3.32
  -3   1  -5  185.37    2.97
  -5  -3   1  174.59    3.02
   3  -1  -5  186.47    3.10
   3   1   5  181.87    3.07
  -5   3  -2   48.14    0.80
   3  -2  -5   58.83    1.81
   3   2   5   56.15    1.83
   5   3   2   54.80    1.76
  -2  -5   3   55.49    1.82
   2   5   3   62.46    2.09
   5  -3  -2   57.21    1.19
  -5  -3   2   55.72    1.78
  -3  -2   5   51.47    1.83
   2  -5  -3   58.97    1.75
  -3   2  -5   52.63    1.64
  -5  -3   3  118.07    2.68
   5  -3  -3  113.09    1.93
   3  -3  -5  119.77    2.57
  -3  -5   3  112.74    2.70
   3   3   5  115.35    2.80
   3  -5  -3  117.36    2.32
  -5   3  -3  107.86    1.61
  -3   3  -5  111.68    2.35
   5   3   3  108.55    2.45
  -3  -3   5   99.73    2.55
  -5  -3   3  112.66    2.66
   3   5   3  112.81    2.73
  -4  -5   3  243.45    4.13
   4  -5  -3  255.25    3.27
   3   4   5  242.67    4.15
   5   3   4  229.33    3.84
  -5  -3   4  229.91    3.85
  -3  -4   5  234.29    4.06
  -3   4  -5  233.30    3.43
  -3  -4   5  233.81    3.92
  -5   3  -4  239.30    2.83
   4   5   3  230.65    3.91
  -5  -3   4  241.00    4.08
   5  -3  -4  238.99    3.16
  -4   5   4  294.85    4.05
   4  -5   4  275.41    3.19
  -4  -5  -4  275.63    4.50
  -5   4   4  292.76    3.76
  -5  -4  -4  272.81    4.40
   4  -4   5  290.01    3.53
   5  -4   4  273.55    2.90
   4  -5   4  274.51    3.03
  -4   4   5  278.35    4.06
  -4  -4  -5  269.51    4.34
  -4  -3  -5  431.31    5.30
  -5   4   3  436.35    4.07
   5  -4   3  433.87    3.12
   4  -3   5  462.87    4.53
  -3  -5  -4  442.77    5.53
   5   4  -3  424.24    5.11
  -5  -4  -3  422.15    5.21
  -3   5   4  463.99    5.09
   5  -4   3  440.91    3.00
   3  -5   4  440.69    4.28
   3  -5   4  436.63    4.09
  -4   3   5  478.49    5.24
   5  -4   2 1679.64    5.07
  -5   4   2 1794.49    7.22
  -4   2   5 1792.66    9.79
  -2   5   4 1843.68   10.21
   5  -4   2 1720.49    5.07
   2  -5   4 1784.92    8.98
   4   2  -5 1756.62   10.33
  -2  -5  -4 1767.46   10.66
  -5  -4  -2 1740.94   10.27
   2  -5   4 1768.10    8.60
   5   4  -2 1723.12   10.00
   4  -2   5 1752.48    8.60
  -4  -2  -5 1730.39   10.04
   1  -5   4  377.44    4.24
  -4   1   5  373.50    4.48
  -1  -5  -4  377.98    4.76
   5   4  -1  360.62    4.56
  -5  -4  -1  367.77    4.64
  -4  -1  -5  347.54    4.30
   4  -1   5  366.12    4.02
  -1   5   4  385.54    4.73
   1  -5   4  374.37    4.36
  -5   4   1  350.89    2.71
   0  -5   4   57.60    1.83
   0  -5  -4   63.33    2.03
   4   0  -5   59.25    1.83
   0   5   4   58.06    2.02
   5   4   0   60.46    1.95
  -5  -4   0   52.69    1.82
  -4   0   5   57.19    1.88
   4   0   5   61.91    1.82
   5   4   1  360.19    4.53
  -5  -4   1  350.37    4.49
   4  -1  -5  385.46    4.44
  -1  -5   4  377.69    4.59
  -1  -5   4  382.67    4.84
   4   1   5  367.64    4.43
   1   5   4  388.48    5.01
  -4  -1   5  379.11    4.78
  -4   1  -5  370.49    4.14
  -4  -2   5 1745.55   10.43
  -5  -4   2 1769.60   10.48
   4   2   5 1734.01    9.96
   2  -5  -4 1815.53    9.75
  -4   2  -5 1737.46    8.78
   2   5   4 1753.17   10.66
  -2  -5   4 1747.41   10.25
   4  -2  -5 1796.76    9.35
  -2  -5   4 1752.86   10.63
   5   4   2 1759.66   10.22
  -3  -5   4  438.44    5.57
   3  -5  -4  454.43    4.76
  -3  -5   4  436.09    5.37
   5   4   3  423.16    5.16
   3   5   4  443.85    5.53
  -4   3  -5  437.05    4.46
  -5  -4   3  437.89    5.33
   4  -3  -5  448.93    4.77
  -4  -3   5  432.69    5.45
  -4  -3   5  429.89    5.32
   4   3   5  423.73    5.32
   5  -4  -3  455.20    3.99
  -5  -4   4  280.09    4.53
   5   4   4  283.18    4.40
  -5   4  -4  281.38    3.14
   4   5   4  291.07    4.66
  -4  -5   4  270.39    4.40
  -4   4  -5  276.64    3.57
  -4  -5   4  284.15    4.63
   4   4   5  281.77    4.50
  -4  -4   5  278.66    4.56
   5  -4  -4  286.72    3.48
  -4  -4   5  266.98    4.34
  -5  -4   4  279.42    4.55
   5  -5   5  150.46    2.51
  -5   5   5  148.61    3.06
  -5  -5  -5  149.30    3.63
   5  -4   5  150.13    2.49
  -4   5   5  154.54    3.17
   5  -5   4  149.06    2.24
  -5   4   5  147.16    2.94
  -5  -4  -5  134.65    3.10
  -5  -5  -4  147.41    3.38
   5  -5   4  143.06    2.07
   4  -5   5  147.90    2.58
  -4  -5  -5  141.65    3.30
  -5   5   4  147.47    2.76
   5   5  -3  150.44    3.26
  -3  -5  -5  161.39    3.41
   3  -5   5  168.60    2.86
  -5  -3  -5  155.80    3.26
  -5  -5  -3  159.62    3.36
  -5   3   5  166.30    3.13
  -5   5   3  185.40    2.90
   5  -5   3  168.20    2.11
  -3   5   5  168.09    3.29
   5  -3   5  163.67    2.57
  -5  -5  -2   78.40    2.44
   5   2  -5   71.65    2.19
   5  -2   5   75.69    1.79
  -2  -5  -5   75.24    2.33
   5   5  -2   74.52    2.27
  -5   5   2   77.06    1.71
  -5  -2  -5   69.21    2.11
  -5   2   5   78.00    2.12
   5  -5   2   71.23    1.24
   2  -5   5   76.52    2.07
   5  -5   2   73.47    1.25
   5   1  -5  106.12    2.52
  -1  -5  -5  100.39    2.62
  -5   5   1  102.69    1.66
  -5  -1  -5  111.70    2.65
   5  -1   5   98.59    2.13
   1  -5   5  104.43    2.41
  -5  -5  -1   95.67    2.57
  -1   5   5  119.13    2.97
   1  -5   5  110.38    2.57
   5   5  -1   97.78    2.55
  -5   1   5  102.51    2.49
  -5   0   5  248.39    3.80
   0  -5   5  261.04    3.94
   0  -5   5  256.29    3.99
   0  -5  -5  272.17    4.26
  -5  -5   0  247.19    4.05
  -5   0  -5  249.67    3.61
   5   5   0  249.73    4.12
   5  -5   0  249.23    2.22
   0   5   5  260.47    4.26
   5   0   5  252.40    3.53
  -5   5   0  244.30    2.20
   5   5   1   99.89    2.59
  -1  -5   5  107.72    2.64
  -5  -1   5  103.10    2.56
   1  -5  -5  108.38    2.66
   5  -1  -5  105.94    2.41
   1   5   5  108.37    2.82
   5  -5  -1  109.10    1.66
  -5   5  -1  102.45    1.45
  -5  -5   1  106.88    2.76
  -1  -5   5  107.28    2.69
  -5   1  -5  102.87    2.24
   5   1   5  110.13    2.51
   2   5   5   80.25    2.50
   5   5   2   72.40    2.23
  -2  -5   5   80.89    2.49
  -2  -5   5   73.91    2.32
  -5   2  -5   76.89    1.89
   2  -5  -5   79.05    2.24
   5   2   5   71.99    2.17
   5  -5  -2   76.21    1.58
   5  -2  -5   85.64    2.17
  -5  -2   5   74.77    2.31
  -3   5  -5  164.40    2.96
  -3  -5   5  165.95    3.61
   5  -5  -3  173.34    2.56
  -5  -3   5  158.51    3.34
   5   3   5  166.65    3.33
  -5   3  -5  167.70    2.72
   5  -3  -5  163.31    2.88
  -5  -3   5  162.50    3.46
   5   5   3  158.95    3.35
   3   5   5  158.75    3.51
  -5  -5   3  164.07    3.50
  -3  -5   5  163.48    3.40
   3  -5  -5  174.25    3.20
   5   5   4  137.45    3.22
   5  -5  -4  150.22    2.63
  -4  -5   5  150.24    3.49
   5   4   5  149.67    3.37
  -5  -4   5  143.07    3.29
  -4   5  -5  145.77    2.71
  -5   4  -5  152.73    2.63
  -5  -5   4  141.37    3.44
  -4  -5   5  142.18    3.33
  -5  -4   5  139.83    3.37
   4  -5  -5  155.81    2.97
  -5  -5   4  145.55    3.37
   4   5   5  136.89    3.23
  -5  -5   5  142.38    3.42
  -5  -5   5  142.66    3.48
  -5   5  -5  139.69    2.53
   5   5   5  141.29    3.46
   0   6   0 1567.97    9.16
   6   0   0 1393.58    5.95
   0   0  -6 1417.68    8.98
  -6   0   0 1373.40    6.37
   0   0   6 1479.83    9.24
   0  -6   0 1488.79    8.48
   0   1  -6  369.76    4.64
  -6   0  -1  347.08    3.17
  -6   0   1  362.02    3.40
   1  -6   0  420.48    4.53
   1   6   0  405.68    4.82
   0  -1   6  377.60    4.66
  -6   0   1  371.23    3.47
   6   0   1  350.93    3.06
  -1   6   0  399.45    4.39
   0  -1  -6  376.95    4.66
   0   1   6  387.10    4.83
  -6   0   2  101.40    1.99
   0  -2  -6  103.35    2.56
   2   6   0   98.34    2.49
   0   2   6  102.32    2.66
  -2   6   0  108.69    2.25
   0  -2   6  103.05    2.52
  -6   0   2   98.58    1.98
   2  -6   0  112.96    2.23
   6   0   2   93.64    1.70
  -2  -6   0  107.95    2.59
   0   2  -6  101.91    2.54
  -6   0  -2   91.20    1.75
   3  -6   0  523.16    4.53
  -6   0  -3  444.44    4.11
   0   3   6  517.46    5.96
  -6   0   3  470.38    4.56
   0  -3   6  478.41    5.40
   0  -3  -6  482.87    5.52
   3   6   0  485.27    5.62
  -3  -6   0  480.13    5.56
  -3   6   0  509.59    4.46
   0   3  -6  465.12    5.38
   6   0   3  452.39    4.12
  -6   0   3  483.29    4.71
   6   0  -4  613.98    5.51
   4  -6   0  623.53    4.46
   0  -4  -6  611.18    6.35
   0   4  -6  590.27    6.16
   0  -4   6  590.68    6.18
  -4   6   0  627.69    4.63
   4   6   0  611.20    6.47
  -4  -6   0  592.12    6.37
   6   0   4  623.92    5.35
  -6   0   4  600.89    5.61
  -6   0  -4  585.01    5.11
   0   4   6  599.17    6.39
   0   5  -6  130.64    3.12
   5   6   0  140.67    3.24
   6   0   5  134.98    2.68
  -5   6   0  148.32    2.09
   0  -5  -6  136.96    3.16
   0   5   6  151.57    3.48
  -5  -6   0  133.03    3.10
  -6   0   5  137.12    2.96
   0  -5   6  142.08    3.12
   6   0  -5  134.07    2.81
  -1  -5  -6  397.36    5.38
  -6  -1  -5  382.54    4.71
   6  -1   5  388.02    4.17
  -5  -6  -1  388.21    5.38
   5  -6   1  401.70    3.20
   1  -5   6  398.43    5.02
  -1   5   6  392.07    5.34
  -5   6   1  397.03    3.60
   5   6  -1  391.44    5.39
   6   1  -5  386.97    4.84
  -6   1   5  399.85    4.86
  -4  -6  -1  601.28    6.53
   4   6  -1  605.23    6.57
   1   4  -6  591.59    6.40
   6  -1   4  589.22    4.79
   4  -6   1  611.48    4.33
  -6  -1  -4  561.44    5.34
  -6   1   4  600.09    5.39
  -4   6   1  642.80    4.92
  -1  -4  -6  595.68    6.37
  -1   4   6  616.63    6.54
   1  -4   6  598.02    6.04
  -3   6   1  139.64    2.45
   3   6  -1  125.06    2.91
   6  -1   3  115.60    1.86
  -3  -6  -1  130.09    2.98
  -1  -3  -6  129.25    2.94
   1   3  -6  122.42    2.83
   1  -3   6  127.71    2.79
   3  -6   1  139.93    2.27
  -6  -1  -3  123.37    2.43
  -6   1   3  131.04    2.33
  -1   3   6  135.13    3.01
  -1   2   6   43.26    1.70
   1   2  -6   42.44    1.66
  -6  -1  -2   35.52    1.30
   6  -1   2   36.47    0.97
  -2  -6  -1   43.94    1.85
  -2   6   1   45.84    1.58
   2   6  -1   42.11    1.63
   1  -2   6   37.74    1.53
  -6   1   2   39.50    1.17
  -1  -2  -6   46.02    1.75
   2  -6   1   42.53    1.44
  -6   1   2   42.42    1.26
   1  -6   1  430.47    4.38
   6   1  -1  396.52    3.72
  -6   1   1  381.84    3.05
  -1   6   1  446.81    4.84
   1   1  -6  414.67    4.97
  -1   1   6  405.58    4.87
   6  -1   1  356.61    2.47
  -6   1   1  398.69    3.06
  -6  -1  -1  391.83    3.85
  -1  -1  -6  400.02    4.84
   1  -1   6  416.51    4.90
   1   6  -1  428.99    4.92
  -6  -1   0 1051.18    6.53
  -1   0  -6 1035.53    7.70
   0   6  -1 1103.85    7.52
   6  -1   0 1031.25    4.11
   0  -6  -1 1170.87    7.95
  -1   0   6 1107.57    8.22
   1   0  -6 1092.90    8.03
   6   1   0 1013.66    5.86
   1   0   6 1063.24    7.77
   0   6   1 1141.71    7.88
   0  -6   1 1101.11    7.36
   6   1   1  384.31    3.67
   1   6   1  410.93    4.87
   1  -6  -1  444.58    4.58
  -1   1  -6  412.28    4.85
   1  -1  -6  419.73    4.94
  -6  -1   1  390.88    3.98
   1   1   6  407.60    4.91
  -1  -1   6  420.90    5.08
  -1   6  -1  436.39    4.59
  -1   2  -6   39.77    1.58
  -1  -2   6   38.87    1.62
   6   1   2   37.41    1.29
  -6  -1   2   38.86    1.39
  -6   1  -2   41.68    1.05
  -2   6  -1   44.87    1.51
  -6  -1   2   42.09    1.45
   1  -2  -6   45.15    1.76
   2  -6  -1   49.88    1.57
  -2  -6   1   43.42    1.70
   2   6   1   40.12    1.65
   1   2   6   45.66    1.74
  -3  -6   1  141.67    3.07
  -6  -1   3  136.78    2.67
  -6   1  -3  129.94    2.06
   3   6   1  141.46    3.16
  -1  -3   6  134.50    3.02
  -1   3  -6  137.59    2.93
   3  -6  -1  149.91    2.51
  -3   6  -1  138.58    2.33
  -6  -1   3  141.60    2.77
   6  -1  -3  134.62    2.26
   1  -3  -6  141.83    3.02
   1   3   6  138.65    3.09
  -6  -1   4  614.27    5.97
   1  -4  -6  602.95    6.20
   6  -1  -4  596.73    5.16
  -4  -6   1  593.95    6.40
   1   4   6  585.15    6.41
  -4   6  -1  604.12    4.46
   6   1   4  560.57    5.30
  -6  -1   4  586.96    5.81
  -1  -4   6  599.45    6.39
   4   6   1  572.86    6.29
  -1   4  -6  592.28    6.13
  -6   1  -4  576.60    4.76
   1  -5  -6  414.42    5.36
  -1   5  -6  386.40    5.09
   5  -6  -1  422.35    3.60
   5   6   1  374.10    5.18
   1   5   6  411.88    5.69
  -1  -5   6  395.44    5.16
   6   1   5  375.44    4.55
  -6   1  -5  388.74    4.34
  -6  -1   5  391.70    5.08
  -5  -6   1  385.63    5.40
  -5   6  -1  413.87    3.35
  -1  -5   6  386.60    5.26
  -5   6   2  613.14    5.15
  -6   2   5  567.33    5.71
   5  -6   2  553.73    3.76
  -2  -5  -6  581.50    6.74
   2  -5   6  547.80    5.65
  -5  -6  -2  550.10    6.49
  -2   5   6  586.13    6.59
   6  -2   5  544.26    4.72
  -6  -2  -5  540.05    5.98
   5   6  -2  532.56    6.28
  -2  -4  -6   62.03    2.15
   2  -4   6   68.96    2.09
  -4  -6  -2   64.05    2.25
   4   6  -2   60.11    2.10
   6  -2   4   60.15    1.43
   2   4  -6   66.56    2.26
  -2   4   6   69.60    2.34
   4  -6   2   65.47    1.45
  -6   2   4   69.86    1.91
  -6  -2  -4   63.33    1.89
   3  -6   2  116.04    2.08
   2   3  -6  109.75    2.74
  -3  -6  -2  113.57    2.81
  -6  -2  -3  107.60    2.41
   3   6  -2  108.19    2.72
  -6   2   3  112.05    2.09
  -3   6   2  121.99    2.48
   2  -3   6  113.71    2.56
   6  -2   3  102.41    1.54
  -2   3   6  116.77    2.79
  -2  -3  -6  106.81    2.74
   6   2  -2  709.32    5.69
  -2   2   6  740.49    6.82
  -2  -2  -6  718.60    6.72
  -6   2   2  735.27    4.48
  -2   6   2  787.62    6.27
  -6  -2  -2  699.75    5.84
   2  -6   2  775.36    5.64
  -2  -6  -2  817.40    7.44
   2  -2   6  727.57    6.26
   2   2  -6  727.95    6.81
   2   6  -2  716.99    6.65
   2  -1   6  723.97    6.34
   1   6  -2  733.48    6.61
  -1  -6  -2  766.10    6.71
  -6   2   1  659.52    3.54
  -2   1   6  728.85    6.66
   2   1  -6  706.24    6.62
  -6  -2  -1  693.93    5.70
   1  -6   2  762.75    5.92
  -6   2   1  707.95    3.55
  -1   6   2  723.57    6.12
  -2  -1  -6  700.11    6.46
   0   6  -2  110.00    2.50
  -2   0  -6  101.06    2.46
   2   0  -6  102.00    2.51
  -6  -2   0   88.81    2.04
   0   6   2  105.48    2.53
  -2   0   6  100.68    2.51
   2   0   6   98.93    2.41
   0  -6   2  111.55    2.46
   6   2   0   95.34    2.02
   2  -1  -6  721.70    6.42
  -1   6  -2  732.32    5.97
   2   1   6  699.32    6.39
   1   6   2  739.12    6.67
   6   2   1  682.43    5.48
  -2   1  -6  712.24    6.31
  -2  -1   6  690.26    6.53
  -6  -2   1  699.29    5.75
  -1  -6   2  757.77    6.50
  -2  -6   2  764.75    6.93
   6  -2  -2  728.98    4.16
  -6  -2   2  726.98    6.22
  -2   6  -2  764.42    5.89
  -2   2  -6  764.76    6.75
   2   2   6  776.84    7.22
  -2  -2   6  728.43    6.84
   2  -2  -6  729.99    6.50
  -6   2  -2  692.76    3.34
   2   6   2  746.42    6.96
   2  -6  -2  786.96    6.07
   6   2   2  670.77    5.63
  -2  -3   6  111.05    2.83
  -2   3  -6  112.95    2.59
  -3  -6   2  112.40    2.76
   6   2   3  112.38    2.45
  -6   2  -3  110.43    1.68
  -3   6  -2  114.80    2.20
   6  -2  -3  110.62    1.98
  -6  -2   3  112.04    2.61
  -6  -2   3  115.73    2.73
   2  -3  -6  115.00    2.67
   2   3   6  108.71    2.74
   3   6   2  106.68    2.79
  -4   6  -2   70.51    1.64
   2  -4  -6   68.95    2.18
  -4  -6   2   65.53    2.19
   4   6   2   66.61    2.25
  -2  -4   6   67.77    2.27
   6  -2  -4   70.54    1.79
  -2   4  -6   68.13    2.06
   6   2   4   60.21    1.89
   2   4   6   70.51    2.37
  -6   2  -4   65.61    1.54
  -6  -2   4   72.00    2.21
  -6  -2   4   69.07    2.18
  -2  -5   6  553.45    6.32
  -2   5  -6  545.13    5.92
   5  -6  -2  588.15    4.60
   6   2   5  511.84    5.59
   2   5   6  524.65    6.28
   5   6   2  519.34    6.22
  -2  -5   6  541.03    6.42
  -6  -2   5  529.15    6.08
  -6  -2   5  555.33    6.24
  -6   2  -5  576.41    5.09
  -5  -6   2  534.77    6.36
  -6  -3  -5  536.82    6.11
  -6   3   5  607.81    5.83
   3  -5   6  590.13    5.73
   5  -6   3  598.20    4.22
  -3  -5  -6  577.59    6.75
  -5   6   3  619.54    5.41
   5   6  -3  553.15    6.50
  -5  -6  -3  583.59    6.77
   6  -3   5  585.19    4.68
   5  -6   3  601.00    4.19
  -3   5   6  624.29    6.72
   4   6  -3  217.40    4.01
   3  -4   6  225.71    3.46
  -3  -4  -6  217.62    4.07
   4  -6   3  224.09    2.76
   6  -3   4  217.64    2.54
  -4  -6  -3  225.23    4.18
  -4   6   3  239.22    3.53
  -6   3   4  245.96    3.47
  -3   4   6  224.91    3.91
  -6  -3  -4  218.23    3.85
   4  -6   3  230.16    2.89
  -3   3   6  219.47    3.85
   3  -3   6  201.52    3.28
   6  -3   3  190.08    1.99
   3  -6   3  217.70    2.96
   3   3  -6  212.84    3.90
  -3   6   3  220.26    3.43
  -3  -6  -3  208.03    3.84
   3  -6   3  212.15    2.96
  -3  -3  -6  205.52    3.75
  -6   3   3  211.03    2.79
  -6  -3  -3  205.91    3.67
   3   6  -3  206.35    3.83
  -6   3   2    9.54    0.60
   2   6  -3    9.00    1.00
   3  -2   6    7.11    0.71
  -3   2   6   10.78    1.03
   2  -6   3    9.76    0.75
  -2   6   3   11.78    0.96
  -2  -6  -3    9.48    1.01
  -3  -2  -6    9.07    0.95
   3   2  -6   11.95    1.06
   6   3  -2   10.01    0.93
   3   1  -6  657.18    6.43
  -3   1   6  677.75    6.48
   6   3  -1  641.52    5.78
  -1   6   3  682.63    6.29
   1   6  -3  642.26    6.28
   1  -6   3  670.34    5.70
  -6  -3  -1  602.19    5.70
  -3  -1  -6  638.13    6.26
   3  -1   6  646.81    5.94
  -1  -6  -3  701.88    6.76
   0   6  -3  320.81    4.29
   6   3   0  290.94    3.88
   0  -6  -3  330.98    4.46
   3   0  -6  312.98    4.37
  -3   0  -6  301.74    4.16
  -3   0   6  309.35    4.43
   0   6   3  315.43    4.42
  -6  -3   0  297.18    4.02
   3   0   6  301.88    4.13
   6   3   1  654.75    5.87
  -1  -6   3  690.10    6.44
  -1   6  -3  677.16    6.01
   3  -1  -6  643.43    6.17
   1   6   3  675.64    6.65
  -3  -1   6  671.95    6.61
   3   1   6  632.78    6.15
  -3   1  -6  657.57    6.14
  -6  -3   1  640.43    6.00
   2   6   3    9.28    1.06
   2  -6  -3   10.39    0.96
  -6  -3   2    8.25    0.88
   6  -3  -2    8.60    0.58
   3   2   6    7.40    0.94
  -2  -6   3    9.22    0.96
   3  -2  -6    7.45    0.88
  -3  -2   6    8.01    0.93
  -3   2  -6    8.48    0.80
   3   6   3  207.16    3.86
   6  -3  -3  220.72    2.67
  -3  -6   3  206.60    3.75
   3  -6  -3  225.12    3.37
  -3   3  -6  203.77    3.43
  -6   3  -3  206.08    2.07
  -6  -3   3  201.48    3.64
   3   3   6  203.34    3.76
  -3  -3   6  206.70    3.91
   3  -3  -6  207.31    3.50
   6   3   3  201.54    3.40
  -6  -3   3  199.96    3.64
  -3  -4   6  226.84    4.18
  -3   4  -6  230.37    3.67
   3   4   6  218.26    4.04
   4   6   3  223.60    4.07
   6  -3  -4  242.21    3.19
  -6  -3   4  228.58    4.00
  -6   3  -4  228.13    2.69
   6   3   4  232.67    3.98
   3  -4  -6  236.21    3.89
  -3  -4   6  231.42    4.14
  -6  -3   4  227.81    3.97
  -4  -6   3  226.50    4.07
  -5  -6   3  592.94    6.86
  -6  -3   5  599.56    6.72
   6  -3  -5  591.70    5.35
  -3   5  -6  602.85    6.15
   6   3   5  553.99    6.11
   5   6   3  577.86    6.77
   5  -6  -3  626.72    5.07
   3   5   6  592.71    6.98
   3  -5  -6  604.48    6.26
  -6  -3   5  580.86    6.61
  -3  -5   6  566.95    6.76
  -6   3  -5  606.98    5.01
  -4   5   6  208.30    3.85
   5   6  -4  189.99    3.86
  -4  -5  -6  196.48    4.07
  -5   6   4  228.08    3.61
  -5  -6  -4  201.79    4.07
   6  -4   5  211.12    2.78
   4  -5   6  209.99    3.29
   5  -6   4  214.04    2.73
   5  -6   4  211.40    2.77
  -6  -4  -5  204.02    3.91
  -6   4   5  225.92    3.71
  -4  -4  -6  305.95    4.93
  -4   6   4  319.97    4.30
  -4  -6  -4  302.54    4.84
   4  -4   6  309.37    4.00
  -6   4   4  311.36    3.83
   4   6  -4  289.14    4.70
   6  -4   4  300.00    2.92
  -4   4   6  311.54    4.58
   4  -6   4  308.25    3.56
  -6  -4  -4  294.51    4.65
   4  -6   4  305.73    3.38
  -4  -3  -6  387.71    5.29
   3  -6   4  401.28    4.29
   3  -6   4  386.54    3.99
   6  -4   3  384.59    2.53
  -6  -4  -3  367.67    4.96
   6  -4   3  368.93    2.64
   3   6  -4  371.61    5.13
   4   3  -6  383.90    5.29
   4  -3   6  393.83    4.42
  -4   3   6  404.88    5.17
  -3   6   4  455.42    5.46
  -3  -6  -4  417.17    5.59
  -6   4   3  413.72    3.94
   6   4  -3  367.19    4.89
   2  -6   4   67.81    1.90
   4  -2   6   65.16    1.91
  -2  -6  -4   75.04    2.53
  -6  -4  -2   57.53    2.00
  -2   6   4   67.58    2.18
   2  -6   4   67.01    1.82
   6   4  -2   59.54    1.97
   4   2  -6   64.04    2.21
   2   6  -4   65.51    2.23
  -4  -2  -6   63.84    2.12
  -6   4   2   66.15    1.40
  -4   2   6   70.32    2.17
  -4  -1  -6  425.17    5.16
   6   4  -1  420.06    4.99
  -4   1   6  432.71    5.23
  -1   6   4  475.50    5.67
  -6  -4  -1  412.25    5.10
   1  -6   4  434.55    4.79
   1  -6   4  434.91    4.97
   4   1  -6  418.77    5.16
  -1  -6  -4  464.97    5.72
   4  -1   6  435.77    4.86
   4   0   6  598.37    5.74
  -4   0  -6  592.89    5.90
  -6  -4   0  563.95    5.92
   0   6   4  619.33    6.41
   6   4   0  583.52    5.93
  -4   0   6  596.13    6.23
   0  -6   4  595.33    5.74
   0  -6   4  599.86    6.01
   0  -6  -4  640.42    6.36
   4   0  -6  603.06    6.06
  -1  -6   4  423.24    5.28
  -1  -6   4  415.09    5.09
   6   4   1  414.12    4.98
   4  -1  -6  428.31    5.09
   6  -4  -1  409.90    2.37
  -6  -4   1  406.02    5.11
  -4  -1   6  416.19    5.29
   1   6   4  474.94    5.99
   1  -6  -4  457.02    5.28
  -4   1  -6  422.20    4.85
   4   1   6  424.58    5.09
  -2  -6   4   66.89    2.19
  -4   2  -6   67.71    2.00
  -6  -4   2   64.94    2.16
  -4  -2   6   61.62    2.16
   2   6   4   63.34    2.26
   2  -6  -4   71.62    2.13
   4  -2  -6   67.95    2.11
   6   4   2   71.01    2.25
   6  -4  -2   69.92    1.34
   4   2   6   63.46    2.06
  -3  -6   4  381.90    5.19
  -4  -3   6  382.28    5.34
   4   3   6  398.43    5.36
  -4   3  -6  402.55    4.73
   3   6   4  415.96    5.79
   6  -4  -3  409.46    3.59
   4  -3  -6  412.61    4.93
   6   4   3  374.39    4.94
  -6  -4   3  425.34    5.74
  -4  -4   6  310.21    4.90
  -6  -4   4  302.73    4.77
   4  -4  -6  318.78    4.44
  -4  -4   6  295.93    4.82
  -4  -6   4  295.07    4.79
  -6  -4   4  302.20    4.82
   4   6   4  292.47    4.82
   6  -4  -4  309.83    3.54
  -4   4  -6  294.60    4.03
  -6   4  -4  303.97    3.06
   6   4   4  304.21    4.68
  -6  -4   5  203.70    4.09
   4  -5  -6  212.68    3.65
   5  -6  -4  229.39    3.41
  -4  -5   6  196.45    4.12
  -6   4  -5  205.71    2.92
  -4   5  -6  207.04    3.47
   4   5   6  219.73    4.41
  -4  -5   6  190.91    3.97
   6   4   5  198.66    3.93
   5   6   4  197.60    4.03
  -5  -6   4  198.91    4.03
  -6  -4   5  192.30    3.91
   6  -5   5   92.43    1.90
  -6  -5  -5   87.33    2.73
  -5   6   5  102.01    2.69
  -6   5   5   93.86    2.45
   5  -6   5   95.51    2.05
   5  -6   5   94.78    1.96
  -5   5   6   97.59    2.75
  -5  -6  -5   94.41    2.98
   5  -5   6   93.47    2.19
  -5  -5  -6   86.56    2.77
   6  -5   4  578.92    4.02
   4  -6   5  577.46    5.20
  -5   4   6  601.60    6.35
  -6  -5  -4  548.63    6.50
  -6   5   4  596.20    5.42
  -4   6   5  615.32    6.51
   5  -4   6  568.19    5.14
  -4  -6  -5  542.15    6.63
   6  -5   4  577.79    3.82
   4  -6   5  578.81    4.99
  -5  -4  -6  555.89    6.61
   6  -5   3   22.75    0.75
   6  -5   3   20.56    0.72
  -3   6   5   24.19    1.52
  -5  -3  -6   20.86    1.44
   5  -3   6   22.16    1.16
  -6  -5  -3   24.64    1.54
  -6   5   3   22.88    1.08
  -5   3   6   23.12    1.40
   3  -6   5   22.45    1.21
   6   5  -2   83.95    2.41
  -6   5   2   89.61    1.67
  -5   2   6   91.85    2.47
   5  -2   6   84.24    2.09
   6  -5   2   62.18    1.04
   6  -5   2   81.57    1.07
  -6  -5  -2   77.22    2.39
   2  -6   5   84.59    2.20
  -2   6   5  100.41    2.76
  -2  -6  -5   97.10    2.85
  -5  -2  -6   88.23    2.49
   5   2  -6   85.86    2.54
   2  -6   5   92.49    2.25
   5  -1   6   50.27    1.67
   5   1  -6   53.45    1.98
  -5   1   6   52.28    1.93
  -5  -1  -6   47.84    1.80
   1  -6   5   56.62    1.91
   1  -6   5   51.77    1.90
  -6   5   1   47.64    1.07
   6   5  -1   45.49    1.88
  -6  -5  -1   51.74    1.99
   6   5   0  830.49    7.44
   0  -6  -5  889.03    7.89
   0  -6   5  882.08    7.62
   5   0   6  867.04    6.97
   5   0  -6  889.32    7.44
  -5   0  -6  855.10    7.18
  -6  -5   0  866.11    7.81
  -5   0   6  886.64    7.68
   0  -6   5  861.24    7.19
  -1  -6   5   52.00    2.06
   6   5   1   47.43    1.95
  -6  -5   1   53.65    2.16
   6  -5  -1   49.09    0.98
  -1  -6   5   52.22    1.92
   1   6   5   51.85    2.17
   1  -6  -5   58.55    2.14
   5   1   6   50.96    1.84
  -5   1  -6   52.14    1.75
   5  -1  -6   53.48    1.91
  -5  -1   6   50.05    1.97
  -6  -5   2   88.11    2.60
   6   5   2   88.64    2.55
   5  -2  -6   92.86    2.39
  -5   2  -6   90.45    2.23
  -5  -2   6   86.21    2.60
  -2  -6   5   85.24    2.59
   5   2   6   88.76    2.51
   2   6   5   91.09    2.75
  -2  -6   5   87.58    2.55
   3  -6  -5   28.15    1.48
  -5  -3   6   27.41    1.58
   6   5   3   22.90    1.53
   5   3   6   24.73    1.51
   5  -3  -6   26.81    1.43
  -5   3  -6   24.45    1.24
  -6  -5   3   23.31    1.44
   6  -5  -3   25.77    1.03
   3   6   5   24.48    1.53
  -3  -6   5   25.07    1.58
  -5  -3   6   21.74    1.46
   4  -6  -5  607.83    5.96
   5  -4  -6  588.18    5.89
  -6  -5   4  576.99    6.84
   4   6   5  573.04    6.95
  -5  -4   6  560.77    6.78
   5   4   6  553.98    6.51
  -5   4  -6  586.52    5.55
  -4  -6   5  568.03    7.02
   6  -5  -4  614.94    5.06
  -5  -4   6  559.43    6.82
  -4  -6   5  560.47    6.69
   6   5   4  551.93    6.53
   5  -5  -6   98.71    2.56
  -5   5  -6   94.98    2.33
  -5  -5   6   90.14    2.82
   5  -6  -5   94.52    2.38
  -5  -6   5   90.35    2.83
   6   5   5   92.24    2.82
  -5  -6   5   95.41    2.97
  -6   5  -5   95.48    2.03
   5   5   6   92.04    2.86
  -5  -5   6   83.10    2.83
  -6  -5   5   92.70    2.94
  -6  -5   5   95.08    2.91
   6  -6   6  339.97    3.91
  -6   6   6  339.31    4.87
   5  -6   6  164.84    2.90
  -5   6   6  155.08    3.39
  -6   6   5  165.47    3.26
  -6   5   6  161.86    3.42
   5  -6   6  156.17    2.68
   6  -5   6  152.49    2.59
  -6  -6  -5  145.08    3.55
   6  -6   5  161.89    2.53
   6  -6   5  156.78    2.34
  -5  -6  -6  145.09    3.55
  -6  -5  -6  144.78    3.49
   6  -6   4  154.48    2.15
  -4   6   6  151.95    3.38
   6   6  -4  137.07    3.36
   6  -6   4  149.23    2.15
   4  -6   6  148.93    2.76
  -6   4   6  153.00    3.21
  -6  -6  -4  153.05    3.76
   4  -6   6  151.80    2.83
  -6  -4  -6  140.46    3.44
  -6   6   4  162.34    3.06
   6  -4   6  147.87    2.56
  -4  -6  -6  141.14    3.48
  -6   3   6   83.19    2.40
  -6   6   3   78.68    1.95
   6  -3   6   73.53    1.87
   6  -6   3   79.20    1.44
   3  -6   6   75.70    2.17
   6   6  -3   71.05    2.48
  -6  -6  -3   70.24    2.41
  -3   6   6   76.85    2.51
  -3  -6  -6   74.05    2.63
  -2  -6  -6  452.98    6.03
   6   2  -6  440.08    5.57
   6  -6   2  449.93    2.95
  -6  -6  -2  460.35    6.18
   6  -2   6  439.85    4.62
  -6   6   2  479.11    4.17
  -6   2   6  461.69    5.52
   2  -6   6  457.37    5.35
  -6  -2  -6  443.25    5.55
   6  -6   2  419.58    3.01
   2  -6   6  465.12    5.23
   6   6  -2  433.87    5.81
  -2   6   6  481.61    6.23
   1  -6   6  165.43    3.21
  -1   6   6  169.45    3.70
   6  -6   1  150.41    1.63
   6  -6   1  140.83    1.62
   6   6  -1  152.12    3.48
  -6  -6  -1  167.48    3.69
   6  -1   6  166.18    2.94
  -6   1   6  169.27    3.43
   6   1  -6  163.33    3.31
  -6  -1  -6  159.00    3.23
   1  -6   6  169.03    3.41
  -6   6   1  165.48    2.17
   0  -6   6  254.55    4.23
   6   0   6  248.62    3.76
   6   0  -6  274.19    4.19
   0  -6   6  261.92    4.20
   6  -6   0  260.48    2.33
  -6   6   0  252.82    2.37
  -6   0  -6  255.41    3.95
  -6  -6   0  266.52    4.62
   6   6   0  249.32    4.31
   0   6   6  271.46    4.66
  -6   0   6  263.30    4.25
   0  -6  -6  279.26    4.58
   1  -6  -6  164.11    3.51
  -6   1  -6  164.04    3.10
  -6  -6   1  147.93    3.40
   6  -6  -1  177.65    2.13
  -6  -1   6  172.86    3.66
  -1  -6   6  157.04    3.34
   1   6   6  168.04    3.84
  -1  -6   6  164.51    3.58
   6   1   6  169.25    3.37
   6  -1  -6  166.36    3.20
   6   6   1  161.90    3.55
  -6  -2   6  442.98    5.81
  -6  -6   2  434.30    5.88
   2  -6  -6  471.00    5.80
   2   6   6  453.05    6.10
   6  -2  -6  473.02    5.31
   6  -6  -2  475.68    3.78
  -2  -6   6  439.12    5.94
   6   6   2  428.34    5.74
  -6   2  -6  460.36    4.94
   6   2   6  447.97    5.49
  -6  -3   6   69.28    2.59
   6   3   6   73.11    2.39
   3  -6  -6   77.19    2.41
   6   6   3   68.85    2.39
  -6   3  -6   79.30    2.16
  -3  -6   6   70.41    2.45
  -6  -6   3   68.39    2.46
   6  -3  -6   74.83    2.13
  -3  -6   6   75.04    2.56
   6  -6  -3   77.99    1.78
  -6  -3   6   72.95    2.48
   3   6   6   72.09    2.54
  -4  -6   6  142.22    3.64
  -6  -4   6  150.66    3.68
  -6  -4   6  153.71    3.65
   6   6   4  145.83    3.52
   6  -6  -4  168.30    2.83
   4   6   6  140.11    3.51
  -6  -6   4  146.37    3.61
   6   4   6  137.64    3.35
   6  -4  -6  152.64    3.00
   4  -6  -6  152.60    3.23
  -4  -6   6  138.20    3.42
  -6   4  -6  155.98    2.84
  -6  -5   6  147.15    3.62
  -5  -6   6  155.21    3.76
   5   6   6  139.76    3.52
   6   6   5  150.49    3.72
   5  -6  -6  167.11    3.31
  -6  -6   5  150.65    3.80
   6  -5  -6  163.94    3.14
  -6  -5   6  146.06    3.67
   6   5   6  149.19    3.62
  -5  -6   6  147.56    3.77
   6  -6  -5  170.79    3.03
  -6  -6   5  151.39    3.75
  -6   5  -6  158.54    2.84
  -6  -6   6  314.47    5.49
   6  -6  -6  340.08    4.53
   6   6   6  348.90    5.96
  -6  -6   6  311.60    5.58
   7   0   0    0.62    0.39
  -7   0   0    1.18    0.37
   0  -7   0    1.21    0.53
   0   0  -7    0.58    0.49
   0   7   0    1.78    0.68
  -1   7   0  227.86    3.64
  -7   0   1  199.40    2.69
   0  -1  -7  212.23    3.74
   0  -1   7  217.54    3.84
   1   7   0  219.42    3.76
  -1  -7   0  216.22    3.65
  -7   0  -1  200.16    2.60
   0   1   7  219.63    3.92
  -7   0   1  222.00    2.86
   7   0   1  200.91    2.46
   0   1  -7  206.55    3.73
   0   2   7    0.12    0.68
   2   7   0    0.71    0.79
   0  -2  -7    3.77    0.82
  -2  -7   0    2.03    0.70
   0   2  -7   -0.29    0.57
   2  -7   0    2.61    0.73
  -2   7   0    0.62    0.43
  -7   0   2    1.43    0.50
   0  -2   7    1.74    0.75
  -7   0   2    0.83    0.48
  -7   0  -2    0.99    0.39
  -7   0   3  203.05    3.14
   0   3  -7  201.19    3.79
  -7   0   3  212.42    3.30
   7   0   3  192.11    2.71
   0  -3  -7  207.78    3.87
  -3  -7   0  213.74    4.04
  -7   0  -3  194.85    2.82
  -3   7   0  216.56    3.26
   0  -3   7  198.10    3.72
   3   7   0  207.32    3.96
   0   3   7  203.22    3.91
  -4   7   0   13.60    0.87
   0  -4  -7   12.52    1.27
   4   7   0   12.29    1.13
  -7   0   4   14.09    0.97
   0  -4   7   11.18    0.99
  -7   0  -4   10.82    0.79
   4  -7   0   15.41    1.01
   7   0   4    9.09    0.87
  -7   0   4   11.91    1.04
  -4  -7   0   13.40    1.19
   0   4   7   11.43    1.05
   0   4  -7   12.65    1.17
  -5   7   0  292.16    3.26
  -7   0  -5  280.72    3.93
   0   5  -7  272.39    4.60
  -7   0   5  279.64    4.18
  -5  -7   0  283.73    4.88
   5   7   0  260.94    4.61
   0  -5   7  265.45    4.48
   5  -7   0  306.13    3.27
   7   0   5  309.05    4.19
   0   5   7  273.33    4.74
   7   0  -5  278.20    4.00
  -7   0   6    9.07    1.09
   6   7   0    9.79    1.12
   0  -6  -7   10.16    1.18
  -7   0  -6   11.44    0.98
   7   0  -6    9.91    1.00
  -6   7   0   12.07    0.84
   7   0   6   12.00    1.11
   0   6   7   11.71    1.22
  -6  -7   0   11.85    1.26
   0  -6   7    8.45    1.03
   6   7  -1  362.79    5.50
  -7  -1  -6  382.67    5.06
  -6   7   1  424.53    3.87
  -6  -7  -1  391.71    5.84
   1  -6   7  372.01    5.20
   7   1  -6  374.98    5.06
  -7   1   6  386.17    5.15
  -1   6   7  403.59    5.89
   1  -6   7  400.15    5.23
   7  -1   6  376.15    4.37
  -1  -6  -7  383.12    5.70
  -7   1   5  121.52    2.75
   5   7  -1  120.54    3.22
  -5   7   1  139.05    2.37
  -7  -1  -5  125.91    2.81
   1  -5   7  132.93    3.16
  -1   5   7  140.58    3.50
   1   5  -7  122.48    3.21
  -5  -7  -1  130.95    3.26
   7  -1   5  124.26    2.46
   5  -7   1  140.35    2.19
   4  -7   1  224.52    2.93
  -1   4   7  217.05    4.11
   1  -4   7  218.82    3.91
  -7  -1  -4  205.09    3.36
  -1  -4  -7  222.76    4.14
   7  -1   4  210.06    2.84
   4   7  -1  221.45    4.23
   1   4  -7  204.78    3.97
  -7   1   4  219.71    3.37
  -4   7   1  230.43    3.23
  -4  -7  -1  232.06    4.31
  -1   3   7  563.62    6.46
  -7  -1  -3  516.49    4.99
  -7   1   3  540.42    4.74
  -3   7   1  585.68    5.39
  -3  -7  -1  592.06    6.68
  -7   1   3  548.90    4.89
   1   3  -7  537.82    6.26
   3   7  -1  536.35    6.23
  -1  -3  -7  541.00    6.22
   1  -3   7  547.20    6.02
   7  -1   3  508.64    3.95
  -2  -7  -1 1149.05    8.78
  -1   2   7 1132.88    9.00
  -2   7   1 1143.25    7.78
   2  -7   1 1176.68    7.42
  -7   1   2 1114.95    6.13
   1   2  -7 1085.20    8.61
  -7  -1  -2 1054.92    6.90
   2   7  -1 1103.41    8.63
  -1  -2  -7 1082.56    8.59
   1  -2   7 1108.54    8.43
   7  -1   2 1090.47    5.35
  -7   1   2 1105.43    6.26
   7  -1   1  388.35    2.78
   1   7  -1  440.86    5.36
  -1  -1  -7  443.47    5.51
  -7   1   1  391.67    3.30
  -7   1   1  432.62    3.42
   1   1  -7  439.14    5.45
  -7  -1  -1  413.57    4.36
  -1   1   7  433.49    5.50
   1  -1   7  422.71    5.21
   7   1  -1  411.86    3.93
  -1  -7  -1  449.81    5.33
  -1   7   1  453.88    5.11
   0   7   1  115.20    2.70
   7   1   0  104.45    1.99
   0  -7   1  123.29    2.68
  -7  -1   0   99.09    2.07
   7  -1   0  101.95    1.41
  -7   1   0   98.02    1.55
   1   0  -7  107.27    2.72
  -1   0   7  113.01    2.92
   0   7  -1  119.02    2.75
  -1   0  -7  107.24    2.77
   1   0   7  101.99    2.63
  -7  -1   1  408.22    4.29
   1   7   1  478.80    5.76
  -1   1  -7  422.59    5.27
  -1   7  -1  443.16    4.97
  -7   1  -1  381.32    2.99
   1  -1  -7  436.29    5.41
   1   1   7  439.37    5.52
  -1  -1   7  426.49    5.49
   7   1   1  412.87    3.95
  -7   1  -2 1060.87    5.34
   2   7   1 1122.99    8.87
  -7  -1   2 1059.21    7.25
  -7  -1   2 1108.12    7.31
  -1   2  -7 1091.95    8.48
  -2  -7   1 1128.36    8.57
   2  -7  -1 1156.10    7.55
   1   2   7 1090.76    8.66
   7   1   2 1007.00    6.44
  -2   7  -1 1167.28    7.74
  -1  -2   7 1094.84    8.71
   1  -2  -7 1093.30    8.50
  -7   1  -3  526.10    4.14
  -7  -1   3  530.75    5.35
  -3   7  -1  563.86    5.11
   7   1   3  516.07    4.84
  -1   3  -7  520.19    5.96
   1  -3  -7  547.66    6.17
   3  -7  -1  588.61    5.15
  -7  -1   3  545.55    5.41
   3   7   1  548.59    6.32
  -3  -7   1  535.39    6.13
  -1  -3   7  526.39    6.17
   1   3   7  545.51    6.32
   1   4   7  229.40    4.32
  -7   1  -4  217.30    2.99
  -4   7  -1  241.03    3.19
  -1  -4   7  217.85    4.07
   7   1   4  221.24    3.45
  -7  -1   4  226.07    3.72
  -1   4  -7  209.43    3.86
   4  -7  -1  237.52    3.14
  -4  -7   1  229.75    4.32
   1  -4  -7  221.98    4.08
  -7  -1   4  227.15    3.79
   4   7   1  212.77    4.04
   7  -1  -4  226.08    3.30
   7  -1  -5  133.57    2.72
  -5  -7   1  123.69    3.20
  -7  -1   5  125.71    2.95
  -7   1  -5  125.27    2.53
   7   1   5  126.92    2.79
  -7  -1   5  138.84    3.15
  -1  -5   7  124.85    3.23
   5  -7  -1  147.64    2.44
  -5   7  -1  141.96    2.29
   1   5   7  138.71    3.49
   1  -5  -7  142.89    3.38
  -1   5  -7  131.78    3.20
   5   7   1  126.73    3.25
   1  -6  -7  416.96    5.86
  -6  -7   1  394.27    5.95
   7  -1  -6  383.59    4.87
   6  -7  -1  430.75    3.72
  -6   7  -1  422.09    3.58
   1   6   7  388.89    5.93
  -1  -6   7  381.34    5.60
   7   1   6  400.71    5.16
  -7  -1   6  377.13    5.32
  -1  -6   7  384.21    5.49
   6   7   1  364.89    5.51
  -7   1  -6  385.95    4.63
  -2  -6  -7   21.05    1.46
  -7   2   6   23.66    1.40
  -7  -2  -6   21.68    1.33
   6   7  -2   18.74    1.45
   2  -6   7   22.08    1.34
   6  -7   2   23.19    0.84
  -6   7   2   23.75    1.18
   6  -7   2   23.50    0.89
   7  -2   6   22.03    1.11
  -5   7   2   14.21    1.01
  -2   5   7   12.93    1.35
   2  -5   7   15.97    1.24
  -7  -2  -5   16.13    1.21
   5   7  -2   13.47    1.30
  -5  -7  -2   13.49    1.27
  -7   2   5   14.20    1.03
   7  -2   5   15.77    1.01
  -2  -5  -7   14.22    1.37
   4  -7   2  443.31    4.05
  -4  -7  -2  435.76    5.84
   7  -2   4  425.19    3.72
   4   7  -2  428.90    5.79
  -2   4   7  429.21    5.71
   2   4  -7  428.16    5.84
  -2  -4  -7  431.37    5.76
  -7  -2  -4  417.07    5.02
  -7   2   4  440.88    4.58
   2  -4   7  424.63    5.23
  -3  -7  -2    4.60    0.88
   3   7  -2    4.70    0.84
   7  -2   3    6.27    0.50
  -3   7   2    6.04    0.81
  -2   3   7    4.21    0.93
   2   3  -7    5.84    0.83
  -2  -3  -7    6.25    0.94
  -7   2   3    5.75    0.66
   2  -3   7    4.68    0.85
  -7  -2  -3    4.74    0.79
   2  -2   7    8.44    0.89
  -7   2   2    4.42    0.56
   2  -7   2    4.56    0.65
  -2   2   7    5.92    0.89
  -2  -2  -7    4.85    0.95
  -2   7   2    6.05    0.84
   7   2  -2    5.19    0.71
   7  -2   2    3.16    0.30
  -7  -2  -2    2.91    0.76
   2   2  -7    3.26    0.71
  -2  -7  -2    5.60    1.01
   2   7  -2    3.26    0.90
  -7   2   2    4.50    0.57
  -7  -2  -1    0.07    0.59
  -7   2   1    0.21    0.31
  -1  -7  -2    1.90    0.65
  -7   2   1    0.42    0.27
   7   2  -1    2.01    0.62
  -1   7   2   -0.23    0.59
  -2  -1  -7    0.51    0.65
   2  -1   7    1.76    0.61
  -2   1   7    0.34    0.57
   1   7  -2    0.08    0.58
  -2   0   7  430.90    5.46
   0   7   2  446.91    5.42
   0  -7   2  447.27    5.06
   2   0   7  423.78    5.22
   0  -7  -2  459.36    5.25
   0   7  -2  445.67    5.20
  -2   0  -7  427.25    5.28
  -7  -2   0  384.21    4.36
  -7   2   0  392.05    2.23
   7   2   0  417.09    4.37
   2   0  -7  425.78    5.33
  -1  -7   2    1.38    0.62
   7   2   1   -0.29    0.52
  -7  -2   1    1.98    0.60
   2   1   7    1.48    0.61
  -2   1  -7    0.72    0.75
   1   7   2   -0.06    0.69
  -2  -1   7    0.75    0.58
   1  -7  -2   -0.56    0.73
   2  -1  -7    2.77    0.73
  -1   7  -2   -0.55    0.72
  -7  -2   2    6.54    0.82
  -2  -7   2    3.24    0.70
   2   7   2    5.58    0.86
   2   2   7    6.17    0.83
  -2   2  -7    6.10    0.78
  -7   2  -2    3.41    0.34
   2  -2  -7    8.13    1.01
  -2  -2   7    6.04    0.97
  -2   7  -2    5.05    0.74
   7   2   2    5.66    0.82
   2   3   7    3.21    0.87
   7   2   3    5.02    0.68
  -3  -7   2    5.36    0.87
  -2  -3   7    7.64    1.00
  -7  -2   3    6.29    0.81
  -7   2  -3    5.00    0.48
  -2   3  -7    5.70    0.76
   3  -7  -2    5.73    0.86
  -7  -2   3    9.12    0.96
   7  -2  -3    6.62    0.68
   2  -3  -7    3.72    0.85
   3   7   2    2.93    0.84
  -3   7  -2    6.06    0.70
   4   7   2  421.16    5.72
   7  -2  -4  441.04    4.31
  -4  -7   2  424.95    5.76
  -7  -2   4  443.12    5.52
  -4   7  -2  459.79    4.47
   7   2   4  438.80    5.06
   2  -4  -7  444.99    5.62
  -2  -4   7  430.07    5.84
  -7   2  -4  432.45    3.84
   4  -7  -2  459.27    4.56
  -7  -2   4  435.48    5.39
  -2   4  -7  427.91    5.44
   2   4   7  433.04    5.90
  -7  -2   5   13.31    1.21
   5   7   2   11.21    1.16
  -2  -5   7   14.66    1.37
  -5  -7   2   14.03    1.39
  -2  -5   7   12.92    1.25
   2  -5  -7   15.02    1.33
  -7  -2   5   14.41    1.18
   7   2   5   14.18    1.10
   5  -7  -2   15.08    0.99
   2   5   7   13.72    1.41
  -7   2  -5   15.21    1.02
  -2   5  -7   15.70    1.22
  -2  -6   7   21.37    1.46
   7  -2  -6   22.98    1.32
   7   2   6   21.02    1.39
   2  -6  -7   23.19    1.52
  -2   6  -7   24.17    1.46
   6   7   2   23.92    1.63
  -2  -6   7   20.84    1.56
   2   6   7   23.98    1.69
  -7  -2   6   19.77    1.37
  -7   2  -6   23.96    1.24
  -7  -2   6   25.85    1.50
   6  -7  -2   26.62    1.12
  -6  -7   2   22.59    1.57
   6   7  -3  164.05    3.73
   6  -7   3  182.83    2.35
  -7   3   6  179.16    3.46
   3  -6   7  177.24    3.42
  -6   7   3  190.25    3.07
  -3  -6  -7  187.51    4.17
  -6  -7  -3  159.04    3.70
   6  -7   3  180.57    2.29
  -3   6   7  175.73    3.85
  -7  -3  -6  179.94    3.83
   7  -3   6  177.67    2.79
   3  -5   7   58.86    1.93
  -5   7   3   55.88    1.81
  -5  -7  -3   51.59    2.15
  -7   3   5   56.48    1.85
  -3   5   7   58.71    2.25
   5  -7   3   59.95    1.49
   5  -7   3   58.75    1.50
   5   7  -3   50.23    2.15
   7  -3   5   56.35    1.54
  -3  -5  -7   54.41    2.24
  -7  -3  -5   49.13    1.92
   7  -3   4  123.62    1.85
  -3   4   7  140.04    3.36
   4   7  -3  122.67    3.19
  -7   3   4  129.53    2.48
  -4   7   3  134.42    2.80
  -4  -7  -3  131.34    3.29
   4  -7   3  142.27    2.44
  -3  -4  -7  130.19    3.29
  -7  -3  -4  126.02    2.98
   3  -4   7  131.87    2.93
   4  -7   3  134.76    2.38
  -3  -3  -7  892.63    8.19
  -3   3   7  933.25    8.16
  -7  -3  -3  927.52    7.76
  -3   7   3  996.93    7.64
   3  -7   3  942.46    6.41
  -3  -7  -3  988.24    8.82
   3  -3   7  927.91    7.45
   3   7  -3  888.11    8.16
   3   3  -7  912.74    8.46
  -7   3   3  945.00    5.87
  -3  -2  -7  292.98    4.62
  -3   2   7  300.07    4.73
   2   7  -3  286.08    4.52
   3   2  -7  291.75    4.67
   3  -2   7  287.85    4.22
  -7   3   2  298.49    2.83
   7   3  -2  282.99    3.98
  -2  -7  -3  306.18    4.71
   1  -7   3  544.47    5.41
   3  -1   7  536.11    5.78
  -3  -1  -7  516.48    5.96
  -3   1   7  535.01    6.15
  -1   7   3  556.86    6.06
   7   3  -1  540.75    5.47
   3   1  -7  522.30    6.03
  -7  -3  -1  529.10    5.66
   3   0   7  211.38    3.69
   0   7  -3  218.46    3.76
   0  -7   3  224.16    3.66
   3   0  -7  209.34    3.80
  -7  -3   0  205.73    3.52
   0   7   3  226.62    4.05
  -3   0  -7  210.13    3.73
   0  -7  -3  218.89    3.75
  -3   0   7  213.18    3.89
   7   3   0  200.21    3.30
  -3   1  -7  544.21    5.96
  -7  -3   1  536.77    5.73
   1   7   3  567.25    6.38
   3  -1  -7  526.32    5.91
   1  -7  -3  588.19    6.08
  -3  -1   7  529.44    6.21
  -1   7  -3  558.93    5.82
   3   1   7  516.94    5.87
  -1  -7   3  559.87    5.98
   7   3   1  498.92    5.19
   3   2   7  300.24    4.65
  -7  -3   2  304.88    4.54
   7  -3  -2  302.89    2.59
   2   7   3  295.03    4.68
  -2   7  -3  309.11    4.22
  -3  -2   7  291.16    4.67
  -3   2  -7  302.20    4.44
   3  -2  -7  304.73    4.53
  -2  -7   3  307.26    4.64
  -3  -7   3  920.30    8.22
   7   3   3  904.78    7.41
  -7  -3   3  911.30    7.92
   3   7   3  931.61    8.53
  -7  -3   3  941.52    8.07
   7  -3  -3  934.93    5.35
  -7   3  -3  914.44    4.17
  -3   3  -7  919.84    7.72
   3  -3  -7  938.94    7.88
   3   3   7  923.23    8.41
  -3  -3   7  896.30    8.35
  -3   4  -7  125.69    2.86
  -7   3  -4  128.25    1.98
  -7  -3   4  130.62    3.15
   7   3   4  124.05    2.91
   4   7   3  126.16    3.29
  -3  -4   7  129.08    3.35
  -7  -3   4  128.90    3.13
   3  -4  -7  129.24    3.07
   3   4   7  128.40    3.35
   7  -3  -4  130.01    2.32
   5  -7  -3   57.83    1.74
  -7  -3   5   54.82    2.15
   3  -5  -7   56.81    2.07
  -5  -7   3   53.53    2.21
   5   7   3   48.20    2.15
  -3  -5   7   56.46    2.35
  -3  -5   7   55.07    2.17
  -7   3  -5   53.37    1.54
   7   3   5   57.18    2.14
  -7  -3   5   59.51    2.28
  -3   5  -7   58.40    2.05
   3   5   7   54.34    2.23
  -3  -6   7  171.97    3.79
   6  -7  -3  191.45    2.88
  -7  -3   6  184.14    3.93
  -7   3  -6  187.94    3.03
   6   7   3  184.13    4.19
  -3  -6   7  173.65    3.97
  -7  -3   6  178.32    3.90
   7   3   6  178.11    3.70
   7  -3  -6  184.57    3.32
  -3   6  -7  177.51    3.56
   3   6   7  181.08    4.16
   7  -4   6   12.55    0.95
  -4  -6  -7   14.58    1.26
   4  -6   7   11.87    1.03
   6  -7   4   12.07    0.72
  -6   7   4   14.57    1.09
  -7  -4  -6   12.14    1.20
  -4   6   7   12.72    1.36
   6  -7   4   11.64    0.83
  -7   4   6   12.50    1.01
   6   7  -4   13.29    1.27
   7  -4   5  271.68    3.01
   4  -5   7  285.48    4.11
  -7  -4  -5  277.99    4.71
  -5   7   4  302.85    4.23
   5   7  -4  270.49    4.81
  -5  -7  -4  284.14    5.10
  -4   5   7  308.09    5.07
  -4  -5  -7  278.34    4.93
   5  -7   4  295.84    3.43
   5  -7   4  309.57    3.48
   7  -4   4    8.63    0.59
  -4   4   7   17.67    1.27
   4  -7   4   14.12    0.90
   4  -4   7   13.61    1.10
   4  -7   4   16.64    0.97
  -7   4   4   12.89    0.89
   4   7  -4   16.62    1.30
  -4   7   4   12.64    1.20
  -4  -4  -7   16.70    1.37
  -7  -4  -4   14.41    1.17
  -3   7   4  170.77    3.37
  -4  -3  -7  158.95    3.53
  -7  -4  -3  161.74    3.39
   7   4  -3  156.00    3.23
   3  -7   4  169.94    2.96
   4  -3   7  170.69    3.18
  -7   4   3  170.62    2.51
   7  -4   3  151.61    1.42
   3   7  -4  157.37    3.51
  -4   3   7  173.04    3.68
  -4  -2  -7    5.77    0.88
   4  -2   7    4.55    0.75
  -7  -4  -2    4.32    0.81
  -2   7   4    8.31    1.09
   4   2  -7    4.61    0.93
  -4   2   7    2.49    0.65
  -2  -7  -4    6.56    0.99
   2   7  -4    4.81    0.77
   7   4  -2    3.82    0.75
   2  -7   4    5.34    0.64
   2  -7   4    6.91    0.76
   1  -7   4  236.93    3.65
   1  -7   4  248.02    3.91
   4  -1   7  229.15    3.76
   4   1  -7  234.17    4.13
  -7  -4  -1  232.91    3.94
   1   7  -4  236.67    4.17
  -1   7   4  242.70    4.22
  -4   1   7  244.34    4.32
   7   4  -1  212.55    3.66
  -4  -1  -7  220.39    3.93
  -1  -7  -4  257.61    4.46
   4   0   7    5.43    0.79
  -4   0   7    2.17    0.91
   7   4   0    2.45    0.67
   0  -7   4    3.80    0.80
   4   0  -7    5.88    0.96
   0   7   4    2.63    0.91
   0  -7  -4    4.03    0.92
  -7  -4   0    2.34    0.72
  -4   0  -7    3.56    0.68
  -4  -1   7  222.47    4.09
   7   4   1  234.02    3.82
  -1  -7   4  236.66    4.00
   4  -1  -7  240.91    4.08
   4   1   7  233.27    4.01
   1   7   4  247.65    4.45
  -4   1  -7  231.94    3.90
   1  -7  -4  254.38    4.13
  -7  -4   2    2.57    0.66
   4   2   7    4.54    0.94
   4  -2  -7    3.40    0.77
   2  -7  -4    3.74    0.80
   7  -4  -2    5.55    0.45
  -4  -2   7    5.53    0.88
   2   7   4    5.41    0.88
   7   4   2    4.71    0.84
  -4   2  -7    6.76    0.91
   7  -4  -3  174.04    2.33
   7   4   3  161.34    3.36
   4  -3  -7  174.42    3.49
   3   7   4  166.61    3.81
  -4   3  -7  166.00    3.28
   4   3   7  164.38    3.58
  -4  -3   7  167.60    3.80
  -7  -4   3  163.60    3.52
   4  -7  -4   18.59    1.23
   7   4   4   15.11    1.28
   4   7   4   15.92    1.28
  -7  -4   4   15.57    1.38
  -4   4  -7   16.99    1.30
  -7   4  -4   15.00    0.70
   7  -4  -4   15.90    1.01
   4   4   7   16.84    1.39
   4  -4  -7   14.99    1.31
  -4  -4   7   15.15    1.21
  -4  -7   4   17.10    1.34
  -7  -4   4   18.44    1.42
   4  -5  -7  302.93    4.68
   5  -7  -4  317.87    4.12
  -4  -5   7  269.24    4.72
   5   7   4  280.50    4.94
   7   4   5  270.86    4.54
  -5  -7   4  274.65    4.87
   4   5   7  288.45    5.16
  -7  -4   5  277.62    4.87
  -4  -5   7  276.21    4.97
  -7   4  -5  295.51    3.33
  -4   5  -7  293.69    4.41
  -7  -4   5  272.56    4.85
  -4  -6   7   16.07    1.49
  -7   4  -6   15.15    1.00
  -4  -6   7   11.15    1.18
   7   4   6   12.91    1.26
   4   6   7   10.50    1.04
  -7  -4   6   13.21    1.38
  -6  -7   4   14.91    1.38
  -4   6  -7   13.77    1.14
  -7  -4   6   10.64    1.33
   7  -4  -6   16.70    1.14
  -7   5   6  404.88    5.14
   6  -7   5  404.21    4.00
  -6   7   5  429.31    5.29
   7  -5   6  391.34    3.96
  -5  -6  -7  359.30    5.76
  -6  -7  -5  381.64    6.01
  -7  -5  -6  380.05    5.84
   5  -6   7  407.19    4.73
  -5   6   7  415.49    5.82
   6  -7   5  394.94    3.83
  -5  -5  -7   96.12    3.08
  -7   5   5  111.34    2.65
   7  -5   5  105.29    1.89
  -5   5   7  104.97    2.93
   5  -7   5  105.16    2.21
  -5   7   5  109.06    2.72
   5  -5   7  103.30    2.46
  -5  -7  -5  106.16    3.21
  -7  -5  -5   99.81    2.99
   7  -5   4  145.56    1.88
  -7   5   4  160.45    2.83
   5  -4   7  150.07    2.83
  -5  -4  -7  145.08    3.48
   4  -7   5  151.50    2.76
  -7  -5  -4  138.15    3.29
  -4  -7  -5  151.77    3.69
   4  -7   5  157.06    2.75
  -5   4   7  160.47    3.56
   5  -3   7   56.65    1.87
  -5  -3  -7   50.16    2.04
   7   5  -3   55.06    2.11
   7  -5   3   41.37    0.86
   3  -7   5   53.14    1.73
  -5   3   7   55.61    2.12
   3  -7   5   57.07    1.76
   5   3  -7   54.40    2.14
  -7  -5  -3   50.04    2.05
  -3   7   5   61.67    2.25
  -3  -7  -5   59.18    2.41
  -7   5   2 1001.82    5.29
  -7  -5  -2 1005.24    8.73
  -5   2   7 1012.45    8.63
  -2   7   5 1039.14    8.77
   2  -7   5  987.35    7.67
  -5  -2  -7  999.66    8.70
   7   5  -2  977.94    8.37
   2  -7   5 1022.31    7.58
   5  -2   7 1024.46    7.69
   7   5  -1  124.81    3.01
   5  -1   7  126.59    2.81
  -5  -1  -7  123.03    3.04
  -7  -5  -1  118.83    2.93
  -1   7   5  131.00    3.25
   5   1  -7  126.39    3.09
  -5   1   7  123.55    3.06
   1  -7   5  125.61    2.93
   1  -7   5  132.03    2.86
   0  -7   5    3.13    0.75
   0  -7   5    2.05    0.79
   0   7   5    0.76    0.83
  -5   0   7    3.23    0.84
   5   0   7   -0.16    0.58
   7   5   0    3.61    0.86
  -5   0  -7    3.30    0.78
  -7  -5   0    1.93    0.80
   5   1   7  121.85    2.92
  -7  -5   1  126.02    3.12
   7  -5  -1  114.43    1.25
   1  -7  -5  128.77    3.10
   1   7   5  141.08    3.56
  -5   1  -7  129.08    2.93
   5  -1  -7  134.16    3.08
  -5  -1   7  126.99    3.22
  -1  -7   5  131.37    3.28
  -1  -7   5  129.05    3.07
   7   5   1  116.61    2.92
   5  -2  -7 1034.30    8.22
  -7  -5   2  985.15    8.76
  -5  -2   7  991.79    9.02
  -5   2  -7 1026.88    8.00
   7   5   2  979.61    8.52
   2   7   5  991.15    9.05
  -2  -7   5 1006.93    8.97
   7  -5  -2 1041.44    4.74
   5   2   7  975.98    8.34
   5   3   7   56.23    2.21
  -7  -5   3   53.07    2.14
   7   5   3   52.74    2.08
   5  -3  -7   55.01    2.01
  -5   3  -7   58.63    1.98
   3  -7  -5   58.32    2.02
  -3  -7   5   58.87    2.36
   3   7   5   51.55    2.23
   7  -5  -3   59.18    1.40
  -5  -3   7   56.63    2.35
  -4  -7   5  146.46    3.57
  -7  -5   4  146.50    3.54
   7  -5  -4  158.43    2.56
   4   7   5  153.46    3.75
   7   5   4  142.10    3.39
  -7  -5   4  146.02    3.61
  -5  -4   7  147.30    3.60
   5  -4  -7  160.04    3.35
  -4  -7   5  151.24    3.78
   5   4   7  154.63    3.76
  -5  -4   7  141.83    3.56
  -5   4  -7  153.00    3.12
   4  -7  -5  166.66    3.29
  -7  -5   5   98.83    3.01
  -5  -7   5   89.20    2.91
  -5  -7   5   92.91    3.06
   5   7   5  106.19    3.25
   5   5   7   98.99    2.97
   5  -7  -5  117.94    2.76
  -5  -5   7  100.59    3.06
  -5  -5   7   99.25    3.11
  -7   5  -5  102.86    1.99
   5  -5  -7  107.27    2.77
  -7  -5   5   97.95    3.08
  -5   5  -7  103.65    2.64
   7   5   5   98.02    2.97
   6   7   5  378.13    5.94
  -5  -6   7  366.60    5.97
   5   6   7  371.36    5.94
  -5  -6   7  378.18    6.02
  -5   6  -7  375.36    4.87
  -7   5  -6  399.96    4.26
  -6  -7   5  363.38    5.79
  -7  -5   6  374.31    6.02
   7  -5  -6  410.23    4.81
   7   5   6  401.28    6.10
  -7  -5   6  373.40    5.95
  -6  -7   5  375.22    6.18
   6  -7   6   44.33    1.45
  -6  -7  -6   42.24    2.26
  -6  -6  -7   41.03    2.20
   7  -6   6   43.69    1.39
   6  -7   6   44.35    1.50
  -7   6   6   49.49    1.99
   6  -6   7   41.33    1.51
  -6   7   6   51.82    2.15
   7  -6   6   45.49    1.37
  -7  -6  -6   42.83    2.11
  -6   6   7   49.27    2.08
   7  -6   5   18.70    0.94
   5  -7   6   17.13    1.07
   5  -7   6   16.06    1.03
   6  -5   7   20.02    1.12
  -7  -6  -5   16.56    1.37
  -5   7   6   17.82    1.24
  -5  -7  -6   17.82    1.38
  -7   6   5   19.08    1.27
  -6   5   7   20.55    1.45
   7  -6   5   19.14    0.86
  -6  -5  -7   16.92    1.48
  -6   4   7  371.02    5.41
   6  -4   7  338.84    4.17
   7  -6   4  338.99    2.89
   7   6  -4  315.36    5.24
  -7  -6  -4  327.87    5.51
   4  -7   6  337.02    4.31
  -6  -4  -7  316.00    5.25
  -7   6   4  349.62    4.13
  -4  -7  -6  319.56    5.42
   4  -7   6  344.88    4.27
   7  -6   4  337.48    2.85
  -4   7   6  353.66    5.34
  -6  -3  -7   26.56    1.57
   7  -6   3   20.22    0.70
   6  -3   7   25.22    1.28
  -7   6   3   26.52    1.22
  -6   3   7   29.68    1.63
  -7  -6  -3   26.02    1.63
  -3   7   6   31.14    1.66
   7  -6   3   23.40    0.73
  -3  -7  -6   29.36    1.81
   3  -7   6   25.87    1.37
   3  -7   6   32.60    1.48
   7   6  -3   25.10    1.67
   2  -7   6   10.92    0.90
   6  -2   7    8.50    0.84
   7  -6   2    7.26    0.38
  -6  -2  -7   12.74    1.14
  -7   6   2   11.22    0.77
  -7  -6  -2   12.42    1.28
  -6   2   7    8.40    1.04
  -2   7   6    9.89    1.16
   6   2  -7   11.59    1.25
  -2  -7  -6   11.86    1.20
   2  -7   6   14.85    1.10
   7  -6   2    9.03    0.40
   7   6  -2   11.37    1.18
  -1  -7  -6   13.65    1.40
  -6  -1  -7   11.52    1.04
   1  -7   6   13.19    1.20
  -7  -6  -1   11.48    1.14
   7   6  -1   14.50    1.24
  -7   6   1    7.99    0.54
  -1   7   6   15.36    1.22
  -6   1   7   12.15    1.17
   1  -7   6   11.14    1.05
   6  -1   7   11.40    1.04
   6   0   7  394.92    5.02
  -7  -6   0  395.52    5.69
  -6   0   7  406.12    5.61
   7   6   0  385.61    5.49
   6   0  -7  401.27    5.33
  -6   0  -7  398.33    5.20
   0   7   6  421.87    5.97
   0  -7   6  398.28    5.46
   0  -7  -6  425.32    6.02
   7   6   1   15.42    1.33
  -6  -1   7   13.00    1.19
  -7  -6   1   12.93    1.24
  -1  -7   6   10.44    1.03
   7  -6  -1   11.63    0.52
   1   7   6   14.68    1.46
  -6   1  -7   12.60    1.08
   6   1   7   12.20    1.26
  -1  -7   6   14.11    1.36
   6  -1  -7   11.89    1.14
  -7  -6   2   11.01    1.09
  -6   2  -7   11.52    1.10
  -6  -2   7    8.80    1.08
  -2  -7   6   11.37    1.31
   2   7   6   11.33    1.14
   6  -2  -7   14.03    1.21
   7   6   2   14.70    1.23
   6   2   7   11.86    1.10
  -2  -7   6   13.15    1.29
   6  -3  -7   27.65    1.38
   3  -7  -6   27.98    1.61
  -3  -7   6   26.35    1.70
  -6   3  -7   26.73    1.47
   3   7   6   31.07    1.85
   7   6   3   27.63    1.72
   6   3   7   27.25    1.66
   7  -6  -3   26.07    1.06
  -7  -6   3   28.21    1.71
  -6  -3   7   27.01    1.68
  -3  -7   6   24.99    1.51
  -6  -3   7   27.49    1.75
  -7  -6   4  325.73    5.45
   6   4   7  321.09    5.17
  -4  -7   6  326.86    5.38
   6  -4  -7  343.52    4.71
   4   7   6  316.96    5.46
  -4  -7   6  304.82    5.34
  -6  -4   7  325.42    5.49
   7  -6  -4  356.09    3.81
  -6   4  -7  331.64    4.44
   4  -7  -6  367.09    5.12
   7   6   4  324.14    5.34
  -6  -4   7  318.91    5.37
  -7  -6   5   14.03    1.47
   6   5   7   21.46    1.56
  -6   5  -7   22.54    1.27
   5  -7  -6   21.00    1.42
   7   6   5   17.18    1.35
   5   7   6   15.71    1.49
  -5  -7   6   19.57    1.67
  -7  -6   5   14.78    1.45
  -6  -5   7   19.31    1.44
   7  -6  -5   22.30    1.16
   6  -5  -7   20.18    1.33
  -5  -7   6   19.17    1.51
  -7  -6   6   39.26    2.04
  -6  -7   6   40.88    2.09
  -7  -6   6   43.62    2.27
   6  -7  -6   46.59    1.79
   6   6   7   46.73    2.33
  -6  -6   7   42.89    2.27
  -6   6  -7   40.01    1.61
   6   7   6   48.93    2.27
  -6  -6   7   47.10    2.29
  -6  -7   6   45.63    2.31
   6  -6  -7   46.95    1.94
   7  -6  -6   47.71    1.75
   7   6   6   39.99    2.11
  -7   7   7  396.47    5.48
   7  -7   7  396.83    4.14
   6  -7   7   31.51    1.46
   7  -6   7   28.24    1.19
   7  -7   6   30.21    1.16
  -7   7   6   33.22    1.64
  -7  -7  -6   29.16    1.78
  -7  -6  -7   29.96    1.76
  -6   7   7   32.41    1.85
   6  -7   7   30.78    1.34
  -7   6   7   31.18    1.76
   7  -7   6   30.92    1.18
  -7   5   7   44.16    2.03
  -5   7   7   44.84    2.01
  -5  -7  -7   41.68    2.23
   7  -5   7   40.13    1.43
   7  -7   5   42.86    1.27
  -7   7   5   44.44    1.87
  -7  -7  -5   41.87    2.18
   7  -7   5   41.29    1.24
   5  -7   7   42.38    1.57
   5  -7   7   39.42    1.59
  -7  -5  -7   40.40    2.02
  -4  -7  -7   54.33    2.40
  -7  -4  -7   46.11    2.12
   7  -4   7   46.91    1.57
  -7   4   7   51.69    2.08
   4  -7   7   51.10    1.81
   7  -7   4   47.61    1.23
   7   7  -4   42.41    2.13
   7  -7   4   51.23    1.25
  -7   7   4   54.45    1.83
  -7  -7  -4   42.92    2.03
  -4   7   7   47.41    2.24
   4  -7   7   47.08    1.78
  -7  -3  -7  503.37    6.48
   7  -3   7  523.32    5.06
   7   7  -3  520.11    6.88
   7  -7   3  542.08    3.44
  -7   7   3  570.01    5.01
   3  -7   7  529.58    5.69
  -7   3   7  554.82    6.41
  -7  -7  -3  505.05    6.77
   3  -7   7  537.68    5.94
  -3   7   7  568.76    7.09
  -3  -7  -7  522.23    6.91
  -7  -2  -7    8.76    1.07
   7  -2   7    8.45    0.98
  -7   7   2    8.07    0.67
  -7   2   7    6.04    0.90
  -7  -7  -2    8.51    1.08
  -2  -7  -7    6.21    1.34
   7  -7   2    5.52    0.46
   7   2  -7    6.83    1.06
   2  -7   7    4.78    0.90
  -2   7   7   10.10    1.12
   7  -7   2    6.08    0.42
   7  -7   1  301.20    2.27
  -7  -1  -7  305.68    4.69
  -7  -7  -1  302.90    5.26
  -7   7   1  316.19    3.01
   7   7  -1  281.43    4.92
   1  -7   7  294.99    4.61
  -1   7   7  316.01    5.32
   7  -1   7  297.88    4.16
   7  -7   1  272.48    2.36
  -7   1   7  303.87    4.85
  -1  -7  -7  298.36    5.12
   1  -7   7  304.10    4.76
   7   1  -7  309.80    4.89
   7  -7   0   85.28    1.40
  -7   0  -7   86.29    2.51
   0  -7  -7   85.92    2.75
   0  -7   7   90.03    2.69
  -7   7   0   84.93    1.44
   0   7   7  101.88    3.24
   0  -7   7   89.48    2.71
   7   0   7   87.71    2.38
   7   0  -7   92.84    2.67
  -7   0   7   90.84    2.74
   7   7   0   77.27    2.62
  -7  -1   7  302.25    5.02
  -1  -7   7  293.21    4.99
  -1  -7   7  303.52    4.99
   7  -1  -7  314.90    4.63
  -7  -7   1  307.30    5.43
  -7   1  -7  313.13    4.60
   1   7   7  304.65    5.43
   1  -7  -7  310.72    5.09
   7   1   7  296.20    4.55
   7   7   1  298.08    5.23
   7  -7  -2    7.93    0.65
   7   7   2    8.12    1.03
  -2  -7   7    7.97    0.99
  -7  -2   7    7.22    1.08
   2   7   7    7.19    1.09
  -7  -7   2   11.81    1.26
   7   2   7    9.65    1.27
  -7   2  -7    6.45    0.87
  -2  -7   7    7.17    1.03
   7  -2  -7    5.49    1.00
   2  -7  -7    9.15    1.00
  -7  -7   3  501.62    6.79
   7   7   3  511.34    6.77
   3  -7  -7  571.27    6.73
  -7  -3   7  540.26    7.03
  -3  -7   7  524.82    7.00
   7   3   7  518.50    6.40
  -7   3  -7  530.25    5.49
   3   7   7  514.09    7.01
  -7  -3   7  528.15    7.01
   7  -3  -7  566.37    6.11
   7  -7  -3  576.45    4.54
  -3  -7   7  504.21    6.68
  -7  -4   7   51.44    2.29
   7   7   4   42.96    2.32
   4  -7  -7   57.35    2.22
  -7  -4   7   49.67    2.29
  -7  -7   4   48.91    2.32
   7  -7  -4   54.05    1.60
   4   7   7   49.74    2.31
   7   4   7   52.07    2.32
   7  -4  -7   52.88    1.99
  -4  -7   7   47.69    2.33
  -7   4  -7   48.65    1.67
   7  -5  -7   43.66    1.76
  -7  -7   5   46.08    2.33
   7   7   5   40.39    2.13
   5  -7  -7   45.86    1.95
   5   7   7   42.16    2.09
   7   5   7   37.71    2.09
  -7   5  -7   42.50    1.57
  -7  -5   7   41.13    2.27
  -5  -7   7   37.14    1.99
  -5  -7   7   41.84    2.21
  -7  -5   7   37.31    2.03
   7  -7  -5   48.05    1.75
  -7  -7   5   41.11    2.14
  -7  -7   6   30.49    1.85
  -7  -7   6   19.30    1.69
   7   6   7   24.74    1.72
   7   7   6   33.47    1.93
   6   7   7   28.62    1.83
  -7  -6   7   28.42    1.83
  -7   6  -7   31.68    1.41
   7  -7  -6   33.57    1.50
  -6  -7   7   34.12    2.14
   7  -6  -7   35.63    1.64
  -7  -6   7   37.50    2.08
  -6  -7   7   32.81    1.93
  -7  -7   7  349.26    6.21
   7   7   7  343.77    5.90
   0   0  -8  524.52    6.23
  -8   0   0  494.12    4.26
   0  -8   0  584.69    6.07
   0   8   0  567.75    6.27
   0   0   8  542.02    6.37
   8   0   0  510.27    3.86
   1   8   0   24.12    1.55
   8   0   1   19.82    0.88
   0   1   8   19.44    1.44
   0   1  -8   18.26    1.32
  -8   0   1   20.71    1.06
  -1  -8   0   18.87    1.36
   1  -8   0   22.88    1.28
  -8   0  -1   17.43    0.91
   0  -1   8   19.63    1.39
   0  -1  -8   23.67    1.44
  -1   8   0   20.03    1.33
  -8   0   1   18.07    1.03
  -2   8   0   12.37    1.03
   0   2   8    9.17    1.02
  -2  -8   0   13.69    1.26
   2  -8   0   13.42    1.01
   0  -2  -8   10.09    1.15
   0   2  -8   10.82    1.09
  -8   0   2   10.75    0.87
  -8   0  -2   11.80    0.86
   0  -2   8   11.68    1.25
  -8   0   2   11.69    0.88
   2   8   0    9.56    1.08
   0   3   8    8.10    1.12
   3   8   0    8.37    1.01
  -8   0   3    8.99    0.88
   8   0   3    8.94    0.75
   0   3  -8    9.90    1.09
  -3   8   0    9.20    0.89
  -8   0   3    8.68    0.81
   0  -3   8   10.66    1.14
  -8   0  -4  386.03    4.30
  -4   8   0  431.30    4.61
   0  -4   8  379.67    5.45
   8   0   4  396.75    4.26
  -4  -8   0  393.00    5.68
   0  -4  -8  398.27    5.74
  -8   0   4  404.80    4.84
  -8   0   4  413.45    4.98
   0   4  -8  391.99    5.60
   4   8   0  401.70    5.91
   0   4   8  394.86    5.76
   0  -5  -8   60.04    2.31
  -5   8   0   64.21    1.79
   5   8   0   62.86    2.44
  -5  -8   0   55.08    2.24
   0  -5   8   68.93    2.64
  -8   0  -5   64.12    1.96
   8   0   5   55.91    1.74
   5  -8   0   63.68    1.67
   0   5  -8   59.06    2.30
  -8   0   5   64.59    2.11
   0   5   8   62.05    2.36
  -8   0   5   67.32    2.17
   6   8   0   62.49    2.53
  -8   0  -6   62.53    2.10
  -6   8   0   72.50    1.76
  -6  -8   0   59.89    2.43
   0  -6  -8   58.15    2.32
   0  -6   8   63.27    2.41
   6  -8   0   74.87    1.71
   0   6  -8   63.61    2.48
   8   0   6   66.03    2.09
   0   6   8   63.47    2.61
  -8   0   6   63.54    2.22
   8   0  -6   63.32    2.11
   8   0   7   48.13    1.90
   0  -7  -8   43.10    2.16
   7   8   0   38.99    1.98
   0   7   8   44.29    2.19
  -7   8   0   50.44    1.33
   0  -7   8   44.68    2.13
   7  -8   0   51.90    1.32
  -7  -8   0   46.57    2.27
   0  -7   8   45.24    1.98
  -8   0  -7   48.56    1.93
  -8   0   7   44.78    1.95
   7   8  -1  170.50    3.97
  -7   8   1  201.84    2.70
   8   1  -7  171.39    3.60
  -8  -1  -7  176.74    3.65
  -1  -7  -8  177.29    4.05
  -7  -8  -1  179.77    4.19
   1  -7   8  178.40    3.85
   7  -8   1  190.23    2.30
  -1   7   8  188.97    4.43
   8  -1   7  178.69    3.31
  -8   1   7  185.64    3.82
   1  -7   8  186.38    3.85
   6   8  -1  241.57    4.67
  -6   8   1  276.66    3.41
   1  -6   8  255.41    4.55
   6  -8   1  279.51    3.08
  -8  -1  -6  248.18    4.12
   8  -1   6  250.93    3.58
  -1  -6  -8  244.43    4.67
  -1   6   8  274.11    5.20
  -8   1   6  260.47    4.26
  -8  -1  -5  221.43    3.69
  -5   8   1  249.84    3.48
  -1  -5  -8  224.79    4.47
   5  -8   1  248.48    3.19
   1   5  -8  219.90    4.37
  -5  -8  -1  227.84    4.55
   8  -1   5  228.09    3.27
   1  -5   8  228.82    4.24
  -1   5   8  230.19    4.60
   5   8  -1  212.76    4.36
  -8   1   5  224.11    3.70
   4   8  -1  343.23    5.67
  -8   1   4  313.88    4.02
  -4   8   1  348.03    4.31
  -1  -4  -8  307.16    5.03
  -4  -8  -1  316.45    5.23
   8  -1   4  301.34    3.36
   4  -8   1  345.77    3.95
  -8   1   4  323.89    4.21
   1  -4   8  314.72    4.92
  -8  -1  -4  311.38    4.19
  -1   4   8  339.57    5.47
   1   4  -8  296.67    4.96
   3   8  -1  270.35    4.67
  -1   3   8  285.81    4.85
   1   3  -8  263.06    4.62
  -3   8   1  303.04    4.18
  -8   1   3  301.07    3.77
  -8  -1  -3  273.08    3.81
   1  -3   8  282.21    4.62
  -8   1   3  296.03    3.80
   8  -1   3  255.94    2.82
  -8   1   2  269.36    3.18
   1   2  -8  264.89    4.52
  -1   2   8  286.01    4.84
  -2   8   1  301.65    4.36
   2  -8   1  300.20    4.06
   2   8  -1  273.90    4.54
  -2  -8  -1  279.87    4.60
   8  -1   2  269.23    2.63
  -1  -2  -8  261.83    4.45
   1  -2   8  271.38    4.51
  -8   1   2  280.21    3.22
  -8  -1  -2  255.94    3.51
   1   8  -1  364.04    5.11
   1  -8   1  385.82    4.82
  -8   1   1  356.51    3.30
  -8  -1  -1  329.26    4.03
   1   1  -8  349.51    5.16
   1  -1   8  353.89    5.17
  -1   1   8  360.30    5.38
  -8   1   1  331.30    3.26
  -1  -1  -8  332.57    5.00
   8   1  -1  336.07    3.66
   8  -1   1  346.25    2.76
  -1   8   1  376.02    5.06
  -1   0  -8  547.79    6.35
   0   8  -1  572.20    6.18
  -8   1   0  590.63    3.96
   0   8   1  609.85    6.54
   8   1   0  535.43    4.55
   0  -8   1  606.62    6.22
  -8  -1   0  527.05    4.97
  -8   1   0  536.59    3.86
   1   0  -8  554.81    6.40
   1   0   8  570.52    6.56
  -1   0   8  563.59    6.51
  -1   8  -1  378.24    4.89
  -1   1  -8  346.09    5.06
  -8  -1   1  328.02    3.92
   1   1   8  358.40    5.31
  -1  -8   1  377.12    5.10
   8   1   1  349.75    3.82
   1  -8  -1  397.77    5.05
  -8   1  -1  322.14    2.98
   1  -1  -8  345.01    5.14
  -1  -1   8  361.08    5.30
   1   8   1  377.72    5.33
  -2  -8   1  299.80    4.92
  -2   8  -1  287.15    4.12
   2   8   1  278.64    4.71
  -1  -2   8  277.25    4.68
   8   1   2  253.51    3.32
  -8  -1   2  287.64    3.91
  -8  -1   2  267.18    3.80
   1   2   8  276.71    4.68
   2  -8  -1  291.85    4.05
   1  -2  -8  274.41    4.52
  -1   2  -8  269.87    4.54
   8   1   3  264.71    3.58
   3   8   1  258.91    4.51
  -1  -3   8  271.79    4.62
   1   3   8  276.22    4.82
  -3   8  -1  291.33    4.03
  -8  -1   3  283.04    4.00
  -1   3  -8  259.93    4.49
  -8   1  -3  265.40    3.02
  -8  -1   3  290.90    4.21
  -4   8  -1  332.15    4.01
  -8   1  -4  324.13    3.72
  -8  -1   4  316.52    4.47
   4   8   1  316.43    5.16
  -1   4  -8  314.68    5.02
  -1  -4   8  298.54    4.91
  -4  -8   1  341.37    5.53
   8   1   4  298.80    3.92
   1  -4  -8  309.58    4.94
   4  -8  -1  361.92    4.31
   1   4   8  315.44    5.29
  -8  -1   4  322.90    4.61
   5   8   1  217.70    4.37
   8  -1  -5  224.38    3.56
  -1   5  -8  226.09    4.35
   1  -5  -8  227.78    4.46
  -8   1  -5  227.50    3.30
  -1  -5   8  208.50    4.22
   8   1   5  227.51    3.66
  -8  -1   5  227.79    3.97
  -5  -8   1  209.17    4.29
   5  -8  -1  273.00    3.58
   1   5   8  223.16    4.55
  -8  -1   5  231.48    4.18
  -5   8  -1  256.92    3.45
   6   8   1  236.25    4.67
   8  -1  -6  263.50    4.10
  -6  -8   1  246.46    4.79
   6  -8  -1  279.78    3.30
  -8  -1   6  245.61    4.35
  -1   6  -8  241.43    4.56
  -8   1  -6  260.83    3.84
   8   1   6  261.68    4.09
  -1  -6   8  238.16    4.58
   1   6   8  266.88    5.11
   1  -6  -8  247.60    4.57
  -1  -6   8  239.64    4.46
  -8  -1   6  272.86    4.81
  -6   8  -1  279.83    3.22
   7   8   1  182.16    4.15
   1  -7  -8  181.59    4.04
  -8  -1   7  184.93    3.94
   8  -1  -7  181.89    3.56
  -7  -8   1  180.97    4.26
  -1  -7   8  174.05    3.98
   8   1   7  185.97    3.65
   1   7   8  185.65    4.32
  -8   1  -7  185.43    3.51
  -1  -7   8  185.05    4.04
   2  -7   8   16.68    1.41
  -7   8   2   18.37    0.99
  -7  -8  -2   14.77    1.46
   7  -8   2   15.44    0.71
  -8   2   7   19.09    1.38
   7  -8   2   15.39    0.67
  -2   7   8   18.07    1.59
   8  -2   7   15.48    1.07
  -8  -2  -7   17.57    1.36
   7   8  -2   14.14    1.37
  -2  -6  -8   94.52    3.02
  -6   8   2   97.52    2.15
   2  -6   8   90.42    2.65
   6  -8   2  101.52    1.89
   6  -8   2   97.21    1.83
   6   8  -2   83.03    2.82
  -6  -8  -2   93.38    3.10
  -8   2   6   92.77    2.61
   8  -2   6   92.10    2.17
  -2   6   8   87.29    2.94
  -8  -2  -6   85.59    2.57
  -2  -5  -8  312.92    5.25
   2  -5   8  296.21    4.61
  -2   5   8  323.06    5.36
  -5   8   2  342.72    4.31
   2   5  -8  286.28    5.01
   5  -8   2  333.56    3.69
  -5  -8  -2  307.15    5.37
  -8  -2  -5  296.26    4.51
   8  -2   5  296.25    3.39
  -8   2   5  315.94    4.26
   5   8  -2  311.00    5.24
   4   8  -2   13.37    1.30
  -2   4   8   11.57    1.23
  -2  -4  -8   10.79    1.23
  -4   8   2   14.83    1.13
   2   4  -8   11.79    1.26
  -4  -8  -2   17.02    1.40
   8  -2   4    8.86    0.70
  -8   2   4   11.32    0.96
  -8  -2  -4   11.76    1.05
   4  -8   2   12.92    0.99
   2  -4   8   10.40    1.12
  -3  -8  -2  129.07    3.30
  -3   8   2  139.41    2.98
   8  -2   3  106.74    1.62
  -8   2   3  131.93    2.37
   2   3  -8  127.50    3.31
  -8  -2  -3  115.75    2.67
   2  -3   8  131.47    3.13
  -2   3   8  128.17    3.28
  -8   2   3  126.14    2.29
  -2  -3  -8  128.38    3.30
   3   8  -2  121.31    3.18
  -2  -2  -8   41.64    1.91
   2  -8   2   46.60    1.66
  -2   2   8   45.01    1.95
   2   8  -2   44.00    1.91
   2  -2   8   46.02    1.95
  -8  -2  -2   38.14    1.54
  -2  -8  -2   49.36    2.03
  -8   2   2   44.72    1.24
   8   2  -2   43.35    1.57
  -8   2   2   46.76    1.25
  -2   8   2   52.73    1.99
  -8   2   1  274.66    2.49
   1  -8   2  310.41    4.36
  -8   2   1  247.84    2.44
   8   2  -1  276.38    3.65
  -2   1   8  290.65    4.81
  -1   8   2  302.33    4.57
  -8  -2  -1  255.50    3.71
  -1  -8  -2  295.57    4.60
   1   8  -2  285.74    4.62
  -2  -1  -8  276.38    4.63
   2   1  -8  287.39    4.78
   2  -1   8  280.64    4.52
   0   8  -2    9.84    1.06
   8   2   0    8.96    0.85
   0  -8   2   11.06    1.06
  -8  -2   0    9.56    0.88
   0   8   2   12.29    1.10
   2   0  -8    9.83    1.11
   0  -8  -2   11.64    1.10
  -2   0   8   11.15    1.09
  -8   2   0    8.82    0.46
  -2   0  -8    9.50    1.09
   2   0   8   11.10    1.10
   2   1   8  278.32    4.62
  -1  -8   2  297.44    4.56
  -8  -2   1  248.61    3.76
   2  -1  -8  286.52    4.61
  -2   1  -8  266.71    4.43
   8   2   1  265.46    3.62
  -2  -1   8  283.66    4.80
   1  -8  -2  301.04    4.40
  -1   8  -2  296.77    4.42
   2   2   8   43.11    1.85
  -8  -2   2   43.62    1.73
   8   2   2   42.04    1.57
  -2  -2   8   43.70    1.98
  -8   2  -2   37.61    0.85
  -2   2  -8   45.98    2.02
   2   8   2   53.56    2.35
  -2  -8   2   45.67    1.92
   2  -8  -2   50.97    1.88
  -2   8  -2   45.88    1.73
   2  -2  -8   49.75    2.06
  -8  -2   3  123.11    2.86
  -3  -8   2  130.90    3.31
   3   8   2  130.63    3.31
   8   2   3  125.96    2.66
  -2  -3   8  132.15    3.35
  -8   2  -3  123.66    1.82
   3  -8  -2  142.24    2.87
  -2   3  -8  131.24    3.20
  -8  -2   3  131.88    3.00
   2   3   8  119.19    3.19
  -3   8  -2  138.91    2.82
  -4   8  -2   10.97    0.98
   8   2   4   11.93    0.98
  -2  -4   8    8.18    1.02
   4   8   2   10.74    1.31
   2  -4  -8    9.02    1.00
  -8   2  -4   11.76    0.75
  -4  -8   2   11.48    1.15
  -8  -2   4   11.67    1.13
   8  -2  -4   12.26    0.97
  -2   4  -8   10.92    1.18
   2   4   8   10.77    1.14
  -8  -2   4   10.38    1.15
  -8  -2   5  311.19    4.88
  -5  -8   2  309.83    5.34
   5   8   2  294.47    5.23
  -8  -2   5  311.63    4.95
   2  -5  -8  320.99    5.10
  -2   5  -8  302.95    4.90
   8   2   5  302.59    4.43
  -2  -5   8  290.02    5.07
  -5   8  -2  341.72    3.99
  -8   2  -5  317.84    3.70
   2   5   8  316.58    5.43
   5  -8  -2  352.73    4.08
   8  -2  -5  320.86    4.04
  -2  -6   8   88.81    2.85
  -6  -8   2   92.20    3.02
   2  -6  -8   91.60    2.87
   6  -8  -2  106.04    2.26
   8  -2  -6   95.15    2.45
   2   6   8   84.08    2.89
   8   2   6   92.74    2.61
   6   8   2   91.69    3.02
  -2   6  -8   85.97    2.71
  -8  -2   6   86.87    2.79
  -8   2  -6   95.30    2.25
  -2  -6   8   89.38    2.91
  -8  -2   6   98.80    3.02
   7  -8  -2   20.04    1.02
   7   8   2   18.03    1.57
  -7  -8   2   15.68    1.49
   2  -7  -8   19.82    1.47
  -8  -2   7   15.05    1.39
   8  -2  -7   15.43    1.31
  -2  -7   8   16.12    1.35
  -2  -7   8   17.90    1.41
   8   2   7   15.94    1.23
   2   7   8   17.40    1.54
  -8  -2   7   13.01    1.35
  -8   2  -7   18.47    1.18
  -8  -3  -7   72.39    2.55
  -3  -7  -8   76.66    2.71
   7  -8   3   84.23    1.67
  -8   3   7   76.51    2.48
  -7  -8  -3   67.37    2.62
   8  -3   7   73.99    1.95
   3  -7   8   74.53    2.36
   7  -8   3   83.83    1.58
  -3   7   8   84.05    2.94
   3  -7   8   78.30    2.47
   7   8  -3   75.12    2.69
  -7   8   3   93.68    2.25
   3  -6   8  220.80    3.97
   6  -8   3  236.61    2.93
  -3   6   8  225.58    4.53
  -8   3   6  227.54    3.92
  -8  -3  -6  217.81    4.21
  -6   8   3  249.01    3.72
  -3  -6  -8  207.17    4.42
   6  -8   3  216.95    2.73
  -6  -8  -3  204.08    4.39
   6   8  -3  202.45    4.34
   3  -5   8  382.25    5.20
   5  -8   3  408.74    4.07
   5   8  -3  368.34    5.79
  -8   3   5  391.85    4.75
  -5   8   3  435.03    5.15
  -5  -8  -3  370.81    5.78
   5  -8   3  384.13    3.91
   8  -3   5  410.19    3.89
  -3   5   8  388.96    5.93
  -8  -3  -5  380.27    5.38
  -3  -5  -8  393.39    6.02
  -3  -4  -8  102.02    3.02
  -3   4   8   97.60    2.90
   4  -8   3  102.29    2.23
  -4  -8  -3   99.56    3.05
   8  -3   4   92.45    1.72
  -8  -3  -4  101.05    2.74
   3  -4   8  102.87    2.70
  -8   3   4  104.86    2.26
   4   8  -3   94.51    2.88
   3   4  -8  100.10    3.07
   3  -8   3  178.27    3.02
  -3   3   8  170.54    3.82
  -3  -3  -8  165.72    3.76
  -8   3   3  173.94    2.62
  -3  -8  -3  167.02    3.83
   3  -3   8  168.17    3.44
  -8  -3  -3  169.96    3.40
   3   3  -8  158.89    3.69
   3   8  -3  166.48    3.78
   3   2  -8  369.89    5.47
  -8   3   2  374.63    3.15
  -8   3   2  381.17    3.17
  -3  -2  -8  378.45    5.51
   3  -2   8  359.29    4.95
  -8  -3  -2  383.77    5.06
   8   3  -2  361.35    4.60
  -2   8   3  401.60    5.22
  -3   2   8  375.47    5.49
   2   8  -3  376.84    5.51
   1  -8   3  464.96    5.30
   8   3  -1  436.44    4.99
  -1   8   3  493.83    6.09
  -8  -3  -1  437.86    5.17
  -3   1   8  465.90    6.12
  -3  -1  -8  437.42    5.77
   1   8  -3  463.41    5.88
  -1  -8  -3  477.61    6.00
   3  -1   8  448.81    5.65
   8   3   0  100.65    2.42
   0  -8   3  117.41    2.86
   3   0   8  116.67    3.02
   0   8   3  112.74    3.00
   0  -8  -3  129.49    3.29
  -3   0   8  107.13    2.98
  -3   0  -8  107.51    2.81
  -8  -3   0  104.73    2.63
   0   8  -3  106.23    2.88
   8   3   1  442.72    5.12
   3   1   8  447.35    5.82
  -8  -3   1  444.40    5.35
   1   8   3  451.05    5.95
   3  -1  -8  459.32    5.86
  -1  -8   3  480.03    5.86
   1  -8  -3  503.06    5.94
  -1   8  -3  464.18    5.54
  -3  -1   8  486.18    6.43
  -3   1  -8  438.70    5.68
  -3  -2   8  360.22    5.41
  -8  -3   2  347.53    4.88
  -3   2  -8  381.46    5.30
   8   3   2  370.83    4.75
   2   8   3  381.52    5.61
   2  -8  -3  407.29    5.07
  -2   8  -3  388.55    4.96
   3   2   8  363.68    5.34
  -8  -3   3  164.92    3.50
  -3  -8   3  169.61    3.72
  -8  -3   3  163.00    3.51
   8   3   3  166.14    3.27
   3   8   3  162.58    3.76
  -8   3  -3  153.60    1.63
  -3   8  -3  173.08    3.23
   8  -3  -3  165.33    2.26
  -3   3  -8  167.35    3.55
   3   3   8  163.46    3.67
  -3  -3   8  160.29    3.72
  -8  -3   4  100.16    2.91
  -4  -8   3  100.61    3.02
   4   8   3   96.28    2.96
   8   3   4  102.78    2.70
  -8   3  -4  103.89    1.71
  -3  -4   8  103.43    3.10
   8  -3  -4  103.46    2.09
   3  -4  -8  107.36    2.97
   3   4   8   94.41    2.96
  -3   4  -8  107.48    2.93
  -8  -3   4  104.22    2.94
   5   8   3  396.51    6.17
   8   3   5  376.82    5.19
   3  -5  -8  380.99    5.46
  -8  -3   5  386.50    5.65
  -8   3  -5  388.48    3.86
  -3  -5   8  355.32    5.74
   3   5   8  389.46    5.96
  -5  -8   3  369.04    5.74
  -3   5  -8  377.06    5.39
  -8  -3   5  398.16    5.76
   8  -3  -6  226.49    3.55
  -3  -6   8  201.67    4.37
  -6  -8   3  219.84    4.56
  -8   3  -6  221.60    3.25
   6   8   3  212.83    4.48
   3  -6  -8  222.41    4.37
  -8  -3   6  214.12    4.40
   8   3   6  228.94    4.21
  -3   6  -8  216.22    4.16
  -3  -6   8  209.26    4.34
   3   6   8  218.25    4.77
  -8  -3   6  218.66    4.38
  -3  -7   8   68.59    2.73
  -7  -8   3   66.34    2.64
  -8   3  -7   77.96    2.14
   7   8   3   76.24    2.81
   7  -8  -3   84.69    1.97
   3  -7  -8   81.37    2.73
   3   7   8   73.39    2.81
  -8  -3   7   68.88    2.65
   8   3   7   77.96    2.64
  -8  -3   7   71.12    2.73
   8  -3  -7   77.38    2.27
   8  -4   7   57.40    1.64
   4  -7   8   59.96    2.13
   7  -8   4   62.96    1.54
  -8   4   7   59.94    2.25
  -8  -4  -7   59.31    2.49
   7  -8   4   68.99    1.60
  -7   8   4   62.79    2.00
  -7  -8  -4   57.95    2.50
   7   8  -4   51.12    2.19
  -4  -7  -8   56.88    2.57
   6  -8   4   56.30    1.59
  -4  -6  -8   49.35    2.28
   6  -8   4   61.52    1.62
  -8   4   6   54.44    1.96
   4  -6   8   53.34    1.92
  -6   8   4   57.30    2.00
   8  -4   6   49.89    1.49
  -6  -8  -4   57.90    2.53
  -4   6   8   54.43    2.32
  -8  -4  -6   49.75    2.09
   6   8  -4   44.41    2.13
   5  -8   4   64.16    1.74
  -8   4   5   64.61    1.98
   5   8  -4   61.77    2.52
  -4  -5  -8   60.22    2.53
   5  -8   4   62.51    1.73
  -5   8   4   67.91    2.21
  -5  -8  -4   56.27    2.44
   4  -5   8   57.75    2.08
  -4   5   8   67.24    2.62
   4   4  -8  281.61    5.03
   4  -8   4  313.30    3.87
  -8   4   4  314.94    3.77
  -4  -8  -4  300.82    5.31
  -4   8   4  333.20    4.78
   4  -8   4  316.30    3.91
   4  -4   8  309.87    4.55
  -8  -4  -4  291.54    4.80
   4   8  -4  275.79    4.91
  -4  -4  -8  297.10    5.13
  -4   4   8  311.83    5.14
   3  -8   4   47.94    1.71
  -8   4   3   51.92    1.49
  -4  -3  -8   39.00    1.89
   4   3  -8   39.65    1.94
   4  -3   8   42.67    1.80
  -3   8   4   48.41    1.92
  -4   3   8   47.65    2.08
  -8  -4  -3   45.10    1.99
   8   4  -3   45.85    1.86
  -3  -8  -4   49.58    2.22
   3   8  -4   42.38    2.00
   4  -2   8   13.88    1.24
  -4  -2  -8   10.97    1.05
   2  -8   4    9.81    0.88
  -4   2   8   10.80    1.01
  -2   8   4   13.38    1.15
  -8  -4  -2    8.31    0.97
   4   2  -8   11.28    1.20
  -2  -8  -4    8.89    1.12
  -8   4   2   11.15    0.61
   8   4  -2   13.49    1.17
   2   8  -4   10.85    1.27
  -4  -1  -8   55.13    2.21
  -4   1   8   53.07    2.20
   4  -1   8   55.79    2.05
   1   8  -4   52.63    2.16
  -8  -4  -1   52.85    2.09
  -1   8   4   58.33    2.32
   8   4  -1   50.92    1.92
  -1  -8  -4   61.52    2.30
   1  -8   4   53.54    1.88
   4   1  -8   54.49    2.16
   8   4   0  367.74    4.97
   4   0   8  385.05    5.21
   0  -8   4  390.75    5.06
   0   8  -4  400.24    5.46
  -8  -4   0  380.58    5.18
   0   8   4  400.57    5.64
  -4   0  -8  383.68    5.34
  -4   0   8  377.67    5.50
   8   4   1   51.22    1.95
  -8  -4   1   52.42    1.97
   1   8   4   59.68    2.39
   1  -8  -4   59.70    2.25
  -4   1  -8   58.43    2.19
  -4  -1   8   58.54    2.37
  -1   8  -4   55.20    2.06
   4   1   8   54.35    2.17
   8  -4  -2   10.74    0.53
  -4  -2   8    9.82    1.15
   8   4   2    8.37    0.89
   2   8   4   10.60    1.27
   2  -8  -4   11.80    1.10
   4   2   8   14.66    1.45
  -4   2  -8   10.65    0.98
  -2  -8   4   14.57    1.18
  -3  -8   4   43.38    2.08
   8  -4  -3   44.91    1.20
   8   4   3   46.22    2.03
  -4  -3   8   42.37    2.10
  -4   3  -8   44.08    1.85
   3   8   4   42.38    2.09
   4   3   8   41.49    2.01
  -8  -4   3   41.37    1.96
  -4  -4   8  292.45    5.18
   8   4   4  310.40    4.76
   4   8   4  304.27    5.31
   4   4   8  298.26    5.08
  -8  -4   4  310.23    5.17
  -4  -8   4  306.19    5.20
   4  -4  -8  313.04    4.95
  -8  -4   4  312.37    5.17
  -8   4  -4  299.54    2.66
   8  -4  -4  315.57    3.43
  -4   4  -8  311.59    4.76
  -4  -5   8   65.82    2.61
  -8  -4   5   60.88    2.43
   5  -8  -4   66.77    2.02
   8   4   5   57.49    2.26
   5   8   4   57.89    2.45
  -8   4  -5   60.25    1.45
   4  -5  -8   64.16    2.33
  -5  -8   4   57.16    2.36
  -4   5  -8   63.37    2.17
   4   5   8   52.31    2.26
  -8  -4   5   56.84    2.37
  -4  -5   8   57.09    2.45
  -6  -8   4   54.80    2.36
   6  -8  -4   61.87    1.94
   6   8   4   48.31    2.25
  -8  -4   6   48.28    2.21
  -8  -4   6   53.53    2.32
   4  -6  -8   55.45    2.16
   8  -4  -6   58.40    1.83
   4   6   8   51.48    2.39
  -4  -6   8   53.14    2.42
  -8   4  -6   51.64    1.54
   8   4   6   50.15    2.23
  -4   6  -8   52.11    2.13
   7   8   4   51.96    2.48
  -4  -7   8   57.53    2.48
   7  -8  -4   70.45    1.89
   4  -7  -8   63.00    2.33
   8   4   7   60.02    2.49
   4   7   8   56.75    2.59
   8  -4  -7   62.56    2.09
  -4  -7   8   55.99    2.54
  -8  -4   7   56.59    2.44
  -8   4  -7   61.07    1.87
  -8  -4   7   60.24    2.54
  -7  -8   4   54.44    2.45
  -8   5   7  221.63    4.02
   7  -8   5  219.74    2.88
   7  -8   5  211.36    2.76
   8  -5   7  207.23    2.98
  -5  -7  -8  209.08    4.75
  -8  -5  -7  196.09    4.34
  -7   8   5  231.45    3.86
  -7  -8  -5  193.92    4.50
   7   8  -5  181.47    4.22
   5  -7   8  215.83    3.59
  -5   7   8  207.68    4.29
   5  -7   8  210.42    3.66
  -8   5   6  163.52    3.28
   8  -5   6  150.88    2.36
   6  -8   5  152.96    2.57
  -5   6   8  166.34    3.96
  -6   8   5  166.72    3.41
  -6  -8  -5  155.09    3.97
   5  -6   8  158.80    3.18
  -8  -5  -6  142.44    3.61
   6   8  -5  145.78    3.80
  -5  -6  -8  139.80    3.73
  -5   5   8   46.35    1.98
   5  -8   5   48.41    1.53
  -5  -5  -8   41.94    2.07
   8  -5   5   38.98    1.11
  -8   5   5   46.29    1.72
  -8  -5  -5   48.95    2.28
  -5   8   5   54.18    2.15
   5  -5   8   43.04    1.76
  -5  -8  -5   41.38    2.11
   5  -8   5   48.40    1.62
   5   8  -5   42.49    2.09
  -5   4   8  300.89    5.05
   4  -8   5  288.17    3.89
   4  -8   5  299.71    3.85
   5  -4   8  282.14    4.16
  -4   8   5  311.78    4.89
  -8  -5  -4  266.29    4.67
  -4  -8  -5  295.49    5.33
   4   8  -5  277.63    5.06
  -8   5   4  315.12    3.75
   8  -5   4  270.02    2.16
   3  -8   5  254.73    3.79
   5   3  -8  253.39    4.72
  -5  -3  -8  251.70    4.72
  -5   3   8  261.95    4.71
   5  -3   8  258.53    4.05
  -3   8   5  263.84    4.50
  -8  -5  -3  244.91    4.46
   3  -8   5  258.93    3.88
  -3  -8  -5  247.11    4.70
  -8   5   3  258.63    3.00
   5   2  -8   82.66    2.68
   2  -8   5   95.56    2.52
   5  -2   8   81.03    2.41
  -5  -2  -8   82.93    2.67
  -5   2   8   84.74    2.67
  -8  -5  -2   84.30    2.72
  -2   8   5   93.24    2.86
  -8   5   2   77.26    1.41
   8   5  -2   93.79    2.73
  -2  -8  -5   84.99    2.88
   1  -8   5  157.70    3.22
   5  -1   8  164.97    3.32
  -8  -5  -1  168.77    3.75
   5   1  -8  157.94    3.57
  -5  -1  -8  155.75    3.52
  -1   8   5  181.25    4.04
   8   5  -1  150.52    3.35
  -5   1   8  172.80    3.87
   1  -8   5  157.27    3.32
  -1  -8  -5  175.44    3.98
   0  -8   5  540.43    6.44
  -8  -5   0  506.40    6.31
   0   8   5  543.46    6.80
  -5   0  -8  522.87    6.36
   8   5   0  510.55    6.08
  -5   0   8  520.49    6.58
   0  -8  -5  550.63    6.62
   5   0  -8  515.23    6.33
   5   0   8  526.36    6.14
  -1  -8   5  161.46    3.50
   8   5   1  156.42    3.42
  -1  -8   5  164.57    3.74
   1   8   5  172.62    3.98
  -5   1  -8  159.46    3.45
   5   1   8  164.43    3.54
  -8  -5   1  147.04    3.39
  -5  -1   8  159.98    3.69
  -2  -8   5   85.61    2.66
  -2  -8   5   90.82    2.90
  -5   2  -8   84.12    2.45
  -5  -2   8   80.73    2.71
  -8  -5   2   84.71    2.65
   8   5   2   81.30    2.50
   2  -8  -5   97.00    2.80
   2   8   5   93.74    3.08
   5   2   8   89.12    2.66
   8  -5  -2   88.37    1.31
  -3  -8   5  242.77    4.56
  -8  -5   3  245.17    4.56
  -3  -8   5  257.95    4.92
   8   5   3  247.37    4.35
  -5  -3   8  250.00    4.82
   3   8   5  249.60    4.82
  -5   3  -8  259.64    4.31
   8  -5  -3  267.59    2.79
   5   3   8  257.29    4.88
  -4  -8   5  279.57    4.97
  -8  -5   4  295.72    5.15
   4  -8  -5  321.10    4.71
   8   5   4  290.66    4.84
   8  -5  -4  309.00    3.38
   4   8   5  276.51    5.03
  -5  -4   8  293.54    5.31
   5   4   8  289.66    5.10
  -5   4  -8  290.79    4.49
   5  -4  -8  306.02    4.79
  -8  -5   4  296.43    5.23
  -5  -8   5   42.48    2.10
   5  -8  -5   51.34    2.01
   8   5   5   44.44    2.05
   5   8   5   45.76    2.20
  -8  -5   5   47.94    2.24
  -5   5  -8   48.26    1.95
   5   5   8   44.10    2.25
  -8  -5   5   42.11    2.13
   5  -5  -8   49.88    2.01
  -5  -5   8   41.24    2.09
  -5  -5   8   42.80    2.11
  -8   5  -5   46.66    1.27
   8  -5  -6  160.52    2.95
  -6  -8   5  141.43    3.76
   6  -8  -5  171.52    3.26
   6   8   5  148.10    3.91
   8   5   6  147.31    3.71
   5   6   8  153.11    3.95
   5  -6  -8  159.26    3.63
  -8   5  -6  155.32    2.60
  -5   6  -8  147.62    3.31
  -8  -5   6  142.65    3.84
  -5  -6   8  138.38    3.83
  -5  -6   8  140.15    3.83
  -8  -5   6  149.93    3.84
  -7  -8   5  199.95    4.63
  -8  -5   7  200.53    4.44
   8  -5  -7  221.11    3.66
  -5  -7   8  191.54    4.54
  -8  -5   7  198.56    4.55
   7   8   5  190.75    4.38
   8   5   7  213.25    4.43
   7  -8  -5  237.97    3.62
   5  -7  -8  210.12    4.07
   5   7   8  200.57    4.55
  -8   5  -7  208.52    3.24
  -5  -7   8  192.53    4.52
  -8  -6  -7   11.02    1.33
  -6  -7  -8   10.21    1.21
   8  -6   7    5.62    0.64
   6  -7   8    8.45    0.98
  -7  -8  -6    6.63    1.12
  -7   8   6    7.95    1.00
   6  -7   8   11.47    1.03
   7  -8   6    9.06    0.87
  -6   7   8   11.90    1.27
   7  -8   6   10.38    0.73
  -8   6   7   11.62    1.06
  -6   6   8   80.55    2.74
   6  -8   6   85.69    2.00
   8  -6   6   84.18    1.72
   6  -6   8   85.70    2.28
  -6   8   6   88.57    2.70
  -6  -8  -6   73.13    2.77
  -8  -6  -6   71.85    2.73
   6  -8   6   79.91    1.99
   8  -6   6   80.80    1.75
  -6  -6  -8   71.90    2.73
  -6  -5  -8  174.41    4.08
   6  -5   8  191.82    3.33
   8  -6   5  190.64    2.29
  -5   8   6  217.76    4.29
   5  -8   6  188.62    3.16
  -6   5   8  202.28    4.23
  -8  -6  -5  171.89    4.18
   5  -8   6  186.89    3.04
  -5  -8  -6  177.79    4.23
  -8   6   5  202.92    3.40
   8  -6   5  196.66    2.29
   8  -6   4   44.27    0.97
  -6  -4  -8   50.71    2.32
  -6   4   8   54.58    2.28
   8  -6   4   43.07    0.97
   4  -8   6   51.48    1.71
   6  -4   8   55.24    1.91
  -4   8   6   64.12    2.48
  -8  -6  -4   49.07    2.28
  -8   6   4   54.60    1.71
   4  -8   6   53.39    1.85
  -4  -8  -6   53.48    2.50
   8   6  -4   48.09    2.11
   3  -8   6   73.36    2.19
  -6   3   8   70.03    2.49
  -6  -3  -8   64.89    2.51
   6  -3   8   67.08    2.14
  -8  -6  -3   64.61    2.43
  -3   8   6   77.28    2.63
  -8   6   3   72.46    1.79
   6   3  -8   67.23    2.57
  -3  -8  -6   70.84    2.61
   8   6  -3   69.61    2.46
   3  -8   6   73.01    2.16
   6  -2   8   90.73    2.49
   2  -8   6   96.17    2.58
  -8   6   2   80.42    1.48
  -6   2   8   89.89    2.81
  -8  -6  -2   90.97    2.85
  -2   8   6   90.76    2.90
  -6  -2  -8   88.50    2.75
   6   2  -8   94.79    2.87
  -2  -8  -6   99.29    3.08
   8   6  -2   83.76    2.68
   2  -8   6   91.43    2.49
   8   6  -1  148.17    3.46
  -6  -1  -8  150.73    3.51
  -1   8   6  160.58    3.83
  -6   1   8  152.84    3.62
   1  -8   6  155.52    3.47
   6   1  -8  147.26    3.53
  -1  -8  -6  162.21    3.86
   1  -8   6  161.27    3.38
   6  -1   8  158.33    3.32
   6   0  -8   63.11    2.27
   8   6   0   59.95    2.31
   0   8   6   60.59    2.44
  -6   0   8   67.15    2.49
   6   0   8   64.53    2.25
   0  -8  -6   64.63    2.45
   0  -8   6   62.35    2.18
   0  -8   6   62.40    2.42
  -6   0  -8   63.15    2.32
  -6  -1   8  164.65    3.86
   8   6   1  149.62    3.58
  -1  -8   6  162.98    3.80
  -8  -6   1  168.41    4.01
   1  -8  -6  167.01    3.85
   8  -6  -1  136.59    1.26
   6  -1  -8  147.11    3.35
  -6   1  -8  152.98    3.37
   6   1   8  152.29    3.43
  -1  -8   6  150.90    3.53
  -2  -8   6   90.16    2.81
   2  -8  -6   98.60    2.87
   8  -6  -2   94.71    1.45
  -6  -2   8   92.84    2.88
   2   8   6   89.42    2.98
  -8  -6   2   93.59    2.92
  -2  -8   6   87.20    2.90
   6  -2  -8   97.16    2.76
   6   2   8   92.04    2.87
   8   6   2   93.17    2.87
  -6   2  -8   98.07    2.67
  -6   3  -8   75.78    2.38
  -8  -6   3   72.03    2.59
   6  -3  -8   75.82    2.38
   8  -6  -3   80.94    1.55
  -6  -3   8   66.29    2.63
   3   8   6   69.47    2.60
   6   3   8   75.17    2.60
   8   6   3   64.13    2.45
  -3  -8   6   67.69    2.57
  -4  -8   6   49.74    2.27
  -8  -6   4   45.40    2.14
  -6  -4   8   51.40    2.30
   8   6   4   51.75    2.21
   6   4   8   49.14    2.24
  -6  -4   8   50.74    2.35
   6  -4  -8   51.35    2.06
  -6   4  -8   55.52    2.03
   8  -6  -4   60.23    1.57
  -4  -8   6   52.44    2.40
   8   6   5  178.94    4.03
  -8  -6   5  175.13    4.11
  -8  -6   5  177.01    4.29
   6  -5  -8  195.93    3.85
  -5  -8   6  180.98    4.45
   5   8   6  177.43    4.19
  -6   5  -8  190.63    3.61
  -6  -5   8  181.55    4.22
   6   5   8  179.76    4.17
  -6  -5   8  176.98    4.30
   8  -6  -5  205.32    3.07
  -5  -8   6  176.07    4.17
  -6  -6   8   74.63    2.79
   8  -6  -6   82.23    2.14
  -6  -8   6   75.88    2.96
  -8  -6   6   80.91    2.97
   8   6   6   76.79    2.73
   6   8   6   75.05    2.82
   6  -8  -6   84.51    2.50
  -6   6  -8   79.67    2.40
   6  -6  -8   80.49    2.68
  -8  -6   6   75.78    2.91
  -6  -8   6   77.19    2.92
  -6  -6   8   73.39    2.98
  -7  -8   6    7.36    1.51
   8  -6  -7   12.11    1.06
   7   8   6    8.43    1.36
   6   7   8   10.61    1.42
   7  -8  -6    9.77    1.11
  -8  -6   7   12.35    1.49
   6  -7  -8    9.67    1.19
  -6  -7   8    4.02    1.21
  -8  -6   7   11.68    1.45
  -8   6  -7   12.48    1.00
   7  -7   8   11.40    1.00
  -7   8   7    9.34    1.10
   7  -8   7    9.65    0.79
  -8   7   7    6.26    0.93
  -7   7   8   12.25    1.11
   7  -7   8    9.63    0.82
   8  -7   7    8.43    0.70
   7  -8   7    8.22    0.86
   6  -8   7  180.11    3.02
   8  -7   6  168.09    2.41
  -8  -7  -6  157.58    3.99
   7  -6   8  163.10    2.90
   8  -7   6  162.51    2.38
  -6   8   7  178.32    3.90
  -8   7   6  177.59    3.51
   6  -8   7  175.09    3.08
  -7   6   8  176.47    3.87
   8  -7   5  230.43    2.56
  -7  -5  -8  189.14    4.30
  -7   5   8  229.20    4.41
   5  -8   7  231.51    3.58
   5  -8   7  217.42    3.51
   8  -7   5  213.46    2.44
  -5   8   7  231.53    4.55
  -8   7   5  234.21    3.70
  -8  -7  -5  203.07    4.51
  -5  -8  -7  201.06    4.58
   7  -5   8  203.72    3.30
  -7  -4  -8   24.41    1.72
   4  -8   7   24.19    1.35
   8   7  -4   22.20    1.63
   7  -4   8   26.11    1.37
  -7   4   8   26.30    1.60
   4  -8   7   25.19    1.31
  -4  -8  -7   25.24    1.79
   8  -7   4   21.13    0.80
  -8   7   4   28.42    1.32
  -8  -7  -4   25.44    1.77
  -4   8   7   26.55    1.80
   7  -3   8   57.05    1.86
  -7  -3  -8   56.45    2.35
  -7   3   8   57.74    2.26
  -8   7   3   57.78    1.55
  -8  -7  -3   54.26    2.27
   8  -7   3   52.24    0.92
  -3   8   7   59.19    2.51
   3  -8   7   61.37    2.13
   8   7  -3   54.27    2.34
  -7  -2  -8  278.53    4.82
  -8   7   2  296.46    3.00
  -8  -7  -2  276.89    5.08
   2  -8   7  288.83    4.58
  -7   2   8  292.94    4.88
   7  -2   8  291.35    4.25
   7   2  -8  283.22    4.83
   2  -8   7  295.51    4.51
   8   7  -2  281.49    4.99
  -1  -8  -7  210.40    4.55
  -8   7   1  188.05    2.08
   1  -8   7  200.40    3.99
  -7  -1  -8  208.34    4.10
  -8  -7  -1  198.86    4.34
   7   1  -8  199.96    4.01
  -7   1   8  206.42    4.21
   8   7  -1  200.70    4.25
   7  -1   8  198.44    3.58
   1  -8   7  200.83    3.86
  -1   8   7  222.68    4.73
   0  -8   7    4.05    0.86
   8   7   0    2.36    0.94
  -8  -7   0    0.74    0.71
  -7   0  -8    4.75    0.84
   8  -7   0    1.61    0.20
  -7   0   8    1.28    0.78
   7   0  -8    4.92    0.94
   0  -8   7    1.21    0.87
   7   0   8    4.80    0.80
   0  -8  -7    4.13    1.00
  -7  -1   8  200.01    4.22
   8   7   1  206.75    4.39
  -8  -7   1  200.10    4.36
   1  -8  -7  218.95    4.41
   1   8   7  202.37    4.48
  -1  -8   7  198.04    4.26
   8  -7  -1  204.25    1.85
  -7   1  -8  210.53    3.93
   7   1   8  212.38    4.10
  -1  -8   7  197.51    4.04
  -2  -8   7  268.08    4.88
   8   7   2  265.21    4.86
  -8  -7   2  277.10    5.07
  -7  -2   8  278.50    5.05
   2  -8  -7  308.91    5.12
  -7   2  -8  299.15    4.56
   2   8   7  294.32    5.43
   8  -7  -2  308.38    2.72
   7   2   8  271.27    4.68
  -2  -8   7  273.69    5.05
   7  -2  -8  305.56    4.74
   8   7   3   60.34    2.49
  -7  -3   8   54.96    2.38
  -7   3  -8   59.49    2.07
  -7  -3   8   60.63    2.49
   3   8   7   56.47    2.48
   7  -3  -8   59.98    2.24
   7   3   8   59.27    2.48
   8  -7  -3   58.16    1.40
  -8  -7   3   56.31    2.40
  -3  -8   7   58.89    2.49
  -8  -7   4   27.44    1.84
   7  -4  -8   30.43    1.66
   4   8   7   26.53    1.74
   7   4   8   24.70    1.70
   8   7   4   29.36    1.83
  -7  -4   8   27.19    1.80
  -7   4  -8   26.51    1.36
   8  -7  -4   29.44    1.19
  -7  -4   8   28.24    1.92
   4  -8  -7   27.87    1.62
  -4  -8   7   27.54    1.83
  -4  -8   7   26.60    1.80
  -5  -8   7  201.16    4.44
  -5  -8   7  205.48    4.75
   7  -5  -8  224.74    3.99
  -8  -7   5  209.20    4.71
   5  -8  -7  237.16    4.26
   8   7   5  204.30    4.50
  -7   5  -8  213.85    3.66
   5   8   7  198.11    4.62
   7   5   8  202.25    4.41
  -8  -7   5  206.48    4.76
   8  -7  -5  243.17    3.38
  -7  -5   8  219.55    4.91
  -7  -5   8  214.41    4.78
  -6  -8   7  154.27    4.11
   8   7   6  161.84    4.16
   6  -8  -7  184.76    3.66
   7   6   8  164.85    4.13
  -7   6  -8  171.77    3.29
  -8  -7   6  153.35    4.12
  -8  -7   6  164.18    4.13
  -7  -6   8  156.98    4.12
   8  -7  -6  180.37    3.14
   7  -6  -8  176.26    3.58
   8   7   7    7.69    1.01
   7   8   7    9.21    1.35
   7   7   8    9.48    1.29
   7  -8  -7    9.91    1.16
   7  -7  -8    9.68    1.03
  -8  -7   7    9.28    1.23
  -8   8   8   61.60    2.47
   8  -7   8   58.33    1.69
   7  -8   8   59.62    1.85
  -8   8   7   66.57    2.42
  -7   8   8   68.82    2.58
  -8   7   8   66.58    2.41
   7  -8   8   63.03    1.88
  -8  -6  -8   28.06    2.00
   8  -6   8   30.26    1.31
   8  -8   6   33.44    1.17
  -8   8   6   34.26    1.71
  -6   8   8   35.48    1.96
   6  -8   8   31.96    1.43
  -8   6   8   36.01    1.99
  -8  -8  -5   51.61    2.52
   5  -8   8   58.18    1.94
  -8   5   8   68.31    2.42
   8  -8   5   69.17    1.59
   8  -5   8   62.86    1.86
  -8   8   5   68.66    2.14
  -5   8   8   70.04    2.81
   8  -8   5   63.71    1.40
   5  -8   8   61.81    2.00
  -8  -5  -8   54.95    2.39
   8  -4   8  129.05    2.60
   4  -8   8  132.89    3.02
   8  -8   4  126.39    1.87
  -8   8   4  157.51    2.91
  -8  -4  -8  126.00    3.43
   4  -8   8  142.04    3.06
  -8  -8  -4  125.65    3.70
  -4   8   8  141.80    3.82
   8  -8   4  136.10    1.84
   8   8  -4  117.24    3.40
  -8   4   8  138.82    3.45
   8  -8   3   82.51    1.29
  -8   3   8   89.38    2.83
  -8   8   3   89.94    2.05
   3  -8   8   80.79    2.50
  -8  -8  -3   79.21    2.94
  -8  -3  -8   81.13    2.81
  -3   8   8   95.97    3.20
   3  -8   8   89.37    2.61
  -3  -8  -8   86.17    3.05
   8  -2   8    1.77    0.71
   8  -8   2    5.70    0.36
  -8   8   2    4.82    0.75
  -8  -8  -2    5.08    1.19
  -2  -8  -8    6.78    1.25
   2  -8   8    6.36    1.15
   8  -8   2    3.34    0.31
  -8   2   8    3.42    0.95
  -2   8   8    4.20    1.16
   2  -8   8    6.63    1.13
   8   8  -2    6.25    1.07
  -1  -8  -8   93.28    3.12
   8  -8   1   73.82    1.16
  -8   8   1   88.44    1.66
  -8  -1  -8   77.32    2.65
   8   1  -8   83.51    2.68
  -8  -8  -1   76.39    2.81
  -1   8   8   92.82    3.36
  -8   1   8   85.40    2.74
   8  -8   1   76.61    1.09
   1  -8   8   81.67    2.64
   8  -1   8   81.29    2.31
   8   8  -1   80.37    2.89
   1  -8   8   84.05    2.60
   8   8   0  157.29    3.83
   8  -8   0  167.18    1.79
   8   0  -8  170.27    3.77
  -8  -8   0  157.90    3.92
  -8   0  -8  169.22    3.63
   0   8   8  173.44    4.26
   8   0   8  169.72    3.48
  -8   0   8  171.11    3.90
  -8   8   0  172.07    2.03
   0  -8   8  158.62    3.67
   0  -8   8  157.89    3.80
  -8  -1   8   82.04    2.80
  -8  -8   1   84.62    2.91
   1   8   8   86.97    3.03
   8  -1  -8   87.77    2.60
  -8   1  -8   88.60    2.56
   8   1   8   82.91    2.57
  -1  -8   8   80.50    2.87
   8   8   1   84.34    2.88
   8  -2  -8    5.75    1.01
   2  -8  -8    5.64    0.96
  -2  -8   8    7.78    1.21
  -8  -8   2    5.66    1.13
   8   8   2    4.40    1.18
  -8   2  -8    3.00    0.91
   8  -8  -2    5.33    0.63
   2   8   8    5.31    1.11
  -2  -8   8    2.12    0.62
  -8  -2   8    3.04    0.80
  -8  -2   8    7.60    1.30
   8   8   3   83.13    3.01
  -3  -8   8   83.46    2.86
  -8   3  -8   88.35    2.43
  -3  -8   8   84.62    3.03
   8  -8  -3   96.05    1.92
  -8  -3   8   81.87    3.00
   3   8   8   84.73    3.07
   8   3   8   92.49    2.97
   8  -3  -8   87.90    2.47
  -8  -3   8   88.20    3.00
  -8  -8   3   87.67    3.11
  -8  -4   8  129.07    3.71
  -8  -8   4  133.66    3.80
   8   8   4  125.98    3.62
  -4  -8   8  133.33    3.83
   8  -4  -8  141.92    3.20
  -8   4  -8  134.14    2.93
  -8  -4   8  129.32    3.76
   8   8   5   59.22    2.46
   8  -5  -8   66.31    2.20
   5  -8  -8   65.76    2.38
   5   8   8   60.54    2.69
   8   5   8   63.47    2.56
  -5  -8   8   60.13    2.62
   8  -8  -5   66.57    1.89
  -8   5  -8   58.96    1.94
  -8  -5   8   55.21    2.54
  -8  -5   8   57.39    2.56
  -8  -6   8   30.84    1.93
   8  -6  -8   31.22    1.78
   8   6   8   31.73    2.05
   6  -8  -8   39.12    1.94
  -8   6  -8   35.64    1.65
   8  -8  -6   36.04    1.51
   8  -8  -7   61.14    2.03
   8  -7  -8   56.23    2.02
   8  -8  -8   57.23    2.20
  -9   0   0    2.18    0.56
   0   9   0    0.33    0.76
   0  -9   0    2.56    0.85
   0   0   9    0.66    0.82
   9   0   0    1.77    0.44
   1   9   0   83.69    2.65
  -1   9   0   74.81    2.41
  -9   0   1   72.48    1.81
   9   0   1   79.14    1.69
   0   1  -9   78.70    2.63
   0   1   9   75.31    2.59
  -9   0   1   82.90    1.96
  -9   0  -1   66.69    1.67
   0  -1   9   70.91    2.45
   0  -1  -9   75.14    2.59
  -9   0   2  868.78    6.51
   2   9   0  914.26    8.76
   9   0   2  862.73    5.63
   0   2   9  875.62    8.69
  -2   9   0  954.05    7.98
   0   2  -9  845.12    8.43
  -2  -9   0  923.86    8.61
  -9   0   2  908.39    6.42
   0  -2   9  862.02    8.44
  -9   0  -2  865.87    5.97
   0  -2  -9  853.81    8.35
  -9   0   3    5.65    0.72
   0   3   9    4.72    0.82
  -3   9   0    4.07    0.75
   3   9   0    6.00    1.02
   0   3  -9    5.15    0.94
   9   0   3    6.20    0.72
  -3  -9   0    2.39    0.90
   3  -9   0    7.26    0.91
   0  -3  -9    5.86    1.10
   0  -3   9    6.23    1.04
  -9   0  -3    5.33    0.66
  -9   0   3    4.83    0.72
  -9   0  -4  109.95    2.38
   4   9   0  109.98    3.29
  -4  -9   0  109.20    3.13
   9   0   4  104.79    2.22
   0  -4  -9  107.71    3.15
   0  -4   9  109.14    3.13
   0   4  -9  106.97    3.18
  -9   0   4  111.71    2.65
  -9   0   4  111.64    2.72
   0   4   9  109.96    3.23
  -5   9   0   71.87    1.98
  -9   0   5   65.43    2.25
   5   9   0   62.40    2.48
  -9   0  -5   59.86    1.89
   0  -5   9   67.31    2.49
   0   5  -9   68.06    2.60
  -5  -9   0   67.36    2.53
  -9   0   5   66.09    2.27
   0  -5  -9   62.64    2.57
   9   0   5   58.90    1.80
   5  -9   0   74.82    2.02
   0   5   9   68.27    2.59
  -6   9   0  453.16    4.57
  -9   0   6  399.10    5.41
  -6  -9   0  376.05    5.97
  -9   0  -6  408.26    4.98
   0  -6  -9  397.89    6.14
   6   9   0  384.65    6.06
   0  -6   9  398.66    6.05
   0   6  -9  362.66    5.83
   9   0   6  408.08    4.86
   6  -9   0  438.32    4.18
   0   6   9  427.11    6.79
  -9   0   6  422.79    5.73
  -9   0   7    7.92    1.05
   0  -7  -9    8.11    1.08
  -7  -9   0   10.01    1.35
  -9   0  -7    7.97    0.90
   0  -7   9    8.66    0.89
   9   0   7    7.30    0.93
   0   7   9   10.34    1.16
   9   0  -7    7.05    1.16
   7   9   0    7.53    1.12
  -7   9   0    8.01    0.72
   7  -9   0    8.21    0.70
   0  -7   9    4.51    0.96
   8   9   0  165.40    4.07
   0  -8  -9  173.99    4.18
   9   0  -8  174.25    3.71
   8  -9   0  196.69    2.34
  -8  -9   0  170.36    4.22
  -9   0  -8  182.63    3.72
   0  -8   9  182.20    4.04
   0   8   9  184.66    4.55
   0  -8   9  171.87    4.01
   9   0   8  177.42    3.45
  -9   0   8  177.47    4.01
   8   9  -1   95.81    3.23
  -8   9   1  125.18    2.18
  -1  -8  -9  116.39    3.59
   8  -9   1  107.16    1.57
  -9  -1  -8  111.83    3.14
  -8  -9  -1   96.05    3.21
   1  -8   9   96.07    2.95
  -1   8   9  110.25    3.54
   9  -1   8  120.75    2.90
  -9   1   8  108.21    3.05
   8  -9   1  112.47    1.72
  -7   9   1   28.76    1.20
  -9  -1  -7   20.48    1.46
   1  -7   9   25.35    1.62
  -7  -9  -1   28.26    1.89
   1  -7   9   29.97    1.69
  -1  -7  -9   23.44    1.55
   7   9  -1   31.19    1.90
   7  -9   1   28.91    1.24
   9  -1   7   25.04    1.42
  -1   7   9   28.67    1.88
  -9   1   7   29.16    1.70
   6   9  -1   23.06    1.67
  -6   9   1   24.01    1.24
   1  -6   9   20.17    1.44
   1   6  -9   18.94    1.54
  -6  -9  -1   22.12    1.56
   6  -9   1   23.34    1.13
   9  -1   6   19.38    1.15
  -1   6   9   19.18    1.64
  -9   1   6   20.35    1.42
   5  -9   1  177.76    2.88
   5   9  -1  156.08    3.89
   1  -5   9  158.21    3.65
  -1   5   9  166.28    4.06
  -9  -1  -5  175.28    3.39
  -5   9   1  192.82    3.29
  -1  -5  -9  160.46    3.88
  -5  -9  -1  170.97    4.00
   9  -1   5  167.93    2.78
  -9   1   5  177.16    3.40
   1   5  -9  160.55    3.85
  -9   1   5  170.21    3.30
  -4   9   1  201.53    3.47
   4   9  -1  199.25    4.28
  -1  -4  -9  179.57    3.98
   9  -1   4  180.25    2.58
   4  -9   1  224.99    3.45
  -4  -9  -1  187.21    4.11
   1  -4   9  186.17    3.99
  -9   1   4  196.81    3.31
   1   4  -9  179.93    4.01
  -9  -1  -4  192.02    3.37
  -9   1   4  208.06    3.47
  -1   4   9  193.64    4.27
   3   9  -1   90.31    2.91
  -1   3   9   95.72    2.96
  -3   9   1  107.74    2.72
   1   3  -9   91.14    2.89
   9  -1   3   97.43    1.86
  -9   1   3  100.86    2.32
   3  -9   1  107.00    2.53
  -9   1   3  104.16    2.27
  -3  -9  -1   99.35    2.96
  -1  -3  -9   95.70    2.96
   1  -3   9  100.68    2.89
  -9  -1  -3   94.24    2.35
   9  -1   2   26.41    1.02
  -2   9   1   30.26    1.61
  -1   2   9   24.69    1.54
   2  -9   1   29.43    1.42
   2   9  -1   29.13    1.67
  -2  -9  -1   30.69    1.67
   1  -2   9   29.97    1.77
  -9  -1  -2   23.25    1.21
  -1  -2  -9   24.26    1.63
  -9   1   2   25.41    1.15
   1   2  -9   23.18    1.67
   1   9  -1  144.67    3.42
  -1   9   1  159.33    3.49
  -9   1   1  132.95    2.18
   1  -9   1  156.08    3.28
  -1   1   9  143.15    3.52
  -9   1   1  149.76    2.24
   1  -1   9  139.55    3.44
   1   1  -9  134.80    3.41
  -9  -1  -1  143.30    2.76
  -1  -1  -9  130.78    3.36
   9   1  -1  135.74    2.46
   9  -1   1  136.06    1.81
   0   9  -1  212.71    4.03
   1   0  -9  206.95    4.11
   0   9   1  221.20    4.21
   0  -9   1  214.06    3.84
   1   0   9  210.88    4.20
  -9  -1   0  203.52    3.18
  -9   1   0  185.82    2.41
  -1   0  -9  196.38    4.00
   0  -9  -1  231.85    4.19
  -1   0   9  214.01    4.31
  -9   1   0  217.15    2.56
   9   1   0  207.19    2.96
   9   1   1  151.65    2.70
  -1   9  -1  152.38    3.38
   1   9   1  148.55    3.45
   1   1   9  141.03    3.49
  -9  -1   1  131.48    2.67
   1  -1  -9  134.28    3.34
  -1  -1   9  137.46    3.49
  -9   1  -1  132.63    2.03
  -1   1  -9  138.66    3.41
  -2   9  -1   26.23    1.54
   1   2   9   25.31    1.61
  -9  -1   2   28.21    1.32
  -9  -1   2   25.02    1.35
   9   1   2   28.80    1.27
   2   9   1   27.90    1.69
  -1  -2   9   25.70    1.74
   1  -2  -9   26.10    1.62
  -9   1  -2   26.34    0.98
  -3   9  -1  104.68    2.60
  -9  -1   3   99.70    2.59
  -9   1  -3   94.19    1.90
   3   9   1   98.91    3.00
   9   1   3   92.99    2.17
  -3  -9   1   97.82    2.94
   3  -9  -1  110.92    2.65
   1  -3  -9   94.34    2.84
  -9  -1   3  102.72    2.52
  -1   3  -9   93.06    2.88
  -1  -3   9   97.97    3.00
   1   3   9   93.97    3.02
  -9  -1   4  191.85    3.58
   4   9   1  180.96    4.06
  -9   1  -4  196.72    2.87
  -4  -9   1  190.99    4.20
  -1   4  -9  181.33    4.00
   9   1   4  180.46    3.07
  -1  -4   9  185.85    4.11
   1  -4  -9  181.45    3.98
   4  -9  -1  212.07    3.52
  -4   9  -1  206.62    3.43
   1   4   9  192.04    4.29
  -9  -1   4  196.20    3.69
   5   9   1  152.66    3.77
  -9  -1   5  172.71    3.60
  -1  -5   9  164.32    3.90
  -5  -9   1  155.60    3.83
  -9   1  -5  171.40    2.90
   1  -5  -9  165.86    3.86
   9   1   5  165.21    3.13
  -9  -1   5  175.98    3.56
   1   5   9  171.01    4.11
  -1   5  -9  160.10    3.77
  -5   9  -1  183.92    3.08
  -1   6  -9   20.31    1.43
  -6  -9   1   18.91    1.53
   1  -6  -9   23.43    1.70
  -9   1  -6   22.15    1.21
  -1  -6   9   21.45    1.61
  -9  -1   6   22.28    1.50
   9   1   6   22.32    1.39
   1   6   9   24.55    1.68
   9  -1  -6   27.89    1.43
   6  -9  -1   25.48    1.19
  -9  -1   6   22.31    1.57
  -6   9  -1   21.10    1.06
  -9  -1   7   25.86    1.50
  -7  -9   1   26.51    1.79
  -9   1  -7   29.59    1.45
   9   1   7   23.58    1.42
  -1  -7   9   25.80    1.77
   1   7   9   28.71    1.89
  -9  -1   7   24.37    1.60
   7   9   1   26.79    1.70
   9  -1  -8  109.41    2.91
   8   9   1   97.99    3.15
   8  -9  -1  116.16    1.92
   1  -8  -9  116.77    3.51
  -8  -9   1   94.11    3.37
   9   1   8  104.95    2.92
   1   8   9  110.04    3.64
  -9   1  -8  111.78    2.84
  -9  -1   8   96.12    2.97
  -1  -8   9  108.77    3.31
  -1  -8   9  105.24    3.24
  -9  -2  -8    5.72    1.05
   2  -8   9    5.33    1.00
  -9   2   8    9.11    1.15
  -8  -9  -2    5.32    0.97
   8  -9   2    6.68    0.49
  -2   8   9    9.19    1.40
  -8   9   2    7.31    0.93
   9  -2   8    7.54    0.88
   2  -8   9    7.52    1.15
  -9  -2  -7  435.67    5.92
  -2  -7  -9  440.80    6.86
  -7   9   2  476.75    4.71
   2  -7   9  407.66    5.78
  -7  -9  -2  407.99    6.46
  -9   2   7  451.39    5.88
   7  -9   2  450.02    3.68
   9  -2   7  448.10    4.90
  -2   7   9  430.60    6.66
   2  -7   9  429.13    5.82
   7   9  -2  378.98    6.10
  -9  -2  -6   40.89    1.77
   2  -6   9   39.81    1.93
  -6   9   2   47.41    1.72
  -2   6   9   44.54    2.34
  -6  -9  -2   40.45    2.09
  -9   2   6   42.00    1.84
   9  -2   6   39.38    1.45
   6   9  -2   40.73    2.13
   2   5  -9   58.18    2.43
  -9  -2  -5   61.82    2.13
  -5  -9  -2   56.77    2.46
   9  -2   5   60.63    1.61
  -9   2   5   66.06    2.07
   2  -5   9   62.97    2.30
   5   9  -2   56.57    2.48
  -2   4   9   41.89    2.09
   2   4  -9   42.75    2.18
  -4   9   2   48.46    1.87
   4  -9   2   46.24    1.63
   9  -2   4   39.36    1.23
  -4  -9  -2   43.68    2.09
  -9   2   4   45.28    1.60
   2  -4   9   43.46    2.05
  -9  -2  -4   40.97    1.73
  -9   2   4   44.72    1.62
   4   9  -2   40.77    2.02
   3   9  -2  580.56    7.11
  -3   9   2  659.00    6.69
  -9   2   3  624.85    5.18
  -2  -3  -9  582.71    7.14
   2   3  -9  567.10    7.12
  -3  -9  -2  589.12    7.08
   2  -3   9  591.00    6.79
  -9  -2  -3  581.16    5.98
  -9   2   3  624.78    5.10
  -2   3   9  597.05    7.23
   2   2  -9   44.18    2.08
   9   2  -2   39.13    1.53
   2  -9   2   44.56    1.77
  -2   2   9   41.67    2.07
  -2   9   2   43.73    1.92
  -9   2   2   38.59    1.21
   2  -2   9   45.69    1.99
  -2  -9  -2   41.88    1.96
  -2  -2  -9   44.61    2.06
  -9  -2  -2   39.17    1.56
  -9   2   2   40.51    1.24
   2   9  -2   41.58    1.94
   1  -9   2  375.04    4.98
  -9   2   1  356.89    2.92
   2  -1   9  362.09    5.40
  -2   1   9  360.76    5.61
  -9  -2  -1  358.84    4.60
  -1  -9  -2  369.37    5.33
   2   1  -9  358.54    5.52
   9   2  -1  358.95    4.32
   1   9  -2  361.37    5.38
   2   0  -9   92.67    2.87
  -2   0   9   86.40    2.78
  -2   0  -9   95.81    2.87
  -9   2   0   89.78    1.29
   0  -9   2   94.14    2.58
   9   2   0   96.90    2.23
   0   9  -2   98.92    2.84
   9   2   1  349.31    4.22
   2  -1  -9  359.80    5.50
  -2   1  -9  354.67    5.44
   2   1   9  349.49    5.40
  -9  -2   1  357.26    4.67
   1   9   2  367.78    5.53
  -2  -1   9  345.35    5.48
  -1   9  -2  363.83    5.12
   2   2   9   39.67    2.03
  -9  -2   2   39.04    1.71
   9   2   2   35.04    1.53
  -2  -9   2   42.02    2.00
   2   9   2   41.20    2.02
  -2   2  -9   34.17    1.84
   2  -9  -2   42.02    1.78
  -9   2  -2   32.29    0.84
  -2  -2   9   38.10    2.01
   2  -2  -9   41.08    2.03
  -2   9  -2   44.98    1.80
  -2  -3   9  582.88    7.20
  -9  -2   3  576.28    6.30
   3   9   2  581.88    7.22
  -3  -9   2  589.86    7.02
   9   2   3  566.52    5.62
  -3   9  -2  640.35    6.27
  -9   2  -3  587.36    3.96
  -9  -2   3  622.17    6.47
   3  -9  -2  629.10    6.11
   2   3   9  573.69    7.12
  -2   3  -9  595.52    7.03
   2  -3  -9  576.72    6.88
  -9  -2   4   41.67    1.92
  -2   4  -9   41.96    1.96
  -2  -4   9   38.63    2.03
   4   9   2   43.98    2.09
  -4  -9   2   43.43    2.25
   2   4   9   38.82    2.01
  -9   2  -4   44.66    1.30
   9   2   4   40.85    1.67
   2  -4  -9   45.04    2.10
  -9  -2   4   40.69    1.86
   4  -9  -2   48.11    1.77
  -4   9  -2   46.72    1.71
  -9  -2   5   55.63    2.19
   9  -2  -5   65.38    1.88
   5   9   2   63.72    2.59
  -5  -9   2   59.97    2.44
  -2  -5   9   59.76    2.43
   2  -5  -9   62.61    2.49
  -9   2  -5   61.49    1.65
  -9  -2   5   62.88    2.30
   2   5   9   67.45    2.69
  -2   5  -9   60.43    2.28
   5  -9  -2   72.14    2.03
  -5   9  -2   71.61    2.06
   6   9   2   41.36    2.08
  -6  -9   2   38.88    2.08
   9  -2  -6   42.08    1.69
   2  -6  -9   50.88    2.28
   9   2   6   38.63    1.81
  -2  -6   9   42.76    2.07
   2   6   9   38.14    2.22
  -9   2  -6   42.83    1.54
  -9  -2   6   46.54    2.17
  -9  -2   6   38.59    2.01
  -6   9  -2   44.98    1.54
   7   9   2  416.61    6.48
  -7  -9   2  405.90    6.41
  -9  -2   7  429.93    6.38
   9   2   7  432.11    5.68
  -9  -2   7  422.08    6.12
   2   7   9  405.30    6.53
  -2  -7   9  413.34    6.41
  -9   2  -7  442.50    5.03
   9  -2  -7  425.79    5.20
  -2  -7   9  410.11    6.13
   8   9   2   10.73    1.23
   8  -9  -2   10.50    0.84
   2  -8  -9   10.09    1.27
  -9  -2   8    5.50    1.13
   9   2   8    5.49    0.98
   2   8   9    5.41    1.14
   9  -2  -8    6.88    0.85
  -2  -8   9    5.04    1.16
  -2  -8   9   10.21    1.36
  -9  -2   8    5.60    1.30
  -9   2  -8    8.15    0.96
   3  -8   9  149.89    3.51
  -8   9   3  175.43    3.01
  -9   3   8  158.78    3.58
   8  -9   3  155.04    1.99
  -3   8   9  164.44    4.34
   3  -8   9  136.57    3.19
   9  -3   8  155.51    2.93
   8   9  -3  138.68    3.76
  -9  -3  -8  152.34    3.82
  -3  -7  -9   13.85    1.41
   3  -7   9   15.29    1.31
   7  -9   3   16.46    0.83
  -7   9   3   14.83    1.07
   7  -9   3   13.92    0.96
  -9   3   7   15.60    1.27
  -9  -3  -7   12.96    1.36
  -7  -9  -3   12.61    1.25
  -3   7   9   12.49    1.52
   9  -3   7   14.93    1.01
   7   9  -3   13.49    1.29
  -3  -6  -9   20.43    1.65
   6  -9   3   25.86    1.06
   6  -9   3   25.39    1.13
  -9  -3  -6   23.32    1.55
  -6   9   3   27.67    1.38
  -9   3   6   24.99    1.39
  -6  -9  -3   26.21    1.72
   9  -3   6   22.89    1.12
   6   9  -3   22.28    1.65
   3  -6   9   23.04    1.54
  -5   9   3  116.36    2.79
   3   5  -9   87.24    2.91
  -9   3   5  107.66    2.51
  -5  -9  -3   97.81    3.09
   9  -3   5   98.71    1.90
   5  -9   3  106.80    2.22
  -3  -5  -9   99.03    3.13
   3  -5   9  100.07    2.79
  -9  -3  -5   95.19    2.79
   5   9  -3   97.54    3.17
  -3   5   9  109.83    3.33
  -3   4   9  268.87    4.98
   4  -9   3  274.40    3.76
  -3  -4  -9  241.22    4.73
  -4   9   3  297.87    4.56
  -9   3   4  264.37    3.51
   9  -3   4  208.43    2.33
  -4  -9  -3  254.06    4.85
   3   4  -9  229.34    4.63
   3  -4   9  250.43    4.40
  -9  -3  -4  243.48    4.17
   4   9  -3  243.02    4.74
  -9   3   3   79.63    1.82
  -3   3   9   72.22    2.72
   3  -9   3   79.85    2.21
  -3   9   3   84.88    2.56
  -3  -3  -9   69.32    2.62
  -9   3   3   76.19    1.74
   3  -3   9   71.22    2.36
  -3  -9  -3   78.68    2.74
  -9  -3  -3   73.04    2.41
   3   3  -9   72.23    2.56
   3   9  -3   73.11    2.63
  -9   3   2    1.69    0.35
   2   9  -3    3.41    0.96
   2  -9   3    1.26    0.55
   3   2  -9    0.85    0.47
  -2   9   3    1.74    0.82
  -3   2   9    2.18    0.91
  -9  -3  -2    2.80    0.85
   3  -2   9    0.18    0.93
  -9   3   2    1.16    0.42
  -2  -9  -3    3.61    0.98
  -3  -2  -9    2.14    0.82
   9   3  -2    1.84    0.59
   1   9  -3   93.87    2.90
   1  -9   3  100.59    2.61
   3  -1   9  105.57    2.97
  -9   3   1   74.63    1.14
  -1   9   3  100.99    2.87
  -9  -3  -1   85.64    2.46
  -3   1   9  104.06    3.15
  -1  -9  -3   94.40    2.83
  -3  -1  -9   90.77    2.85
   3   1  -9   88.81    2.84
   9   3  -1   92.42    2.45
   9   3   0  281.48    4.12
   3   0   9  292.46    4.93
   0   9   3  319.98    5.24
  -9  -3   0  278.84    4.28
   3   0  -9  279.87    4.85
  -3   0   9  302.53    5.29
   0  -9  -3  322.26    5.09
  -3   0  -9  291.47    4.92
   0   9  -3  287.49    4.76
   3   1   9   93.32    2.78
   9   3   1   99.59    2.51
   3  -1  -9   88.05    2.76
  -9  -3   1   93.08    2.58
   1   9   3  100.66    3.07
  -3  -1   9   97.46    3.08
  -1   9  -3  101.61    2.81
  -1  -9   3   95.71    2.76
  -3   1  -9   92.14    2.81
   3   2   9    2.05    0.77
  -9  -3   2    4.95    0.76
  -2  -9   3    2.38    0.87
  -3  -2   9    1.19    0.80
  -2   9  -3    0.94    0.91
   2   9   3    1.78    0.74
   3  -2  -9    1.02    0.83
  -3   2  -9    1.08    0.92
   2  -9  -3    1.52    0.80
  -3  -3   9   62.39    2.51
  -9  -3   3   69.44    2.38
   9   3   3   66.58    2.07
   3   9   3   69.38    2.67
  -9   3  -3   65.34    1.00
  -9  -3   3   77.28    2.58
  -3   3  -9   67.85    2.45
  -3   9  -3   69.88    2.17
   3  -9  -3   82.67    2.42
   3  -3  -9   77.30    2.58
   3   3   9   75.51    2.69
  -3  -9   3   71.03    2.61
  -3   4  -9  251.96    4.57
  -4  -9   3  246.95    4.75
  -9   3  -4  257.20    2.61
   4   9   3  278.07    5.42
  -3  -4   9  239.90    4.76
  -9  -3   4  270.83    4.73
   9   3   4  254.04    4.18
  -9  -3   4  250.11    4.54
   3  -4  -9  256.32    4.65
   3   4   9  240.76    4.70
   4  -9  -3  291.05    4.24
  -4   9  -3  265.08    3.97
   9  -3  -4  269.36    3.24
  -9   3  -5  108.27    1.99
  -5  -9   3   96.67    3.02
   5   9   3   92.04    3.04
   9   3   5   96.33    2.67
   5  -9  -3  115.07    2.61
  -3  -5   9  101.50    3.19
  -9  -3   5  111.43    3.14
   3  -5  -9  106.61    3.15
  -3   5  -9  101.85    2.97
   3   5   9   99.45    3.24
  -9  -3   5   99.16    2.99
   9  -3  -5  111.39    2.29
  -9  -3   6   20.76    1.45
  -9  -3   6   22.34    1.57
  -9   3  -6   26.69    1.17
   6   9   3   30.96    1.98
   3  -6  -9   25.51    1.60
   9  -3  -6   25.89    1.35
  -3   6  -9   24.06    1.45
  -3  -6   9   21.56    1.67
   3   6   9   24.11    1.67
   6  -9  -3   32.02    1.42
  -3  -6   9   24.83    1.77
  -3   7  -9   11.04    1.07
  -9   3  -7   14.39    1.00
   9  -3  -7   13.71    1.21
   9   3   7   14.07    1.46
   3   7   9   14.11    1.69
  -9  -3   7   14.53    1.35
  -3  -7   9   14.05    1.43
  -3  -7   9   17.27    1.55
  -9  -3   7   14.37    1.35
   8   9   3  139.73    3.82
  -9   3  -8  158.48    3.17
   9  -3  -8  143.26    3.15
   9   3   8  145.00    3.53
  -9  -3   8  135.00    3.70
   3   8   9  149.77    4.26
  -9  -3   8  147.66    3.91
  -3  -8   9  142.82    3.92
   4  -8   9  111.20    2.91
  -9  -4  -8  107.01    3.28
   8  -9   4  125.41    1.90
  -9   4   8  123.09    3.23
  -8   9   4  133.60    2.83
  -4   8   9  121.84    3.71
   9  -4   8  121.66    2.48
   4  -8   9  120.62    2.97
   7  -9   4   56.78    1.56
  -9   4   7   45.46    1.95
  -7   9   4   55.14    1.91
  -9  -4  -7   47.70    2.27
  -7  -9  -4   47.63    2.27
   7  -9   4   54.59    1.46
  -4   7   9   58.02    2.58
   9  -4   7   52.51    1.63
   7   9  -4   42.10    2.27
   4  -7   9   51.53    2.04
  -4  -6  -9  269.44    5.16
   6  -9   4  306.22    3.50
  -9   4   6  311.50    4.44
  -6  -9  -4  297.09    5.50
   9  -4   6  298.30    3.24
   4  -6   9  297.47    4.65
  -9  -4  -6  295.28    5.09
   6   9  -4  272.00    5.20
  -4   6   9  317.24    5.61
   5  -9   4   32.13    1.32
  -4  -5  -9   30.58    1.90
  -9   4   5   32.90    1.46
  -5  -9  -4   31.31    1.93
  -4   5   9   25.91    1.85
   4  -5   9   26.95    1.56
   9  -4   5   26.56    0.96
  -9  -4  -5   25.12    1.65
   5  -9   4   28.91    1.34
   5   9  -4   28.27    1.82
   4   9  -4   70.09    2.60
  -4   4   9   74.49    2.75
   4   4  -9   72.69    2.70
   4  -9   4   83.57    2.13
  -9   4   4   81.52    2.00
  -4  -4  -9   78.30    2.76
  -4   9   4   86.14    2.57
   4  -4   9   82.68    2.51
  -4  -9  -4   80.30    2.90
   4  -9   4   82.70    2.14
  -9  -4  -4   85.47    2.73
  -9   4   3   82.60    1.78
   4   3  -9   73.06    2.67
   3  -9   4   77.71    2.18
  -4   3   9   73.37    2.69
   4  -3   9   72.87    2.44
  -3   9   4   86.90    2.65
  -9  -4  -3   73.17    2.41
  -3  -9  -4   87.88    3.02
   9   4  -3   68.64    2.27
   3   9  -4   75.45    2.75
   3  -9   4   89.22    2.31
   4  -2   9  581.90    6.58
  -4   2   9  600.20    7.33
  -2   9   4  639.15    7.18
  -4  -2  -9  561.47    6.89
   4   2  -9  579.84    7.12
  -9  -4  -2  593.80    6.62
  -2  -9  -4  581.85    7.08
   9   4  -2  568.09    6.16
  -9   4   2  538.55    3.55
  -9   4   2  531.19    3.56
   2   9  -4  597.99    7.27
   2  -9   4  601.29    6.07
   4   1  -9   73.80    2.62
   9   4  -1   68.90    2.19
   4  -1   9   70.05    2.43
  -9  -4  -1   66.75    2.29
  -4   1   9   71.07    2.63
  -4  -1  -9   75.41    2.57
  -1  -9  -4   69.18    2.45
   1   9  -4   73.46    2.53
   9   4   0   33.59    1.64
   4   0   9   35.89    1.78
   0  -9   4   36.85    1.78
   0   9   4   36.94    1.92
  -4   0   9   34.27    1.93
   4   0  -9   36.51    1.92
   0  -9  -4   35.47    1.89
   0   9  -4   34.77    1.78
   9   4   1   69.71    2.29
  -1  -9   4   71.74    2.42
  -9  -4   1   68.89    2.30
   1   9   4   77.59    2.70
   4  -1  -9   68.36    2.48
   1  -9  -4   70.13    2.42
  -4  -1   9   66.01    2.51
  -1   9  -4   70.40    2.43
  -4   1  -9   69.32    2.44
   4   1   9   66.90    2.40
  -2  -9   4  581.90    6.89
   9   4   2  597.70    6.41
   4  -2  -9  587.22    6.91
  -4   2  -9  575.70    6.75
  -9  -4   2  571.78    6.56
   4   2   9  587.04    7.13
   2   9   4  602.49    7.46
  -4  -2   9  570.36    7.26
  -9  -4   3   80.25    2.62
  -3  -9   4   78.81    2.74
  -4  -3   9   74.80    2.84
   9   4   3   70.88    2.32
   3   9   4   74.01    2.64
  -4   3  -9   78.86    2.55
   4   3   9   78.32    2.66
   3  -9  -4   87.18    2.57
   4  -3  -9   80.01    2.67
   9  -4  -3   84.55    1.56
  -9   4  -4   71.61    1.17
  -9  -4   4   72.96    2.64
  -4  -9   4   82.93    2.96
  -9  -4   4   84.58    2.92
   9   4   4   72.85    2.38
   4   9   4   74.92    2.89
  -4  -4   9   83.72    3.15
   9  -4  -4   79.63    1.73
   4   4   9   69.33    2.70
   4  -4  -9   72.53    2.53
  -4   4  -9   74.44    2.50
   4  -9  -4   95.46    2.67
  -9  -4   5   26.83    1.71
   5  -9  -4   35.72    1.61
  -9  -4   5   31.35    1.88
  -9   4  -5   28.48    0.92
  -5  -9   4   27.71    1.81
   5   9   4   29.63    1.91
   9   4   5   30.76    1.67
  -4   5  -9   29.41    1.71
  -4  -5   9   26.82    1.78
   4  -5  -9   29.29    1.83
   4   5   9   32.17    1.89
   9  -4  -6  310.96    4.02
  -6  -9   4  288.80    5.37
   6   9   4  281.99    5.38
  -9  -4   6  297.24    5.33
   6  -9  -4  349.93    4.51
  -4   6  -9  295.50    4.89
  -9   4  -6  318.52    3.59
   4  -6  -9  313.66    5.25
   4   6   9  315.65    5.90
  -4  -6   9  274.28    5.35
  -4  -6   9  312.11    5.64
  -9  -4   6  315.67    5.57
  -4   7  -9   48.95    2.18
  -9  -4   7   42.94    2.16
   7   9   4   48.71    2.40
   9   4   7   48.14    2.23
   4  -7  -9   51.94    2.22
   4   7   9   49.37    2.39
  -9   4  -7   52.73    1.67
   9  -4  -7   52.23    1.81
  -9  -4   7   48.12    2.35
  -4  -7   9   47.47    2.33
   8   9   4  109.55    3.50
   4  -8  -9  123.14    3.53
   9   4   8  113.81    3.24
  -9   4  -8  117.71    2.67
  -9  -4   8  112.89    3.55
  -9  -4   8  111.43    3.52
   9  -4  -8  122.07    2.87
  -8   9   5   37.09    1.67
   9  -5   8   36.75    1.36
  -5   8   9   35.18    2.11
  -9   5   8   33.91    1.76
   5  -8   9   35.86    1.66
   5  -8   9   34.97    1.67
  -9  -5  -8   29.51    1.86
   7  -9   5   30.20    1.29
  -7   9   5   32.53    1.64
   5  -7   9   26.86    1.45
  -5   7   9   25.08    1.77
   7   9  -5   22.97    1.75
  -9   5   7   29.29    1.63
   9  -5   7   29.68    1.26
  -9   5   6   13.71    1.13
   6  -9   5   18.51    1.07
  -5  -6  -9   11.08    1.54
  -6   9   5   16.95    1.44
  -6  -9  -5   13.70    1.46
   5  -6   9   15.71    1.27
   6  -9   5   14.19    0.85
  -9  -5  -6   13.25    1.35
   6   9  -5   11.92    1.21
   9  -5   6   13.25    0.81
  -5   6   9   16.51    1.70
  -5   5   9  203.79    4.39
   5  -9   5  210.90    3.25
  -5  -5  -9  183.41    4.21
   5  -9   5  197.08    3.21
  -5   9   5  218.14    4.16
   5  -5   9  198.40    3.72
  -5  -9  -5  188.11    4.37
  -9  -5  -5  202.25    4.32
   9  -5   5  174.27    2.14
   5   9  -5  179.24    4.26
  -9   5   5  207.99    3.40
   4  -9   5   82.76    2.16
  -5  -4  -9   73.42    2.79
   5  -4   9   77.22    2.34
  -4   9   5   86.48    2.71
   4  -9   5   82.61    2.27
  -9  -5  -4   67.05    2.47
  -4  -9  -5   78.96    2.84
   4   9  -5   72.47    2.70
  -5   4   9   80.76    2.79
   3  -9   5  102.69    2.57
   3  -9   5   98.60    2.52
  -5   3   9  101.04    3.11
  -5  -3  -9   97.37    3.04
   5  -3   9   96.00    2.66
  -9  -5  -3   96.35    3.00
   5   3  -9  102.10    3.13
  -3  -9  -5  102.36    3.31
  -9   5   3  102.10    1.87
   3   9  -5   92.74    3.03
   9   5  -3   97.74    2.86
   5  -2   9   17.23    1.23
  -5  -2  -9   17.31    1.29
  -5   2   9   23.76    1.66
  -9  -5  -2   20.74    1.44
  -9   5   2   14.33    0.63
   2  -9   5   20.80    1.34
  -2  -9  -5   26.62    1.82
   5   2  -9   18.90    1.47
   2   9  -5   19.75    1.52
   9   5  -2   17.94    1.30
   1  -9   5  166.05    3.38
   5  -1   9  162.90    3.59
   1  -9   5  165.57    3.59
   5   1  -9  161.31    3.77
  -9  -5  -1  155.19    3.49
  -5  -1  -9  164.01    3.77
  -5   1   9  168.60    3.93
  -1  -9  -5  173.83    3.98
   9   5  -1  161.65    3.49
   0  -9   5   87.39    2.65
   0  -9   5   92.80    2.81
  -9  -5   0   85.06    2.71
   0   9   5   91.46    2.97
  -5   0  -9   86.30    2.76
  -5   0   9   81.58    2.76
   0  -9  -5   98.97    2.98
   9   5   0   95.59    2.73
   5   0  -9   90.31    2.83
   5   0   9   89.05    2.72
  -1  -9   5  167.21    3.68
   9   5   1  163.33    3.62
  -9  -5   1  175.81    4.06
   1   9   5  171.85    4.00
  -1  -9   5  152.24    3.64
   5  -1  -9  172.65    3.84
   1  -9  -5  177.61    3.91
  -5   1  -9  155.95    3.54
  -5  -1   9  162.12    3.94
   5   1   9  173.72    3.75
  -5  -2   9   20.04    1.46
  -5   2  -9   19.55    1.39
   9   5   2   17.32    1.39
  -9  -5   2   20.64    1.55
   9  -5  -2   15.43    0.58
   5  -2  -9   21.32    1.56
  -2  -9   5   18.34    1.46
   2   9   5   22.36    1.67
   2  -9  -5   25.59    1.63
   5   2   9   22.71    1.62
   5  -3  -9   99.51    2.88
  -9  -5   3  101.77    3.03
   9   5   3  101.20    2.87
  -5  -3   9   94.87    3.15
   3   9   5  100.15    3.17
  -5   3  -9  103.30    2.97
   9  -5  -3  103.12    1.68
   5   3   9   98.36    3.05
  -3  -9   5  109.32    3.16
  -9  -5   4   74.83    2.80
   9  -5  -4   82.65    1.75
   9   5   4   72.08    2.54
   4   9   5   73.62    2.94
  -5  -4   9   74.98    2.80
   5   4   9   81.90    2.94
  -5   4  -9   75.97    2.54
  -9  -5   4   77.54    2.78
   5  -4  -9   78.55    2.62
  -9  -5   5  198.92    4.38
  -5  -9   5  190.62    4.35
  -5  -5   9  184.05    4.30
   9   5   5  186.15    4.03
   5   9   5  188.54    4.38
  -5   5  -9  197.39    3.89
  -9  -5   5  196.45    4.44
  -5  -5   9  194.89    4.57
   5   5   9  187.04    4.26
   5  -5  -9  197.30    4.05
  -9  -5   6   12.94    1.36
  -6  -9   5   15.83    1.42
   6  -9  -5   16.33    1.24
  -9   5  -6   13.30    0.94
  -5   6  -9   16.48    1.29
   6   9   5   17.43    1.66
   9   5   6   11.86    1.21
   5   6   9   15.24    1.50
   9  -5  -6   16.96    1.10
   5  -6  -9   12.21    1.35
  -9  -5   6   11.52    1.15
  -5  -6   9   14.06    1.41
  -5  -6   9   11.68    1.39
  -9  -5   7   29.71    1.95
   7  -9  -5   32.29    1.62
   9   5   7   23.23    1.71
   5   7   9   23.60    1.80
  -5   7  -9   26.96    1.49
   5  -7  -9   34.89    1.93
   9  -5  -7   30.28    1.48
  -9   5  -7   30.73    1.31
  -5  -7   9   24.89    1.95
  -9  -5   7   28.16    2.03
  -9   5  -8   34.87    1.51
   9  -5  -8   33.97    1.64
  -9  -5   8   34.49    2.29
  -8   9   6   41.30    1.94
  -6   8   9   38.09    2.15
   6  -8   9   34.50    1.59
   6  -8   9   39.82    1.67
  -9   6   8   36.19    1.93
   7  -9   6  234.86    3.23
   9  -6   7  221.26    2.90
   7  -9   6  219.27    3.06
  -7   9   6  236.20    4.24
   6  -7   9  212.27    3.60
  -6   7   9  228.50    4.73
  -9   6   7  244.75    4.20
   6  -9   6   72.95    2.00
   9  -6   6   62.04    1.45
  -6   6   9   63.13    2.65
   6  -9   6   72.36    1.97
   6  -6   9   59.64    2.00
  -6   9   6   66.88    2.44
  -9  -6  -6   56.07    2.53
   9  -6   6   69.16    1.46
  -9   6   6   65.16    2.11
   5  -9   6   65.11    1.94
  -6   5   9   58.57    2.47
  -6  -5  -9   53.41    2.35
   6  -5   9   61.46    2.06
  -5   9   6   66.69    2.46
   5  -9   6   64.40    2.01
  -9  -6  -5   57.07    2.44
  -5  -9  -6   61.18    2.64
  -9   6   5   63.49    2.02
   9  -6   5   50.85    1.10
   4  -9   6   28.93    1.41
  -6   4   9   30.47    1.78
   4  -9   6   29.13    1.50
   6  -4   9   24.60    1.39
  -6  -4  -9   27.74    1.84
  -4   9   6   31.85    1.87
  -9  -6  -4   24.12    1.81
  -9   6   4   28.98    1.34
   9   6  -4   26.42    1.51
   6  -3   9  264.43    4.27
  -6  -3  -9  247.83    4.82
  -6   3   9  272.24    4.99
   3  -9   6  260.14    4.17
  -9  -6  -3  252.81    4.70
  -9   6   3  269.58    3.06
  -3  -9  -6  279.29    5.32
   9   6  -3  253.55    4.63
   2  -9   6  146.77    3.18
   6  -2   9  144.52    3.21
   6   2  -9  140.32    3.58
  -6  -2  -9  145.24    3.66
  -6   2   9  142.81    3.57
  -9  -6  -2  145.64    3.78
  -2   9   6  153.60    3.75
   2  -9   6  149.31    3.26
   9   6  -2  137.95    3.40
   6  -1   9  171.90    3.52
  -9  -6  -1  170.82    3.90
  -6  -1  -9  180.73    3.94
  -1   9   6  193.58    4.34
  -6   1   9  185.60    4.23
   6   1  -9  181.46    4.01
  -1  -9  -6  204.31    4.45
   9   6  -1  174.72    3.84
   1  -9   6  196.80    3.97
   0  -9   6   13.78    1.27
   9   6   0   12.18    1.25
   6   0  -9   12.79    1.09
   0  -9   6   14.27    1.31
  -9  -6   0    9.76    1.16
  -6   0  -9   11.80    1.23
  -6   0   9   15.09    1.47
   0  -9  -6   11.60    1.30
   6   0   9   11.71    1.17
  -1  -9   6  186.83    3.97
   9   6   1  179.80    3.96
   1  -9  -6  198.88    4.14
  -9  -6   1  192.76    4.21
   1   9   6  193.64    4.46
  -1  -9   6  183.70    4.05
  -6   1  -9  191.16    3.94
   6   1   9  182.29    3.91
   6  -1  -9  183.92    3.86
  -6  -1   9  180.03    4.17
  -2  -9   6  151.54    3.87
  -2  -9   6  135.31    3.49
  -6   2  -9  151.99    3.45
  -6  -2   9  141.23    3.67
   9   6   2  139.23    3.49
  -9  -6   2  144.46    3.72
   9  -6  -2  139.59    1.51
   2   9   6  154.72    4.11
   6  -2  -9  146.24    3.51
   6   2   9  159.46    3.89
   3  -9  -6  293.15    4.93
  -9  -6   3  251.92    4.92
   9   6   3  263.21    4.74
  -3  -9   6  252.43    5.04
  -6  -3   9  250.94    4.98
   6  -3  -9  264.34    4.56
  -6   3  -9  277.46    4.73
   3   9   6  258.85    5.16
   9  -6  -3  275.93    2.65
   6   3   9  264.05    4.95
  -4  -9   6   24.93    1.70
   6  -4  -9   29.77    1.82
   4  -9  -6   32.10    1.86
  -9  -6   4   27.66    1.77
   9   6   4   25.33    1.76
  -6  -4   9   29.17    2.00
   9  -6  -4   30.73    1.14
  -4  -9   6   25.23    1.63
   6   4   9   23.26    1.64
  -6   4  -9   28.80    1.59
  -6  -4   9   26.62    1.75
  -9  -6   5   59.50    2.57
   5  -9  -6   70.61    2.44
  -9  -6   5   60.99    2.62
   9   6   5   54.48    2.26
   5   9   6   56.84    2.48
   6   5   9   59.22    2.60
  -6  -5   9   59.31    2.60
  -5  -9   6   57.25    2.73
  -6  -5   9   52.71    2.49
   6  -5  -9   67.26    2.43
  -9  -6   6   64.59    2.78
  -6   6  -9   71.70    2.48
   6  -9  -6   70.73    2.37
   9   6   6   59.33    2.48
   6   9   6   58.96    2.67
   9  -6  -6   71.52    1.94
   6   6   9   61.04    2.66
   6  -6  -9   65.17    2.41
  -6  -6   9   61.11    2.78
  -6  -9   6   56.40    2.63
   9  -6  -7  236.21    3.73
   9   6   7  198.26    4.40
  -6   7  -9  211.83    3.99
  -9   6  -7  230.49    3.26
  -9  -6   7  209.44    4.89
   6  -7  -9  236.02    4.40
   9  -6  -8   38.42    1.70
   8  -9  -6   37.59    1.64
   7  -8   9  123.96    2.67
  -7   8   9  130.57    3.57
  -9   7   8  136.20    3.31
   7  -8   9  132.24    2.74
  -7   7   9    0.69    0.73
   7  -9   7    1.25    0.41
  -7   9   7    1.34    0.63
   7  -7   9    1.28    0.43
   6  -9   7   33.14    1.46
   7  -6   9   28.39    1.37
   6  -9   7   31.89    1.35
  -6   9   7   32.98    1.97
  -9   7   6   31.09    1.67
  -9  -7  -6   30.51    1.94
   9  -7   5   24.04    0.87
  -7  -5  -9   24.66    1.78
   9  -7   5   26.20    0.86
   7  -5   9   28.09    1.53
   5  -9   7   30.74    1.41
  -5   9   7   27.63    1.89
  -9  -7  -5   27.40    1.84
  -9   7   5   32.80    1.49
  -7   5   9   31.47    1.93
  -7  -4  -9  229.87    4.80
   7  -4   9  239.97    3.85
  -7   4   9  256.53    4.85
   4  -9   7  241.83    3.89
  -4   9   7  257.26    4.92
  -9   7   4  263.96    3.44
  -9  -7  -4  237.48    4.94
   4  -9   7  235.65    3.90
   9   7  -4  226.71    4.61
   7  -3   9   13.17    1.13
  -7  -3  -9   12.49    1.26
  -3  -9  -7   16.86    1.37
  -9   7   3   15.30    0.92
  -9  -7  -3   11.20    1.33
  -3   9   7   14.05    1.51
   3  -9   7   13.88    1.14
   7   3  -9   14.39    1.39
   3  -9   7   13.80    1.09
   9   7  -3   15.18    1.36
   2  -9   7   13.78    1.22
  -7  -2  -9   15.52    1.35
  -7   2   9   12.15    1.23
  -9  -7  -2   18.67    1.49
  -2   9   7   15.68    1.43
  -2  -9  -7   12.34    1.52
   9   7  -2   13.65    1.33
   2  -9   7   14.83    1.39
   7  -2   9   12.24    1.14
   7   1  -9   28.45    1.73
   9   7  -1   29.17    1.72
   1  -9   7   29.31    1.69
  -9  -7  -1   26.41    1.62
  -7  -1  -9   27.31    1.73
  -1   9   7   26.49    1.67
  -7   1   9   27.66    1.80
   7  -1   9   26.75    1.50
  -1  -9  -7   26.30    1.75
   9   7   0  281.77    5.05
  -9  -7   0  257.85    4.90
   0   9   7  303.45    5.54
   7   0  -9  284.83    4.94
  -7   0  -9  298.94    5.07
   0  -9   7  276.47    4.89
  -7   0   9  294.78    5.27
   7   0   9  283.29    4.66
   0  -9   7  285.88    4.85
   1  -9  -7   24.70    1.72
   9   7   1   25.95    1.62
   7  -1  -9   27.60    1.55
   1   9   7   24.88    1.86
  -7   1  -9   29.71    1.65
  -1  -9   7   26.69    1.67
   7   1   9   23.50    1.64
  -7  -1   9   28.94    1.76
  -2  -9   7   11.55    1.22
   2  -9  -7   16.31    1.46
  -7  -2   9   18.21    1.66
   9   7   2   15.46    1.37
  -9  -7   2   14.76    1.30
   9  -7  -2   16.11    0.63
   7   2   9   17.37    1.37
   7  -2  -9   18.62    1.50
  -2  -9   7   16.87    1.54
  -7   2  -9   14.27    1.23
  -3  -9   7   10.60    1.11
   3  -9  -7   16.63    1.55
  -3  -9   7   15.06    1.55
   9  -7  -3   12.69    0.67
   9   7   3   12.39    1.24
  -7  -3   9   15.94    1.62
  -7   3  -9   14.85    1.26
   3   9   7   14.88    1.52
   7  -3  -9   15.55    1.48
   7   3   9   10.15    1.29
   9  -7  -4  265.95    3.03
  -9  -7   4  207.84    4.59
   4  -9  -7  269.42    4.78
   9   7   4  226.90    4.59
  -4  -9   7  225.02    5.00
   7  -4  -9  240.14    4.30
   4   9   7  238.16    5.16
  -7  -4   9  233.89    4.93
   7   4   9  243.91    4.91
  -7   4  -9  243.00    4.22
  -7  -4   9  235.85    4.96
   5  -9  -7   31.44    1.78
  -9  -7   5   23.42    1.80
   9  -7  -5   31.52    1.25
   7  -5  -9   32.21    1.73
  -7   5  -9   28.61    1.50
   9   7   5   23.76    1.82
  -9  -7   5   27.98    2.07
  -5  -9   7   28.52    1.79
   5   9   7   27.11    2.06
   7   5   9   33.15    2.01
  -7  -5   9   24.74    1.91
   9  -7  -6   31.65    1.36
  -7   6  -9   29.45    1.50
   9   7   6   26.29    1.83
   6  -9  -7   35.10    1.74
   7   6   9   29.26    1.95
  -9  -7   6   32.68    2.22
   7  -6  -9   29.27    1.64
   7  -7  -9    1.17    0.65
   9   7   7    0.12    1.16
   7  -9  -7    2.77    1.04
   9  -7  -8  133.12    2.97
   8  -9  -7  144.17    3.08
  -8   9   8   35.18    2.03
  -9   8   8   40.49    2.01
  -8   8   9   37.12    2.05
   8  -7   9   89.45    2.25
  -7   9   8   87.89    2.75
   7  -9   8   95.62    2.36
  -8   7   9   96.45    3.07
   6  -9   8  127.52    2.70
  -6   9   8  136.08    3.63
   6  -9   8  131.92    2.75
  -8   6   9  135.87    3.47
  -8  -5  -9    7.28    1.23
  -8   5   9   11.93    1.39
   8  -5   9    8.63    0.92
   5  -9   8    3.93    0.67
   5  -9   8    7.41    1.01
   8  -4   9   24.20    1.29
  -8  -4  -9   28.51    1.83
  -8   4   9   29.95    1.78
   4  -9   8   29.73    1.51
  -9   8   4   29.98    1.38
   4  -9   8   28.86    1.52
  -9  -8  -4   20.29    1.83
  -4   9   8   32.82    2.10
   9   8  -4   25.58    1.77
  -8  -3  -9  117.25    3.46
  -8   3   9  119.68    3.43
  -9   8   3  133.65    2.34
  -9  -8  -3  109.39    3.43
   3  -9   8  123.98    3.11
  -3   9   8  134.51    3.80
   9   8  -3  115.62    3.40
   3  -9   8  127.68    2.97
   8  -3   9  127.15    2.91
  -9   8   2  199.31    2.48
  -8  -2  -9  183.86    4.12
  -9  -8  -2  189.66    4.40
  -8   2   9  205.20    4.35
   8   2  -9  184.00    4.10
  -2   9   8  199.90    4.59
   9   8  -2  174.88    4.12
   2  -9   8  186.56    3.86
   8  -2   9  189.51    3.59
   2  -9   8  186.03    3.76
  -8  -1  -9   66.12    2.43
  -9  -8  -1   61.75    2.57
   9   8  -1   63.09    2.54
  -1   9   8   69.17    2.73
  -8   1   9   63.17    2.47
   8  -1   9   65.80    2.25
   1  -9   8   70.31    2.52
  -1  -9  -8   74.93    2.84
   8   0  -9   31.64    1.88
   9   8   0   26.58    1.94
   0  -9   8   26.54    1.75
  -9  -8   0   26.79    1.90
   0  -9  -8   27.57    1.92
  -8   0  -9   30.16    1.70
   0   9   8   27.97    1.81
   8   0   9   27.75    1.65
  -8   0   9   27.65    1.70
   0  -9   8   31.23    1.71
   1  -9  -8   69.23    2.55
   9   8   1   65.75    2.75
  -1  -9   8   71.12    2.65
  -9  -8   1   63.92    2.63
   8  -1  -9   66.26    2.46
   1   9   8   64.22    2.76
   8   1   9   68.39    2.52
  -8   1  -9   66.82    2.34
  -8  -1   9   62.61    2.61
  -1  -9   8   65.24    2.46
   8  -2  -9  197.32    3.99
   9   8   2  192.06    4.40
   2  -9  -8  190.83    4.24
  -8  -2   9  181.43    4.28
  -9  -8   2  194.50    4.59
  -2  -9   8  178.02    4.26
   2   9   8  181.29    4.46
   8   2   9  182.81    3.89
  -8   2  -9  200.82    3.89
  -2  -9   8  186.69    4.19
  -8  -3   9  110.25    3.51
   9   8   3  120.72    3.45
  -9  -8   3  129.16    3.77
  -8   3  -9  134.28    3.12
  -8  -3   9  120.58    3.65
   3   9   8  119.50    3.68
  -3  -9   8  111.93    3.43
   8   3   9  123.02    3.53
   8  -3  -9  131.78    3.19
   9   8   4   24.45    1.75
  -8  -4   9   23.13    1.80
   8  -4  -9   29.82    1.60
   8   4   9   27.90    1.96
  -8   4  -9   26.75    1.47
  -8   5  -9   10.24    1.09
   9   8   5    7.14    1.22
   8  -5  -9    9.18    1.06
   5  -9  -8    9.73    1.18
   8   5   9    8.61    1.24
   8  -6  -9  140.75    3.29
   6  -9  -8  145.66    3.39
   7  -9  -8   95.48    2.80
  -8   7  -9   96.42    2.60
   8  -7  -9   94.32    2.77
   9  -8  -8   37.36    1.67
   8  -9  -8   37.81    1.70
  -8   9   9   -0.43    0.42
  -7   9   9   20.08    1.71
  -9   7   9   18.14    1.59
   6  -9   9    1.47    0.61
  -6   9   9    3.37    1.01
   6  -9   9    6.68    0.87
  -9   6   9    6.51    1.09
   9  -5   9  153.60    2.89
   5  -9   9  147.56    3.16
  -9   5   9  160.17    3.73
  -5   9   9  160.88    4.17
   5  -9   9  156.12    3.19
   4  -9   9    7.63    0.92
  -9  -4  -9    2.21    0.90
  -9   4   9    4.10    1.11
  -4   9   9    5.89    1.04
   4  -9   9    6.76    0.71
   9  -4   9    8.34    1.01
  -9  -3  -9   74.10    2.81
  -9   3   9   79.58    2.81
   3  -9   9   82.95    2.60
  -3   9   9   82.70    3.12
   9  -3   9   75.49    2.23
   2  -9   9    3.38    1.11
   2  -9   9    0.73    0.49
  -9  -2  -9    1.40    0.47
  -2   9   9    4.46    0.93
   9  -2   9    3.45    0.84
   1  -9   9  139.24    3.50
   9   1  -9  130.31    3.42
  -9  -1  -9  138.18    3.53
  -9   1   9  139.35    3.63
   1  -9   9  133.75    3.41
   9  -1   9  132.74    3.14
   9   9  -1  134.30    3.78
   9   9   0    7.95    1.32
  -9   0  -9    8.18    1.24
   0   9   9    6.31    0.92
   9   0   9   10.80    1.15
   0  -9   9   11.12    1.35
  -9   0   9   11.48    1.34
   0  -9   9   12.89    1.39
  -1  -9   9  139.77    3.81
   9   1   9  139.83    3.34
  -9   1  -9  141.64    3.31
  -9  -1   9  131.54    3.61
   9  -1  -9  139.66    3.34
   9  -2  -9    2.73    0.76
   9   9   2    3.17    0.99
  -9   2  -9    1.60    0.70
  -9  -2   9    1.85    0.84
   9   2   9    2.10    0.80
  -9  -2   9    3.44    0.89
   9  -3  -9   73.16    2.35
  -9   3  -9   73.48    2.33
   3  -9  -9   78.64    2.89
   9   3   9   75.25    2.74
  -9  -4   9    3.86    1.17
  -9   4  -9    5.07    0.95
   9   4   9    6.55    1.14
   9  -4  -9    5.08    1.02
  -9   5  -9  160.08    3.17
   5  -9  -9  155.80    3.71
   9  -5  -9  151.37    3.33
   9  -6  -9    7.13    1.04
   6  -9  -9    2.61    0.99
   9  -7  -9   17.93    1.35
   7  -9  -9   14.93    1.28
   8  -9  -9    3.30    0.81
   0   0 -10  543.43    7.00
   0  10   0  603.23    7.13
   0   0  10  561.06    7.17
 -10   0   0  549.23    4.88
   0 -10   0  616.03    6.91
  10   0   0  568.10    4.36
  -1  10   0  169.87    3.75
   1  10   0  168.96    3.90
 -10   0   1  149.02    2.64
   0   1  10  155.10    3.83
   0   1 -10  170.79    4.16
  -1 -10   0  162.22    3.69
   0  -1  10  156.30    3.78
 -10   0  -1  155.22    2.62
   0  -1 -10  151.50    3.71
  10   0   1  170.13    2.45
  10   0   2   29.52    1.16
  -2  10   0   32.62    1.73
   2  10   0   28.36    1.91
 -10   0   2   25.80    1.31
   0   2  10   21.99    1.62
  -2 -10   0   33.98    1.82
   2 -10   0   30.82    1.62
 -10   0   2   31.59    1.34
   0  -2  10   30.04    1.82
   0   2 -10   28.96    1.79
 -10   0  -2   29.82    1.26
   0  -2 -10   28.51    1.79
 -10   0   3  292.86    4.10
  -3  10   0  308.68    4.66
   3  10   0  291.81    5.31
  10   0   3  277.47    3.40
  -3 -10   0  290.28    5.11
   3 -10   0  318.97    4.55
   0  -3 -10  266.49    4.89
   0  -3  10  282.33    5.12
 -10   0  -3  284.42    3.63
 -10   0   3  304.22    4.10
   0   3  10  281.03    5.24
   0   3 -10  273.64    5.05
  -4  10   0  375.39    4.96
   4  10   0  343.42    5.75
  10   0   4  355.36    4.11
  -4 -10   0  325.86    5.54
   0   4 -10  322.40    5.55
   0  -4 -10  326.89    5.48
 -10   0   4  357.95    4.67
   0  -4  10  341.19    5.67
   0   4  10  362.85    6.13
 -10   0   4  367.65    4.87
 -10   0  -4  349.18    4.27
  -5  10   0   24.57    1.32
   0  -5  10   21.30    1.70
   0   5 -10   23.18    1.61
   5  10   0   23.70    1.71
 -10   0  -5   21.39    1.21
 -10   0   5   28.31    1.51
  -5 -10   0   21.56    1.72
  10   0   5   24.24    1.34
   0  -5 -10   22.37    1.55
   5 -10   0   24.92    1.28
   0   5  10   24.20    1.84
 -10   0   5   22.82    1.36
  -6  10   0  152.71    2.88
   6  10   0  109.22    3.28
   0  -6  10  125.25    3.50
 -10   0   6  124.87    3.07
   0   6 -10  122.31    3.54
 -10   0  -6  137.46    3.03
   0  -6 -10  114.89    3.46
  -6 -10   0  118.69    3.52
  10   0   6  130.97    2.82
   0   6  10  121.20    3.58
 -10   0   6  123.92    3.14
 -10   0   7  208.06    4.04
   7  10   0  193.08    4.50
   0  -7  10  191.85    4.31
 -10   0  -7  217.22    3.90
  10   0   7  205.25    3.57
   0   7  10  213.34    4.88
   0  -7  10  204.87    4.44
 -10   0   7  221.23    4.38
 -10   0  -8   75.83    2.46
   0  -8  10   77.04    2.82
  10   0   8   78.51    2.39
 -10   0   8   76.93    2.66
  10   0  -9    1.86    0.69
 -10   0   9    1.62    0.79
  10   0   9    0.98    0.56
 -10   0  -9    0.78    0.57
 -10  -1  -9   43.31    2.13
   1  -9  10   43.92    2.18
 -10   1   9   47.32    2.19
  10  -1   9   49.08    1.93
 -10  -1  -8   54.24    2.15
   1  -8  10   62.20    2.50
  10  -1   8   53.35    2.01
  -1   8  10   57.27    2.79
 -10   1   8   61.57    2.45
   1  -8  10   59.94    2.50
   7  10  -1   37.12    2.12
  -7  10   1   53.21    1.77
   1  -7  10   49.78    2.17
 -10  -1  -7   45.02    1.92
  10  -1   7   42.53    1.71
   7 -10   1   52.23    1.62
  -1   7  10   46.41    2.31
 -10   1   7   45.62    1.99
   6  10  -1   50.39    2.35
   1  -6  10   49.95    2.23
 -10  -1  -6   48.76    1.96
  -6  10   1   63.05    1.97
  -1  -6 -10   51.31    2.45
  -6 -10  -1   51.10    2.39
  10  -1   6   57.78    1.85
  -1   6  10   56.02    2.62
 -10   1   6   53.11    2.09
 -10   1   6   54.50    2.02
   1   6 -10   47.25    2.31
 -10   1   5   79.21    2.29
   5  10  -1   71.16    2.72
  -5  10   1   83.76    2.32
  -1  -5 -10   75.86    2.81
   1   5 -10   65.01    2.51
  10  -1   5   73.39    1.79
  -5 -10  -1   69.51    2.73
   5 -10   1   85.11    2.27
 -10   1   5   77.11    2.26
  -1   5  10   74.75    2.93
   1  -5  10   75.13    2.73
 -10  -1  -5   78.94    2.32
   4  10  -1   81.44    2.87
  -4  10   1   93.79    2.58
 -10   1   4   85.46    2.25
  10  -1   4   75.81    1.72
   4 -10   1   92.79    2.38
  -1   4  10   76.22    2.96
   1   4 -10   73.61    2.75
   1  -4  10   83.50    2.85
 -10  -1  -4   82.16    2.28
 -10   1   4   78.01    2.17
 -10   1   3   50.92    1.70
   3  10  -1   46.71    2.17
  -1   3  10   48.72    2.22
   1   3 -10   42.49    2.12
  -3  10   1   54.69    2.04
  10  -1   3   47.83    1.32
   3 -10   1   49.02    1.83
 -10   1   3   49.69    1.61
  -3 -10  -1   42.76    2.12
  -1  -3 -10   42.57    2.13
   1  -3  10   47.20    2.16
 -10  -1  -3   41.28    1.61
  10  -1   2   46.57    1.24
   2  10  -1   49.99    2.36
 -10   1   2   46.90    1.54
  -2  10   1   50.99    2.07
  -1   2  10   48.74    2.22
  -2 -10  -1   51.33    2.24
   1  -2  10   43.16    1.98
 -10  -1  -2   51.43    1.79
  -1  -2 -10   46.53    2.19
 -10   1   2   50.51    1.51
   1   2 -10   45.42    2.11
   1  10  -1   75.91    2.89
  10   1  -1   58.95    1.66
  -1  10   1   68.72    2.48
 -10   1   1   61.32    1.60
 -10   1   1   68.84    1.63
  -1   1  10   59.04    2.52
   1  -1  10   60.39    2.46
   1   1 -10   55.84    2.28
 -10  -1  -1   55.62    1.80
  -1  -1 -10   59.91    2.43
  10  -1   1   57.81    1.23
  -1   0 -10   87.36    2.86
   0  10  -1   95.96    2.93
   0  10   1   91.14    2.84
   1   0 -10   79.97    2.80
   1   0  10   84.97    2.88
   0 -10   1   89.58    2.73
 -10  -1   0   74.53    2.04
  -1   0  10   81.94    2.80
  10   1   0   85.03    1.96
  10   1   1   62.91    1.74
   1  -1 -10   62.53    2.39
  -1  10  -1   72.04    2.49
   1  10   1   61.62    2.38
   1   1  10   59.80    2.38
  -1   1 -10   59.42    2.39
 -10  -1   1   58.06    1.82
  -1 -10   1   68.63    2.51
  -1  -1  10   56.06    2.45
 -10   1  -1   60.52    1.52
  -2  10  -1   54.23    2.14
   1   2  10   50.23    2.27
  10   1   2   47.87    1.64
 -10  -1   2   47.57    1.72
   2  10   1   45.41    2.20
  -2 -10   1   49.40    2.26
  -1   2 -10   42.38    2.03
   2 -10  -1   51.16    2.04
 -10  -1   2   53.24    1.87
  -1  -2  10   46.43    2.19
 -10   1  -2   46.65    1.29
   1  -2 -10   51.31    2.33
  -3  10  -1   49.46    1.96
 -10   1  -3   46.43    1.38
 -10  -1   3   47.04    1.81
   3  10   1   46.68    2.29
  10   1   3   46.88    1.62
  -3 -10   1   43.72    2.12
   3 -10  -1   53.34    2.01
 -10  -1   3   45.75    1.76
  -1   3 -10   45.34    2.10
   1  -3 -10   47.67    2.17
  -1  -3  10   46.77    2.22
   1   3  10   43.41    2.20
  -4  10  -1   87.47    2.43
 -10  -1   4   81.52    2.46
 -10  -1   4   79.52    2.39
 -10   1  -4   77.06    1.90
  -1   4 -10   74.27    2.69
  10   1   4   76.03    2.11
   1  -4 -10   69.80    2.65
   4 -10  -1   94.63    2.48
   1   4  10   69.63    2.73
  -1  -4  10   76.28    2.65
   1   5  10   76.16    2.85
  -1  -5  10   69.56    2.70
   5  10   1   76.73    2.89
  -5 -10   1   73.53    2.70
 -10   1  -5   77.79    2.00
  10   1   5   78.43    2.24
 -10  -1   5   77.18    2.46
  -1   5 -10   77.61    2.75
 -10  -1   5   77.13    2.52
  -5  10  -1   79.26    2.22
   6  10   1   48.83    2.28
  -1  -6  10   50.46    2.35
  -6 -10   1   52.31    2.47
  -6  10  -1   66.13    1.91
   1  -6 -10   42.59    2.19
  10   1   6   51.03    1.97
 -10   1  -6   51.48    1.71
 -10  -1   6   50.50    2.19
   6 -10  -1   59.57    1.83
   1   6  10   54.11    2.41
  -1   6 -10   45.20    2.27
 -10  -1   6   57.22    2.34
   7  10   1   40.55    2.21
  -1   7 -10   47.46    2.26
 -10  -1   7   45.80    2.12
   1  -7 -10   45.81    2.27
  -1  -7  10   44.49    2.23
  10   1   7   48.92    1.90
 -10   1  -7   51.30    1.78
   1   7  10   47.37    2.36
  -1  -7  10   47.91    2.40
  10  -1  -7   46.82    1.84
 -10  -1   7   48.77    2.31
  -7  10  -1   54.15    1.63
  10  -1  -8   50.35    2.01
  10   1   8   49.69    2.01
  -1  -8  10   49.13    2.36
 -10   1  -8   59.35    2.15
 -10  -1   8   52.64    2.28
 -10  -1   8   57.76    2.48
  10   1   9   44.22    1.84
 -10   1  -9   48.33    1.99
 -10  -1   9   46.44    2.24
 -10  -1   9   48.17    2.34
 -10  -2  -9  137.07    3.53
   2  -9  10  135.72    3.57
 -10   2   9  137.87    3.48
  10  -2   9  145.08    3.14
   2  -9  10  147.19    3.64
 -10  -2  -8   69.05    2.53
   2  -8  10   67.89    2.52
   2  -8  10   80.27    2.78
 -10   2   8   79.30    2.60
  10  -2   8   73.69    2.15
  -2   8  10   74.60    3.07
   2  -7  10    6.80    0.90
 -10  -2  -7    6.87    0.95
  -7  10   2    6.60    0.90
   7 -10   2    7.51    0.81
 -10   2   7    5.25    1.03
  10  -2   7    6.80    0.98
   7 -10   2    6.65    0.62
   7  10  -2    5.96    0.80
  -2  -6 -10  160.21    4.02
   2   6 -10  144.38    3.91
  -6 -10  -2  156.26    4.04
  10  -2   6  174.12    2.89
 -10   2   6  166.91    3.36
  -2   6  10  160.10    4.13
   2  -6  10  155.91    3.70
   6  10  -2  152.42    3.97
 -10  -2  -6  162.71    3.53
  -5  10   2  372.16    5.01
  -2  -5 -10  288.42    5.32
   5 -10   2  352.81    4.18
  10  -2   5  336.26    3.56
  -5 -10  -2  325.86    5.78
 -10   2   5  315.88    4.24
   2  -5  10  311.27    5.18
   2   5 -10  282.98    5.36
 -10   2   5  349.50    4.64
 -10  -2  -5  332.29    4.91
  -2   5  10  326.43    5.78
   5  10  -2  305.44    5.54
  -4  10   2   62.16    2.19
  -2   4  10   54.27    2.51
  10  -2   4   47.90    1.33
   4 -10   2   62.75    1.91
  -2  -4 -10   55.97    2.42
   2  -4  10   56.96    2.34
 -10  -2  -4   54.87    2.00
 -10   2   4   59.26    1.82
 -10   2   4   59.19    1.89
   2   4 -10   49.72    2.23
   4  10  -2   50.18    2.32
   3  10  -2   81.37    2.84
  10  -2   3   70.73    1.34
  -2   3  10   79.37    2.87
  -3  10   2   97.63    2.70
   3 -10   2   95.18    2.51
  -3 -10  -2   90.47    2.99
  -2  -3 -10   83.26    2.80
   2  -3  10   87.44    2.84
 -10  -2  -3   86.33    2.48
 -10   2   3   90.69    2.02
 -10   2   3   91.61    2.12
 -10   2   2  351.73    3.40
 -10   2   2  345.71    3.50
  -2  10   2  371.58    5.38
  -2   2  10  341.84    5.80
   2 -10   2  365.24    4.99
   2  -2  10  339.75    5.43
  -2 -10  -2  348.94    5.64
 -10  -2  -2  312.79    4.39
  -2  -2 -10  327.82    5.51
   2   2 -10  318.69    5.44
   2  10  -2  340.54    5.57
  -1  10   2  318.01    5.09
 -10   2   1  304.86    2.81
 -10   2   1  265.25    2.69
   2  -1  10  320.12    5.41
  -2   1  10  307.29    5.47
 -10  -2  -1  290.38    4.20
  -1 -10  -2  314.59    5.14
   2   1 -10  285.79    5.13
  10   2  -1  309.80    4.02
  -2  -1 -10  292.97    5.18
   1  10  -2  308.53    5.19
   2   0  10   28.10    1.67
   0  10   2   31.06    1.85
   0 -10   2   28.46    1.70
 -10  -2   0   28.09    1.50
   2   0 -10   27.28    1.79
  -2   0  10   27.99    1.75
 -10   2   0   20.15    0.74
   0 -10  -2   34.16    1.75
 -10   2   0   26.80    0.81
  -2   0 -10   27.93    1.77
  10   2   0   27.93    1.33
   0  10  -2   31.52    1.77
  10   2   1  307.11    4.11
   2   1  10  322.80    5.45
   2  -1 -10  294.97    5.10
  -2   1 -10  299.91    5.17
 -10   2  -1  287.31    2.32
   1  10   2  314.24    5.29
  -1 -10   2  306.09    4.95
 -10  -2   1  297.63    4.48
   1 -10  -2  337.33    5.14
  -2  -1  10  306.92    5.45
  -1  10  -2  321.46    5.05
   2   2  10  327.39    5.54
  10   2   2  329.13    4.25
 -10   2  -2  295.52    2.52
  -2 -10   2  345.23    5.38
  -2   2 -10  321.39    5.39
 -10  -2   2  343.00    4.79
  -2  -2  10  332.17    5.66
 -10  -2   2  352.62    4.87
   2  -2 -10  326.73    5.36
  -2  10  -2  376.30    5.34
  10   2   3   92.72    2.36
   3  10   2   85.16    2.94
  -3 -10   2   87.42    2.85
 -10   2  -3   84.39    1.51
 -10  -2   3   95.45    2.63
 -10  -2   3   88.40    2.55
  -2   3 -10   84.82    2.78
   2  -3 -10   90.21    2.89
  -2  -3  10   89.43    3.01
   2   3  10   87.86    3.09
  -3  10  -2   90.13    2.62
  -2  -4  10   57.82    2.39
 -10  -2   4   63.89    2.36
  -2   4 -10   60.77    2.43
   4  10   2   55.81    2.38
  10   2   4   57.82    1.97
 -10   2  -4   59.29    1.45
 -10  -2   4   59.17    2.26
   2  -4 -10   53.21    2.28
   4 -10  -2   66.82    2.17
   2   4  10   54.28    2.38
 -10  -2   5  318.57    5.03
   5  10   2  300.50    5.49
  -2  -5  10  315.81    5.62
 -10  -2   5  319.42    5.17
  -5 -10   2  317.57    5.72
  10   2   5  311.53    4.49
 -10   2  -5  343.42    3.72
  -2   5 -10  313.05    5.39
   2   5  10  298.99    5.47
  -5  10  -2  362.37    4.58
  10  -2  -6  170.80    3.10
   6  10   2  152.29    4.02
  -6 -10   2  179.42    4.62
  -2  -6  10  178.59    4.54
  10   2   6  172.56    3.59
   2  -6 -10  165.43    4.12
  -2   6 -10  156.55    3.86
 -10   2  -6  170.48    2.86
   2   6  10  172.29    4.35
 -10  -2   6  166.11    3.84
  -6  10  -2  195.39    3.22
   6 -10  -2  203.12    3.30
   7  10   2    6.22    1.16
  10   2   7    9.25    1.18
  -2  -7  10    6.79    1.10
 -10  -2   7    8.19    1.29
  -2   7 -10    7.62    1.21
   2  -7 -10    5.64    0.88
   2   7  10   10.13    1.35
 -10   2  -7    5.86    0.72
 -10  -2   7    6.46    0.98
   7 -10  -2    7.53    0.98
 -10  -2   8   73.95    2.84
 -10   2  -8   78.74    2.25
 -10  -2   8   67.21    2.66
  10  -2  -8   70.62    2.33
  10   2   8   77.12    2.66
  10  -2  -9  141.68    3.34
 -10  -2   9  132.23    3.80
  10   2   9  134.86    3.39
 -10  -2   9  137.54    3.80
 -10   2  -9  145.03    3.24
 -10  -3  -9   51.12    2.29
   3  -9  10   53.00    2.21
 -10   3   9   55.00    2.21
  10  -3   9   59.25    2.09
   3  -9  10   53.76    2.21
   3  -8  10   28.30    1.61
 -10  -3  -8   25.69    1.65
  -8  10   3   33.07    1.55
 -10   3   8   20.89    1.43
  10  -3   8   27.26    1.28
  -3   8  10   26.01    1.80
   3  -8  10   24.73    1.58
 -10  -3  -7   43.88    2.05
  -7  10   3   53.30    2.01
   7 -10   3   50.04    1.54
 -10   3   7   49.16    2.05
  10  -3   7   42.97    1.57
   7 -10   3   45.20    1.35
  -3   7  10   48.47    2.45
   3  -7  10   45.98    1.99
  -6  10   3   87.71    2.48
   6 -10   3   84.67    2.07
 -10   3   6   76.37    2.31
  10  -3   6   78.58    1.75
   3  -6  10   77.55    2.72
   6 -10   3   87.44    2.06
  -3   6  10   77.51    2.96
 -10  -3  -6   75.22    2.54
   6  10  -3   69.87    2.83
   5 -10   3   75.18    1.92
   5  10  -3   64.23    2.65
  -3  -5 -10   71.01    2.73
   5 -10   3   79.97    2.13
  -5  10   3   78.53    2.45
   3   5 -10   65.87    2.66
 -10   3   5   73.10    2.10
  10  -3   5   70.57    1.60
  -5 -10  -3   65.20    2.66
   3  -5  10   66.13    2.40
 -10  -3  -5   69.31    2.39
  -3   5  10   77.65    2.97
  -3   4  10   46.17    2.22
   4 -10   3   49.30    1.78
   3   4 -10   46.63    2.27
  10  -3   4   32.05    0.86
  -4  10   3   54.39    2.12
  -3  -4 -10   43.97    2.15
 -10   3   4   46.91    1.57
  -4 -10  -3   43.07    2.13
   3  -4  10   48.37    2.13
 -10  -3  -4   46.82    1.97
 -10   3   4   52.11    1.72
   4  10  -3   40.68    2.16
  -3   3  10   68.47    2.68
   3 -10   3   69.06    2.12
  -3  10   3   77.14    2.53
  -3  -3 -10   64.77    2.61
 -10   3   3   68.99    1.67
   3  -3  10   64.68    2.40
  -3 -10  -3   74.56    2.76
 -10  -3  -3   73.69    2.44
 -10   3   3   74.06    1.76
   3  10  -3   59.61    2.49
 -10   3   2   46.07    1.20
   2  10  -3   56.17    2.40
   3   2 -10   55.66    2.38
  -3   2  10   51.84    2.37
  -2  10   3   55.47    2.21
   3  -2  10   54.68    2.22
 -10   3   2   52.05    1.23
  -3  -2 -10   51.07    2.31
  -2 -10  -3   63.32    2.57
  10   3  -2   55.36    1.91
   3  -1  10   68.83    2.47
  -1  10   3   74.03    2.58
  -3   1  10   72.46    2.70
 -10  -3  -1   75.79    2.36
  -1 -10  -3   75.30    2.70
  -3  -1 -10   68.95    2.54
   3   1 -10   69.45    2.61
  10   3  -1   71.77    2.15
   1  10  -3   68.10    2.63
   3   0  10   53.12    2.30
   0 -10   3   59.74    2.28
   0  10  -3   57.55    2.37
   0  10   3   55.66    2.39
 -10  -3   0   55.51    2.02
   3   0 -10   51.53    2.24
  -3   0  10   54.68    2.42
   0 -10  -3   60.79    2.41
  -3   0 -10   54.94    2.33
  10   3   0   58.64    2.04
  -3   1 -10   69.64    2.52
  10   3   1   76.15    2.23
   3   1  10   73.09    2.67
  -1 -10   3   73.33    2.51
 -10  -3   1   76.56    2.54
   3  -1 -10   69.01    2.56
   1  10   3   73.26    2.62
   1 -10  -3   73.48    2.55
  -3  -1  10   69.72    2.69
  -1  10  -3   70.67    2.46
   3  -2 -10   49.78    2.22
  10   3   2   52.51    1.91
 -10  -3   2   56.32    2.13
  -2 -10   3   50.94    2.25
   2  10   3   59.04    2.58
  -3   2 -10   51.95    2.18
   2 -10  -3   59.99    2.21
  -3  -2  10   54.90    2.39
  -2  10  -3   56.81    2.24
   3   2  10   54.75    2.41
 -10  -3   3   74.05    2.50
  10   3   3   65.62    2.13
  -3 -10   3   70.82    2.60
   3  10   3   70.97    2.81
 -10   3  -3   59.22    0.90
  -3   3 -10   67.94    2.64
 -10  -3   3   68.06    2.43
   3  -3 -10   67.39    2.54
  -3  10  -3   72.32    2.33
   3   3  10   64.73    2.60
  -3  -3  10   62.44    2.53
  -3   4 -10   42.13    2.03
 -10  -3   4   43.83    2.03
  -3  -4  10   45.71    2.28
 -10   3  -4   47.29    1.07
 -10  -3   4   48.60    2.09
  -4 -10   3   44.40    2.19
   4  10   3   43.49    2.25
  10   3   4   50.39    2.17
   3  -4 -10   46.33    2.21
   4 -10  -3   49.99    1.96
   3   4  10   38.70    2.07
  -4  10  -3   48.22    1.92
 -10  -3   5   75.88    2.71
 -10   3  -5   73.37    1.58
  -5 -10   3   64.77    2.73
   5  10   3   69.47    2.85
  -3  -5  10   69.28    2.68
  10   3   5   67.62    2.33
 -10  -3   5   70.21    2.47
  -3   5 -10   68.24    2.57
  10  -3  -5   72.97    1.84
   3   5  10   71.50    2.74
 -10  -3   6   70.43    2.58
 -10   3  -6   78.34    1.86
  -3   6 -10   78.37    2.79
  10   3   6   71.19    2.45
  -3  -6  10   70.75    2.86
  10  -3  -6   76.41    2.08
   3  -6 -10   68.73    2.67
   3   6  10   71.96    2.90
 -10  -3   6   77.39    2.74
  -3   7 -10   42.85    2.11
 -10   3  -7   45.52    1.57
   3  -7 -10   48.75    2.29
 -10  -3   7   40.41    2.11
 -10  -3   7   44.55    2.12
  10  -3  -7   45.76    1.82
 -10   3  -8   29.00    1.40
   8 -10  -3   31.58    1.34
  10   3   8   24.87    1.60
 -10  -3   8   21.61    1.59
  10  -3  -8   22.84    1.39
 -10  -3   8   24.35    1.94
 -10   3  -9   57.89    2.07
 -10  -3   9   55.46    2.74
  10  -3  -9   56.41    2.03
   4  -9  10   19.66    1.47
 -10  -4  -9   19.95    1.84
 -10   4   9   17.55    1.49
   4  -9  10   20.19    1.50
 -10  -4  -8   68.61    2.65
 -10   4   8   77.73    2.61
  -4   8  10   75.17    3.01
   4  -8  10   71.44    2.38
   7 -10   4  158.24    2.51
  -7  10   4  163.48    3.37
  10  -4   7  155.76    2.71
  -4   7  10  149.12    4.07
   4  -7  10  141.56    3.34
 -10  -4  -7  133.26    3.61
 -10   4   6   91.66    2.44
   6 -10   4   88.46    2.05
   6 -10   4   86.39    2.06
  10  -4   6   84.61    1.80
   4  -6  10   82.80    2.62
 -10  -4  -6   85.67    2.85
   6  10  -4   80.91    3.05
  -4   6  10   90.88    3.09
  -4   5  10   73.40    2.77
 -10   4   5   78.79    2.10
  -4  -5 -10   72.24    2.82
   5 -10   4   74.98    2.08
  -5  10   4   85.82    2.59
   4  -5  10   70.21    2.45
  -5 -10  -4   73.11    2.87
   4   5 -10   64.57    2.64
 -10  -4  -5   73.94    2.70
   5  10  -4   61.62    2.57
  -4   4  10  244.08    4.96
 -10   4   4  235.98    3.22
   4 -10   4  240.99    3.63
   4 -10   4  245.42    3.78
  -4  -4 -10  217.32    4.71
  -4  10   4  261.13    4.64
   4  -4  10  232.16    4.31
  -4 -10  -4  225.61    4.86
 -10  -4  -4  212.18    4.21
   4   4 -10  212.60    4.64
   4  10  -4  206.41    4.54
 -10   4   3  214.94    2.73
   3 -10   4  203.34    3.55
  -4   3  10  203.52    4.52
  -3  10   4  220.13    4.32
   4  -3  10  191.16    3.90
  -4  -3 -10  178.75    4.25
   3 -10   4  202.59    3.61
 -10  -4  -3  182.69    3.79
  -3 -10  -4  206.36    4.60
  10   4  -3  198.47    3.78
 -10   4   3  205.79    2.67
   3  10  -4  180.66    4.23
   4   3 -10  191.11    4.35
   2 -10   4   57.35    2.08
   4  -2  10   57.73    2.37
  -4   2  10   49.85    2.24
  -2  10   4   58.38    2.38
  -4  -2 -10   48.53    2.18
  -2 -10  -4   56.52    2.41
   2  10  -4   55.93    2.49
 -10   4   2   46.00    1.01
   4   1 -10  157.51    3.90
   1 -10   4  176.63    3.63
   4  -1  10  163.49    3.70
  -1  10   4  176.77    4.08
 -10  -4  -1  148.66    3.45
  -4   1  10  163.31    4.00
  -4  -1 -10  158.05    3.81
  -1 -10  -4  165.29    3.89
   1  10  -4  167.68    3.94
  10   4  -1  162.86    3.36
  10   4   0  328.23    4.71
   4   0  10  323.88    5.28
   0 -10   4  344.71    5.10
   0  10   4  359.48    5.81
 -10  -4   0  346.14    5.14
  -4   0  10  366.64    6.14
   4   0 -10  322.60    5.44
   0 -10  -4  370.62    5.66
  -4   0 -10  340.19    5.54
   0  10  -4  342.93    5.36
  10   4   1  167.33    3.47
  -1 -10   4  152.12    3.57
 -10  -4   1  148.16    3.44
   1  10   4  168.66    4.05
   4  -1 -10  153.21    3.75
  -4  -1  10  164.94    4.08
   1 -10  -4  186.95    3.99
  -1  10  -4  169.03    3.79
  -4   1 -10  161.69    3.84
   4   1  10  168.77    3.90
  10   4   2   55.15    2.15
  -2 -10   4   52.65    2.22
   4  -2 -10   58.44    2.34
  -4   2 -10   53.90    2.21
   2  10   4   57.38    2.51
   2 -10  -4   60.01    2.27
  -2  10  -4   53.41    2.10
  -4  -2  10   50.65    2.36
   4   2  10   50.60    2.27
  -4  -3  10  185.51    4.39
   4  -3 -10  192.28    4.09
 -10  -4   3  194.23    4.07
  10   4   3  191.86    3.84
   3  10   4  190.18    4.43
  -4   3 -10  196.48    4.22
   4   3  10  190.74    4.34
 -10  -4   4  238.51    4.72
  -4   4 -10  222.97    4.46
  -4 -10   4  215.02    4.51
  -4  -4  10  211.95    4.66
  10   4   4  223.06    4.12
   4  10   4  226.04    4.90
  10  -4  -4  233.00    2.80
   4   4  10  244.07    5.15
   4  -4 -10  229.00    4.61
 -10  -4   4  237.63    4.70
 -10  -4   5   76.84    2.88
  -5 -10   4   72.42    2.75
 -10   4  -5   70.53    1.40
   5  10   4   75.83    2.98
  10   4   5   79.40    2.68
  -4  -5  10   73.94    3.00
  -4   5 -10   75.74    2.60
   4   5  10   73.09    2.93
 -10  -4   5   75.36    2.80
 -10  -4   6   89.97    3.08
  -4   6 -10   87.28    2.81
   6  10   4   82.29    3.05
  10   4   6   91.43    2.91
 -10  -4   6   84.76    2.92
  -4  -6  10   80.26    3.12
   4  -6 -10   85.36    2.85
   4   6  10   86.26    3.08
  10  -4  -6   85.50    2.15
 -10   4  -6   93.58    1.89
 -10  -4   7  136.23    3.81
  10   4   7  140.33    3.61
  10  -4  -7  148.62    2.92
   4  -7 -10  147.06    3.72
  -4   7 -10  138.88    3.47
 -10   4  -7  152.16    2.69
 -10  -4   7  136.82    3.85
  10  -4  -8   69.11    2.14
  10   4   8   77.03    2.77
 -10  -4   8   70.02    2.92
  10  -4  -9   18.52    1.32
  10   4   9   15.76    1.52
 -10   5   9   24.12    1.62
   5  -9  10   27.22    1.40
 -10   5   8   68.81    2.45
  -8  10   5   80.71    2.35
  -5   8  10   73.14    2.97
   5  -8  10   67.47    2.37
   5  -8  10   76.56    2.44
 -10   5   7   52.15    2.05
  -7  10   5   58.05    2.14
   7 -10   5   52.66    1.60
   5  -7  10   47.19    1.93
  -5   7  10   44.66    2.25
 -10  -5  -7   38.23    2.08
 -10   5   6   28.92    1.53
   6 -10   5   28.83    1.30
  -6  10   5   32.43    1.81
   5  -6  10   21.57    1.45
 -10  -5  -6   22.55    1.51
  -5   6  10   28.49    1.99
   6 -10   5   27.50    1.21
 -10   5   5   59.73    1.79
  -5   5  10   56.47    2.48
   5 -10   5   57.71    1.90
  -5  -5 -10   53.96    2.34
   5 -10   5   56.75    1.75
  -5  10   5   65.87    2.49
   5  -5  10   51.10    2.04
 -10  -5  -5   52.86    2.44
   5  10  -5   47.60    2.36
  10  -5   5   53.69    1.00
   4 -10   5   99.89    2.45
  -5   4  10   91.19    3.15
  -5  -4 -10   93.48    3.16
   4  10  -5   94.31    3.14
   5  -4  10  101.72    2.89
  -4  10   5  110.91    3.13
   5   4 -10   89.99    3.04
 -10  -5  -4   85.17    2.70
  -4 -10  -5  100.13    3.28
   4 -10   5  104.29    2.54
 -10   5   4  104.10    2.15
   3 -10   5   49.60    1.92
  -5   3  10   42.92    2.27
   5  -3  10   41.02    1.91
   5   3 -10   44.26    2.21
  -5  -3 -10   37.57    2.04
  -3  10   5   44.77    2.12
   3 -10   5   40.28    1.75
 -10  -5  -3   41.14    1.97
  -3 -10  -5   40.11    2.01
 -10   5   3   34.03    1.15
   3  10  -5   33.38    1.96
  10   5  -3   39.08    1.94
   2 -10   5   40.93    1.81
   2 -10   5   44.11    1.80
   2  10  -5   39.76    2.05
   5  -2  10   40.44    2.01
  -5   2  10   41.76    2.13
  -2  10   5   40.08    2.04
  -5  -2 -10   36.77    2.00
 -10  -5  -2   39.21    2.04
   5   2 -10   45.74    2.21
  10   5  -2   41.89    2.04
   1 -10   5   61.74    2.25
   5  -1  10   52.48    2.29
   1 -10   5   54.13    2.02
  -1  10   5   63.14    2.61
 -10  -5  -1   55.71    2.25
  -5   1  10   52.92    2.43
  -5  -1 -10   58.84    2.45
   1  10  -5   54.28    2.46
  10   5  -1   51.59    1.98
  10   5   0   96.33    2.75
   5   0  10  101.09    2.98
   0 -10   5  101.63    2.85
 -10  -5   0   98.96    2.96
   0  10   5  109.12    3.33
  -5   0  10   98.97    3.08
  -5   0 -10  100.39    3.06
   0 -10   5  107.31    3.11
   5   0 -10   95.34    3.01
  10   5   1   52.96    2.16
  -1 -10   5   52.38    2.15
 -10  -5   1   50.90    2.23
   1  10   5   56.73    2.51
   5  -1 -10   51.90    2.32
  -5  -1  10   53.31    2.41
   1 -10  -5   60.69    2.35
  -5   1 -10   55.73    2.35
   5   1  10   51.92    2.24
  10   5   2   39.37    1.85
  -5   2 -10   42.59    2.03
 -10  -5   2   37.62    1.91
   2  10   5   43.35    2.20
   5  -2 -10   47.60    2.18
   2 -10  -5   46.88    2.05
   5   2  10   40.75    2.20
  -5  -2  10   41.00    2.16
  -5  -3  10   37.81    2.04
  -3 -10   5   36.60    2.01
 -10  -5   3   36.44    1.97
   5  -3 -10   40.04    2.03
  10   5   3   38.56    1.86
   3  10   5   37.36    2.16
  -5   3 -10   41.06    1.98
   5   3  10   40.48    2.09
  10  -5  -3   38.97    1.00
 -10  -5   4   93.43    3.07
  -4 -10   5   98.01    3.12
 -10  -5   4  101.14    3.24
  10   5   4   99.20    2.87
   4  10   5   94.42    3.20
   5   4  10   95.81    3.25
  -5   4 -10   97.54    2.97
  10  -5  -4  101.05    1.84
   5 -10  -5   66.64    2.27
 -10  -5   5   59.12    2.55
  10   5   5   52.01    2.22
   5  10   5   58.14    2.70
  -5   5 -10   55.90    2.29
  -5  -5  10   46.36    2.34
 -10  -5   5   52.22    2.41
   5   5  10   54.60    2.52
  -5   6 -10   23.10    1.60
 -10  -5   6   24.26    1.87
  10  -5  -6   26.70    1.25
  10   5   6   25.48    1.70
 -10  -5   6   25.25    1.95
   5  -6 -10   25.26    1.80
  10  -5  -7   49.04    1.72
 -10  -5   7   47.07    2.43
  10   5   7   52.89    2.42
  -5   7 -10   45.26    2.08
   5  -7 -10   44.61    2.11
  10   5   8   74.57    2.77
  10  -5  -8   67.31    2.07
  10  -5  -9   25.02    1.50
  -6   9  10   66.71    2.76
   6  -9  10   62.88    2.05
   6  -9  10   67.52    2.10
 -10   6   9   60.75    2.33
  -6   8  10   46.64    2.41
   6  -8  10   49.23    1.99
 -10   6   8   48.13    2.07
  -7  10   6   41.38    1.99
   6  -7  10   37.69    1.81
  -6   7  10   37.20    2.14
 -10   6   7   37.97    1.72
   6 -10   6  134.36    2.65
  -6  10   6  133.70    3.41
   6 -10   6  125.37    2.62
 -10   6   6  126.99    2.84
  -6   6  10  132.83    3.83
  -6   5  10  123.24    3.64
   6  -5  10  119.34    2.92
  -5  10   6  145.29    3.63
 -10  -6  -5  119.47    3.48
 -10   6   5  139.36    2.74
   5 -10   6  125.59    2.67
   4 -10   6   84.97    2.27
  -6   4  10   86.43    3.21
   4 -10   6   90.84    2.43
  -6  -4 -10   86.75    2.96
   6  -4  10   84.15    2.57
 -10  -6  -4   87.61    3.13
 -10   6   4   91.49    1.98
   3 -10   6   91.98    2.56
   6  -3  10   88.99    2.68
  -6   3  10   94.51    3.15
  -6  -3 -10   80.58    2.93
  -3  10   6   89.16    2.96
 -10  -6  -3   88.90    2.99
 -10   6   3   79.22    1.55
   3 -10   6   90.15    2.49
  10   6  -3   84.39    2.71
   6   3 -10   80.70    2.96
   2 -10   6  159.93    3.37
   6   2 -10  151.15    3.81
   6  -2  10  154.88    3.53
  -6   2  10  170.41    4.20
  -6  -2 -10  151.66    3.80
 -10  -6  -2  150.56    3.66
  -2 -10  -6  164.27    4.03
  10   6  -2  160.46    3.72
   2 -10   6  162.16    3.51
   6  -1  10  137.01    3.31
   1 -10   6  130.10    3.15
   1 -10   6  133.70    3.34
  -6   1  10  136.63    3.69
   6   1 -10  136.13    3.61
  -6  -1 -10  134.71    3.66
  -1 -10  -6  139.80    3.72
  10   6  -1  132.87    3.38
  10   6   0  122.35    3.23
   0 -10   6  126.02    3.18
 -10  -6   0  119.46    3.38
   0  10   6  137.21    3.83
  -6   0  10  129.01    3.62
  -6   0 -10  128.71    3.41
   0 -10   6  126.56    3.42
   6   0  10  127.50    3.37
  -1 -10   6  134.63    3.66
  10   6   1  130.68    3.33
 -10  -6   1  132.98    3.60
  -6  -1  10  131.16    3.71
   6   1  10  136.95    3.51
  -6   1 -10  132.10    3.48
  -2 -10   6  157.55    3.81
  -6   2 -10  163.02    3.81
  10   6   2  157.43    3.73
 -10  -6   2  149.73    3.79
   2  10   6  162.58    4.24
  -2 -10   6  153.23    3.95
   6  -2 -10  155.41    3.75
   6   2  10  157.40    3.82
  -6  -2  10  152.94    3.94
  -3 -10   6   80.55    2.81
  -6  -3  10   87.06    3.16
  10   6   3   86.68    2.86
 -10  -6   3   87.86    3.04
   6  -3 -10   97.39    3.17
   3  10   6   81.34    3.01
  -6   3 -10   92.79    2.92
   6   3  10  100.72    3.30
  -3 -10   6   91.21    3.23
   3 -10  -6   96.49    2.96
   4 -10  -6  101.69    2.90
 -10  -6   4   81.10    2.91
  10  -6  -4   90.86    1.67
  10   6   4   89.63    2.83
  -4 -10   6   88.78    3.22
  -6  -4  10   75.65    2.97
   4  10   6   79.52    2.99
   6   4  10   84.21    3.02
  -6   4 -10   85.29    2.79
 -10  -6   5  132.76    3.84
 -10  -6   5  116.32    3.58
   5 -10  -6  137.35    3.34
  -6   5 -10  120.07    3.15
  10   6   5  119.39    3.33
   6   5  10  129.58    3.76
 -10  -6   6  121.84    3.72
  10   6   6  117.27    3.40
  10  -6  -6  129.55    2.46
   6  -6 -10  124.68    3.37
  -6   6 -10  123.67    3.21
  -6   7 -10   40.36    1.94
   7 -10  -6   45.17    1.84
  10  -6  -7   40.43    1.61
   6  -7 -10   39.98    2.15
   8 -10  -6   53.13    1.89
   6  -8 -10   50.43    2.27
  -7   9  10   57.23    2.56
   7  -8  10   15.24    1.14
  -7   8  10   14.64    1.61
   7  -7  10   24.01    1.42
  -7  10   7   25.08    1.75
  -7   7  10   21.66    1.58
   6 -10   7   70.73    2.11
   7  -6  10   68.30    2.20
  -6  10   7   71.96    2.67
  -7   6  10   69.93    2.63
   5 -10   7   75.81    2.27
  -7   5  10   67.45    2.64
   7  -5  10   62.41    2.13
  -5  10   7   70.99    2.71
   5 -10   7   60.73    2.04
 -10  -7  -5   59.06    2.61
   7  -4  10    9.84    1.07
  -7   4  10   13.31    1.50
  -7  -4 -10   11.17    1.30
  -4  10   7   14.22    1.56
  10   7  -4   12.10    1.52
   4 -10   7   12.31    1.02
   3 -10   7   57.47    2.10
   3 -10   7   53.65    2.18
   7  -3  10   54.88    2.05
  -7   3  10   63.04    2.62
  -7  -3 -10   54.00    2.45
  -3  10   7   55.45    2.47
 -10  -7  -3   54.09    2.38
  10   7  -3   53.75    2.31
   7  -2  10   72.65    2.41
   2 -10   7   73.00    2.35
   2 -10   7   74.28    2.57
  -7  -2 -10   70.47    2.67
  -7   2  10   73.74    2.80
 -10  -7  -2   70.38    2.72
  -2  10   7   74.95    2.87
   7   2 -10   68.40    2.56
  10   7  -2   73.28    2.61
   1 -10   7   65.02    2.37
  -1  10   7   64.77    2.83
  -7  -1 -10   65.46    2.57
  -7   1  10   65.17    2.61
   1 -10   7   61.82    2.36
  -1 -10  -7   63.85    2.60
   7  -1  10   65.05    2.41
   7   1 -10   61.34    2.55
  10   7  -1   65.42    2.51
  10   7   0   19.29    1.57
   0 -10   7   19.62    1.41
 -10  -7   0   13.23    1.35
   7   0 -10   18.44    1.50
   0  10   7   18.78    1.72
  -7   0 -10   17.48    1.42
  -7   0  10   16.19    1.58
   0 -10   7   15.57    1.32
   7   0  10   16.70    1.43
   0 -10  -7   24.08    1.71
  -1 -10   7   63.04    2.40
  -1 -10   7   64.55    2.63
  10   7   1   62.14    2.45
 -10  -7   1   60.11    2.55
   1  10   7   65.95    2.78
  -7  -1  10   66.72    2.79
   7   1  10   63.03    2.43
  -7   1 -10   68.88    2.60
   2 -10  -7   77.36    2.76
  -2 -10   7   70.20    2.66
  -7   2 -10   77.51    2.62
  10   7   2   74.89    2.68
  -2 -10   7   69.22    2.82
 -10  -7   2   73.47    2.75
   2  10   7   78.92    3.23
   7   2  10   73.50    2.74
  -7  -2  10   70.11    2.76
  -7  -3  10   49.59    2.42
  10   7   3   60.46    2.46
 -10  -7   3   55.76    2.60
  -7   3 -10   59.27    2.42
  -3 -10   7   56.15    2.55
   7   3  10   51.65    2.35
   4 -10  -7   13.63    1.14
 -10  -7   4   14.28    1.60
   7   4  10   16.83    1.70
  -7   4 -10   15.27    1.32
   7  -5 -10   64.38    2.37
  -7   5 -10   63.65    2.28
   5 -10  -7   69.39    2.46
  10   7   5   61.25    2.66
   7   5  10   53.57    2.56
 -10  -7   5   59.30    2.76
   7  -6 -10   76.74    2.72
  10   7   6   72.42    2.90
   6 -10  -7   82.11    2.58
  -7   6 -10   72.36    2.47
   7 -10  -7   27.53    1.56
   7  -7 -10   29.28    1.74
   7  -8 -10    9.26    1.38
  -8   9  10   34.87    1.98
  -8   8  10   45.15    2.29
  -7  10   8   51.20    2.37
  -8   7  10   44.59    2.20
   6 -10   8   42.00    1.73
  -6  10   8   46.57    2.18
  -8   6  10   43.22    2.16
  -8   5  10   97.37    3.12
   8  -5  10   87.73    2.38
   5 -10   8   94.89    2.52
  -5  10   8  106.39    3.35
   5 -10   8   99.51    2.54
  -8   4  10   71.29    2.74
  -4  10   8   71.25    2.87
   4 -10   8   71.93    2.28
   4 -10   8   75.87    2.41
  -8  -3 -10   70.30    2.80
  -8   3  10   71.56    2.77
  -3  10   8   81.29    2.95
   3 -10   8   71.52    2.41
  10   8  -3   65.08    2.64
   8  -3  10   58.70    2.07
   3 -10   8   78.21    2.49
  -8  -2 -10   71.69    2.69
  -8   2  10   65.70    2.63
  -2  10   8   78.38    2.97
   8  -2  10   69.69    2.32
  10   8  -2   70.45    2.76
   2 -10   8   69.57    2.44
   1 -10   8  115.18    3.21
  10   8  -1  113.42    3.40
 -10  -8  -1  103.31    3.36
  -8  -1 -10  111.11    3.17
   8   1 -10  108.44    3.25
  -1  10   8  116.26    3.66
  -8   1  10  115.02    3.53
   1 -10   8  108.20    3.05
  10   8   0   75.07    2.89
   0 -10   8   80.19    2.73
 -10  -8   0   84.45    3.07
  -8   0 -10   76.34    2.67
  -8   0  10   71.18    2.65
   8   0  10   73.18    2.55
   8   0 -10   79.06    2.75
  10   8   1  107.14    3.34
   8  -1 -10  108.06    3.12
  -1 -10   8  112.07    3.45
   8   1  10  107.18    3.15
  -8   1 -10  112.60    3.11
  -8  -1  10  108.16    3.45
  -8  -2  10   75.97    2.96
  -8   2 -10   66.67    2.42
   8  -2 -10   73.45    2.59
   2 -10  -8   78.98    2.82
  10   8   2   75.79    2.86
   8   2  10   74.00    2.67
   3 -10  -8   83.04    2.84
  -8  -3  10   73.69    2.82
  -8   3 -10   74.07    2.46
   8   3  10   76.02    2.81
  10   8   4   71.36    2.78
   8  -4 -10   71.49    2.52
   8   4  10   70.60    2.71
  -8   4 -10   70.76    2.49
  -8   5 -10   89.61    2.64
   5 -10  -8   97.51    2.99
   8  -5 -10   93.55    2.76
  -8   6 -10   43.41    1.90
   8  -6 -10   40.66    2.03
   6 -10  -8   42.41    1.99
   8  -7 -10   49.28    2.18
   8  -8 -10   52.61    2.16
  -7  10   9   45.99    2.31
  -9   7  10   53.74    2.46
   6 -10   9    8.53    0.91
  -6  10   9   10.63    1.07
   6 -10   9   11.97    1.12
  -9   6  10    9.14    1.30
  -9   5  10   19.85    1.58
   5 -10   9   19.62    1.23
  -5  10   9   20.73    1.73
   5 -10   9   21.66    1.34
  -9   4  10   71.23    2.65
   4 -10   9   74.08    2.51
   9  -4  10   76.41    2.23
  -9  -3 -10   46.76    2.24
  -9   3  10   44.32    2.27
   3 -10   9   48.21    2.08
   9  -3  10   43.88    1.79
   3 -10   9   43.24    2.00
  -9   2  10   14.16    1.51
   2 -10   9   15.64    1.42
   9  -2  10   10.99    1.10
  -9  -1 -10   35.95    1.92
  -9   1  10   40.07    2.13
   1 -10   9   39.32    2.11
   9   0 -10   81.23    2.84
  -9   0 -10   82.65    2.75
   9   0  10   75.90    2.53
  -9   0  10   78.61    2.88
   9   1  10   39.38    2.01
  -9   1 -10   41.31    1.99
   9  -1 -10   39.33    1.95
  -9  -1  10   37.42    2.21
  -9   2 -10   16.08    1.36
  -9  -2  10   16.45    1.69
   9  -2 -10   15.63    1.31
   9   2  10   15.37    1.52
   9  -3 -10   47.49    2.06
  -9   3 -10   46.46    2.01
   9   3  10   43.40    2.13
  -9   4 -10   76.76    2.41
   9  -4 -10   80.40    2.59
   9  -5 -10   28.42    1.63
   9  -6 -10    9.20    1.16
   9  -7 -10   43.44    1.91
   7 -10  -9   49.21    2.21
 -10   6  10   44.52    2.17
   5 -10  10   14.28    1.05
   5 -10  10   17.11    1.41
   4 -10  10   62.31    2.32
 -10   4  10   63.83    2.52
   4 -10  10   55.72    2.12
   3 -10  10   49.82    2.18
 -10   3  10   50.41    2.22
 -10  -2 -10   36.91    1.97
 -10   2  10   37.26    1.86
  10  -2  10   31.00    1.61
 -10  -1 -10   40.10    2.02
 -10   1  10   41.91    2.22
 -10   0 -10   91.16    3.01
  10   0  10   88.39    2.58
  10  -1 -10   39.32    1.78
  10   1  10   39.72    1.93
 -10   1 -10   40.39    1.92
 -10  -1  10   37.18    2.06
  10   2  10   35.87    1.86
  10  -2 -10   36.43    1.93
 -10   2 -10   34.22    1.80
  10  -3 -10   52.11    2.06
  10   3  10   55.05    2.27
  10  -4 -10   59.81    2.28
  10  -5 -10   17.27    1.37
  10  -6 -10   43.92    1.97
   0  11   0    2.32    1.01
   0 -11   0    1.79    0.82
 -11   0   0    1.32    0.49
   0   0  11    4.01    1.03
   0   0 -11    1.48    0.78
  11   0   0   -0.48    0.48
  -1  11   0  254.38    4.70
   1  11   0  235.10    4.70
   0   1  11  226.91    4.80
 -11   0   1  215.60    3.26
   0   1 -11  218.17    4.61
  -1 -11   0  239.32    4.58
 -11   0   1  242.32    3.38
   1 -11   0  250.90    4.37
   0  -1  11  232.71    4.82
 -11   0  -1  233.31    3.28
  11   0   1  241.99    2.93
   0  -1 -11  212.62    4.52
  11   0   2   56.44    1.55
  -2  11   0   58.07    2.34
   2  11   0   48.98    2.27
   0   2  11   49.20    2.31
 -11   0   2   58.56    1.81
  -2 -11   0   56.70    2.34
 -11   0   2   61.79    1.81
   2 -11   0   68.39    2.46
   0  -2  11   54.06    2.39
   0   2 -11   48.26    2.33
 -11   0  -2   55.78    1.74
   0  -2 -11   44.86    2.20
   0   3  11  104.02    3.29
  -3  11   0  116.06    3.09
   3  11   0  104.23    3.32
 -11   0   3  110.79    2.63
  11   0   3  106.02    2.20
  -3 -11   0  107.02    3.28
   0  -3  11  103.96    3.26
   0  -3 -11  100.95    3.16
 -11   0  -3   97.88    2.22
 -11   0   3  105.90    2.48
   0   3 -11   92.94    3.10
 -11   0   4   25.50    1.48
  -4  11   0   21.95    1.39
   4  11   0   20.62    1.77
  11   0   4   23.51    1.13
  -4 -11   0   22.07    1.70
   0   4 -11   21.27    1.63
   4 -11   0   23.06    1.43
 -11   0   4   23.49    1.37
   0  -4 -11   24.05    1.83
   0  -4  11   24.29    1.68
   0   4  11   24.80    1.88
 -11   0  -4   22.17    1.21
  -5  11   0  319.20    4.72
   5  11   0  251.27    5.11
 -11   0  -5  263.03    3.84
  11   0   5  278.03    3.83
 -11   0   5  294.28    4.64
   0   5  11  256.79    5.30
   0  -5  11  262.95    5.15
   0   5 -11  239.93    4.97
 -11   0   5  277.84    4.53
  -6  11   0   10.44    1.04
   0  -6  11    6.28    1.30
 -11   0   6    8.06    1.09
  11   0   6    9.02    1.00
   6 -11   0    7.80    1.13
   0   6  11    5.20    1.26
 -11   0   7   13.84    1.17
   0  -7  11    9.40    1.23
 -11   0  -7   13.30    1.04
  11   0   7   13.98    1.17
 -11   0   7   17.14    1.52
  -7  11   0   20.16    1.32
 -11   0  -8   25.42    1.59
 -11   0   8   25.28    1.67
 -11   0   8   24.74    1.50
 -11   0   9  165.73    3.99
 -11   0  -9  170.71    3.64
  11   0   9  168.85    3.40
 -11   0   9  173.35    3.98
 -11   0  10    0.46    0.92
  11   0  10    2.12    0.79
 -11   0 -10    2.53    0.88
 -11  -1 -10   30.55    1.64
 -11   1  10   34.79    1.95
 -11  -1  -9    0.69    0.28
  11  -1   9   -0.19    0.96
 -11   1   9    0.91    0.73
 -11  -1  -8   42.99    2.03
  11  -1   8   41.00    1.65
 -11   1   8   46.61    2.01
 -11   1   8   46.91    2.23
   1  -7  11  100.67    3.16
  -7  11   1  131.32    2.78
 -11  -1  -7  113.67    2.97
  11  -1   7  107.26    2.52
   7 -11   1  133.82    2.60
 -11   1   7  105.34    2.84
 -11   1   7  111.69    3.13
  -6  11   1  163.06    3.22
 -11  -1  -6  142.00    3.14
  11  -1   6  141.48    2.68
   6 -11   1  163.70    2.96
  -1   6  11  132.79    3.92
 -11   1   6  141.58    3.30
 -11   1   6  143.21    3.23
   1  -6  11  134.40    3.62
 -11   1   5   28.42    1.46
  -5  11   1   29.16    1.54
   1   5 -11   25.67    1.83
  11  -1   5   28.12    1.22
   1  -5  11   24.85    1.84
  -1   5  11   29.16    2.03
 -11   1   5   30.69    1.60
 -11  -1  -5   27.99    1.46
  -1   4  11   25.93    1.84
   4  11  -1   25.36    1.72
  -4  11   1   29.37    1.59
 -11   1   4   26.66    1.35
  11  -1   4   26.57    1.16
   4 -11   1   26.80    1.49
  -1  -4 -11   23.44    1.79
   1   4 -11   20.63    1.66
   1  -4  11   21.09    1.48
 -11  -1  -4   19.27    1.25
 -11   1   4   24.43    1.34
   3  11  -1  119.61    3.57
 -11   1   3  124.81    2.56
  -1   3  11  130.18    3.79
  11  -1   3  129.51    2.07
   1   3 -11  112.95    3.41
  -3  11   1  131.32    3.18
 -11   1   3  132.46    2.55
  -3 -11  -1  114.99    3.41
   1  -3  11  123.74    3.55
  -1  -3 -11  118.29    3.38
 -11  -1  -3  118.24    2.61
   2  11  -1  236.10    4.76
  -2  11   1  268.28    4.74
 -11   1   2  237.56    3.30
  -1   2  11  234.21    4.92
   2 -11   1  265.56    4.42
   1  -2  11  244.86    4.90
 -11  -1  -2  263.03    3.89
 -11   1   2  259.29    3.32
  -1  -2 -11  223.75    4.70
   1   2 -11  220.94    4.69
  11  -1   2  252.06    2.67
   1  11  -1   89.67    2.96
  -1  11   1   99.62    3.05
 -11   1   1   91.79    1.86
  -1   1  11   91.84    3.17
 -11   1   1   82.11    1.84
   1 -11   1   95.43    2.77
   1  -1  11   86.13    2.85
  -1 -11  -1   84.93    2.73
   1   1 -11   81.51    2.87
 -11  -1  -1   82.13    2.21
  11  -1   1   93.21    1.60
  -1  -1 -11   86.67    2.99
  -1   0 -11    7.72    1.07
   0  11  -1    2.14    0.86
   0  11   1   10.13    1.40
 -11   1   0    6.11    0.68
   1   0 -11    5.67    0.81
   1   0  11    8.41    1.16
   0 -11   1    8.12    0.99
 -11  -1   0    6.56    0.84
  -1   0  11    7.28    1.20
 -11   1   0    4.85    0.65
   0 -11  -1    6.14    1.11
  11   1   0    4.97    0.64
  -1  11  -1   91.16    2.87
   1  -1 -11   88.08    2.97
   1  11   1   90.16    3.01
   1   1  11   85.02    2.94
 -11  -1   1   87.89    2.30
  -1   1 -11   81.98    2.88
  -1 -11   1   96.16    2.91
 -11  -1   1   93.01    2.37
   1 -11  -1  100.81    2.90
  -1  -1  11   86.99    2.99
 -11   1  -1   78.59    1.61
  11   1   1   87.44    2.09
  -2  11  -1  258.64    4.56
  11   1   2  250.53    3.45
   1   2  11  225.12    4.76
   2  11   1  243.16    4.83
 -11  -1   2  237.89    3.87
  -2 -11   1  242.68    4.68
 -11  -1   2  253.87    3.90
   2 -11  -1  265.99    4.54
  -1   2 -11  220.71    4.63
  -1  -2  11  249.70    5.04
 -11   1  -2  247.68    2.93
   1  -2 -11  225.42    4.70
   1   3  11  119.28    3.54
  -3  11  -1  135.01    3.26
 -11   1  -3  126.29    2.25
 -11  -1   3  122.29    2.90
   3  11   1  118.54    3.50
  11   1   3  127.36    2.58
  -3 -11   1  122.53    3.51
 -11  -1   3  128.73    2.96
  -1  -3  11  116.77    3.42
   1  -3 -11  124.31    3.61
  -1   3 -11  113.20    3.37
 -11  -1   4   25.14    1.52
 -11  -1   4   25.17    1.41
   4  11   1   26.03    1.83
 -11   1  -4   20.28    1.03
  11   1   4   24.76    1.23
  -1   4 -11   25.85    1.66
  -4 -11   1   29.75    1.86
   4 -11  -1   28.72    1.59
   1  -4 -11   24.62    1.67
  -1  -4  11   21.42    1.63
   1   4  11   20.90    1.78
  -4  11  -1   29.80    1.57
   5  11   1   28.19    2.00
  11   1   5   31.45    1.42
 -11   1  -5   32.92    1.36
 -11  -1   5   28.36    1.59
   5 -11  -1   34.13    1.60
   1   5  11   29.13    1.94
  -5  11  -1   32.11    1.53
  -1  -5  11   26.82    1.85
 -11  -1   5   28.60    1.63
  -1  -6  11  124.82    3.62
  11   1   6  134.19    3.01
 -11   1  -6  140.78    2.76
 -11  -1   6  143.30    3.47
  -1   6 -11  127.44    3.70
  -6  11  -1  157.22    3.11
 -11  -1   6  125.62    3.26
 -11  -1   7  101.64    2.96
 -11   1  -7  108.04    2.60
 -11  -1   7  111.23    3.23
 -11  -1   8   49.46    2.25
  11   1   8   44.63    1.97
 -11   1  -8   51.56    1.98
 -11  -1   8   44.07    2.14
 -11   1  -9    0.40    0.73
  11   1   9    2.14    1.03
 -11  -1   9    1.36    0.95
  11   1  10   34.64    1.75
 -11  -2 -10   59.24    2.43
 -11   2  10   62.88    2.46
 -11  -2  -9   15.54    1.54
 -11   2   9   13.36    1.40
   2  -8  11  124.23    3.42
 -11  -2  -8  132.73    3.37
 -11   2   8  135.98    3.32
 -11  -2  -7   19.27    1.38
  -7  11   2   25.56    1.43
   7 -11   2   23.00    1.17
  11  -2   7   19.43    1.23
 -11   2   7   22.58    1.46
   2  -7  11   17.60    1.52
  -6  11   2   53.62    1.92
  11  -2   6   55.47    1.65
   6 -11   2   61.18    1.92
 -11   2   6   50.94    1.88
   2  -6  11   47.58    2.25
 -11   2   6   53.36    2.07
  -2   6  11   49.37    2.60
 -11  -2  -6   47.80    2.04
   5  11  -2    4.48    0.73
  -5  11   2    6.07    1.08
  11  -2   5    4.28    0.73
   5 -11   2    9.06    0.92
 -11   2   5    7.48    0.93
   2  -5  11    7.41    1.19
 -11  -2  -5    5.57    0.91
 -11   2   5    7.94    0.93
  -2   5  11    8.48    1.42
  -2   4  11  290.94    5.61
  11  -2   4  301.72    3.03
   4 -11   2  323.21    4.39
  -2  -4 -11  292.85    5.50
  -4 -11  -2  285.50    5.39
   2  -4  11  307.55    5.34
   2   4 -11  279.04    5.38
 -11  -2  -4  293.85    4.44
 -11   2   4  307.18    3.91
 -11   2   4  329.17    4.24
   4  11  -2  293.44    5.50
 -11   2   3   51.61    1.69
  11  -2   3   43.78    1.04
  -2   3  11   48.77    2.34
  -3 -11  -2   49.05    2.38
   2  -3  11   46.39    2.19
  -2  -3 -11   45.07    2.23
 -11  -2  -3   43.35    1.84
 -11   2   3   48.02    1.49
   3  11  -2   41.86    2.19
 -11   2   2   14.22    0.83
 -11   2   2   11.64    0.86
  -2   2  11   13.32    1.45
   2 -11   2   16.74    1.31
   2  -2  11   14.35    1.45
 -11  -2  -2   14.47    1.09
  -2  -2 -11   11.76    1.45
  11  -2   2    8.92    0.49
   2   2 -11   12.37    1.32
   2  11  -2   12.19    1.25
  -1  11   2   19.56    1.56
 -11   2   1   21.35    0.86
   1 -11   2   22.15    1.52
   2  -1  11   21.43    1.66
  -2   1  11   21.20    1.78
 -11   2   1   15.51    0.88
 -11  -2  -1   19.19    1.28
  -1 -11  -2   16.20    1.44
   2   1 -11   21.40    1.62
  -2  -1 -11   16.63    1.36
  11   2  -1   21.34    1.21
   1  11  -2   24.32    1.73
   0  11   2  421.13    6.36
   2   0  11  378.51    6.04
   0 -11   2  389.62    5.56
 -11  -2   0  350.02    4.72
   2   0 -11  349.44    5.78
  -2   0  11  379.08    6.19
   0 -11  -2  399.73    5.75
 -11   2   0  387.70    2.92
  11   2   0  386.09    4.56
  -2   0 -11  354.13    5.83
   0  11  -2  397.75    5.95
   2   1  11   21.95    1.82
   2  -1 -11   21.06    1.62
  -2   1 -11   18.12    1.41
   1  11   2   22.24    1.74
 -11  -2   1   19.20    1.28
  -2  -1  11   22.29    1.73
 -11   2  -1   19.24    0.67
  -1  11  -2   19.82    1.58
   2  -2 -11   14.01    1.33
   2   2  11   17.37    1.44
  11   2   2   13.33    1.23
 -11  -2   2   13.61    1.18
 -11   2  -2   10.89    0.55
   2  11   2   16.78    1.66
 -11  -2   2   13.71    1.15
   2 -11  -2   17.62    1.41
  -2  -2  11   14.10    1.48
 -11  -2   3   48.46    2.06
  11   2   3   48.57    1.84
   3  11   2   46.93    2.31
 -11  -2   3   51.12    2.09
  -3 -11   2   48.63    2.24
 -11   2  -3   43.86    1.18
  -2   3 -11   44.49    2.22
  -2  -3  11   40.19    2.02
   2  -3 -11   48.32    2.25
   2   3  11   46.01    2.40
 -11  -2   4  298.05    4.88
  -2   4 -11  293.28    5.38
   4  11   2  291.33    5.48
  11   2   4  314.15    4.41
  -4 -11   2  295.21    5.43
 -11  -2   4  310.54    4.87
 -11   2  -4  312.93    3.13
   2  -4 -11  278.47    5.21
   2   4  11  284.42    5.51
  -2  -4  11  275.13    5.34
  -4  11  -2  315.21    4.73
  -2  -5  11    5.65    1.17
 -11  -2   5    2.82    0.98
   5  11   2    4.50    0.80
  11   2   5    9.04    0.98
  -2   5 -11    7.97    1.26
 -11   2  -5    5.97    0.76
   2  -5 -11    8.51    1.18
   5 -11  -2    6.75    0.92
  -5  11  -2    6.96    0.88
   2   5  11    5.61    1.02
  -2   6 -11   49.58    2.51
  11   2   6   55.83    2.06
 -11   2  -6   54.46    1.69
 -11  -2   6   45.77    2.15
   6 -11  -2   57.87    1.98
  -6  11  -2   52.24    1.96
 -11  -2   6   55.20    2.41
  11   2   7   18.08    1.43
  11  -2  -7   17.65    1.12
 -11  -2   7   19.37    1.48
  -2   7 -11   21.01    1.59
 -11   2  -7   22.58    1.24
 -11  -2   7   17.42    1.42
 -11  -2   8  131.09    3.56
  11   2   8  140.74    3.52
  11  -2  -8  132.64    2.95
 -11  -2   8  133.77    3.77
 -11  -2   9   15.99    1.61
  11   2   9   15.43    1.46
  11   2  10   65.46    2.42
  11  -2 -10   54.33    2.25
 -11   3  10   22.42    1.76
 -11  -3  -9    5.59    1.07
 -11   3   9    2.70    0.83
 -11  -3  -8   17.92    1.50
   3  -8  11   18.13    1.27
 -11  -3  -7  158.25    3.74
 -11   3   7  170.13    3.46
   3  -7  11  162.59    3.82
  -6  11   3   86.57    2.62
   6 -11   3   86.95    2.28
 -11   3   6   72.84    2.23
   6 -11   3   77.47    1.98
   3  -6  11   64.66    2.41
  -3   6  11   72.44    2.91
 -11  -3  -6   66.02    2.43
  -5  11   3   34.71    1.85
   5 -11   3   32.13    1.56
  11  -3   5   22.49    1.03
 -11   3   5   26.89    1.25
   3  -5  11   29.02    1.75
 -11  -3  -5   30.55    1.80
 -11   3   5   28.31    1.37
   5  11  -3   30.79    1.97
  -3   5  11   30.56    2.08
  -3   4  11   14.82    1.39
  -4  11   3   17.26    1.40
   4 -11   3   16.98    1.19
 -11   3   4   14.21    0.99
   3  -4  11   13.33    1.21
 -11  -3  -4   11.81    1.16
 -11   3   4   14.51    0.94
   4  11  -3   15.34    1.61
 -11   3   3  207.53    2.85
  -3   3  11  194.96    4.57
   3 -11   3  225.11    3.94
  -3  11   3  219.41    4.36
   3  -3  11  188.02    4.10
 -11   3   3  213.97    2.84
  -3  -3 -11  180.42    4.22
   3   3 -11  190.50    4.47
  -3 -11  -3  207.87    4.64
 -11  -3  -3  200.49    4.01
   3  11  -3  190.97    4.35
   3   2 -11   90.96    3.06
 -11   3   2   79.35    1.53
   2 -11   3  111.97    2.87
  -3   2  11   98.86    3.25
  -2  11   3  112.14    3.27
   3  -2  11  101.07    3.14
 -11   3   2   96.49    1.66
 -11  -3  -2   98.37    2.70
  -2 -11  -3  110.81    3.47
  -3  -2 -11   98.45    3.14
  11   3  -2  102.44    2.61
   2  11  -3   97.44    3.15
   1 -11   3  126.13    3.08
   3  -1  11  122.92    3.49
  -1  11   3  142.70    3.86
  -3   1  11  117.79    3.50
 -11   3   1   96.79    1.28
 -11  -3  -1  118.51    3.02
  -3  -1 -11  110.04    3.32
   3   1 -11  115.26    3.39
  11   3  -1  121.83    2.76
   1  11  -3  122.43    3.49
   3   0  11   18.91    1.53
   0 -11   3   21.60    1.45
   0  11   3   22.88    1.72
 -11  -3   0   19.66    1.29
  -3   0  11   20.96    1.76
   3   0 -11   21.15    1.47
   0 -11  -3   18.72    1.50
  -3   0 -11   20.14    1.54
   0  11  -3   16.50    1.49
  11   3   0   23.22    1.39
  11   3   1  125.18    2.85
   3   1  11  124.68    3.60
  -3   1 -11  113.04    3.37
  -1 -11   3  122.67    3.31
   1  11   3  125.33    3.59
 -11  -3   1  115.62    2.95
   3  -1 -11  113.71    3.33
  -3  -1  11  114.74    3.51
  -1  11  -3  120.42    3.22
  11   3   2  102.80    2.62
   3  -2 -11   97.50    3.09
 -11  -3   2  101.90    2.92
  -2 -11   3   99.04    3.08
   2  11   3   99.96    3.25
  -3   2 -11  105.91    3.56
   2 -11  -3  111.79    3.16
  -3  -2  11   97.22    3.30
  -2  11  -3  108.22    3.09
   3   2  11  103.20    3.31
 -11  -3   3  197.30    4.01
  11   3   3  204.60    3.71
 -11  -3   3  219.54    4.29
  -3 -11   3  185.81    4.20
   3  11   3  200.10    4.67
  -3   3 -11  188.66    4.30
   3 -11  -3  216.63    4.03
  -3  -3  11  191.18    4.53
  -3  11  -3  220.56    4.15
   3   3  11  183.06    4.34
   3  -3 -11  186.79    4.19
 -11  -3   4   14.71    1.46
 -11  -3   4   15.43    1.47
 -11   3  -4   13.24    0.59
   4  11   3   13.58    1.55
  11   3   4   15.08    1.20
   3  -4 -11   14.00    1.55
   3   4  11   11.44    1.26
  -4  11  -3   14.12    1.27
  -3  -4  11   14.70    1.58
  -3   4 -11   15.17    1.35
 -11  -3   5   27.36    1.66
  -3  -5  11   23.01    1.60
 -11   3  -5   29.68    1.01
 -11  -3   5   25.37    1.72
  -3   5 -11   24.71    1.74
   3  -5 -11   27.10    1.85
   3   5  11   26.45    2.09
  -5  11  -3   30.71    1.50
 -11  -3   6   68.45    2.65
 -11  -3   6   67.09    2.72
  -3   6 -11   63.32    2.55
  11   3   6   61.73    2.31
  11  -3  -6   65.87    1.90
  -3   7 -11  158.81    4.03
  11   3   7  159.70    3.54
 -11  -3   7  159.13    4.04
 -11  -3   7  165.37    4.13
  11   3   8   16.58    1.26
  11  -3  -8   17.26    1.27
 -11  -3   8   19.91    1.75
  11   3   9    2.03    0.68
  11  -3  -9    1.46    0.93
  11   3  10   17.90    1.29
  11  -3 -10   19.91    1.37
 -11   4  10    7.16    0.79
 -11   4   9  145.41    3.56
   4  -9  11  131.19    3.36
 -11  -4  -8   20.12    1.72
 -11   4   8   21.99    1.54
   4  -8  11   18.53    1.36
   4  -8  11   21.38    1.50
 -11   4   7   20.19    1.32
   4  -7  11   18.78    1.50
 -11  -4  -7   18.99    1.60
  -6  11   4    7.76    1.05
   4  -6  11    6.85    0.99
 -11  -4  -6    8.55    0.99
   6 -11   4    6.99    0.77
  -4   6  11   10.42    1.54
  -4   5  11  211.41    4.80
 -11   4   5  217.36    3.35
   5 -11   4  210.77    3.46
  -5  11   4  233.50    4.33
   4  -5  11  202.87    4.18
   5 -11   4  222.80    3.54
 -11  -4  -5  206.01    4.29
   4 -11   4   33.78    1.48
  -4   4  11   28.87    1.92
 -11   4   4   31.53    1.28
  -4  11   4   33.38    1.75
   4  -4  11   33.82    1.69
 -11  -4  -4   26.48    1.71
 -11   4   4   31.90    1.31
   4  11  -4   27.81    1.77
 -11   4   3  101.95    1.87
  -4   3  11   97.85    3.33
   4  -3  11   96.94    2.93
  -4  -3 -11   97.25    3.16
 -11  -4  -3   93.74    2.89
  -3 -11  -4  105.03    3.42
   3  11  -4   95.31    3.21
 -11   4   3   96.37    1.80
 -11   4   2   13.69    0.53
   2 -11   4   23.18    1.42
   4  -2  11   20.68    1.54
  -4   2  11   22.60    1.64
  -2  11   4   22.02    1.73
   4   2 -11   21.36    1.57
 -11  -4  -2   20.13    1.45
  -4  -2 -11   24.45    1.82
  -2 -11  -4   25.33    1.76
  11   4  -2   25.85    1.47
   2  11  -4   25.37    1.83
 -11   4   2   14.50    0.57
   4  -1  11  175.28    4.06
   1 -11   4  179.91    3.68
  -4   1  11  181.54    4.35
 -11  -4  -1  181.01    3.89
  -1 -11  -4  180.51    4.11
  -4  -1 -11  171.03    4.08
   1  11  -4  182.54    4.28
  11   4  -1  183.78    3.61
   4   1 -11  172.13    4.20
   4   0  11   26.44    1.73
   0 -11   4   25.80    1.55
   0  11   4   27.18    1.89
 -11  -4   0   25.71    1.54
  -4   0  11   29.04    1.89
   4   0 -11   30.31    1.88
  -4   0 -11   26.26    1.82
  11   4   0   29.59    1.49
   4   1  11  174.52    4.09
  11   4   1  184.44    3.66
  -4   1 -11  170.46    4.06
 -11  -4   1  170.94    3.75
   1  11   4  188.28    4.45
   4  -1 -11  176.81    4.19
  -4  -1  11  177.51    4.28
  -1  11  -4  192.68    4.20
  11   4   2   21.72    1.40
  -2 -11   4   22.64    1.46
 -11  -4   2   20.94    1.66
   4  -2 -11   25.38    1.56
  -4   2 -11   24.41    1.59
   2 -11  -4   28.49    1.85
  -4  -2  11   21.45    1.70
  -2  11  -4   24.58    1.64
   4   2  11   27.57    1.94
   4  -3 -11   93.12    3.05
  11   4   3   95.09    2.73
 -11  -4   3   97.61    2.98
  -3 -11   4   93.70    2.99
   3  11   4   95.30    3.26
  -4   3 -11   90.73    2.99
 -11  -4   3  100.33    3.02
  -3  11  -4  101.00    2.93
   4   3  11   94.08    3.12
  -4  -3  11   93.92    3.21
  -4  -4  11   30.58    1.94
 -11  -4   4   36.21    1.99
  11   4   4   28.01    1.80
 -11  -4   4   34.62    2.02
   4   4  11   29.28    1.92
  -4   4 -11   38.16    2.11
   4  -4 -11   34.85    1.94
 -11  -4   5  203.81    4.47
  11   4   5  222.89    4.38
  -4   5 -11  201.94    4.40
 -11  -4   5  218.51    4.59
   4  -5 -11  206.70    4.44
 -11  -4   6    5.82    1.26
  11   4   6    9.68    1.17
 -11  -4   6    6.78    1.17
  -4   6 -11    9.51    1.23
 -11  -4   7   19.94    1.54
  -4   7 -11   21.57    1.58
   7 -11  -4   25.76    1.42
  11  -4  -7   14.57    1.10
  11   4   7   14.73    1.43
 -11  -4   7   19.62    1.70
  11   4   9  118.76    3.36
  11  -4 -10    6.30    1.00
   5 -10  11   47.33    1.92
   5  -9  11    2.36    0.64
   5  -9  11    3.25    0.98
   5  -8  11   50.04    2.07
   5  -8  11   54.80    2.08
  -7  11   5   34.25    1.92
   5  -7  11   30.70    1.75
 -11  -5  -7   27.78    1.78
   6 -11   5  167.12    3.04
   6 -11   5  161.76    2.88
  -6  11   5  169.47    3.71
   5  -6  11  141.08    3.32
 -11  -5  -6  132.72    3.56
  -5   6  11  149.64    4.27
  -5   5  11   16.51    1.60
  -5  11   5   12.96    1.22
   5  -5  11   14.25    1.23
   5 -11   5   16.13    1.10
 -11  -5  -5   16.22    1.33
  -5   4  11   29.73    1.99
   4 -11   5   28.48    1.56
   4 -11   5   23.39    1.40
   5  -4  11   26.90    1.65
  -4  11   5   32.32    1.81
 -11  -5  -4   25.53    1.63
   3 -11   5   27.66    1.49
  -5   3  11   29.79    2.09
   5  -3  11   27.48    1.64
  -3  11   5   31.86    2.05
  -5  -3 -11   22.61    1.79
 -11  -5  -3   28.34    1.66
   3 -11   5   29.97    1.57
  11   5  -3   31.50    1.79
   3  11  -5   24.84    1.80
   2 -11   5  275.99    4.42
   5  -2  11  255.60    4.67
  -5   2  11  270.80    5.37
  -2  11   5  296.45    5.33
  -5  -2 -11  256.88    5.15
   2 -11   5  286.92    4.73
   2  11  -5  257.87    5.12
  11   5  -2  263.93    4.52
   1 -11   5   27.97    1.75
   5  -1  11   26.19    1.68
   1 -11   5   29.61    1.67
   5   1 -11   31.17    1.93
  -1  11   5   32.79    1.92
 -11  -5  -1   25.69    1.57
  -5   1  11   26.54    1.88
  -5  -1 -11   26.96    1.89
  -1 -11  -5   28.09    1.97
   1  11  -5   26.04    1.81
  11   5  -1   21.84    1.54
  11   5   0    0.64    1.00
   5   0  11    4.05    0.87
   0  11   5    3.61    1.03
 -11  -5   0    3.97    0.93
   5   0 -11    0.65    0.88
  -5   0 -11    5.15    0.99
   0  11  -5    5.28    0.98
  -5   0  11    3.98    0.96
   0 -11  -5    4.17    1.00
  11   5   1   31.83    1.77
  -1 -11   5   25.62    1.77
 -11  -5   1   26.17    1.71
   1  11   5   28.36    2.06
   5  -1 -11   26.16    1.80
  -5  -1  11   23.92    1.83
   5   1  11   22.75    1.60
  -5   1 -11   27.94    1.75
  11   5   2  280.39    4.76
  -2 -11   5  256.90    4.87
  -5   2 -11  274.91    5.15
 -11  -5   2  256.53    4.82
   2  11   5  261.90    5.29
   5  -2 -11  270.22    5.09
  -5  -2  11  254.37    5.27
   5   2  11  269.07    5.20
  11   5   3   24.37    1.70
 -11  -5   3   26.06    1.73
   5  -3 -11   25.42    1.78
   3  11   5   28.59    1.76
   5   3  11   26.47    1.81
  -5  -3  11   20.32    1.59
   5  -4 -11   23.13    1.63
 -11  -5   4   28.63    1.90
 -11  -5   4   25.91    1.77
   5   4  11   28.59    2.01
  -5   4 -11   26.80    1.71
   5 -11  -5   14.67    1.30
 -11  -5   5   13.36    1.41
  11   5   5   14.11    1.32
  -5   5 -11   16.51    1.27
   5  -5 -11   15.99    1.37
 -11  -5   6  152.56    4.08
  11   5   6  147.87    3.73
 -11  -5   6  141.95    3.94
  -5   6 -11  144.79    3.63
  11   5   7   29.59    1.76
  -5   7 -11   30.71    1.88
  11   5   8   48.69    2.26
   6  -9  11   25.87    1.51
   6  -9  11   27.17    1.55
   6  -8  11   81.01    2.42
   6  -8  11   95.12    2.72
   6  -7  11    8.00    1.01
   6  -6  11   34.05    1.62
   6 -11   6   35.25    1.46
  -6   6  11   37.09    2.28
  -6   5  11   34.29    2.11
   5 -11   6   31.36    1.54
   5 -11   6   34.79    1.66
   6  -5  11   30.47    1.62
  -5  11   6   37.29    1.93
 -11  -6  -5   29.89    1.91
   4 -11   6  191.68    3.50
  -6   4  11  193.81    4.63
   4 -11   6  193.09    3.65
   3 -11   6   19.17    1.34
   6  -3  11   19.13    1.32
  -6   3  11   17.41    1.70
  -3  11   6   18.74    1.65
 -11  -6  -3   18.58    1.49
   3 -11   6   18.97    1.32
  11   6  -3   18.86    1.41
   6  -2  11   25.84    1.56
   2 -11   6   31.58    1.56
   2 -11   6   27.56    1.58
  -6   2  11   26.46    1.76
  -2  11   6   30.52    1.91
 -11  -6  -2   29.36    1.75
  -6  -2 -11   28.37    1.87
  11   6  -2   22.16    1.43
   6  -1  11   27.43    1.67
  -1  11   6   33.48    2.02
 -11  -6  -1   31.35    1.87
  -6   1  11   31.83    2.03
   1 -11   6   28.22    1.75
  -6  -1 -11   29.96    1.90
  11   6  -1   27.92    1.75
  11   6   0  211.18    4.21
   0 -11   6  232.09    4.69
   0 -11   6  207.29    4.18
   6   0 -11  214.93    4.58
 -11  -6   0  208.02    4.38
   0  11   6  241.30    5.12
  -6   0  11  225.14    4.95
  -6   0 -11  223.70    4.67
   0 -11  -6  237.52    4.89
   6   0  11  231.12    4.71
  11   6   1   27.66    1.71
  -1 -11   6   28.40    1.68
 -11  -6   1   28.11    1.78
   1  11   6   30.19    2.11
  -1 -11   6   27.63    1.77
  -6  -1  11   30.80    2.03
   6  -1 -11   27.66    1.74
  -6   1 -11   32.27    1.91
  -2 -11   6   27.68    1.75
  11   6   2   29.01    1.76
  -6   2 -11   27.32    1.66
 -11  -6   2   26.37    1.77
   2  11   6   29.15    1.94
   6  -2 -11   33.83    1.85
   6   2  11   25.67    1.81
  -6  -2  11   24.33    1.62
   2 -11  -6   34.81    1.99
  11   6   3   19.07    1.63
 -11  -6   3   22.10    1.72
   6  -3 -11   25.49    1.72
   6   3  11   21.74    1.71
 -11  -6   4  177.57    4.37
  11   6   4  182.64    4.11
   6  -4 -11  180.78    4.14
 -11  -6   4  183.65    4.45
  -6   4 -11  177.17    4.03
  -6   5 -11   34.33    1.81
  11   6   5   33.62    1.93
 -11  -6   5   31.38    2.09
  11   6   6   30.96    2.03
  -6   6 -11   31.93    1.83
  -6   7 -11    8.59    1.24
   7  -7  11  123.93    2.85
  -7  11   7  164.76    3.96
   7  -6  11   12.09    1.25
   6 -11   7    9.87    0.97
  -7   6  11   10.99    1.54
  -7   5  11   32.46    2.07
   5 -11   7   31.74    1.46
   7  -5  11   28.50    1.49
  -5  11   7   35.45    2.09
   5 -11   7   28.20    1.52
   4 -11   7    2.14    0.67
   7  -4  11    1.66    0.91
  -7   4  11    3.80    0.98
  -4  11   7    2.32    0.93
  11   7  -4   -0.07    0.35
   3 -11   7  162.35    3.39
   7  -3  11  152.49    3.44
   3 -11   7  152.84    3.40
  -7   3  11  158.43    4.14
 -11  -7  -3  154.87    4.00
  11   7  -3  150.23    3.70
   7  -2  11    8.88    0.99
  -7   2  11   10.73    1.28
  -2  11   7   14.80    1.65
  -7  -2 -11   15.84    1.71
 -11  -7  -2   16.48    1.63
   2 -11   7   14.55    1.24
  11   7  -2   12.80    1.31
   1 -11   7   97.73    2.83
  -1  11   7  107.19    3.58
  -7   1  11  104.55    3.32
  -7  -1 -11  100.58    3.25
   1 -11   7  107.04    3.04
   7  -1  11  104.70    3.02
  11   7  -1  105.07    3.13
   0 -11   7    6.82    1.16
   0 -11   7    4.89    1.04
  -7   0 -11    3.55    1.16
 -11  -7   0    7.22    1.09
  -7   0  11    5.76    1.10
  11   7   1  107.56    3.16
  -1 -11   7  104.36    3.39
 -11  -7   1  110.27    3.41
  -7  -1  11  103.88    3.48
   7   1  11  100.63    3.06
  -7   1 -11  104.11    3.15
  11   7   2   11.14    1.26
  -7   2 -11   13.72    1.18
 -11  -7   2   10.92    1.52
   7  -2 -11    8.47    1.23
   2 -11  -7   12.84    1.57
  -7   3 -11  163.79    3.85
   7  -3 -11  158.26    3.86
   7   3  11  157.61    4.02
  11   7   4    0.59    1.16
   4 -11  -7    2.17    0.76
  -7   4 -11    1.58    0.75
   7  -4 -11    2.85    0.93
  -7   5 -11   28.44    1.54
  11   7   5   27.58    1.71
  -7   6 -11   13.74    1.25
  -7  11   8   15.19    1.56
  -6  11   8   11.03    1.39
  -8   6  11    8.75    1.21
   5 -11   8   89.95    2.47
  -8   5  11   97.60    3.23
   8  -5  11   85.82    2.48
   5 -11   8   90.90    2.54
  -5  11   8   95.37    3.21
  -8   4  11   54.85    2.49
   4 -11   8   50.82    2.01
   3 -11   8   51.85    2.03
  -8   3  11   54.58    2.53
   3 -11   8   57.69    2.14
   8  -3  11   55.80    2.03
   2 -11   8    2.52    0.68
   2 -11   8    2.14    0.67
   1 -11   8   82.28    2.84
  -8   1  11   81.68    3.01
  -8  -1 -11   80.86    2.97
   8  -1  11   86.58    2.74
  -8   0  11   57.16    2.52
  -8   0 -11   64.15    2.56
   8   0  11   61.23    2.42
  11   8   1   89.45    2.96
   8   1  11   85.55    2.80
  -8   1 -11   86.95    2.93
  -8   2 -11    2.06    0.80
   8   2  11    2.07    0.70
  -8   3 -11   54.53    2.30
  -8   4 -11   46.67    1.99
  -8   5 -11   84.02    2.73
   5 -11  -8  107.05    3.13
   6 -11  -8   11.37    1.25
  -7  11   9    1.83    1.28
  -9   6  11  100.51    3.36
   5 -11   9    2.71    0.63
   5 -11   9    3.37    0.54
   4 -11   9   17.29    1.40
   9  -4  11   13.45    1.24
   3 -11   9    2.10    0.56
  -9   3  11    2.55    1.06
  -9   2  11  150.23    3.89
   2 -11   9  163.52    3.80
   9  -1  11    3.08    0.56
  -9   0 -11    9.33    0.95
   9   0  11   11.60    1.21
  -9   1 -11    0.35    0.24
   9   1  11    0.91    0.67
  -9   2 -11  157.39    3.69
   9   2  11  142.58    3.51
  -9   3 -11    0.43    0.77
  -9   4 -11   18.60    1.44
 -10   5  11   36.85    2.03
   5 -11  10   38.78    1.82
 -10   4  11   60.53    2.69
 -10   3  11   18.11    1.47
  10  -2  11   13.75    1.39
 -10  -1 -11   36.59    2.19
  10  -1  11   36.31    1.73
  10   0  11   78.46    2.61
 -10   0 -11   74.61    2.70
 -10   1 -11   34.00    1.99
 -10   2 -11   12.44    1.29
  10   2  11   14.11    1.17
  11   1  11   46.63    2.02
   0  12   0   46.02    2.34
   0   0  12   35.23    2.08
 -12   0   0   39.54    1.48
 -12   0   0   46.71    1.59
 -12   0   1   69.44    1.97
  -1  12   0   63.68    2.59
   1  12   0   62.67    2.63
   0   1  12   56.63    2.50
   0  -1  12   52.13    2.50
  -1 -12   0   59.99    2.49
   1 -12   0   65.84    2.52
 -12   0  -1   59.36    1.71
  12   0   1   60.84    1.60
  12   0   2    0.59    0.28
   2  12   0    2.72    0.75
 -12   0   2    1.04    0.42
   0   2  12    1.15    0.88
 -12   0   2    0.84    0.56
  -2 -12   0    0.67    0.89
   0  -2  12    0.62    0.57
 -12   0  -2    0.21    0.53
   0   3  12   76.75    3.08
  12   0   3   84.08    2.01
   3  12   0   72.71    2.79
 -12   0   3   73.73    2.18
   3 -12   0   81.57    2.56
   0  -3  12   78.36    2.94
 -12   0   3   80.76    2.23
 -12   0  -3   84.87    2.17
 -12   0  -4   41.73    1.56
  -4  12   0   45.88    1.99
 -12   0   4   46.61    1.93
  12   0   4   44.99    1.62
   4 -12   0   43.67    1.98
 -12   0   4   44.73    1.81
 -12   0   5   30.43    1.66
  -5  12   0   34.40    1.83
 -12   0  -5   29.20    1.45
  12   0   5   33.93    1.36
 -12   0   5   29.76    1.57
  -6  12   0    0.75    0.96
  12   0   6    5.14    1.00
 -12   0  -6    4.49    0.83
 -12   0   6    1.04    0.70
   6 -12   0    0.63    0.57
 -12   0   6    5.71    1.14
 -12   0   7   84.30    2.75
 -12   0   7   90.09    2.99
 -12   0   8   39.32    2.03
 -12   0   8   41.59    1.99
 -12   0   9    6.76    1.16
 -12   1  10   43.42    2.18
 -12   1   9   45.08    2.16
 -12   1   9   46.80    2.15
 -12  -1  -8   58.64    2.30
 -12   1   8   53.07    2.19
 -12   1   8   54.31    2.26
 -12  -1  -7   70.45    2.30
 -12   1   7   64.73    2.28
 -12   1   7   66.56    2.50
  -6  12   1   85.81    2.61
 -12  -1  -6   72.72    2.32
   6 -12   1   86.83    2.38
 -12   1   6   80.72    2.43
 -12   1   6   77.22    2.55
 -12   1   5   93.96    2.63
 -12   1   5   89.09    2.49
 -12  -1  -5   88.42    2.46
 -12   1   4  159.54    3.25
  -4  12   1  165.46    3.75
 -12   1   4  152.53    2.96
  12  -1   4  168.51    2.57
   4 -12   1  162.84    3.38
 -12  -1  -4  152.06    3.03
   3  12  -1  114.76    3.59
  12  -1   3  133.46    2.14
  -1   3  12  121.46    3.65
  -3  12   1  138.18    3.47
 -12   1   3  123.28    2.63
 -12   1   3  133.41    2.66
   3 -12   1  130.91    3.09
   1  -3  12  114.36    3.47
 -12  -1  -3  116.74    2.58
   2  12  -1   81.63    3.03
  -1   2  12   81.52    3.18
 -12   1   2   87.44    2.09
   1  -2  12   81.39    2.90
  -2 -12  -1   82.20    2.91
 -12   1   2   90.80    2.06
 -12  -1  -2   83.08    2.27
  12  -1   2   92.93    1.68
 -12   1   1  140.07    2.39
   1  12  -1  134.63    3.73
  -1  12   1  142.55    3.77
  -1   1  12  123.89    3.70
   1  -1  12  128.13    3.71
 -12   1   1  131.27    2.40
   1 -12   1  136.08    3.39
  -1 -12  -1  132.83    3.57
   0  12  -1  204.11    4.47
  -1   0 -12  188.50    4.37
   0  12   1  210.81    4.57
   1   0  12  190.43    4.44
  -1   0  12  183.19    4.50
 -12  -1   0  193.58    3.31
 -12   1   0  206.46    2.98
 -12   1   0  216.57    2.84
  12   1   0  206.29    2.99
  -1  12  -1  137.88    3.63
   1  12   1  134.58    3.77
   1   1  12  123.06    3.81
 -12   1  -1  142.12    2.32
 -12  -1   1  127.95    2.79
  -1   1 -12  119.43    3.60
  -1 -12   1  139.37    3.68
  -1  -1  12  116.89    3.56
   1 -12  -1  145.04    3.75
 -12   1  -1  125.90    2.19
 -12  -1   1  143.50    2.96
  12   1   1  131.34    2.47
  -2  12  -1   94.46    2.95
  12   1   2   93.17    2.24
 -12  -1   2   90.36    2.41
   1   2  12   83.71    3.02
   2  12   1   84.65    3.12
 -12  -1   2   80.44    2.24
  -2 -12   1   81.97    2.87
   2 -12  -1   89.80    2.68
  -1  -2  12   83.81    2.98
  -1   2 -12   76.84    2.92
 -12   1  -2   78.31    1.78
   1   3  12  116.00    3.57
  -3  12  -1  128.76    3.26
 -12   1  -3  127.39    2.23
  12   1   3  127.17    2.63
   3  12   1  120.37    3.68
 -12  -1   3  118.80    2.87
 -12  -1   3  132.40    2.99
   3 -12  -1  132.38    3.27
  -1  -3  12  115.92    3.53
 -12  -1   4  140.40    3.26
  12   1   4  152.56    2.99
 -12   1  -4  153.18    2.59
   4 -12  -1  165.85    3.48
 -12  -1   4  148.07    3.27
  -4  12  -1  160.27    3.56
 -12  -1   5   89.09    2.81
  12   1   5   94.19    2.42
 -12  -1   5   91.30    2.66
  12   1   6   77.97    2.34
 -12  -1   6   78.14    2.58
   6 -12  -1   87.65    2.38
  -6  12  -1   88.99    2.50
 -12  -1   6   77.32    2.70
 -12  -1   7   64.07    2.44
  12   1   7   62.37    2.11
 -12  -1   7   64.15    2.60
 -12  -1   8   46.89    2.12
 -12  -1   8   51.69    2.36
 -12  -1   9   35.80    1.85
 -12  -2  -9   24.50    1.62
 -12   2   9   28.19    1.78
 -12  -2  -8   14.75    1.37
 -12   2   8   14.41    1.46
 -12   2   8   17.86    1.34
 -12  -2  -7    9.00    1.24
 -12   2   7   11.70    1.32
 -12   2   7    9.18    1.03
 -12   2   6   99.64    2.57
 -12   2   6  103.87    2.77
  -5  12   2   26.96    1.50
   2  -5  12   24.85    1.71
 -12   2   5   25.49    1.37
 -12  -2  -5   24.82    1.42
 -12   2   5   26.43    1.38
 -12   2   4    2.00    0.68
  -4  12   2    3.55    0.94
   4 -12   2    5.18    0.67
 -12   2   4    3.34    0.66
   2  -4  12    2.89    0.92
 -12  -2  -4    2.98    0.80
 -12   2   3   21.12    1.16
  -2   3  12   17.84    1.56
  -3  12   2   20.14    1.57
   2  -3  12   20.27    1.51
 -12  -2  -3   16.91    1.25
 -12   2   3   20.55    1.06
   3  12  -2   22.21    1.69
  -2  12   2  131.21    3.48
  -2   2  12  129.89    3.87
 -12   2   2  117.81    2.11
   2 -12   2  127.47    3.06
   2  -2  12  119.97    3.46
  -2 -12  -2  120.76    3.52
 -12  -2  -2  121.45    2.87
 -12   2   2  126.50    2.15
   2  12  -2  121.00    3.55
 -12   2   1   21.93    0.93
  -1  12   2   17.47    1.60
   2  -1  12   20.38    1.55
  -2   1  12   23.19    1.71
   1 -12   2   18.76    1.50
 -12  -2  -1   17.36    1.15
  12   2  -1   19.93    1.04
   1  12  -2   22.85    1.87
   0  12  -2   -1.04    0.54
 -12   2   0    0.20    0.30
   0  12   2    1.29    0.92
   2   0  12    2.02    0.84
  -2   0 -12   -1.15    0.95
 -12  -2   0   -0.61    0.73
  -2   0  12   -0.36    0.93
 -12   2   0    1.21    0.32
  12   2   0    1.50    0.48
   2   1  12   19.42    1.61
   1  12   2   23.50    1.64
 -12   2  -1   21.18    0.71
  -2   1 -12   17.14    1.62
  -1 -12   2   20.60    1.49
 -12  -2   1   20.91    1.41
  -2  -1  12   18.02    1.57
   1 -12  -2   24.88    1.71
  -1  12  -2   19.88    1.53
  12   2   1   20.16    1.23
   2   2  12  116.22    3.53
  12   2   2  130.80    2.79
 -12   2  -2  108.43    1.56
   2  12   2  119.98    3.59
 -12  -2   2  133.52    3.17
 -12  -2   2  120.29    2.89
  -2 -12   2  128.04    3.53
  -2   2 -12  121.74    3.58
   2 -12  -2  139.03    3.48
  -2  -2  12  116.11    3.63
  -2  12  -2  136.13    3.49
  12   2   3   18.77    1.20
   3  12   2   18.34    1.84
 -12  -2   3   18.38    1.37
   3 -12  -2   23.46    1.53
  -2   3 -12   14.46    1.43
  -3  12  -2   21.52    1.55
 -12  -2   3   22.78    1.45
 -12  -2   4    7.48    1.17
 -12  -2   4    4.92    0.90
   4 -12  -2    5.84    1.03
  -4  12  -2    5.54    0.99
 -12  -2   5   24.58    1.70
   5 -12  -2   32.50    1.78
  -5  12  -2   30.23    1.73
 -12  -2   5   23.95    1.64
 -12  -2   6   91.10    2.96
  12   2   6   92.66    2.68
 -12  -2   6   99.42    3.06
  12   2   7   11.88    1.19
 -12  -2   7   12.71    1.32
 -12  -2   7   12.02    1.31
 -12  -2   8   17.06    1.61
 -12  -2   8   17.61    1.59
  12   2   9   32.63    1.80
  12  -2  -9   25.08    1.57
 -12  -3  -9   64.28    2.73
 -12  -3  -8   54.14    2.32
 -12  -3  -7   19.32    1.47
  -6  12   3   76.94    2.63
   6 -12   3   76.27    2.25
   6 -12   3   74.46    2.12
   3  -6  12   61.73    2.42
 -12  -3  -6   56.32    2.35
   3  -5  12  154.77    3.86
 -12  -3  -5  156.70    3.62
   3  -4  12   63.60    2.58
 -12  -3  -4   66.41    2.34
  -3   3  12   60.71    2.78
  -3  12   3   71.27    2.67
   3 -12   3   69.53    2.32
   3  -3  12   62.46    2.61
 -12  -3  -3   57.01    2.10
   3  12  -3   64.08    2.64
  -2  12   3  147.46    3.73
  -3   2  12  151.63    4.10
   2 -12   3  144.51    3.31
   3  -2  12  141.11    3.76
 -12  -3  -2  139.47    3.24
   2  12  -3  142.62    3.87
   3  -1  12  146.03    3.84
  -1  12   3  168.15    4.06
   1 -12   3  160.67    3.59
  -3   1  12  152.98    4.09
 -12  -3  -1  142.93    3.30
  -1 -12  -3  154.74    3.89
  12   3  -1  150.80    3.08
   1  12  -3  153.46    3.95
   3   0  12   59.98    2.45
   0  12   3   58.60    2.58
 -12  -3   0   53.53    2.16
  -3   0  12   60.65    2.73
   0 -12  -3   67.42    2.62
   0  12  -3   59.28    2.58
  12   3   0   58.39    1.98
  -3   0 -12   52.51    2.51
   3   1  12  142.92    3.89
  -3   1 -12  144.97    3.92
   1  12   3  159.49    4.13
  -1 -12   3  149.60    3.72
 -12  -3   1  154.18    3.52
  -3  -1  12  141.97    3.97
  -1  12  -3  156.31    3.83
  12   3   1  160.93    3.30
  12   3   2  147.99    3.11
   2  12   3  151.58    4.12
 -12  -3   2  135.96    3.28
  -2 -12   3  133.45    3.53
  -3   2 -12  139.73    3.79
   2 -12  -3  155.52    3.68
  -2  12  -3  159.72    3.85
   3   2  12  135.43    3.86
  12   3   3   68.81    2.20
  -3   3 -12   63.25    2.63
   3 -12  -3   71.48    2.55
 -12  -3   3   70.59    2.55
  -3  12  -3   72.17    2.57
  -3   4 -12   68.29    2.84
 -12  -3   4   69.83    2.57
  12   3   4   70.75    2.29
   4 -12  -3   78.64    2.51
 -12  -3   4   66.39    2.55
  -4  12  -3   75.30    2.45
 -12  -3   5  157.60    3.82
  12   3   5  153.45    3.36
 -12  -3   5  167.68    3.97
   5 -12  -3  182.25    3.64
  -5  12  -3  176.96    3.65
  12   3   6   64.54    2.36
 -12  -3   6   62.94    2.58
 -12  -3   7   19.58    1.66
  12   3   7   23.34    1.47
 -12  -3   7   18.01    1.64
  12   3   8   53.83    2.29
 -12  -3   8   56.40    2.45
  12   3   9   66.33    2.56
 -12  -4  -8   25.83    1.91
   4  -7  12   67.53    2.47
   4  -6  12    9.29    1.08
 -12  -4  -6    8.72    1.18
   5 -12   4   22.64    1.33
   5 -12   4   23.16    1.45
   4  -5  12   19.13    1.48
 -12  -4  -5   20.16    1.58
   4  -4  12   35.38    1.98
 -12  -4  -4   37.91    1.96
   4 -12   4   39.17    1.71
   3 -12   4   74.58    2.37
   4  -3  12   71.10    2.62
 -12  -4  -3   75.87    2.65
   2 -12   4    7.64    1.12
   4  -2  12    9.52    1.21
  -2  12   4    3.72    0.93
  -4   2  12    5.28    0.82
 -12  -4  -2    6.12    0.93
  12   4  -2    1.68    0.83
   2  12  -4    4.59    1.25
   4  -1  12   43.46    2.17
  -1  12   4   57.63    2.53
  -4   1  12   48.54    2.46
 -12  -4  -1   45.38    2.04
   1  12  -4   51.61    2.37
  12   4  -1   53.84    2.15
   4   0  12   40.39    1.98
   0 -12   4   43.86    2.15
 -12  -4   0   38.66    1.90
   0 -12  -4   45.65    2.25
   0  12  -4   41.92    2.24
  -4   0 -12   36.95    2.09
  12   4   0   39.69    1.83
   4   1  12   49.25    2.37
  12   4   1   53.63    2.06
  -4   1 -12   43.11    2.31
  -1 -12   4   48.87    2.32
   1  12   4   50.80    2.47
   1 -12  -4   56.60    2.51
  -1  12  -4   50.37    2.25
   4   2  12    2.80    1.12
  12   4   2    4.29    0.87
  -4   2 -12    5.48    1.28
 -12  -4   2    1.33    0.76
  -2  12  -4    4.10    0.97
  12   4   3   75.92    2.44
 -12  -4   3   81.95    2.83
 -12  -4   3   65.35    2.51
  -4   3 -12   68.27    2.68
   3 -12  -4   84.51    2.70
  -3  12  -4   81.70    2.69
 -12  -4   4   38.06    1.96
  12   4   4   47.43    2.11
 -12  -4   4   42.83    2.13
   4 -12  -4   40.79    1.97
  -4   4 -12   34.66    2.02
 -12  -4   5   24.04    1.90
  12   4   5   21.62    1.45
 -12  -4   5   24.50    1.69
   5 -12  -4   24.79    1.70
 -12  -4   6    9.42    1.18
  12   4   6   11.11    1.31
   6 -12  -4   10.04    1.15
  12   4   7   80.81    2.68
 -12  -4   7   68.06    2.81
  12   4   8   25.45    1.84
   5  -7  12   70.71    2.61
  -6  12   5   59.75    2.38
   5  -6  12   54.20    2.27
   5 -12   5   14.55    1.05
  -5  12   5   15.94    1.46
   5  -5  12   13.11    1.29
 -12  -5  -5   14.97    1.47
   5 -12   5   16.44    1.18
   5  -4  12  136.05    3.49
   4 -12   5  140.53    3.09
 -12  -5  -4  137.15    3.59
   3 -12   5  116.31    2.99
   3 -12   5  114.82    2.87
   5  -3  12  107.95    3.16
  -3  12   5  124.54    3.59
 -12  -5  -3   98.59    2.98
  12   5  -3  108.62    3.00
   5  -2  12   18.51    1.30
   2 -12   5   17.17    1.18
  -2  12   5   14.99    1.47
 -12  -5  -2   17.02    1.31
  12   5  -2   15.39    1.22
   5  -1  12   55.74    2.33
   1 -12   5   65.01    2.37
  -1  12   5   72.65    2.85
 -12  -5  -1   56.15    2.26
   1 -12   5   67.76    2.55
   1  12  -5   67.96    2.86
  12   5  -1   64.59    2.33
   5   0  12  202.62    4.42
   0 -12   5  218.67    4.33
   0  12   5  225.42    4.98
 -12  -5   0  197.51    4.21
   0  12  -5  211.75    4.60
  -5   0 -12  208.12    4.66
  12   5   0  218.98    4.16
  12   5   1   56.29    2.10
  -5   1 -12   54.04    2.41
   1  12   5   64.77    2.77
 -12  -5   1   60.29    2.47
   1 -12  -5   71.21    2.71
   5   1  12   61.45    2.64
  12   5   2   12.81    1.29
  -5   2 -12   16.15    1.53
   2 -12  -5   13.60    1.50
   5   2  12   10.82    1.41
  12   5   3  110.58    3.05
  -5   3 -12  104.76    3.30
 -12  -5   4  148.23    3.98
 -12  -5   4  132.80    3.72
  12   5   4  149.16    3.51
  -5   4 -12  127.13    3.58
 -12  -5   5   16.25    1.41
 -12  -5   5   18.53    1.81
  12   5   5   16.94    1.61
  -5   5 -12   11.89    1.37
   5 -12  -5   16.89    1.60
   6 -12  -5   57.78    2.19
  12   5   6   60.74    2.72
 -12  -5   6   49.86    2.45
  -5   6 -12   48.11    2.43
  12   5   7   71.12    2.52
   6  -8  12   15.76    1.17
   6  -7  12    3.79    0.71
  -6  12   6   64.56    2.69
   6  -6  12   53.36    2.20
   5 -12   6   34.12    1.54
   5 -12   6   35.12    1.51
   6  -5  12   32.99    1.72
  -5  12   6   36.85    2.00
   4 -12   6    7.96    0.88
   6  -4  12    5.30    1.01
  -4  12   6    9.57    1.27
   4 -12   6    7.44    0.91
 -12  -6  -4   11.93    1.26
   3 -12   6   18.86    1.20
   6  -3  12   18.55    1.54
 -12  -6  -3   15.21    1.29
  12   6  -3   15.89    1.36
   6  -2  12   88.70    2.90
   2 -12   6   91.25    2.76
  -2  12   6  100.59    3.41
   2 -12   6   95.10    2.87
 -12  -6  -2   81.56    2.90
  12   6  -2   91.77    2.79
   6  -1  12   22.49    1.70
   1 -12   6   24.16    1.52
  -1  12   6   28.28    1.95
 -12  -6  -1   31.42    2.02
   1 -12   6   28.13    1.75
  12   6  -1   28.91    1.78
  12   6   0    3.10    0.96
 -12  -6   0    2.35    0.71
  -6   1 -12   27.61    1.96
  12   6   1   24.80    1.82
 -12  -6   1   22.71    1.67
   6   1  12   25.14    1.71
  12   6   2   90.56    2.83
  -6   2 -12   89.52    3.00
 -12  -6   2   89.11    3.11
  12   6   3   18.73    1.61
 -12  -6   3   16.67    1.57
   3 -12  -6   17.94    1.57
  12   6   4    8.13    0.95
 -12  -6   4    9.49    1.44
  -6   4 -12    9.17    1.19
   4 -12  -6    9.11    1.06
   5 -12  -6   35.64    1.99
  -6   5 -12   31.76    1.83
  12   6   5   31.94    1.90
  12   6   6   57.55    2.42
   7  -6  12   35.85    1.79
   7  -5  12  101.98    2.82
   5 -12   7  104.46    2.65
   7  -4  12   16.51    1.40
   4 -12   7   16.55    1.08
  -4  12   7   14.27    1.40
   7  -3  12   35.97    1.69
   3 -12   7   33.40    1.81
   7  -2  12   89.84    2.76
   2 -12   7   85.41    2.57
   2 -12   7   97.05    2.92
  12   7  -2  101.16    3.17
   1 -12   7   97.81    3.12
   7  -1  12  100.57    3.14
   7   0  12    5.60    1.21
  12   7   0    3.48    1.09
  12   7   1   95.95    2.95
   7   1  12   91.26    2.96
  -7   1 -12   91.99    3.11
  12   7   2   99.09    3.06
  -7   2 -12   88.62    2.99
  12   7   3   27.55    1.80
  -7   3 -12   33.75    1.99
  -7   4 -12   20.86    1.73
   5 -12  -7  120.65    3.39
  -7   5 -12   96.83    2.98
   6 -12  -7   43.64    2.06
  -7   6 -12   38.91    2.06
  -7   7 -12    1.65    0.75
  -6  12   8   22.28    1.88
   8  -5  12    7.96    1.08
   5 -12   8   12.86    1.08
   8  -4  12   29.65    1.50
   4 -12   8   27.76    1.53
   8  -3  12   50.31    2.00
   3 -12   8   49.61    2.03
   2 -12   8   17.04    1.37
   8  -2  12   11.97    1.12
   8  -1  12   30.22    1.72
   8   0  12   33.72    1.81
  -8   1 -12   29.52    1.85
  -8   2 -12   15.09    1.46
  -8   3 -12   48.02    2.29
  -8   4 -12   28.89    1.64
  -8   5 -12    8.60    1.03
   4 -12   9   73.39    2.47
   9  -3  12   41.11    1.67
   9  -2  12   10.44    1.16
   9  -1  12   23.53    1.62
   9   0  12   93.38    2.95
  -9   2 -12    3.16    0.78
  -9   3 -12   40.61    1.89
  10  -1  12   26.14    1.62
   0  13   0   -1.05    0.74
   0 -13   0    0.56    0.95
 -13   0   0   -1.03    0.38
   1  13   0    1.15    0.94
 -13   0   1    2.04    0.54
   1 -13   0    2.44    0.94
  -2  13   0  181.69    4.17
 -13   0   2  186.99    3.26
  -3  13   0    3.40    1.10
 -13   0   3    1.46    0.38
 -13   0   3    2.61    0.85
   3 -13   0    1.88    0.91
  -4  13   0    8.71    1.15
 -13   0   4   10.92    1.04
 -13   0   4   11.88    1.18
  -5  13   0    2.26    1.04
 -13   0   5    0.52    0.49
   5 -13   0    2.77    0.77
 -13   0   5    2.95    0.98
 -13   0   6  120.41    3.04
 -13   0   7   11.62    1.25
 -13   0   7    8.71    1.01
 -13   0   8   25.04    1.64
  -5  13   1  134.15    3.39
  -4  13   1  118.90    3.23
   4 -13   1  105.90    2.88
  -3  13   1   56.34    2.40
   3 -13   1   60.62    2.32
 -13  -1  -3   58.53    1.95
  -2  13   1   44.04    2.29
 -13  -1  -2   44.10    1.73
  -1  13   1  117.09    3.50
   1 -13   1  110.71    3.15
 -13  -1  -1  116.26    2.65
   0  13  -1  122.08    3.63
   0  13   1  109.67    3.47
   0 -13   1  121.79    3.39
 -13  -1   0  114.18    2.66
   0 -13  -1  121.63    3.45
  13   1   0  130.58    2.52
  -1  13  -1  105.12    3.21
   1  13   1  113.80    3.64
 -13  -1   1  111.22    2.82
   1 -13  -1  111.88    3.23
  13   1   1  118.98    2.46
 -13  -1   1  119.79    2.85
 -13  -1   2   44.09    1.85
  13   1   2   49.05    1.64
 -13  -1   3   50.53    2.07
 -13  -1   3   53.65    1.99
   3 -13  -1   54.26    2.12
  -3  13  -1   55.99    2.37
 -13  -1   4  101.39    2.83
  -4  13  -1  100.07    2.88
 -13  -1   5  115.00    3.01
   5 -13  -1  118.27    2.94
  -5  13  -1  124.84    3.12
 -13  -1   6   25.77    1.57
 -13  -1   6   26.63    1.72
 -13  -1   7   14.25    1.50
 -13  -1   7    9.76    1.24
 -13  -1   8   46.75    2.29
 -13  -1   8   43.44    2.39
   5 -13   2   29.49    1.55
 -13  -2  -5   26.24    1.44
   4 -13   2    2.61    0.47
 -13  -2  -4    1.98    0.63
  -3  13   2  125.16    3.44
   3 -13   2  127.14    3.12
 -13  -2  -3  120.12    2.97
   1 -13   2   78.35    2.67
 -13  -2  -1   83.28    2.45
   0  13  -2    1.55    1.31
   0 -13   2    0.96    1.02
 -13  -2   0    2.96    0.88
   1  13   2   74.58    2.85
 -13  -2   1   72.04    2.33
   1 -13  -2   81.24    2.80
  13   2   1   82.24    2.22
  -1  13  -2   82.20    2.96
  13   2   2    5.55    0.93
 -13  -2   2    4.22    0.70
   2 -13  -2    7.75    1.23
 -13  -2   2    5.27    1.07
  13   2   3  123.76    2.76
   3 -13  -2  132.83    3.36
 -13  -2   3  130.27    3.18
  -3  13  -2  126.33    3.37
 -13  -2   4    1.87    0.80
 -13  -2   4    0.31    0.59
 -13  -2   5   28.10    1.68
  13   2   5   27.13    1.61
   5 -13  -2   33.12    1.88
 -13  -2   5   25.56    1.67
  -5  13  -2   29.51    1.94
 -13  -2   6    6.22    1.08
 -13  -2   6    4.89    1.13
 -13  -2   7   99.46    3.16
 -13  -2   7  108.84    3.32
 -13  -2   8    4.34    1.38
 -13  -3  -7   29.67    1.78
 -13  -3  -6   28.23    1.72
  -5  13   3   47.12    2.21
 -13  -3  -5   35.44    1.82
  -4  13   3  151.32    3.70
   4 -13   3  145.67    3.21
   3 -13   3   55.18    2.12
 -13  -3  -3   55.77    2.31
  -2  13   3   14.65    1.50
 -13  -3  -2    5.82    1.00
   1 -13   3   49.75    2.18
 -13  -3  -1   54.34    2.10
  13   3  -1   54.01    2.00
   1  13  -3   51.99    2.51
   0  13   3  205.32    4.82
   0 -13   3  188.70    4.09
 -13  -3   0  188.28    3.80
  13   3   0  202.87    3.64
   0  13  -3  191.33    4.41
 -13  -3   1   51.98    2.21
   1 -13  -3   56.93    2.35
  -1  13  -3   50.99    2.35
  13   3   1   55.12    1.96
  13   3   2   13.28    1.25
 -13  -3   2   13.07    1.35
   2 -13  -3   14.82    1.53
  13   3   3   54.92    2.03
 -13  -3   3   50.03    2.23
 -13  -3   3   58.47    2.33
  -3  13  -3   55.44    2.42
  13   3   4  148.70    3.32
 -13  -3   4  143.55    3.56
   4 -13  -3  152.93    3.55
  -4  13  -3  155.61    3.61
 -13  -3   5   36.51    1.95
  13   3   5   44.17    2.00
 -13  -3   5   41.23    2.12
   5 -13  -3   51.00    2.11
  -5  13  -3   47.47    2.02
 -13  -3   6   31.93    1.79
  13   3   6   32.31    1.66
 -13  -3   6   33.58    2.01
  13   3   7   22.17    1.53
 -13  -3   7   25.61    1.76
 -13  -4  -7   14.40    1.41
 -13  -4  -6   91.96    2.91
  -5  13   4    0.03    1.11
   5 -13   4    0.94    0.49
  -4  13   4   11.91    1.30
   4 -13   4   12.02    1.05
 -13  -4  -4   10.64    1.02
   4 -13   4   12.43    1.15
  -3  13   4    9.78    1.54
 -13  -4  -3    8.58    1.26
   2 -13   4  155.02    3.67
 -13  -4  -2  153.03    3.67
  13   4  -2  147.59    3.22
   1 -13   4    4.57    0.95
  -1  13   4    2.95    1.11
 -13  -4  -1    4.56    0.77
  13   4   0    4.66    0.83
 -13  -4   0    3.36    0.81
  -1  13  -4    5.63    1.13
  13   4   1    8.04    0.98
  13   4   2  150.41    3.41
 -13  -4   2  150.91    3.70
  -2  13  -4  156.48    3.90
  13   4   3    5.72    1.09
 -13  -4   3    7.19    1.07
 -13  -4   3    7.06    0.99
   3 -13  -4    7.91    1.19
  -3  13  -4    9.91    1.45
  13   4   4    8.75    1.22
 -13  -4   4    9.08    1.15
 -13  -4   4   11.55    1.20
   4 -13  -4    9.96    1.07
   5 -13  -4    2.94    0.74
 -13  -4   5    3.56    0.89
  13   4   5    3.60    0.92
 -13  -4   5    2.54    0.99
 -13  -4   6   87.01    3.01
  13   4   6  100.13    2.93
  13   4   7    8.19    1.11
  13   4   8   25.77    1.96
   5 -13   5  128.77    2.98
  -5  13   5  140.95    3.76
   4 -13   5   31.21    1.50
  -4  13   5   29.98    1.86
 -13  -5  -4   25.92    1.65
   4 -13   5   32.16    1.68
   3 -13   5   43.80    1.83
   3 -13   5   38.55    1.81
 -13  -5  -3   39.57    2.01
   2 -13   5   41.74    1.86
  -2  13   5   44.17    2.37
 -13  -5  -2   35.21    1.97
   2 -13   5   39.70    1.89
  13   5  -2   38.53    1.94
 -13  -5  -1   93.60    2.93
  13   5  -1  115.26    3.10
 -13  -5   0   21.75    1.58
  13   5   0   19.83    1.26
 -13  -5   1  100.77    3.06
  13   5   1  120.36    3.18
  13   5   2   35.11    1.90
  13   5   3   41.39    1.88
 -13  -5   3   40.88    2.05
  13   5   4   32.11    1.86
 -13  -5   4   33.69    2.02
   4 -13  -5   32.73    1.80
  13   5   5  106.45    3.05
 -13  -5   5  113.93    3.49
  13   5   6   10.50    1.28
  -5  13   6   18.14    1.46
   4 -13   6    2.56    0.68
  -4  13   6    3.69    0.94
   3 -13   6   65.12    2.26
 -13  -6  -3   65.05    2.56
  13   6  -3   70.95    2.54
   2 -13   6   19.43    1.36
  13   6  -2   24.36    1.61
 -13  -6  -1   46.68    2.29
  13   6  -1   54.64    2.13
  13   6   0    1.23    0.94
 -13  -6   0    4.45    1.00
  13   6   1   51.43    2.12
 -13  -6   1   44.45    2.19
  13   6   2   20.70    1.79
  13   6   3   68.86    2.51
  13   6   4    6.39    1.03
   5 -13  -6   19.53    1.42
   4 -13   7  108.39    2.81
   4 -13   7  113.87    2.97
   3 -13   7   19.61    1.38
   4 -13   8    4.74    0.80
  -1  14   0   36.31    2.16
  -2  14   0    6.22    1.17
   2 -14   0    2.80    0.69
  -3  14   0   78.02    2.70
   3 -14   0   76.77    2.56
  -4  14   0  140.25    3.60
  -5  14   1   11.09    1.28
  -4  14   1    9.83    1.34
  -3  14   1   54.63    2.46
   3 -14   1   47.22    2.06
  -2  14   1   49.22    2.42
   2 -14   1   50.71    2.16
  -1  14   1   33.02    2.11
  -1  14  -1   34.82    2.10
   2 -14  -1   54.50    2.33
  -2  14  -1   56.27    2.53
   3 -14  -1   48.81    2.11
  -3  14  -1   56.33    2.41
  -4  14  -1   12.20    1.39
   5 -14  -1   14.47    1.22
  -5  14   2  127.86    3.41
  -4  14   2   20.95    1.69
  -3  14   2   41.46    2.25
   3 -14   2   45.28    2.10
  -2  14   2   81.46    2.92
   2 -14   2   78.94    2.57
  -1  14  -2   99.11    3.28
  -2  14  -2   81.82    2.87
   3 -14  -2   41.01    2.05
  -3  14  -2   40.40    1.99
   4 -14  -2   23.42    1.50
  -4  14  -2   21.82    1.82
  -5  14   3    7.22    1.17
  -4  14   3   11.77    1.53
  -3  14   3   30.12    1.90
   3 -14   3   28.23    1.70
  -2  14   3   78.13    2.83
 -14  -3  -1    8.56    1.09
  14   3  -1   12.90    1.18
 -14  -3   0    6.19    0.90
  14   3   0    5.57    0.96
 -14  -3   1   11.32    1.13
  14   3   1   12.66    1.33
 -14  -3   2   85.41    2.83
  -2  14  -3   78.29    2.81
 -14  -3   3   27.62    1.73
 -14  -3   3   26.78    1.66
  -3  14  -3   26.16    1.72
 -14  -3   4   10.12    1.34
   4 -14  -3   11.10    1.42
  -4  14  -3   12.45    1.52
 -14  -3   5    4.63    1.24
 -14  -3   5    4.67    0.77
 -14  -3   6   50.58    2.38
  -5  14   4   11.29    1.28
  -4  14   4  110.14    3.41
   4 -14   4   97.52    2.66
   3 -14   4   40.43    1.80
 -14  -4  -3   42.21    2.04
 -14  -4  -2   14.24    1.25
 -14  -4  -1   30.29    1.71
  14   4  -1   31.15    1.72
 -14  -4   0  127.51    3.34
  14   4   0  135.15    3.34
 -14  -4   1   29.45    1.72
  14   4   1   34.28    1.63
  14   4   2   16.96    1.32
 -14  -4   2   17.39    1.57
 -14  -4   2   18.45    1.64
  -2  14  -4   17.39    1.53
  14   4   3   46.71    1.98
 -14  -4   3   50.44    2.48
  -3  14  -4   49.64    2.34
 -14  -4   4   88.29    3.10
 -14  -4   4  106.83    3.32
 -14  -4   5   11.85    1.59
  -5  14   5   18.26    1.67
  -4  14   5    5.33    1.41
 -14  -5  -4    4.57    1.10
   4 -14   5    7.11    0.87
 -14  -5  -3   46.68    2.33
   3 -14   5   48.26    2.04
 -14  -5  -2   16.33    1.53
  14   5  -2   18.11    1.53
 -14  -5  -1   38.80    1.96
  14   5  -1   36.00    1.80
  14   5   0    4.73    0.67
 -14  -5   1   31.03    1.71
  14   5   1   40.29    1.95
  14   5   2   16.61    1.54
 -14  -5   2   12.75    1.33
  14   5   3   55.11    2.33
 -14  -5   3   56.59    2.46
  14   5   4    8.48    0.90
 -14  -5   4    6.62    1.33
  14   5   5   15.93    1.64
  14   6  -1   56.72    2.34
  14   6   0   28.21    1.77
  14   6   1   56.37    2.22
  14   6   2   28.15    1.79
  -3  15   0   31.80    1.96
  -4  15   0   10.20    1.17
  -4  15   1    8.92    1.17
  -3  15   1   20.12    1.82
  -3  15  -1   24.96    1.94
  -4  15   2  116.44    3.42
  -3  15  -2   32.74    2.08
  -3  15  -3   27.34    1.90
   0   0   0    0.00    0.00

TITL FeCoSi_T120K_att-18_ in P2(1)3
REM P2(1)3 (#198 in standard setting)
CELL 0.19000   4.472680   4.473200   4.473450  90.0189  90.0248  90.0041
ZERR    4.00   0.000050   0.000030   0.000060   0.0008   0.0010   0.0007
LATT -1
SYMM -x+1/2,-y, z+1/2
SYMM -x, y+1/2,-z+1/2
SYMM  x+1/2,-y+1/2,-z
SYMM  z, x, y
SYMM  z+1/2,-x+1/2,-y
SYMM -z+1/2,-x, y+1/2
SYMM -z, x+1/2,-y+1/2
SYMM  y, z, x
SYMM -y, z+1/2,-x+1/2
SYMM  y+1/2,-z+1/2,-x
SYMM -y+1/2,-z, x+1/2
SFAC Si Fe
UNIT 4.00 4.00
TREF
HKLF 4
END
_computing_structure_solution     'SHELXT 2014/5 (Sheldrick, 2014)'
;
_shelx_hkl_checksum              39283
_publcif_info_exptl_table_max_cols 4
_publcif_info_exptl_table_use_headnotes n
loop_
_space_group_symop_operation_xyz
'x, y, z'
'-x+1/2, -y, z+1/2'
'-x, y+1/2, -z+1/2'
'x+1/2, -y+1/2, -z'
'z, x, y'
'z+1/2, -x+1/2, -y'
'-z+1/2, -x, y+1/2'
'-z, x+1/2, -y+1/2'
'y, z, x'
'-y, z+1/2, -x+1/2'
'y+1/2, -z+1/2, -x'
'-y+1/2, -z, x+1/2'
loop_
_atom_site_label
_atom_site_type_symbol
_atom_site_fract_x
_atom_site_fract_y
_atom_site_fract_z
_atom_site_U_iso_or_equiv
_atom_site_adp_type
_atom_site_occupancy
_atom_site_site_symmetry_order
_atom_site_calc_flag
_atom_site_refinement_flags_posn
_atom_site_refinement_flags_adp
_atom_site_refinement_flags_occupancy
Fe01 Fe 0.13757(2) 0.13757(2) 0.13757(2) 0.00264(2) Uani 0.6999 3 d S T P
Co01 Co 0.13757(2) 0.13757(2) 0.13757(2) 0.00264(2) Uani 0.3 3 d S T P
Si01 Si 0.84218(7) 0.84218(7) 0.84218(7) 0.00333(5) Uani 1 3 d S T P
loop_
_atom_site_aniso_label
_atom_site_aniso_U_11
_atom_site_aniso_U_22
_atom_site_aniso_U_33
_atom_site_aniso_U_23
_atom_site_aniso_U_13
_atom_site_aniso_U_12
Fe01 0.00264(2) 0.00264(2) 0.00264(2) 0.00004(2) 0.00004(2) 0.00004(2)
Co01 0.00264(2) 0.00264(2) 0.00264(2) 0.00004(2) 0.00004(2) 0.00004(2)
Si01 0.00333(5) 0.00333(5) 0.00333(5) -0.00021(5) -0.00021(5) -0.00021(5)
loop_
_atom_type_symbol
_atom_type_description
_atom_type_scat_dispersion_real
_atom_type_scat_dispersion_imag
_atom_type_scat_source
Si Si -0.0042 0.0043 'International Tables Vol C Tables 4.2.6.8 and 6.1.1.4'
Fe Fe 0.0259 0.0651 'International Tables Vol C Tables 4.2.6.8 and 6.1.1.4'
Co Co 0.0310 0.0764 'International Tables Vol C Tables 4.2.6.8 and 6.1.1.4'
loop_
_geom_angle_atom_site_label_1
_geom_angle_atom_site_label_2
_geom_angle_atom_site_label_3
_geom_angle
_geom_angle_site_symmetry_1
_geom_angle_site_symmetry_3
Si01 Fe01 Si01 73.624(5) 1_444 4_456
Si01 Fe01 Si01 73.624(5) 1_444 3_645
Si01 Fe01 Si01 112.381(4) 4_456 3_645
Si01 Fe01 Si01 73.624(5) 1_444 2_564
Si01 Fe01 Si01 112.381(4) 4_456 2_564
Si01 Fe01 Si01 112.381(4) 3_645 2_564
Si01 Fe01 Si01 140.265(3) 1_444 2_664
Si01 Fe01 Si01 69.788(6) 4_456 2_664
Si01 Fe01 Si01 106.615(18) 3_645 2_664
Si01 Fe01 Si01 135.236(12) 2_564 2_664
Si01 Fe01 Si01 140.265(3) 1_444 4_466
Si01 Fe01 Si01 135.236(12) 4_456 4_466
Si01 Fe01 Si01 69.788(6) 3_645 4_466
Si01 Fe01 Si01 106.615(18) 2_564 4_466
Si01 Fe01 Si01 67.228(5) 2_664 4_466
Si01 Fe01 Si01 140.265(3) 1_444 3_646
Si01 Fe01 Si01 106.615(18) 4_456 3_646
Si01 Fe01 Si01 135.236(12) 3_645 3_646
Si01 Fe01 Si01 69.788(6) 2_564 3_646
Si01 Fe01 Si01 67.228(5) 2_664 3_646
Si01 Fe01 Si01 67.228(5) 4_466 3_646
Si01 Fe01 Fe01 58.806(6) 1_444 4_455
Si01 Fe01 Fe01 132.366(10) 4_456 4_455
Si01 Fe01 Fe01 58.374(9) 3_645 4_455
Si01 Fe01 Fe01 54.014(7) 2_564 4_455
Si01 Fe01 Fe01 155.349(10) 2_664 4_455
Si01 Fe01 Fe01 88.480(5) 4_466 4_455
Si01 Fe01 Fe01 108.214(11) 3_646 4_455
Si01 Fe01 Co01 58.806(6) 1_444 4_455
Si01 Fe01 Co01 132.366(10) 4_456 4_455
Si01 Fe01 Co01 58.374(9) 3_645 4_455
Si01 Fe01 Co01 54.014(7) 2_564 4_455
Si01 Fe01 Co01 155.349(10) 2_664 4_455
Si01 Fe01 Co01 88.480(5) 4_466 4_455
Si01 Fe01 Co01 108.214(11) 3_646 4_455
Fe01 Fe01 Co01 0.000(5) 4_455 4_455
Si01 Fe01 Fe01 58.806(6) 1_444 3_545
Si01 Fe01 Fe01 54.014(7) 4_456 3_545
Si01 Fe01 Fe01 132.366(10) 3_645 3_545
Si01 Fe01 Fe01 58.374(9) 2_564 3_545
Si01 Fe01 Fe01 108.214(11) 2_664 3_545
Si01 Fe01 Fe01 155.349(10) 4_466 3_545
Si01 Fe01 Fe01 88.480(5) 3_646 3_545
Fe01 Fe01 Fe01 95.601(8) 4_455 3_545
Co01 Fe01 Fe01 95.6 4_455 3_545
Si01 Fe01 Co01 58.806(6) 1_444 3_545
Si01 Fe01 Co01 54.014(7) 4_456 3_545
Si01 Fe01 Co01 132.366(10) 3_645 3_545
Si01 Fe01 Co01 58.374(9) 2_564 3_545
Si01 Fe01 Co01 108.214(11) 2_664 3_545
Si01 Fe01 Co01 155.349(10) 4_466 3_545
Si01 Fe01 Co01 88.480(5) 3_646 3_545
Fe01 Fe01 Co01 95.601(8) 4_455 3_545
Co01 Fe01 Co01 95.601(8) 4_455 3_545
Fe01 Fe01 Co01 0.000(5) 3_545 3_545
Si01 Fe01 Co01 58.806(6) 1_444 2_554
Si01 Fe01 Co01 58.374(9) 4_456 2_554
Si01 Fe01 Co01 54.014(7) 3_645 2_554
Si01 Fe01 Co01 132.366(10) 2_564 2_554
Si01 Fe01 Co01 88.480(5) 2_664 2_554
Si01 Fe01 Co01 108.214(11) 4_466 2_554
Si01 Fe01 Co01 155.349(10) 3_646 2_554
Fe01 Fe01 Co01 95.601(7) 4_455 2_554
Co01 Fe01 Co01 95.601(7) 4_455 2_554
Fe01 Fe01 Co01 95.601(8) 3_545 2_554
Co01 Fe01 Co01 95.601(8) 3_545 2_554
Co01 Si01 Fe01 0.0 1_666 1_666
Co01 Si01 Co01 137.274(9) 1_666 4_556
Fe01 Si01 Co01 137.274(9) 1_666 4_556
Co01 Si01 Fe01 137.3 1_666 4_556
Fe01 Si01 Fe01 137.274(9) 1_666 4_556
Co01 Si01 Fe01 0.0 4_556 4_556
Co01 Si01 Co01 137.274(9) 1_666 3_655
Fe01 Si01 Co01 137.274(9) 1_666 3_655
Co01 Si01 Co01 71.973(13) 4_556 3_655
Fe01 Si01 Co01 71.973(13) 4_556 3_655
Co01 Si01 Co01 137.274(9) 1_666 2_565
Fe01 Si01 Co01 137.274(9) 1_666 2_565
Co01 Si01 Co01 71.973(13) 4_556 2_565
Fe01 Si01 Co01 71.973(13) 4_556 2_565
Co01 Si01 Co01 71.973(13) 3_655 2_565
Co01 Si01 Fe01 137.3 1_666 3_655
Fe01 Si01 Fe01 137.274(9) 1_666 3_655
Co01 Si01 Fe01 72.0 4_556 3_655
Fe01 Si01 Fe01 71.973(13) 4_556 3_655
Co01 Si01 Fe01 0.0 3_655 3_655
Co01 Si01 Fe01 72.0 2_565 3_655
Co01 Si01 Fe01 137.3 1_666 2_565
Fe01 Si01 Fe01 137.274(9) 1_666 2_565
Co01 Si01 Fe01 72.0 4_556 2_565
Fe01 Si01 Fe01 71.973(13) 4_556 2_565
Co01 Si01 Fe01 72.0 3_655 2_565
Co01 Si01 Fe01 0.0 2_565 2_565
Fe01 Si01 Fe01 71.973(13) 3_655 2_565
Co01 Si01 Co01 69.717(11) 1_666 3_656
Fe01 Si01 Co01 69.717(11) 1_666 3_656
Co01 Si01 Co01 69.018(3) 4_556 3_656
Fe01 Si01 Co01 69.018(3) 4_556 3_656
Co01 Si01 Co01 135.237(12) 3_655 3_656
Co01 Si01 Co01 114.331(9) 2_565 3_656
Fe01 Si01 Co01 135.237(12) 3_655 3_656
Fe01 Si01 Co01 114.331(9) 2_565 3_656
Co01 Si01 Fe01 69.7 1_666 3_656
Fe01 Si01 Fe01 69.717(11) 1_666 3_656
Co01 Si01 Fe01 69.0 4_556 3_656
Fe01 Si01 Fe01 69.018(3) 4_556 3_656
Co01 Si01 Fe01 135.2 3_655 3_656
Co01 Si01 Fe01 114.3 2_565 3_656
Fe01 Si01 Fe01 135.237(12) 3_655 3_656
Fe01 Si01 Fe01 114.331(9) 2_565 3_656
Co01 Si01 Fe01 0.0 3_656 3_656
Co01 Si01 Co01 69.717(11) 1_666 4_566
Fe01 Si01 Co01 69.717(11) 1_666 4_566
Co01 Si01 Co01 135.237(12) 4_556 4_566
Fe01 Si01 Co01 135.237(12) 4_556 4_566
Co01 Si01 Co01 114.331(9) 3_655 4_566
Co01 Si01 Co01 69.018(3) 2_565 4_566
Fe01 Si01 Co01 114.331(9) 3_655 4_566
Fe01 Si01 Co01 69.018(3) 2_565 4_566
Co01 Si01 Co01 108.648(11) 3_656 4_566
Fe01 Si01 Co01 108.648(11) 3_656 4_566
Co01 Si01 Co01 69.717(11) 1_666 2_665
Fe01 Si01 Co01 69.717(11) 1_666 2_665
Co01 Si01 Co01 114.331(9) 4_556 2_665
Fe01 Si01 Co01 114.331(9) 4_556 2_665
Co01 Si01 Co01 69.018(3) 3_655 2_665
Co01 Si01 Co01 135.237(12) 2_565 2_665
Fe01 Si01 Co01 69.018(3) 3_655 2_665
Fe01 Si01 Co01 135.237(12) 2_565 2_665
Co01 Si01 Co01 108.648(11) 3_656 2_665
Fe01 Si01 Co01 108.648(11) 3_656 2_665
Co01 Si01 Co01 108.648(11) 4_566 2_665
loop_
_geom_bond_atom_site_label_1
_geom_bond_atom_site_label_2
_geom_bond_distance
_geom_bond_site_symmetry_2
Fe01 Si01 2.2886(6) 1_444
Fe01 Si01 2.3348(5) 4_456
Fe01 Si01 2.3348(5) 3_645
Fe01 Si01 2.3348(5) 2_564
Fe01 Si01 2.5023(4) 2_664
Fe01 Si01 2.5023(4) 4_466
Fe01 Si01 2.5023(4) 3_646
Fe01 Fe01 2.7439(3) 4_455
Fe01 Co01 2.7439(3) 4_455
Fe01 Fe01 2.7439(3) 3_545
Fe01 Co01 2.7439(3) 3_545
Fe01 Co01 2.7439(3) 2_554
Si01 Co01 2.2886(6) 1_666
Si01 Fe01 2.2886(6) 1_666
Si01 Co01 2.3348(5) 4_556
Si01 Fe01 2.3348(5) 4_556
Si01 Co01 2.3348(5) 3_655
Si01 Co01 2.3348(5) 2_565
Si01 Fe01 2.3348(5) 3_655
Si01 Fe01 2.3348(5) 2_565
Si01 Co01 2.5023(4) 3_656
Si01 Fe01 2.5023(4) 3_656
Si01 Co01 2.5023(4) 4_566
Si01 Co01 2.5023(4) 2_665
loop_
_publcif_info_datablock.id
_publcif_info_datablock.publ_exptl
_publcif_info_datablock.publ_geom
_publcif_info_datablock.structure
{e91cbd34-598a-48bc-acaa-bbe466f08cee} y y y
loop_
_publcif_info_exptl_table_extra_item
sin_theta_over_lambda_max
loop_
_publcif_info_tables.block_id
_publcif_info_tables.reference_item
{e91cbd34-598a-48bc-acaa-bbe466f08cee} '_publcif_info_datablock.publ_exptl'
loop_
_publcif_info_cif.paper_type
EX
