#------------------------------------------------------------------------------
#$Date: 2018-07-21 22:54:28 +0300 (Sat, 21 Jul 2018) $
#$Revision: 209177 $
#$URL: file:///home/coder/svn-repositories/cod/cif/2/31/07/2310782.cif $
#------------------------------------------------------------------------------
#
# This file is available in the Crystallography Open Database (COD),
# http://www.crystallography.net/. The original data for this entry
# were provided by IUCr Journals, http://journals.iucr.org/.
#
# The file may be used within the scientific community so long as
# proper attribution is given to the journal article from which the
# data were obtained.
#
data_2310782
loop_
_publ_author_name
'Batuk, Dmitry'
'Batuk, Maria'
'Abakumov, Artem M.'
'Hadermann, Joke'
_publ_section_title
;
 Synergy between transmission electron microscopy and powder diffraction:
 application to modulated structures.
;
_journal_coden_ASTM              ACSBDA
_journal_coeditor_code           DQ5010
_journal_issue                   2
_journal_name_full
;
 Acta Crystallographica, Section B: Structural Science, Crystal Engineering
 and Materials
;
_journal_page_first              127
_journal_page_last               143
_journal_paper_doi               10.1107/S2052520615005466
_journal_volume                  71
_journal_year                    2015
_chemical_formula_sum            'Bi0.292 Fe1.042 O2.675 Pb0.671'
_chemical_formula_weight         301
_space_group_crystal_system      monoclinic
_space_group_IT_number           12
_space_group_name_Hall           '-I 2y'
_space_group_name_H-M_alt        'I 1 2/m 1'
_space_group_ssg_name            X2/m(\a0\g)00
_cell_angle_alpha                90
_cell_angle_beta                 91.913(2)
_cell_angle_gamma                90
_cell_formula_units_Z            1
_cell_length_a                   3.92131(11)
_cell_length_b                   3.91951(9)
_cell_length_c                   4.09255(13)
_cell_measurement_temperature    900
_cell_modulation_dimension       1
_cell_volume                     62.866(3)
_diffrn_ambient_temperature      900
_diffrn_radiation_probe          neutron
_diffrn_radiation_wavelength     1.8857
_exptl_absorpt_coefficient_mu    0.005
_exptl_crystal_density_diffrn    7.9516
_exptl_crystal_F_000             128
_pd_instr_location               ' ?'
_pd_meas_2theta_range_inc        0.05
_pd_meas_2theta_range_max        164.600
_pd_meas_2theta_range_min        3.650
_pd_meas_number_of_points        3220
_pd_proc_2theta_range_inc        0.05
_pd_proc_2theta_range_max        159.95
_pd_proc_2theta_range_min        7.05
_pd_proc_ls_background_function  '7 Legendre polynoms'
_pd_proc_ls_pref_orient_corr     none
_pd_proc_ls_profile_function     Pseudo-Voigt
_pd_proc_ls_prof_R_factor        0.0376
_pd_proc_ls_prof_wR_expected     0.0198
_pd_proc_ls_prof_wR_factor       0.0478
_refine_ls_goodness_of_fit_all   2.41
_refine_ls_number_constraints    7
_refine_ls_number_parameters     64
_refine_ls_number_restraints     0
_refine_ls_R_factor_all          0.0498
_refine_ls_R_factor_gt           0.0492
_refine_ls_shift/su_max          0.0873
_refine_ls_shift/su_mean         0.0289
_refine_ls_weighting_scheme      sigma
_refine_ls_wR_factor_all         0.0636
_refine_ls_wR_factor_gt          0.0636
_cod_data_source_file            dq5010sup3.cif
_cod_data_source_block           I
_cod_depositor_comments
;
 Updating space group information.

 Antanas Vaitkus,
 2018-07-22
;
_cod_database_code               2310782
loop_
_space_group_symop_id
_space_group_symop_operation_xyz
1 x,y,z
2 -x,y,-z
3 x+0.5,y+0.5,z+0.5
4 -x+0.5,y+0.5,-z+0.5
5 -x,-y,-z
6 x,-y,z
7 -x+0.5,-y+0.5,-z+0.5
8 x+0.5,-y+0.5,z+0.5
loop_
_space_group_symop_ssg_id
_space_group_symop_ssg_operation_algebraic
1 x1,x2,x3,x4
2 -x1,x2,-x3,-x4
3 -x1,-x2,-x3,-x4
4 x1,-x2,x3,x4
5 x1+1/2,x2+1/2,x3+1/2,x4+1/2
6 -x1+1/2,x2+1/2,-x3+1/2,-x4+1/2
7 -x1+1/2,-x2+1/2,-x3+1/2,-x4+1/2
8 x1+1/2,-x2+1/2,x3+1/2,x4+1/2
loop_
_atom_site_label
_atom_site_type_symbol
_atom_site_fract_x
_atom_site_fract_y
_atom_site_fract_z
_atom_site_adp_type
_atom_site_U_iso_or_equiv
_atom_site_site_symmetry_multiplicity
_atom_site_occupancy
_atom_site_calc_flag
Fe1 Fe 0 0 0 Uiso 0.0157(4) 2 0.52080(8) d
Pb1 Pb 0 0 0 Uiso 0.0529(11) 2 0.33544(6) d
Bi1 Bi 0 0 0 Uiso 0.0529(11) 2 0.146 d
O1 O 0 0.5 0 Uani 0.0383(16) 2 0.52080(8) d
O2 O 0.5 0 0 Uiso 0.0438(15) 2 0.38763(17) d
O3 O 0 0 0.5 Uiso 0.0475(12) 2 0.42922(8) d
loop_
_atom_site_aniso_label
_atom_site_aniso_type_symbol
_atom_site_aniso_U_11
_atom_site_aniso_U_22
_atom_site_aniso_U_33
_atom_site_aniso_U_12
_atom_site_aniso_U_13
_atom_site_aniso_U_23
O1 O 0.058(3) 0.0072(13) 0.049(3) 0 -0.007(2) 0
loop_
_atom_site_Fourier_wave_vector_seq_id
_jana_atom_site_fourier_wave_vector_q1_coeff
1 1
2 2
loop_
_atom_site_occ_special_func_atom_site_label
_atom_site_occ_special_func_crenel_c
_atom_site_occ_special_func_crenel_w
Fe1 0 0.52080(8)
Pb1 0.5 0.47920(8)
Bi1 0.5 0.4868
O1 0 0.52080(8)
O2 0 0.38763(17)
O3 0 0.42922(8)
loop_
_atom_type_symbol
_atom_type_scat_length_neutron
_atom_type_scat_source
Pb 9.405 International_Tables_Vol_C
Bi 8.532 International_Tables_Vol_C
Fe 9.450 International_Tables_Vol_C
O 5.803 International_Tables_Vol_C
loop_
_cell_wave_vector_seq_id
_cell_wave_vector_x
_cell_wave_vector_y
_cell_wave_vector_z
1 0.049979 0.000000 0.091576
loop_
_geom_angle_atom_site_label_1
_geom_angle_atom_site_label_2
_geom_angle_atom_site_label_3
_geom_angle_site_ssg_symmetry_1
_geom_angle_site_ssg_symmetry_3
_geom_angle_av
_geom_angle_min
_geom_angle_max
Fe1 Fe1 Fe1 1_4555 1_5455 90.0(3) 90.0(2) 90.0(2)
Fe1 Fe1 Fe1 1_4555 1_5545 90.8(3) 88.5(2) 91.5(3)
Fe1 Fe1 Fe1 1_4555 1_5565 89.3(3) 87.1(3) 93.1(3)
Fe1 Fe1 Fe1 1_4555 1_5655 90.0(3) 90.0(2) 90.0(2)
Fe1 Fe1 Fe1 1_4555 1_6555 178.7(3) 177.3(3) 180.0(5)
Fe1 Fe1 Fe1 1_4555 5_4445 51.3(3) 50.9(3) 51.6(3)
Fe1 Fe1 Fe1 1_4555 5_4455 52.2(3) 51.5(3) 52.9(3)
Fe1 Fe1 Fe1 1_4555 5_4545 51.3(3) 50.9(3) 51.6(3)
Fe1 Fe1 Fe1 1_4555 5_4555 52.2(3) 51.5(3) 52.9(3)
Fe1 Fe1 Fe1 1_4555 5_5455 127.9(3) 126.9(3) 130.4(3)
Fe1 Fe1 Fe1 1_4555 5_5555 127.9(3) 126.9(3) 130.4(3)
Fe1 Fe1 Pb1 1_4555 1_5545 86.3(5) 85.6(5) 86.7(5)
Fe1 Fe1 Pb1 1_4555 1_5565 91.4(5) 90.6(5) 92.8(5)
Fe1 Fe1 Pb1 1_4555 5_4445 55.9(5) 53.2(5) 60.4(5)
Fe1 Fe1 Pb1 1_4555 5_4455 54.8(5) 52.2(4) 61.8(5)
Fe1 Fe1 Pb1 1_4555 5_4545 55.9(5) 53.2(5) 60.4(5)
Fe1 Fe1 Pb1 1_4555 5_4555 54.8(5) 52.2(4) 61.8(5)
Fe1 Fe1 Pb1 1_4555 5_5445 124.4(5) 115.4(5) 126.2(4)
Fe1 Fe1 Pb1 1_4555 5_5455 124.6(5) 118.1(6) 126.7(5)
Fe1 Fe1 Pb1 1_4555 5_5545 124.4(5) 115.4(5) 126.2(4)
Fe1 Fe1 Pb1 1_4555 5_5555 124.6(5) 118.1(6) 126.7(5)
Fe1 Fe1 Bi1 1_4555 1_5545 86.7(5) 86.1(5) 87.0(5)
Fe1 Fe1 Bi1 1_4555 . 112(2) 112(2) 112(2)
Fe1 Fe1 Bi1 1_4555 1_5565 91.2(5) 90.4(5) 92.8(5)
Fe1 Fe1 Bi1 1_4555 5_4445 56.0(5) 53.2(5) 60.9(5)
Fe1 Fe1 Bi1 1_4555 5_4455 54.8(5) 52.1(4) 61.8(5)
Fe1 Fe1 Bi1 1_4555 5_4545 56.0(5) 53.2(5) 60.9(5)
Fe1 Fe1 Bi1 1_4555 5_4555 54.8(5) 52.1(4) 61.8(5)
Fe1 Fe1 Bi1 1_4555 5_5445 124.4(5) 115.6(5) 126.2(4)
Fe1 Fe1 Bi1 1_4555 5_5455 124.5(5) 117.5(6) 126.7(5)
Fe1 Fe1 Bi1 1_4555 5_5545 124.4(5) 115.6(5) 126.2(4)
Fe1 Fe1 Bi1 1_4555 5_5555 124.5(5) 117.5(6) 126.7(5)
Fe1 Fe1 O1 1_4555 1_5455 89.7(15) 86.3(14) 92.8(15)
Fe1 Fe1 O1 1_4555 . 89.7(15) 86.3(14) 92.8(15)
Fe1 Fe1 O1 1_4555 5_4445 21.4(9) 19.0(9) 23.0(10)
Fe1 Fe1 O1 1_4555 5_4455 23.2(9) 22.5(10) 23.6(9)
Fe1 Fe1 O1 1_4555 5_5455 156.0(10) 154.2(10) 158.9(10)
Fe1 Fe1 O2 1_4555 1_4555 9.4(5) 0.6(3) 14.3(6)
Fe1 Fe1 O2 1_4555 . 169.4(6) 163.1(6) 179.6(3)
Fe1 Fe1 O3 1_4555 1_5545 91.0(4) 87.7(4) 94.3(4)
Fe1 Fe1 O3 1_4555 . 89.6(4) 87.4(3) 92.0(5)
Fe1 Fe1 Fe1 1_5455 1_5545 90.00(14) 90 90
Fe1 Fe1 Fe1 1_5455 1_5565 90.00(14) 90 90
Fe1 Fe1 Fe1 1_5455 1_5655 180.0(5) 180.0(5) 180.0(5)
Fe1 Fe1 Fe1 1_5455 1_6555 90.00(16) 90 90
Fe1 Fe1 Fe1 1_5455 5_4445 50.8(2) 50.55(19) 51.0(2)
Fe1 Fe1 Fe1 1_5455 5_4455 50.3(2) 50.1(2) 50.5(2)
Fe1 Fe1 Fe1 1_5455 5_4545 129.2(3) 129.0(3) 129.5(2)
Fe1 Fe1 Fe1 1_5455 5_4555 129.7(2) 129.5(2) 129.9(2)
Fe1 Fe1 Fe1 1_5455 5_5445 50.3(2) 50.1(2) 50.5(2)
Fe1 Fe1 Fe1 1_5455 5_5455 50.8(2) 50.55(19) 51.0(2)
Fe1 Fe1 Fe1 1_5455 5_5545 129.7(2) 129.5(2) 129.9(2)
Fe1 Fe1 Fe1 1_5455 5_5555 129.2(3) 129.0(3) 129.5(2)
Fe1 Fe1 Pb1 1_5455 1_5545 90.00(13) 90.00(8) 90.00(8)
Fe1 Fe1 Pb1 1_5455 1_5565 90.00(13) 90.0(2) 90.0(2)
Fe1 Fe1 Pb1 1_5455 5_4445 55.3(3) 53.6(3) 59.3(2)
Fe1 Fe1 Pb1 1_5455 5_4455 56.0(3) 54.0(3) 57.8(3)
Fe1 Fe1 Pb1 1_5455 5_4545 124.7(3) 120.7(2) 126.4(5)
Fe1 Fe1 Pb1 1_5455 5_4555 124.0(4) 122.2(3) 126.0(4)
Fe1 Fe1 Pb1 1_5455 5_5445 56.0(3) 54.0(3) 57.8(3)
Fe1 Fe1 Pb1 1_5455 5_5455 55.3(3) 53.6(3) 59.3(2)
Fe1 Fe1 Pb1 1_5455 5_5545 124.0(4) 122.2(3) 126.0(4)
Fe1 Fe1 Pb1 1_5455 5_5555 124.7(3) 120.7(2) 126.4(5)
Fe1 Fe1 Bi1 1_5455 1_5545 90.00(13) 90.00(8) 90.00(8)
Fe1 Fe1 Bi1 1_5455 . 90.00(9) 90.00(9) 90.00(9)
Fe1 Fe1 Bi1 1_5455 1_5565 90.00(13) 90.0(2) 90.0(2)
Fe1 Fe1 Bi1 1_5455 5_4445 55.2(3) 53.5(3) 59.3(2)
Fe1 Fe1 Bi1 1_5455 5_4455 56.0(3) 54.0(3) 57.9(3)
Fe1 Fe1 Bi1 1_5455 5_4545 124.8(4) 120.7(2) 126.5(5)
Fe1 Fe1 Bi1 1_5455 5_4555 124.0(4) 122.1(3) 126.0(4)
Fe1 Fe1 Bi1 1_5455 5_5445 56.0(3) 54.0(3) 57.9(3)
Fe1 Fe1 Bi1 1_5455 5_5455 55.2(3) 53.5(3) 59.3(2)
Fe1 Fe1 Bi1 1_5455 5_5545 124.0(4) 122.1(3) 126.0(4)
Fe1 Fe1 Bi1 1_5455 5_5555 124.8(4) 120.7(2) 126.5(5)
Fe1 Fe1 O1 1_5455 1_5455 11.9(9) 0.0(5) 18.9(8)
Fe1 Fe1 O1 1_5455 . 168.1(9) 161.1(9) 180.0(5)
Fe1 Fe1 O1 1_5455 5_4445 90.00(15) 90.00(10) 90.00(10)
Fe1 Fe1 O1 1_5455 5_4455 90.00(11) 90.00(13) 90.00(13)
Fe1 Fe1 O1 1_5455 5_5445 90.00(11) 90.00(11) 90.00(11)
Fe1 Fe1 O1 1_5455 5_5455 90.00(15) 90.0(2) 90.0(2)
Fe1 Fe1 O2 1_5455 1_4555 90.00(16) 90 90
Fe1 Fe1 O2 1_5455 . 90.00(16) 90 90
Fe1 Fe1 O3 1_5455 1_5545 90.00(14) 90 90
Fe1 Fe1 O3 1_5455 . 90.00(14) 90 90
Fe1 Fe1 Fe1 1_5545 1_5565 178.6(4) 177.4(4) 180.0(5)
Fe1 Fe1 Fe1 1_5545 1_5655 90.0(2) 90.0(2) 90.0(2)
Fe1 Fe1 Fe1 1_5545 1_6555 89.3(3) 87.1(3) 93.1(3)
Fe1 Fe1 Fe1 1_5545 5_4455 117.0(3) 116.3(3) 117.3(3)
Fe1 Fe1 Fe1 1_5545 5_4555 117.0(3) 116.3(3) 117.3(3)
Fe1 Fe1 Fe1 1_5545 5_5455 118.5(3) 115.8(3) 119.8(3)
Fe1 Fe1 Fe1 1_5545 5_5555 118.5(3) 115.8(3) 119.8(3)
Fe1 Fe1 Pb1 1_5545 1_5565 179.1(5) 177.6(6) 179.8(5)
Fe1 Fe1 Pb1 1_5545 5_4445 53.7(5) 46.7(4) 57.9(5)
Fe1 Fe1 Pb1 1_5545 5_4455 126.1(5) 123.9(5) 131.9(4)
Fe1 Fe1 Pb1 1_5545 5_4545 53.7(5) 46.7(4) 57.9(5)
Fe1 Fe1 Pb1 1_5545 5_4555 126.1(5) 123.9(5) 131.9(4)
Fe1 Fe1 Pb1 1_5545 5_5445 52.2(4) 44.9(4) 54.9(5)
Fe1 Fe1 Pb1 1_5545 5_5455 124.7(5) 122.4(5) 130.5(5)
Fe1 Fe1 Pb1 1_5545 5_5545 52.2(4) 44.9(4) 54.9(5)
Fe1 Fe1 Pb1 1_5545 5_5555 124.7(5) 122.4(5) 130.5(5)
Fe1 Fe1 Bi1 1_5545 . 24(2) 24(2) 24(2)
Fe1 Fe1 Bi1 1_5545 1_5565 179.4(5) 178.0(6) 180.0(5)
Fe1 Fe1 Bi1 1_5545 5_4445 53.7(5) 46.5(4) 57.8(5)
Fe1 Fe1 Bi1 1_5545 5_4455 126.1(5) 123.9(5) 131.9(4)
Fe1 Fe1 Bi1 1_5545 5_4545 53.7(5) 46.5(4) 57.8(5)
Fe1 Fe1 Bi1 1_5545 5_4555 126.1(5) 123.9(5) 131.9(4)
Fe1 Fe1 Bi1 1_5545 5_5445 52.2(4) 44.7(4) 54.9(5)
Fe1 Fe1 Bi1 1_5545 5_5455 124.8(5) 122.5(5) 131.1(5)
Fe1 Fe1 Bi1 1_5545 5_5545 52.2(4) 44.7(4) 54.9(5)
Fe1 Fe1 Bi1 1_5545 5_5555 124.8(5) 122.5(5) 131.1(5)
Fe1 Fe1 O1 1_5545 1_5455 94.0(9) 74.9(9) 108.4(8)
Fe1 Fe1 O1 1_5545 . 94.0(9) 74.9(9) 108.4(8)
Fe1 Fe1 O1 1_5545 5_4455 112.2(10) 111.9(10) 112.4(9)
Fe1 Fe1 O1 1_5545 5_5455 114.5(10) 110.9(9) 116.4(10)
Fe1 Fe1 O2 1_5545 1_4555 90.9(6) 76.9(8) 104.3(7)
Fe1 Fe1 O2 1_5545 . 91.0(5) 73.5(6) 105.6(8)
Fe1 Fe1 O3 1_5545 1_5545 1.1(3) 0.0(5) 5.8(4)
Fe1 Fe1 O3 1_5545 . 178.6(4) 177.0(7) 180.0(5)
Fe1 Fe1 Fe1 1_5565 1_5655 90.0(2) 90.0(2) 90.0(2)
Fe1 Fe1 Fe1 1_5565 1_6555 90.8(3) 88.5(3) 91.5(3)
Fe1 Fe1 Fe1 1_5565 5_4445 118.5(3) 115.8(3) 119.8(3)
Fe1 Fe1 Fe1 1_5565 5_4545 118.5(3) 115.8(3) 119.8(3)
Fe1 Fe1 Fe1 1_5565 5_5445 117.0(3) 116.3(3) 117.3(3)
Fe1 Fe1 Fe1 1_5565 5_5545 117.0(3) 116.3(3) 117.3(3)
Fe1 Fe1 Pb1 1_5565 1_5545 179.1(5) 177.6(6) 179.8(5)
Fe1 Fe1 Pb1 1_5565 5_4445 124.7(5) 122.4(5) 130.5(5)
Fe1 Fe1 Pb1 1_5565 5_4455 52.2(4) 44.9(4) 54.9(5)
Fe1 Fe1 Pb1 1_5565 5_4545 124.7(5) 122.4(5) 130.5(5)
Fe1 Fe1 Pb1 1_5565 5_4555 52.2(4) 44.9(4) 54.9(5)
Fe1 Fe1 Pb1 1_5565 5_5445 126.1(5) 123.9(5) 131.9(4)
Fe1 Fe1 Pb1 1_5565 5_5455 53.7(5) 46.7(4) 57.9(5)
Fe1 Fe1 Pb1 1_5565 5_5545 126.1(5) 123.9(5) 131.9(4)
Fe1 Fe1 Pb1 1_5565 5_5555 53.7(5) 46.7(4) 57.9(5)
Fe1 Fe1 Bi1 1_5565 1_5545 179.4(5) 178.0(6) 180.0(5)
Fe1 Fe1 Bi1 1_5565 . 24(2) 24(2) 24(2)
Fe1 Fe1 Bi1 1_5565 5_4445 124.8(5) 122.5(5) 131.1(5)
Fe1 Fe1 Bi1 1_5565 5_4455 52.2(4) 44.7(4) 54.9(5)
Fe1 Fe1 Bi1 1_5565 5_4545 124.8(5) 122.5(5) 131.1(5)
Fe1 Fe1 Bi1 1_5565 5_4555 52.2(4) 44.7(4) 54.9(5)
Fe1 Fe1 Bi1 1_5565 5_5445 126.1(5) 123.9(5) 131.9(4)
Fe1 Fe1 Bi1 1_5565 5_5455 53.7(5) 46.5(4) 57.8(5)
Fe1 Fe1 Bi1 1_5565 5_5545 126.1(5) 123.9(5) 131.9(4)
Fe1 Fe1 Bi1 1_5565 5_5555 53.7(5) 46.5(4) 57.8(5)
Fe1 Fe1 O1 1_5565 1_5455 94.0(9) 74.9(9) 108.4(8)
Fe1 Fe1 O1 1_5565 . 94.0(9) 74.9(9) 108.4(8)
Fe1 Fe1 O1 1_5565 5_4445 114.5(10) 110.9(9) 116.4(10)
Fe1 Fe1 O1 1_5565 5_5445 112.2(10) 111.9(10) 112.4(9)
Fe1 Fe1 O2 1_5565 1_4555 91.0(5) 73.5(6) 105.6(8)
Fe1 Fe1 O2 1_5565 . 90.9(6) 76.9(8) 104.3(7)
Fe1 Fe1 O3 1_5565 1_5545 178.6(4) 177.0(7) 180.0(5)
Fe1 Fe1 O3 1_5565 . 1.1(3) 0.0(5) 5.8(4)
Fe1 Fe1 Fe1 1_5655 1_6555 90.00(16) 90 90
Fe1 Fe1 Fe1 1_5655 5_4445 129.2(3) 129.0(3) 129.5(2)
Fe1 Fe1 Fe1 1_5655 5_4455 129.7(2) 129.5(2) 129.9(2)
Fe1 Fe1 Fe1 1_5655 5_4545 50.8(2) 50.55(19) 51.0(2)
Fe1 Fe1 Fe1 1_5655 5_4555 50.3(2) 50.1(2) 50.5(2)
Fe1 Fe1 Fe1 1_5655 5_5445 129.7(2) 129.5(2) 129.9(2)
Fe1 Fe1 Fe1 1_5655 5_5455 129.2(3) 129.0(3) 129.5(2)
Fe1 Fe1 Fe1 1_5655 5_5545 50.3(2) 50.1(2) 50.5(2)
Fe1 Fe1 Fe1 1_5655 5_5555 50.8(2) 50.55(19) 51.0(2)
Fe1 Fe1 Pb1 1_5655 1_5545 90.00(13) 90.00(8) 90.00(8)
Fe1 Fe1 Pb1 1_5655 1_5565 90.00(13) 90.0(2) 90.0(2)
Fe1 Fe1 Pb1 1_5655 5_4445 124.7(3) 120.7(2) 126.4(5)
Fe1 Fe1 Pb1 1_5655 5_4455 124.0(4) 122.2(3) 126.0(4)
Fe1 Fe1 Pb1 1_5655 5_4545 55.3(3) 53.6(3) 59.3(2)
Fe1 Fe1 Pb1 1_5655 5_4555 56.0(3) 54.0(3) 57.8(3)
Fe1 Fe1 Pb1 1_5655 5_5445 124.0(4) 122.2(3) 126.0(4)
Fe1 Fe1 Pb1 1_5655 5_5455 124.7(3) 120.7(2) 126.4(5)
Fe1 Fe1 Pb1 1_5655 5_5545 56.0(3) 54.0(3) 57.8(3)
Fe1 Fe1 Pb1 1_5655 5_5555 55.3(3) 53.6(3) 59.3(2)
Fe1 Fe1 Bi1 1_5655 1_5545 90.00(13) 90.00(8) 90.00(8)
Fe1 Fe1 Bi1 1_5655 . 90.00(9) 90.00(9) 90.00(9)
Fe1 Fe1 Bi1 1_5655 1_5565 90.00(13) 90.0(2) 90.0(2)
Fe1 Fe1 Bi1 1_5655 5_4445 124.8(4) 120.7(2) 126.5(5)
Fe1 Fe1 Bi1 1_5655 5_4455 124.0(4) 122.1(3) 126.0(4)
Fe1 Fe1 Bi1 1_5655 5_4545 55.2(3) 53.5(3) 59.3(2)
Fe1 Fe1 Bi1 1_5655 5_4555 56.0(3) 54.0(3) 57.9(3)
Fe1 Fe1 Bi1 1_5655 5_5445 124.0(4) 122.1(3) 126.0(4)
Fe1 Fe1 Bi1 1_5655 5_5455 124.8(4) 120.7(2) 126.5(5)
Fe1 Fe1 Bi1 1_5655 5_5545 56.0(3) 54.0(3) 57.9(3)
Fe1 Fe1 Bi1 1_5655 5_5555 55.2(3) 53.5(3) 59.3(2)
Fe1 Fe1 O1 1_5655 1_5455 168.1(9) 161.1(9) 180.0(5)
Fe1 Fe1 O1 1_5655 . 11.9(9) 0.0(5) 18.9(8)
Fe1 Fe1 O1 1_5655 5_4445 90.00(15) 90.00(10) 90.00(10)
Fe1 Fe1 O1 1_5655 5_4455 90.00(11) 90.00(13) 90.00(13)
Fe1 Fe1 O1 1_5655 5_5445 90.00(11) 90.00(11) 90.00(11)
Fe1 Fe1 O1 1_5655 5_5455 90.00(15) 90.0(2) 90.0(2)
Fe1 Fe1 O2 1_5655 1_4555 90.00(16) 90 90
Fe1 Fe1 O2 1_5655 . 90.00(16) 90 90
Fe1 Fe1 O3 1_5655 1_5545 90.00(14) 90 90
Fe1 Fe1 O3 1_5655 . 90.00(14) 90 90
Fe1 Fe1 Fe1 1_6555 5_4445 127.9(3) 126.9(3) 130.4(3)
Fe1 Fe1 Fe1 1_6555 5_4545 127.9(3) 126.9(3) 130.4(3)
Fe1 Fe1 Fe1 1_6555 5_5445 52.2(3) 51.5(3) 52.9(3)
Fe1 Fe1 Fe1 1_6555 5_5455 51.3(3) 50.9(3) 51.6(3)
Fe1 Fe1 Fe1 1_6555 5_5545 52.2(3) 51.5(3) 52.9(3)
Fe1 Fe1 Fe1 1_6555 5_5555 51.3(3) 50.9(3) 51.6(3)
Fe1 Fe1 Pb1 1_6555 1_5545 91.4(5) 90.6(5) 92.8(5)
Fe1 Fe1 Pb1 1_6555 1_5565 86.3(5) 85.6(5) 86.7(5)
Fe1 Fe1 Pb1 1_6555 5_4445 124.6(5) 118.1(6) 126.7(5)
Fe1 Fe1 Pb1 1_6555 5_4455 124.4(5) 115.4(5) 126.2(4)
Fe1 Fe1 Pb1 1_6555 5_4545 124.6(5) 118.1(6) 126.7(5)
Fe1 Fe1 Pb1 1_6555 5_4555 124.4(5) 115.4(5) 126.2(4)
Fe1 Fe1 Pb1 1_6555 5_5445 54.8(5) 52.2(4) 61.8(5)
Fe1 Fe1 Pb1 1_6555 5_5455 55.9(5) 53.2(5) 60.4(5)
Fe1 Fe1 Pb1 1_6555 5_5545 54.8(5) 52.2(4) 61.8(5)
Fe1 Fe1 Pb1 1_6555 5_5555 55.9(5) 53.2(5) 60.4(5)
Fe1 Fe1 Bi1 1_6555 1_5545 91.2(5) 90.4(5) 92.8(5)
Fe1 Fe1 Bi1 1_6555 . 112(2) 112(2) 112(2)
Fe1 Fe1 Bi1 1_6555 1_5565 86.7(5) 86.1(5) 87.0(5)
Fe1 Fe1 Bi1 1_6555 5_4445 124.5(5) 117.5(6) 126.7(5)
Fe1 Fe1 Bi1 1_6555 5_4455 124.4(5) 115.6(5) 126.2(4)
Fe1 Fe1 Bi1 1_6555 5_4545 124.5(5) 117.5(6) 126.7(5)
Fe1 Fe1 Bi1 1_6555 5_4555 124.4(5) 115.6(5) 126.2(4)
Fe1 Fe1 Bi1 1_6555 5_5445 54.8(5) 52.1(4) 61.8(5)
Fe1 Fe1 Bi1 1_6555 5_5455 56.0(5) 53.2(5) 60.9(5)
Fe1 Fe1 Bi1 1_6555 5_5545 54.8(5) 52.1(4) 61.8(5)
Fe1 Fe1 Bi1 1_6555 5_5555 56.0(5) 53.2(5) 60.9(5)
Fe1 Fe1 O1 1_6555 1_5455 89.7(15) 86.3(14) 92.8(15)
Fe1 Fe1 O1 1_6555 . 89.7(15) 86.3(14) 92.8(15)
Fe1 Fe1 O1 1_6555 5_4445 156.0(10) 154.2(10) 158.9(10)
Fe1 Fe1 O1 1_6555 5_5445 23.2(9) 22.5(10) 23.6(9)
Fe1 Fe1 O1 1_6555 5_5455 21.4(9) 19.0(9) 23.0(10)
Fe1 Fe1 O2 1_6555 1_4555 169.4(6) 163.1(6) 179.6(3)
Fe1 Fe1 O2 1_6555 . 9.4(5) 0.6(3) 14.3(6)
Fe1 Fe1 O3 1_6555 1_5545 89.6(4) 87.4(3) 92.0(5)
Fe1 Fe1 O3 1_6555 . 91.0(4) 87.7(4) 94.3(4)
Fe1 Fe1 Fe1 5_4445 5_4545 78.3(3) 78.0(2) 78.9(2)
Fe1 Fe1 Fe1 5_4445 5_5445 76.5(3) 75.8(3) 77.6(3)
Fe1 Fe1 Fe1 5_4445 5_5545 125.0(3) 124.0(3) 127.0(3)
Fe1 Fe1 Pb1 5_4445 1_5545 60.9(3) 59.9(3) 63.2(4)
Fe1 Fe1 Pb1 5_4445 5_4455 71.3(4) 68.3(4) 72.6(4)
Fe1 Fe1 Pb1 5_4445 5_4555 111.0(5) 108.0(5) 112.2(5)
Fe1 Fe1 Pb1 5_4445 5_5445 75.1(4) 74.8(4) 75.4(5)
Fe1 Fe1 Pb1 5_4445 5_5455 107.5(3) 106.1(3) 108.1(3)
Fe1 Fe1 Pb1 5_4445 5_5545 116.2(5) 115.0(4) 117.9(5)
Fe1 Fe1 Pb1 5_4445 5_5555 166.8(5) 162.5(4) 168.6(5)
Fe1 Fe1 Bi1 5_4445 1_5545 61.0(3) 60.1(3) 63.3(4)
Fe1 Fe1 Bi1 5_4445 . 98.2(16) 98.2(16) 98.2(16)
Fe1 Fe1 Bi1 5_4445 5_4445 14.2(5) 14.2(5) 14.2(5)
Fe1 Fe1 Bi1 5_4445 5_4455 71.4(4) 68.3(4) 72.7(4)
Fe1 Fe1 Bi1 5_4445 5_4545 77.6(4) 77.6(4) 77.6(4)
Fe1 Fe1 Bi1 5_4445 5_4555 110.8(5) 107.9(5) 112.0(5)
Fe1 Fe1 Bi1 5_4445 5_5445 75.1(4) 74.7(4) 75.6(4)
Fe1 Fe1 Bi1 5_4445 5_5455 107.5(3) 106.1(3) 108.0(3)
Fe1 Fe1 Bi1 5_4445 5_5545 116.2(5) 115.2(4) 118.0(5)
Fe1 Fe1 Bi1 5_4445 5_5555 166.7(5) 162.3(4) 168.6(5)
Fe1 Fe1 O1 5_4445 1_5455 42.1(13) 40.2(13) 46.2(13)
Fe1 Fe1 O1 5_4445 . 117.5(11) 116.3(11) 120.7(11)
Fe1 Fe1 O1 5_4445 5_4445 41.1(3) 40.6(3) 42.1(3)
Fe1 Fe1 O1 5_4445 5_5445 113.2(7) 111.9(7) 115.3(7)
Fe1 Fe1 O2 5_4445 . 117.9(5) 117.3(5) 118.9(5)
Fe1 Fe1 O3 5_4445 . 116.9(4) 111.6(4) 119.0(3)
Fe1 Fe1 Fe1 5_4455 5_4555 79.4(2) 79.1(2) 79.8(2)
Fe1 Fe1 Fe1 5_4455 5_5455 76.5(3) 75.8(3) 77.6(3)
Fe1 Fe1 Fe1 5_4455 5_5555 125.0(3) 124.0(3) 127.0(3)
Fe1 Fe1 Pb1 5_4455 1_5565 63.4(3) 63.1(3) 63.8(3)
Fe1 Fe1 Pb1 5_4455 5_4445 69.7(4) 68.4(4) 70.5(4)
Fe1 Fe1 Pb1 5_4455 5_4545 108.6(4) 108.2(5) 108.8(4)
Fe1 Fe1 Pb1 5_4455 5_5445 105.4(3) 104.5(3) 105.9(3)
Fe1 Fe1 Pb1 5_4455 5_5545 162.8(4) 161.7(4) 163.3(4)
Fe1 Fe1 Bi1 5_4455 . 131.8(11) 131.8(11) 131.8(11)
Fe1 Fe1 Bi1 5_4455 1_5565 63.3(3) 63.0(3) 63.7(3)
Fe1 Fe1 Bi1 5_4455 5_4445 69.9(4) 68.5(4) 70.7(4)
Fe1 Fe1 Bi1 5_4455 5_4455 9.6(3) 9.6(3) 9.6(3)
Fe1 Fe1 Bi1 5_4455 5_4545 108.8(4) 108.3(5) 109.0(4)
Fe1 Fe1 Bi1 5_4455 5_4555 72.6(3) 72.6(3) 72.6(3)
Fe1 Fe1 Bi1 5_4455 5_5445 105.7(3) 104.9(3) 106.1(3)
Fe1 Fe1 Bi1 5_4455 5_5545 162.7(4) 161.6(4) 163.2(4)
Fe1 Fe1 O1 5_4455 1_5455 39.6(14) 37.3(13) 41.5(14)
Fe1 Fe1 O1 5_4455 . 116.2(12) 114.7(12) 118.1(12)
Fe1 Fe1 O1 5_4455 5_4455 41.7(3) 41.5(3) 42.1(3)
Fe1 Fe1 O1 5_4455 5_5455 111.6(7) 111.1(8) 112.8(7)
Fe1 Fe1 O3 5_4455 1_5545 119.7(3) 117.9(3) 121.1(3)
Fe1 Fe1 Fe1 5_4545 5_5445 125.0(3) 124.0(3) 127.0(3)
Fe1 Fe1 Fe1 5_4545 5_5545 76.5(3) 75.8(3) 77.6(3)
Fe1 Fe1 Pb1 5_4545 1_5545 60.9(3) 59.9(3) 63.2(4)
Fe1 Fe1 Pb1 5_4545 5_4455 111.0(5) 108.0(5) 112.2(5)
Fe1 Fe1 Pb1 5_4545 5_4555 71.3(4) 68.3(4) 72.6(4)
Fe1 Fe1 Pb1 5_4545 5_5445 116.2(5) 115.0(4) 117.9(5)
Fe1 Fe1 Pb1 5_4545 5_5455 166.8(5) 162.5(4) 168.6(5)
Fe1 Fe1 Pb1 5_4545 5_5545 75.1(4) 74.8(4) 75.4(5)
Fe1 Fe1 Pb1 5_4545 5_5555 107.5(3) 106.1(3) 108.1(3)
Fe1 Fe1 Bi1 5_4545 1_5545 61.0(3) 60.1(3) 63.3(4)
Fe1 Fe1 Bi1 5_4545 . 98.2(16) 98.2(16) 98.2(16)
Fe1 Fe1 Bi1 5_4545 5_4445 77.6(4) 77.6(4) 77.6(4)
Fe1 Fe1 Bi1 5_4545 5_4455 110.8(5) 107.9(5) 112.0(5)
Fe1 Fe1 Bi1 5_4545 5_4545 14.2(5) 14.2(5) 14.2(5)
Fe1 Fe1 Bi1 5_4545 5_4555 71.4(4) 68.3(4) 72.7(4)
Fe1 Fe1 Bi1 5_4545 5_5445 116.2(5) 115.2(4) 118.0(5)
Fe1 Fe1 Bi1 5_4545 5_5455 166.7(5) 162.3(4) 168.6(5)
Fe1 Fe1 Bi1 5_4545 5_5545 75.1(4) 74.7(4) 75.6(4)
Fe1 Fe1 Bi1 5_4545 5_5555 107.5(3) 106.1(3) 108.0(3)
Fe1 Fe1 O1 5_4545 1_5455 117.5(11) 116.3(11) 120.7(11)
Fe1 Fe1 O1 5_4545 . 42.1(13) 40.2(13) 46.2(13)
Fe1 Fe1 O1 5_4545 5_4445 41.1(3) 40.6(3) 42.1(3)
Fe1 Fe1 O1 5_4545 5_5445 113.2(7) 111.9(7) 115.3(7)
Fe1 Fe1 O2 5_4545 . 117.9(5) 117.3(5) 118.9(5)
Fe1 Fe1 O3 5_4545 . 116.9(4) 111.6(4) 119.0(3)
Fe1 Fe1 Fe1 5_4555 5_5455 125.0(3) 124.0(3) 127.0(3)
Fe1 Fe1 Fe1 5_4555 5_5555 76.5(3) 75.8(3) 77.6(3)
Fe1 Fe1 Pb1 5_4555 1_5565 63.4(3) 63.1(3) 63.8(3)
Fe1 Fe1 Pb1 5_4555 5_4445 108.6(4) 108.2(5) 108.8(4)
Fe1 Fe1 Pb1 5_4555 5_4545 69.7(4) 68.4(4) 70.5(4)
Fe1 Fe1 Pb1 5_4555 5_5445 162.8(4) 161.7(4) 163.3(4)
Fe1 Fe1 Pb1 5_4555 5_5545 105.4(3) 104.5(3) 105.9(3)
Fe1 Fe1 Bi1 5_4555 . 131.8(11) 131.8(11) 131.8(11)
Fe1 Fe1 Bi1 5_4555 1_5565 63.3(3) 63.0(3) 63.7(3)
Fe1 Fe1 Bi1 5_4555 5_4445 108.8(4) 108.3(5) 109.0(4)
Fe1 Fe1 Bi1 5_4555 5_4455 72.6(3) 72.6(3) 72.6(3)
Fe1 Fe1 Bi1 5_4555 5_4545 69.9(4) 68.5(4) 70.7(4)
Fe1 Fe1 Bi1 5_4555 5_4555 9.6(3) 9.6(3) 9.6(3)
Fe1 Fe1 Bi1 5_4555 5_5445 162.7(4) 161.6(4) 163.2(4)
Fe1 Fe1 Bi1 5_4555 5_5545 105.7(3) 104.9(3) 106.1(3)
Fe1 Fe1 O1 5_4555 1_5455 116.2(12) 114.7(12) 118.1(12)
Fe1 Fe1 O1 5_4555 . 39.6(14) 37.3(13) 41.5(14)
Fe1 Fe1 O1 5_4555 5_4455 41.7(3) 41.5(3) 42.1(3)
Fe1 Fe1 O1 5_4555 5_5455 111.6(7) 111.1(8) 112.8(7)
Fe1 Fe1 O3 5_4555 1_5545 119.7(3) 117.9(3) 121.1(3)
Fe1 Fe1 Fe1 5_5445 5_5545 79.4(2) 79.1(2) 79.8(2)
Fe1 Fe1 Pb1 5_5445 1_5545 63.4(3) 63.1(3) 63.8(3)
Fe1 Fe1 Pb1 5_5445 5_4455 105.4(3) 104.5(3) 105.9(3)
Fe1 Fe1 Pb1 5_5445 5_4555 162.8(4) 161.7(4) 163.3(4)
Fe1 Fe1 Pb1 5_5445 5_5455 69.7(4) 68.4(4) 70.5(4)
Fe1 Fe1 Pb1 5_5445 5_5555 108.6(4) 108.2(5) 108.8(4)
Fe1 Fe1 Bi1 5_5445 1_5545 63.3(3) 63.0(3) 63.7(3)
Fe1 Fe1 Bi1 5_5445 . 131.8(11) 131.8(11) 131.8(11)
Fe1 Fe1 Bi1 5_5445 5_4455 105.7(3) 104.9(3) 106.1(3)
Fe1 Fe1 Bi1 5_5445 5_4555 162.7(4) 161.6(4) 163.2(4)
Fe1 Fe1 Bi1 5_5445 5_5445 9.6(3) 9.6(3) 9.6(3)
Fe1 Fe1 Bi1 5_5445 5_5455 69.9(4) 68.5(4) 70.7(4)
Fe1 Fe1 Bi1 5_5445 5_5545 72.6(3) 72.6(3) 72.6(3)
Fe1 Fe1 Bi1 5_5445 5_5555 108.8(4) 108.3(5) 109.0(4)
Fe1 Fe1 O1 5_5445 1_5455 39.6(14) 37.3(13) 41.5(14)
Fe1 Fe1 O1 5_5445 . 116.2(12) 114.7(12) 118.1(12)
Fe1 Fe1 O1 5_5445 5_4445 111.6(7) 111.1(8) 112.8(7)
Fe1 Fe1 O1 5_5445 5_5445 41.7(3) 41.5(3) 42.1(3)
Fe1 Fe1 O3 5_5445 . 119.7(3) 117.9(3) 121.1(3)
Fe1 Fe1 Fe1 5_5455 5_5555 78.3(3) 78.0(2) 78.9(2)
Fe1 Fe1 Pb1 5_5455 1_5565 60.9(3) 59.9(3) 63.2(4)
Fe1 Fe1 Pb1 5_5455 5_4445 107.5(3) 106.1(3) 108.1(3)
Fe1 Fe1 Pb1 5_5455 5_4455 75.1(4) 74.8(4) 75.4(5)
Fe1 Fe1 Pb1 5_5455 5_4545 166.8(5) 162.5(4) 168.6(5)
Fe1 Fe1 Pb1 5_5455 5_4555 116.2(5) 115.0(4) 117.9(5)
Fe1 Fe1 Pb1 5_5455 5_5445 71.3(4) 68.3(4) 72.6(4)
Fe1 Fe1 Pb1 5_5455 5_5545 111.0(5) 108.0(5) 112.2(5)
Fe1 Fe1 Bi1 5_5455 . 98.2(16) 98.2(16) 98.2(16)
Fe1 Fe1 Bi1 5_5455 1_5565 61.0(3) 60.1(3) 63.3(4)
Fe1 Fe1 Bi1 5_5455 5_4445 107.5(3) 106.1(3) 108.0(3)
Fe1 Fe1 Bi1 5_5455 5_4455 75.1(4) 74.7(4) 75.6(4)
Fe1 Fe1 Bi1 5_5455 5_4545 166.7(5) 162.3(4) 168.6(5)
Fe1 Fe1 Bi1 5_5455 5_4555 116.2(5) 115.2(4) 118.0(5)
Fe1 Fe1 Bi1 5_5455 5_5445 71.4(4) 68.3(4) 72.7(4)
Fe1 Fe1 Bi1 5_5455 5_5455 14.2(5) 14.2(5) 14.2(5)
Fe1 Fe1 Bi1 5_5455 5_5545 110.8(5) 107.9(5) 112.0(5)
Fe1 Fe1 Bi1 5_5455 5_5555 77.6(4) 77.6(4) 77.6(4)
Fe1 Fe1 O1 5_5455 1_5455 42.1(13) 40.2(13) 46.2(13)
Fe1 Fe1 O1 5_5455 . 117.5(11) 116.3(11) 120.7(11)
Fe1 Fe1 O1 5_5455 5_4455 113.2(7) 111.9(7) 115.3(7)
Fe1 Fe1 O1 5_5455 5_5455 41.1(3) 40.6(3) 42.1(3)
Fe1 Fe1 O2 5_5455 1_4555 117.9(5) 117.3(5) 118.9(5)
Fe1 Fe1 O3 5_5455 1_5545 116.9(4) 111.6(4) 119.0(3)
Fe1 Fe1 Pb1 5_5545 1_5545 63.4(3) 63.1(3) 63.8(3)
Fe1 Fe1 Pb1 5_5545 5_4455 162.8(4) 161.7(4) 163.3(4)
Fe1 Fe1 Pb1 5_5545 5_4555 105.4(3) 104.5(3) 105.9(3)
Fe1 Fe1 Pb1 5_5545 5_5455 108.6(4) 108.2(5) 108.8(4)
Fe1 Fe1 Pb1 5_5545 5_5555 69.7(4) 68.4(4) 70.5(4)
Fe1 Fe1 Bi1 5_5545 1_5545 63.3(3) 63.0(3) 63.7(3)
Fe1 Fe1 Bi1 5_5545 . 131.8(11) 131.8(11) 131.8(11)
Fe1 Fe1 Bi1 5_5545 5_4455 162.7(4) 161.6(4) 163.2(4)
Fe1 Fe1 Bi1 5_5545 5_4555 105.7(3) 104.9(3) 106.1(3)
Fe1 Fe1 Bi1 5_5545 5_5445 72.6(3) 72.6(3) 72.6(3)
Fe1 Fe1 Bi1 5_5545 5_5455 108.8(4) 108.3(5) 109.0(4)
Fe1 Fe1 Bi1 5_5545 5_5545 9.6(3) 9.6(3) 9.6(3)
Fe1 Fe1 Bi1 5_5545 5_5555 69.9(4) 68.5(4) 70.7(4)
Fe1 Fe1 O1 5_5545 1_5455 116.2(12) 114.7(12) 118.1(12)
Fe1 Fe1 O1 5_5545 . 39.6(14) 37.3(13) 41.5(14)
Fe1 Fe1 O1 5_5545 5_4445 111.6(7) 111.1(8) 112.8(7)
Fe1 Fe1 O1 5_5545 5_5445 41.7(3) 41.5(3) 42.1(3)
Fe1 Fe1 O3 5_5545 . 119.7(3) 117.9(3) 121.1(3)
Fe1 Fe1 Pb1 5_5555 1_5565 60.9(3) 59.9(3) 63.2(4)
Fe1 Fe1 Pb1 5_5555 5_4445 166.8(5) 162.5(4) 168.6(5)
Fe1 Fe1 Pb1 5_5555 5_4455 116.2(5) 115.0(4) 117.9(5)
Fe1 Fe1 Pb1 5_5555 5_4545 107.5(3) 106.1(3) 108.1(3)
Fe1 Fe1 Pb1 5_5555 5_4555 75.1(4) 74.8(4) 75.4(5)
Fe1 Fe1 Pb1 5_5555 5_5445 111.0(5) 108.0(5) 112.2(5)
Fe1 Fe1 Pb1 5_5555 5_5545 71.3(4) 68.3(4) 72.6(4)
Fe1 Fe1 Bi1 5_5555 . 98.2(16) 98.2(16) 98.2(16)
Fe1 Fe1 Bi1 5_5555 1_5565 61.0(3) 60.1(3) 63.3(4)
Fe1 Fe1 Bi1 5_5555 5_4445 166.7(5) 162.3(4) 168.6(5)
Fe1 Fe1 Bi1 5_5555 5_4455 116.2(5) 115.2(4) 118.0(5)
Fe1 Fe1 Bi1 5_5555 5_4545 107.5(3) 106.1(3) 108.0(3)
Fe1 Fe1 Bi1 5_5555 5_4555 75.1(4) 74.7(4) 75.6(4)
Fe1 Fe1 Bi1 5_5555 5_5445 110.8(5) 107.9(5) 112.0(5)
Fe1 Fe1 Bi1 5_5555 5_5455 77.6(4) 77.6(4) 77.6(4)
Fe1 Fe1 Bi1 5_5555 5_5545 71.4(4) 68.3(4) 72.7(4)
Fe1 Fe1 Bi1 5_5555 5_5555 14.2(5) 14.2(5) 14.2(5)
Fe1 Fe1 O1 5_5555 1_5455 117.5(11) 116.3(11) 120.7(11)
Fe1 Fe1 O1 5_5555 . 42.1(13) 40.2(13) 46.2(13)
Fe1 Fe1 O1 5_5555 5_4455 113.2(7) 111.9(7) 115.3(7)
Fe1 Fe1 O1 5_5555 5_5455 41.1(3) 40.6(3) 42.1(3)
Fe1 Fe1 O2 5_5555 1_4555 117.9(5) 117.3(5) 118.9(5)
Fe1 Fe1 O3 5_5555 1_5545 116.9(4) 111.6(4) 119.0(3)
Pb1 Fe1 Pb1 1_5545 5_4455 132.1(4) 128.8(5) 134.3(5)
Pb1 Fe1 Pb1 1_5545 5_4555 132.1(4) 128.8(5) 134.3(5)
Pb1 Fe1 Pb1 1_5545 5_5445 56.2(5) 55.2(4) 57.5(5)
Pb1 Fe1 Pb1 1_5545 5_5455 132.4(5) 131.4(5) 134.2(5)
Pb1 Fe1 Pb1 1_5545 5_5545 56.2(5) 55.2(4) 57.5(5)
Pb1 Fe1 Pb1 1_5545 5_5555 132.4(5) 131.4(5) 134.2(5)
Pb1 Fe1 Bi1 1_5545 1_5545 0.2(5) 0.0(5) 0.5(5)
Pb1 Fe1 Bi1 1_5545 . 155(2) 155(2) 155(2)
Pb1 Fe1 Bi1 1_5545 5_4445 47.4(4) 47.4(4) 47.4(4)
Pb1 Fe1 Bi1 1_5545 5_4455 132.2(4) 128.8(5) 134.5(5)
Pb1 Fe1 Bi1 1_5545 5_4545 47.4(4) 47.4(4) 47.4(4)
Pb1 Fe1 Bi1 1_5545 5_4555 132.2(4) 128.8(5) 134.5(5)
Pb1 Fe1 Bi1 1_5545 5_5445 56.2(5) 55.1(5) 57.6(5)
Pb1 Fe1 Bi1 1_5545 5_5455 132.4(5) 131.4(5) 134.5(5)
Pb1 Fe1 Bi1 1_5545 5_5545 56.2(5) 55.1(5) 57.6(5)
Pb1 Fe1 Bi1 1_5545 5_5555 132.4(5) 131.4(5) 134.5(5)
Pb1 Fe1 O1 1_5545 1_5455 72.5(8) 71.7(8) 74.1(8)
Pb1 Fe1 O1 1_5545 . 72.5(8) 71.7(8) 74.1(8)
Pb1 Fe1 O1 1_5545 5_4445 64.6(10) 63.4(10) 66.6(9)
Pb1 Fe1 O1 1_5545 5_5445 68.4(10) 68.0(10) 69.3(10)
Pb1 Fe1 O2 1_5545 . 77.1(6) 76.4(6) 78.3(7)
Pb1 Fe1 O3 1_5545 . 176.8(5) 172.9(6) 178.4(5)
Pb1 Fe1 Pb1 1_5565 5_4445 132.4(5) 131.4(5) 134.2(5)
Pb1 Fe1 Pb1 1_5565 5_4455 56.2(5) 55.2(4) 57.5(5)
Pb1 Fe1 Pb1 1_5565 5_4545 132.4(5) 131.4(5) 134.2(5)
Pb1 Fe1 Pb1 1_5565 5_4555 56.2(5) 55.2(4) 57.5(5)
Pb1 Fe1 Pb1 1_5565 5_5445 132.1(4) 128.8(5) 134.3(5)
Pb1 Fe1 Pb1 1_5565 5_5545 132.1(4) 128.8(5) 134.3(5)
Pb1 Fe1 Bi1 1_5565 . 155(2) 155(2) 155(2)
Pb1 Fe1 Bi1 1_5565 1_5565 0.2(5) 0.0(5) 0.5(5)
Pb1 Fe1 Bi1 1_5565 5_4445 132.4(5) 131.4(5) 134.5(5)
Pb1 Fe1 Bi1 1_5565 5_4455 56.2(5) 55.1(5) 57.6(5)
Pb1 Fe1 Bi1 1_5565 5_4545 132.4(5) 131.4(5) 134.5(5)
Pb1 Fe1 Bi1 1_5565 5_4555 56.2(5) 55.1(5) 57.6(5)
Pb1 Fe1 Bi1 1_5565 5_5445 132.2(4) 128.8(5) 134.5(5)
Pb1 Fe1 Bi1 1_5565 5_5455 47.4(4) 47.4(4) 47.4(4)
Pb1 Fe1 Bi1 1_5565 5_5545 132.2(4) 128.8(5) 134.5(5)
Pb1 Fe1 Bi1 1_5565 5_5555 47.4(4) 47.4(4) 47.4(4)
Pb1 Fe1 O1 1_5565 1_5455 72.5(8) 71.7(8) 74.1(8)
Pb1 Fe1 O1 1_5565 . 72.5(8) 71.7(8) 74.1(8)
Pb1 Fe1 O1 1_5565 5_4455 68.4(10) 68.0(10) 69.3(10)
Pb1 Fe1 O1 1_5565 5_5455 64.6(10) 63.4(10) 66.6(9)
Pb1 Fe1 O2 1_5565 1_4555 77.1(6) 76.4(6) 78.3(7)
Pb1 Fe1 O3 1_5565 1_5545 176.8(5) 172.9(6) 178.4(5)
Pb1 Fe1 Pb1 5_4445 5_4455 71.7(5) 67.9(5) 80.9(4)
Pb1 Fe1 Pb1 5_4445 5_4545 69.5(3) 61.5(3) 72.9(4)
Pb1 Fe1 Pb1 5_4445 5_4555 109.7(6) 107.1(5) 118.4(6)
Pb1 Fe1 Pb1 5_4445 5_5445 68.4(5) 57.9(5) 72.9(5)
Pb1 Fe1 Pb1 5_4445 5_5455 109.0(3) 108.8(3) 109.8(3)
Pb1 Fe1 Pb1 5_4445 5_5545 105.8(5) 91.4(4) 112.7(6)
Pb1 Fe1 Pb1 5_4445 5_5555 178.4(5) 175.6(7) 180.0(5)
Pb1 Fe1 Bi1 5_4445 . 65.2(18) 65.2(18) 65.2(18)
Pb1 Fe1 Bi1 5_4445 1_5565 132.2(5) 131.2(5) 134.2(4)
Pb1 Fe1 Bi1 5_4445 5_4445 0.1(5) 0.0(5) 0.7(5)
Pb1 Fe1 Bi1 5_4445 5_4455 71.8(5) 67.9(5) 80.9(4)
Pb1 Fe1 Bi1 5_4445 5_4545 69.5(3) 61.5(3) 72.9(4)
Pb1 Fe1 Bi1 5_4445 5_4555 109.8(6) 107.1(5) 118.3(6)
Pb1 Fe1 Bi1 5_4445 5_5445 68.4(5) 58.1(5) 72.9(5)
Pb1 Fe1 Bi1 5_4445 5_5455 109.0(3) 108.8(3) 110.0(3)
Pb1 Fe1 Bi1 5_4445 5_5545 105.8(5) 91.3(4) 112.7(6)
Pb1 Fe1 Bi1 5_4445 5_5555 178.4(5) 175.2(7) 180.0(5)
Pb1 Fe1 O1 5_4445 1_5455 58.6(11) 40.2(11) 72.6(10)
Pb1 Fe1 O1 5_4445 . 127.5(12) 112.3(11) 136.6(12)
Pb1 Fe1 O1 5_4445 5_4455 77.1(9) 76.6(9) 77.3(9)
Pb1 Fe1 O1 5_4445 5_5455 138.7(7) 136.7(7) 139.7(7)
Pb1 Fe1 O2 5_4445 1_4555 56.1(5) 46.8(5) 69.7(6)
Pb1 Fe1 O2 5_4445 . 126.0(5) 107.8(6) 134.0(6)
Pb1 Fe1 O3 5_4445 1_5545 53.9(3) 49.0(2) 58.3(4)
Pb1 Fe1 O3 5_4445 . 125.0(4) 122.1(3) 130.7(4)
Pb1 Fe1 Pb1 5_4455 5_4545 109.7(6) 107.1(5) 118.4(7)
Pb1 Fe1 Pb1 5_4455 5_4555 68.1(3) 64.4(3) 72.0(4)
Pb1 Fe1 Pb1 5_4455 5_5445 111.5(3) 109.9(3) 114.4(3)
Pb1 Fe1 Pb1 5_4455 5_5455 68.4(5) 57.9(5) 72.9(5)
Pb1 Fe1 Pb1 5_4455 5_5545 175.9(5) 171.5(6) 180.0(5)
Pb1 Fe1 Pb1 5_4455 5_5555 105.8(5) 91.4(4) 112.7(5)
Pb1 Fe1 Bi1 5_4455 1_5545 132.3(4) 129.1(5) 134.3(3)
Pb1 Fe1 Bi1 5_4455 . 34.0(5) 34.0(5) 34.0(5)
Pb1 Fe1 Bi1 5_4455 1_5565 56.0(4) 55.0(4) 57.2(4)
Pb1 Fe1 Bi1 5_4455 5_4445 71.8(5) 68.0(4) 81.9(6)
Pb1 Fe1 Bi1 5_4455 5_4455 0.1(4) 0.0(5) 0.4(3)
Pb1 Fe1 Bi1 5_4455 5_4545 109.9(6) 107.1(5) 119.5(7)
Pb1 Fe1 Bi1 5_4455 5_4555 68.1(3) 64.3(3) 72.0(4)
Pb1 Fe1 Bi1 5_4455 5_5445 111.5(3) 109.9(3) 114.6(3)
Pb1 Fe1 Bi1 5_4455 5_5455 68.3(5) 57.6(5) 72.9(5)
Pb1 Fe1 Bi1 5_4455 5_5545 175.8(5) 170.7(5) 180.0(5)
Pb1 Fe1 Bi1 5_4455 5_5555 105.9(5) 91.2(4) 112.7(5)
Pb1 Fe1 O1 5_4455 1_5455 58.5(12) 47.0(13) 74.9(10)
Pb1 Fe1 O1 5_4455 . 125.5(12) 110.2(12) 140.5(11)
Pb1 Fe1 O1 5_4455 5_4445 80.0(9) 74.1(9) 82.7(9)
Pb1 Fe1 O1 5_4455 5_5445 134.6(6) 132.9(6) 135.8(7)
Pb1 Fe1 O1 5_4455 5_5455 109.1(8) 107.6(8) 111.2(8)
Pb1 Fe1 O2 5_4455 1_4555 54.8(4) 42.7(4) 69.2(8)
Pb1 Fe1 O2 5_4455 . 125.1(5) 115.1(8) 133.4(6)
Pb1 Fe1 O3 5_4455 1_5545 126.0(4) 123.4(6) 129.6(5)
Pb1 Fe1 O3 5_4455 . 52.1(3) 41.4(2) 56.3(4)
Pb1 Fe1 Pb1 5_4545 5_4555 71.7(5) 67.9(5) 80.9(4)
Pb1 Fe1 Pb1 5_4545 5_5445 105.8(5) 91.4(4) 112.7(6)
Pb1 Fe1 Pb1 5_4545 5_5455 178.4(5) 175.6(7) 180.0(5)
Pb1 Fe1 Pb1 5_4545 5_5545 68.4(5) 57.9(5) 72.9(5)
Pb1 Fe1 Pb1 5_4545 5_5555 109.0(3) 108.8(3) 109.8(3)
Pb1 Fe1 Bi1 5_4545 . 65.2(18) 65.2(18) 65.2(18)
Pb1 Fe1 Bi1 5_4545 1_5565 132.2(5) 131.2(5) 134.2(4)
Pb1 Fe1 Bi1 5_4545 5_4445 69.5(3) 61.5(3) 72.9(4)
Pb1 Fe1 Bi1 5_4545 5_4455 109.8(6) 107.1(5) 118.3(6)
Pb1 Fe1 Bi1 5_4545 5_4545 0.1(5) 0.0(5) 0.7(5)
Pb1 Fe1 Bi1 5_4545 5_4555 71.8(5) 67.9(5) 80.9(4)
Pb1 Fe1 Bi1 5_4545 5_5445 105.8(5) 91.3(4) 112.7(6)
Pb1 Fe1 Bi1 5_4545 5_5455 178.4(5) 175.2(7) 180.0(5)
Pb1 Fe1 Bi1 5_4545 5_5545 68.4(5) 58.1(5) 72.9(5)
Pb1 Fe1 Bi1 5_4545 5_5555 109.0(3) 108.8(3) 110.0(3)
Pb1 Fe1 O1 5_4545 1_5455 127.5(12) 112.3(11) 136.6(12)
Pb1 Fe1 O1 5_4545 . 58.6(11) 40.2(11) 72.6(10)
Pb1 Fe1 O1 5_4545 5_4455 77.1(9) 76.6(9) 77.3(9)
Pb1 Fe1 O1 5_4545 5_5455 138.7(7) 136.7(7) 139.7(7)
Pb1 Fe1 O2 5_4545 1_4555 56.1(5) 46.8(5) 69.7(6)
Pb1 Fe1 O2 5_4545 . 126.0(5) 107.8(6) 134.0(6)
Pb1 Fe1 O3 5_4545 1_5545 53.9(3) 49.0(2) 58.3(4)
Pb1 Fe1 O3 5_4545 . 125.0(4) 122.1(3) 130.7(4)
Pb1 Fe1 Pb1 5_4555 5_5445 175.9(5) 171.5(6) 180.0(5)
Pb1 Fe1 Pb1 5_4555 5_5455 105.8(5) 91.4(4) 112.7(5)
Pb1 Fe1 Pb1 5_4555 5_5545 111.5(3) 109.9(3) 114.4(3)
Pb1 Fe1 Pb1 5_4555 5_5555 68.4(5) 57.9(5) 72.9(5)
Pb1 Fe1 Bi1 5_4555 1_5545 132.3(4) 129.1(5) 134.3(3)
Pb1 Fe1 Bi1 5_4555 . 34.0(5) 34.0(5) 34.0(5)
Pb1 Fe1 Bi1 5_4555 1_5565 56.0(4) 55.0(4) 57.2(4)
Pb1 Fe1 Bi1 5_4555 5_4445 109.9(6) 107.1(5) 119.5(7)
Pb1 Fe1 Bi1 5_4555 5_4455 68.1(3) 64.3(3) 72.0(4)
Pb1 Fe1 Bi1 5_4555 5_4545 71.8(5) 68.0(4) 81.9(6)
Pb1 Fe1 Bi1 5_4555 5_4555 0.1(4) 0.0(5) 0.4(3)
Pb1 Fe1 Bi1 5_4555 5_5445 175.8(5) 170.7(5) 180.0(5)
Pb1 Fe1 Bi1 5_4555 5_5455 105.9(5) 91.2(4) 112.7(5)
Pb1 Fe1 Bi1 5_4555 5_5545 111.5(3) 109.9(3) 114.6(3)
Pb1 Fe1 Bi1 5_4555 5_5555 68.3(5) 57.6(5) 72.9(5)
Pb1 Fe1 O1 5_4555 1_5455 125.5(12) 110.2(12) 140.5(11)
Pb1 Fe1 O1 5_4555 . 58.5(12) 47.0(13) 74.9(10)
Pb1 Fe1 O1 5_4555 5_4445 80.0(9) 74.1(9) 82.7(9)
Pb1 Fe1 O1 5_4555 5_5445 134.6(6) 132.9(6) 135.8(7)
Pb1 Fe1 O1 5_4555 5_5455 109.1(8) 107.6(8) 111.2(8)
Pb1 Fe1 O2 5_4555 1_4555 54.8(4) 42.7(4) 69.2(8)
Pb1 Fe1 O2 5_4555 . 125.1(5) 115.1(8) 133.4(6)
Pb1 Fe1 O3 5_4555 1_5545 126.0(4) 123.4(6) 129.6(5)
Pb1 Fe1 O3 5_4555 . 52.1(3) 41.4(2) 56.3(4)
Pb1 Fe1 Pb1 5_5445 5_5455 71.7(5) 67.9(4) 80.9(6)
Pb1 Fe1 Pb1 5_5445 5_5545 68.1(3) 64.4(3) 72.0(4)
Pb1 Fe1 Pb1 5_5445 5_5555 109.7(6) 107.1(5) 118.4(7)
Pb1 Fe1 Bi1 5_5445 1_5545 56.0(4) 55.0(4) 57.2(4)
Pb1 Fe1 Bi1 5_5445 . 34.0(5) 34.0(5) 34.0(5)
Pb1 Fe1 Bi1 5_5445 1_5565 132.3(4) 129.1(5) 134.3(3)
Pb1 Fe1 Bi1 5_5445 5_4445 68.3(5) 57.6(5) 72.9(5)
Pb1 Fe1 Bi1 5_5445 5_4455 111.5(3) 109.9(3) 114.6(3)
Pb1 Fe1 Bi1 5_5445 5_4545 105.9(5) 91.2(4) 112.7(5)
Pb1 Fe1 Bi1 5_5445 5_4555 175.8(5) 170.7(5) 180.0(5)
Pb1 Fe1 Bi1 5_5445 5_5445 0.1(4) 0.0(5) 0.4(3)
Pb1 Fe1 Bi1 5_5445 5_5455 71.8(5) 68.0(4) 81.9(6)
Pb1 Fe1 Bi1 5_5445 5_5545 68.1(3) 64.3(3) 72.0(4)
Pb1 Fe1 Bi1 5_5445 5_5555 109.9(6) 107.1(5) 119.5(7)
Pb1 Fe1 O1 5_5445 1_5455 58.5(12) 47.0(13) 74.9(10)
Pb1 Fe1 O1 5_5445 . 125.5(12) 110.2(12) 140.5(11)
Pb1 Fe1 O1 5_5445 5_4445 109.1(8) 107.6(8) 111.2(8)
Pb1 Fe1 O1 5_5445 5_4455 134.6(6) 132.9(6) 135.8(7)
Pb1 Fe1 O1 5_5445 5_5455 80.0(9) 74.1(9) 82.7(9)
Pb1 Fe1 O2 5_5445 1_4555 125.1(5) 115.1(8) 133.4(6)
Pb1 Fe1 O2 5_5445 . 54.8(4) 42.7(4) 69.2(8)
Pb1 Fe1 O3 5_5445 1_5545 52.1(3) 41.4(2) 56.3(4)
Pb1 Fe1 O3 5_5445 . 126.0(4) 123.4(6) 129.6(5)
Pb1 Fe1 Pb1 5_5455 5_5545 109.7(6) 107.1(5) 118.4(6)
Pb1 Fe1 Pb1 5_5455 5_5555 69.5(3) 61.5(3) 72.9(4)
Pb1 Fe1 Bi1 5_5455 1_5545 132.2(5) 131.2(5) 134.2(4)
Pb1 Fe1 Bi1 5_5455 . 65.2(18) 65.2(18) 65.2(18)
Pb1 Fe1 Bi1 5_5455 5_4445 109.0(3) 108.8(3) 110.0(3)
Pb1 Fe1 Bi1 5_5455 5_4455 68.4(5) 58.1(5) 72.9(5)
Pb1 Fe1 Bi1 5_5455 5_4545 178.4(5) 175.2(7) 180.0(5)
Pb1 Fe1 Bi1 5_5455 5_4555 105.8(5) 91.3(4) 112.7(6)
Pb1 Fe1 Bi1 5_5455 5_5445 71.8(5) 67.9(5) 80.9(4)
Pb1 Fe1 Bi1 5_5455 5_5455 0.1(5) 0.0(5) 0.7(5)
Pb1 Fe1 Bi1 5_5455 5_5545 109.8(6) 107.1(5) 118.3(6)
Pb1 Fe1 Bi1 5_5455 5_5555 69.5(3) 61.5(3) 72.9(4)
Pb1 Fe1 O1 5_5455 1_5455 58.6(11) 40.2(11) 72.6(10)
Pb1 Fe1 O1 5_5455 . 127.5(12) 112.3(11) 136.6(12)
Pb1 Fe1 O1 5_5455 5_4445 138.7(7) 136.7(7) 139.7(7)
Pb1 Fe1 O1 5_5455 5_5445 77.1(9) 76.6(9) 77.3(9)
Pb1 Fe1 O2 5_5455 1_4555 126.0(5) 107.8(6) 134.0(6)
Pb1 Fe1 O2 5_5455 . 56.1(5) 46.8(5) 69.7(6)
Pb1 Fe1 O3 5_5455 1_5545 125.0(4) 122.1(3) 130.7(4)
Pb1 Fe1 O3 5_5455 . 53.9(3) 49.0(2) 58.3(4)
Pb1 Fe1 Pb1 5_5545 5_5555 71.7(5) 67.9(4) 80.9(6)
Pb1 Fe1 Bi1 5_5545 1_5545 56.0(4) 55.0(4) 57.2(4)
Pb1 Fe1 Bi1 5_5545 . 34.0(5) 34.0(5) 34.0(5)
Pb1 Fe1 Bi1 5_5545 1_5565 132.3(4) 129.1(5) 134.3(3)
Pb1 Fe1 Bi1 5_5545 5_4445 105.9(5) 91.2(4) 112.7(5)
Pb1 Fe1 Bi1 5_5545 5_4455 175.8(5) 170.7(5) 180.0(5)
Pb1 Fe1 Bi1 5_5545 5_4545 68.3(5) 57.6(5) 72.9(5)
Pb1 Fe1 Bi1 5_5545 5_4555 111.5(3) 109.9(3) 114.6(3)
Pb1 Fe1 Bi1 5_5545 5_5445 68.1(3) 64.3(3) 72.0(4)
Pb1 Fe1 Bi1 5_5545 5_5455 109.9(6) 107.1(5) 119.5(7)
Pb1 Fe1 Bi1 5_5545 5_5545 0.1(4) 0.0(5) 0.4(3)
Pb1 Fe1 Bi1 5_5545 5_5555 71.8(5) 68.0(4) 81.9(6)
Pb1 Fe1 O1 5_5545 1_5455 125.5(12) 110.2(12) 140.5(11)
Pb1 Fe1 O1 5_5545 . 58.5(12) 47.0(13) 74.9(10)
Pb1 Fe1 O1 5_5545 5_4445 109.1(8) 107.6(8) 111.2(8)
Pb1 Fe1 O1 5_5545 5_4455 134.6(6) 132.9(6) 135.8(7)
Pb1 Fe1 O1 5_5545 5_5455 80.0(9) 74.1(9) 82.7(9)
Pb1 Fe1 O2 5_5545 1_4555 125.1(5) 115.1(8) 133.4(6)
Pb1 Fe1 O2 5_5545 . 54.8(4) 42.7(4) 69.2(8)
Pb1 Fe1 O3 5_5545 1_5545 52.1(3) 41.4(2) 56.3(4)
Pb1 Fe1 O3 5_5545 . 126.0(4) 123.4(6) 129.6(5)
Pb1 Fe1 Bi1 5_5555 1_5545 132.2(5) 131.2(5) 134.2(4)
Pb1 Fe1 Bi1 5_5555 . 65.2(18) 65.2(18) 65.2(18)
Pb1 Fe1 Bi1 5_5555 5_4445 178.4(5) 175.2(7) 180.0(5)
Pb1 Fe1 Bi1 5_5555 5_4455 105.8(5) 91.3(4) 112.7(6)
Pb1 Fe1 Bi1 5_5555 5_4545 109.0(3) 108.8(3) 110.0(3)
Pb1 Fe1 Bi1 5_5555 5_4555 68.4(5) 58.1(5) 72.9(5)
Pb1 Fe1 Bi1 5_5555 5_5445 109.8(6) 107.1(5) 118.3(6)
Pb1 Fe1 Bi1 5_5555 5_5455 69.5(3) 61.5(3) 72.9(4)
Pb1 Fe1 Bi1 5_5555 5_5545 71.8(5) 67.9(5) 80.9(4)
Pb1 Fe1 Bi1 5_5555 5_5555 0.1(5) 0.0(5) 0.7(5)
Pb1 Fe1 O1 5_5555 1_5455 127.5(12) 112.3(11) 136.6(12)
Pb1 Fe1 O1 5_5555 . 58.6(11) 40.2(11) 72.6(10)
Pb1 Fe1 O1 5_5555 5_4445 138.7(7) 136.7(7) 139.7(7)
Pb1 Fe1 O1 5_5555 5_5445 77.1(9) 76.6(9) 77.3(9)
Pb1 Fe1 O2 5_5555 1_4555 126.0(5) 107.8(6) 134.0(6)
Pb1 Fe1 O2 5_5555 . 56.1(5) 46.8(5) 69.7(6)
Pb1 Fe1 O3 5_5555 1_5545 125.0(4) 122.1(3) 130.7(4)
Pb1 Fe1 O3 5_5555 . 53.9(3) 49.0(2) 58.3(4)
Bi1 Fe1 Bi1 1_5545 . 155(2) 155(2) 155(2)
Bi1 Fe1 Bi1 1_5545 5_4445 47.7(4) 47.7(4) 47.7(4)
Bi1 Fe1 Bi1 1_5545 5_4455 132.4(4) 129.1(5) 134.5(5)
Bi1 Fe1 Bi1 1_5545 5_4545 47.7(4) 47.7(4) 47.7(4)
Bi1 Fe1 Bi1 1_5545 5_4555 132.4(4) 129.1(5) 134.5(5)
Bi1 Fe1 Bi1 1_5545 5_5445 56.0(5) 55.0(5) 57.3(5)
Bi1 Fe1 Bi1 1_5545 5_5455 132.3(5) 131.1(5) 134.4(5)
Bi1 Fe1 Bi1 1_5545 5_5545 56.0(5) 55.0(5) 57.3(5)
Bi1 Fe1 Bi1 1_5545 5_5555 132.3(5) 131.1(5) 134.4(5)
Bi1 Fe1 O1 1_5545 1_5455 72.5(8) 71.7(8) 74.1(8)
Bi1 Fe1 O1 1_5545 . 72.5(8) 71.7(8) 74.1(8)
Bi1 Fe1 O1 1_5545 5_4445 64.8(10) 63.6(10) 67.1(9)
Bi1 Fe1 O1 1_5545 5_5445 68.3(10) 67.8(10) 69.3(10)
Bi1 Fe1 O2 1_5545 . 76.7(6) 76.2(6) 77.8(7)
Bi1 Fe1 O3 1_5545 . 177.0(5) 172.9(6) 178.7(5)
Bi1 Fe1 Bi1 . 1_5565 155.0(9) 155.0(9) 155.0(9)
Bi1 Fe1 Bi1 . 5_4445 64.9(7) 64.9(7) 64.9(7)
Bi1 Fe1 Bi1 . 5_4455 33.6(3) 33.6(3) 33.6(3)
Bi1 Fe1 Bi1 . 5_4545 64.9(7) 64.9(7) 64.9(7)
Bi1 Fe1 Bi1 . 5_4555 33.6(3) 33.6(3) 33.6(3)
Bi1 Fe1 Bi1 . 5_5445 33.6(3) 33.6(3) 33.6(3)
Bi1 Fe1 Bi1 . 5_5455 64.9(7) 64.9(7) 64.9(7)
Bi1 Fe1 Bi1 . 5_5545 33.6(3) 33.6(3) 33.6(3)
Bi1 Fe1 Bi1 . 5_5555 64.9(7) 64.9(7) 64.9(7)
Bi1 Fe1 O1 . 1_5455 108.5(10) 108.5(10) 108.5(10)
Bi1 Fe1 O1 . . 108.5(10) 108.5(10) 108.5(10)
Bi1 Fe1 O1 . 5_4445 89.4(13) 89.4(13) 89.4(13)
Bi1 Fe1 O1 . 5_4455 135.7(12) 135.7(12) 135.7(12)
Bi1 Fe1 O1 . 5_5445 135.7(12) 135.7(12) 135.7(12)
Bi1 Fe1 O1 . 5_5455 89.4(13) 89.4(13) 89.4(13)
Bi1 Fe1 O3 . 1_5545 17.9(7) 17.9(7) 17.9(7)
Bi1 Fe1 O3 . . 17.9(7) 17.9(7) 17.9(7)
Bi1 Fe1 Bi1 1_5565 5_4445 132.3(5) 131.1(5) 134.4(5)
Bi1 Fe1 Bi1 1_5565 5_4455 56.0(5) 55.0(5) 57.3(5)
Bi1 Fe1 Bi1 1_5565 5_4545 132.3(5) 131.1(5) 134.4(5)
Bi1 Fe1 Bi1 1_5565 5_4555 56.0(5) 55.0(5) 57.3(5)
Bi1 Fe1 Bi1 1_5565 5_5445 132.4(4) 129.1(5) 134.5(5)
Bi1 Fe1 Bi1 1_5565 5_5455 47.7(4) 47.7(4) 47.7(4)
Bi1 Fe1 Bi1 1_5565 5_5545 132.4(4) 129.1(5) 134.5(5)
Bi1 Fe1 Bi1 1_5565 5_5555 47.7(4) 47.7(4) 47.7(4)
Bi1 Fe1 O1 1_5565 1_5455 72.5(8) 71.7(8) 74.1(8)
Bi1 Fe1 O1 1_5565 . 72.5(8) 71.7(8) 74.1(8)
Bi1 Fe1 O1 1_5565 5_4455 68.3(10) 67.8(10) 69.3(10)
Bi1 Fe1 O1 1_5565 5_5455 64.8(10) 63.6(10) 67.1(9)
Bi1 Fe1 O2 1_5565 1_4555 76.7(6) 76.2(6) 77.8(7)
Bi1 Fe1 O3 1_5565 1_5545 177.0(5) 172.9(6) 178.7(5)
Bi1 Fe1 Bi1 5_4445 5_4455 72.0(5) 68.0(5) 81.9(4)
Bi1 Fe1 Bi1 5_4445 5_4545 69.6(3) 61.4(3) 73.0(4)
Bi1 Fe1 Bi1 5_4445 5_4555 109.9(6) 107.1(5) 119.5(6)
Bi1 Fe1 Bi1 5_4445 5_5445 68.3(5) 57.8(5) 72.9(5)
Bi1 Fe1 Bi1 5_4445 5_5455 109.0(3) 108.8(3) 110.0(3)
Bi1 Fe1 Bi1 5_4445 5_5545 105.8(5) 91.0(4) 112.7(6)
Bi1 Fe1 Bi1 5_4445 5_5555 178.3(5) 175.2(6) 180.0(5)
Bi1 Fe1 O1 5_4445 1_5455 58.2(11) 39.7(11) 72.6(10)
Bi1 Fe1 O1 5_4445 . 127.2(12) 111.9(10) 136.6(12)
Bi1 Fe1 O1 5_4445 5_4445 48.1(6) 48.1(6) 48.1(6)
Bi1 Fe1 O1 5_4445 5_4455 77.3(9) 76.7(9) 77.5(8)
Bi1 Fe1 O1 5_4445 5_5455 138.7(7) 136.7(7) 139.6(7)
Bi1 Fe1 O2 5_4445 1_4555 56.1(5) 46.6(5) 69.7(6)
Bi1 Fe1 O2 5_4445 . 125.5(5) 106.8(6) 134.0(6)
Bi1 Fe1 O3 5_4445 1_5545 53.9(3) 49.5(4) 58.3(4)
Bi1 Fe1 O3 5_4445 . 125.1(4) 122.1(3) 131.1(4)
Bi1 Fe1 Bi1 5_4455 5_4545 109.9(6) 107.1(5) 119.5(7)
Bi1 Fe1 Bi1 5_4455 5_4555 68.0(3) 64.2(3) 72.0(4)
Bi1 Fe1 Bi1 5_4455 5_5445 111.5(3) 109.9(3) 114.6(3)
Bi1 Fe1 Bi1 5_4455 5_5455 68.3(5) 57.8(5) 72.9(5)
Bi1 Fe1 Bi1 5_4455 5_5545 175.6(5) 170.7(5) 180.0(5)
Bi1 Fe1 Bi1 5_4455 5_5555 105.8(5) 91.0(4) 112.7(5)
Bi1 Fe1 O1 5_4455 1_5455 58.3(12) 46.5(13) 75.3(10)
Bi1 Fe1 O1 5_4455 . 125.2(12) 109.4(12) 140.1(11)
Bi1 Fe1 O1 5_4455 5_4445 80.0(9) 74.1(9) 82.6(9)
Bi1 Fe1 O1 5_4455 5_4455 37.9(5) 37.9(5) 37.9(5)
Bi1 Fe1 O1 5_4455 5_5445 134.8(6) 133.2(6) 136.0(7)
Bi1 Fe1 O1 5_4455 5_5455 108.8(8) 107.5(9) 111.2(8)
Bi1 Fe1 O2 5_4455 1_4555 54.8(4) 42.9(4) 69.2(8)
Bi1 Fe1 O2 5_4455 . 125.1(5) 115.1(8) 133.4(6)
Bi1 Fe1 O3 5_4455 1_5545 126.0(4) 123.4(6) 129.6(5)
Bi1 Fe1 O3 5_4455 . 52.0(3) 41.1(2) 56.4(4)
Bi1 Fe1 Bi1 5_4545 5_4555 72.0(5) 68.0(5) 81.9(4)
Bi1 Fe1 Bi1 5_4545 5_5445 105.8(5) 91.0(4) 112.7(6)
Bi1 Fe1 Bi1 5_4545 5_5455 178.3(5) 175.2(6) 180.0(5)
Bi1 Fe1 Bi1 5_4545 5_5545 68.3(5) 57.8(5) 72.9(5)
Bi1 Fe1 Bi1 5_4545 5_5555 109.0(3) 108.8(3) 110.0(3)
Bi1 Fe1 O1 5_4545 1_5455 127.2(12) 111.9(10) 136.6(12)
Bi1 Fe1 O1 5_4545 . 58.2(11) 39.7(11) 72.6(10)
Bi1 Fe1 O1 5_4545 5_4445 48.1(6) 48.1(6) 48.1(6)
Bi1 Fe1 O1 5_4545 5_4455 77.3(9) 76.7(9) 77.5(8)
Bi1 Fe1 O1 5_4545 5_5455 138.7(7) 136.7(7) 139.6(7)
Bi1 Fe1 O2 5_4545 1_4555 56.1(5) 46.6(5) 69.7(6)
Bi1 Fe1 O2 5_4545 . 125.5(5) 106.8(6) 134.0(6)
Bi1 Fe1 O3 5_4545 1_5545 53.9(3) 49.5(4) 58.3(4)
Bi1 Fe1 O3 5_4545 . 125.1(4) 122.1(3) 131.1(4)
Bi1 Fe1 Bi1 5_4555 5_5445 175.6(5) 170.7(5) 180.0(5)
Bi1 Fe1 Bi1 5_4555 5_5455 105.8(5) 91.0(4) 112.7(5)
Bi1 Fe1 Bi1 5_4555 5_5545 111.5(3) 109.9(3) 114.6(3)
Bi1 Fe1 Bi1 5_4555 5_5555 68.3(5) 57.8(5) 72.9(5)
Bi1 Fe1 O1 5_4555 1_5455 125.2(12) 109.4(12) 140.1(11)
Bi1 Fe1 O1 5_4555 . 58.3(12) 46.5(13) 75.3(10)
Bi1 Fe1 O1 5_4555 5_4445 80.0(9) 74.1(9) 82.6(9)
Bi1 Fe1 O1 5_4555 5_4455 37.9(5) 37.9(5) 37.9(5)
Bi1 Fe1 O1 5_4555 5_5445 134.8(6) 133.2(6) 136.0(7)
Bi1 Fe1 O1 5_4555 5_5455 108.8(8) 107.5(9) 111.2(8)
Bi1 Fe1 O2 5_4555 1_4555 54.8(4) 42.9(4) 69.2(8)
Bi1 Fe1 O2 5_4555 . 125.1(5) 115.1(8) 133.4(6)
Bi1 Fe1 O3 5_4555 1_5545 126.0(4) 123.4(6) 129.6(5)
Bi1 Fe1 O3 5_4555 . 52.0(3) 41.1(2) 56.4(4)
Bi1 Fe1 Bi1 5_5445 5_5455 72.0(5) 68.0(4) 81.9(6)
Bi1 Fe1 Bi1 5_5445 5_5545 68.0(3) 64.2(3) 72.0(4)
Bi1 Fe1 Bi1 5_5445 5_5555 109.9(6) 107.1(5) 119.5(7)
Bi1 Fe1 O1 5_5445 1_5455 58.3(12) 46.5(13) 75.3(10)
Bi1 Fe1 O1 5_5445 . 125.2(12) 109.4(12) 140.1(11)
Bi1 Fe1 O1 5_5445 5_4445 108.8(8) 107.5(9) 111.2(8)
Bi1 Fe1 O1 5_5445 5_4455 134.8(6) 133.2(6) 136.0(7)
Bi1 Fe1 O1 5_5445 5_5445 37.9(5) 37.9(5) 37.9(5)
Bi1 Fe1 O1 5_5445 5_5455 80.0(9) 74.1(9) 82.6(9)
Bi1 Fe1 O2 5_5445 1_4555 125.1(5) 115.1(8) 133.4(6)
Bi1 Fe1 O2 5_5445 . 54.8(4) 42.9(4) 69.2(8)
Bi1 Fe1 O3 5_5445 1_5545 52.0(3) 41.1(2) 56.4(4)
Bi1 Fe1 O3 5_5445 . 126.0(4) 123.4(6) 129.6(5)
Bi1 Fe1 Bi1 5_5455 5_5545 109.9(6) 107.1(5) 119.5(6)
Bi1 Fe1 Bi1 5_5455 5_5555 69.6(3) 61.4(3) 73.0(4)
Bi1 Fe1 O1 5_5455 1_5455 58.2(11) 39.7(11) 72.6(10)
Bi1 Fe1 O1 5_5455 . 127.2(12) 111.9(10) 136.6(12)
Bi1 Fe1 O1 5_5455 5_4445 138.7(7) 136.7(7) 139.6(7)
Bi1 Fe1 O1 5_5455 5_5445 77.3(9) 76.7(9) 77.5(8)
Bi1 Fe1 O1 5_5455 5_5455 48.1(6) 48.1(6) 48.1(6)
Bi1 Fe1 O2 5_5455 1_4555 125.5(5) 106.8(6) 134.0(6)
Bi1 Fe1 O2 5_5455 . 56.1(5) 46.6(5) 69.7(6)
Bi1 Fe1 O3 5_5455 1_5545 125.1(4) 122.1(3) 131.1(4)
Bi1 Fe1 O3 5_5455 . 53.9(3) 49.5(4) 58.3(4)
Bi1 Fe1 Bi1 5_5545 5_5555 72.0(5) 68.0(4) 81.9(6)
Bi1 Fe1 O1 5_5545 1_5455 125.2(12) 109.4(12) 140.1(11)
Bi1 Fe1 O1 5_5545 . 58.3(12) 46.5(13) 75.3(10)
Bi1 Fe1 O1 5_5545 5_4445 108.8(8) 107.5(9) 111.2(8)
Bi1 Fe1 O1 5_5545 5_4455 134.8(6) 133.2(6) 136.0(7)
Bi1 Fe1 O1 5_5545 5_5445 37.9(5) 37.9(5) 37.9(5)
Bi1 Fe1 O1 5_5545 5_5455 80.0(9) 74.1(9) 82.6(9)
Bi1 Fe1 O2 5_5545 1_4555 125.1(5) 115.1(8) 133.4(6)
Bi1 Fe1 O2 5_5545 . 54.8(4) 42.9(4) 69.2(8)
Bi1 Fe1 O3 5_5545 1_5545 52.0(3) 41.1(2) 56.4(4)
Bi1 Fe1 O3 5_5545 . 126.0(4) 123.4(6) 129.6(5)
Bi1 Fe1 O1 5_5555 1_5455 127.2(12) 111.9(10) 136.6(12)
Bi1 Fe1 O1 5_5555 . 58.2(11) 39.7(11) 72.6(10)
Bi1 Fe1 O1 5_5555 5_4445 138.7(7) 136.7(7) 139.6(7)
Bi1 Fe1 O1 5_5555 5_5445 77.3(9) 76.7(9) 77.5(8)
Bi1 Fe1 O1 5_5555 5_5455 48.1(6) 48.1(6) 48.1(6)
Bi1 Fe1 O2 5_5555 1_4555 125.5(5) 106.8(6) 134.0(6)
Bi1 Fe1 O2 5_5555 . 56.1(5) 46.6(5) 69.7(6)
Bi1 Fe1 O3 5_5555 1_5545 125.1(4) 122.1(3) 131.1(4)
Bi1 Fe1 O3 5_5555 . 53.9(3) 49.5(4) 58.3(4)
O1 Fe1 O1 1_5455 . 156.2(10) 142.2(9) 180.0(5)
O1 Fe1 O1 1_5455 5_4445 83.1(7) 81.7(8) 86.7(5)
O1 Fe1 O1 1_5455 5_4455 81.3(5) 79.3(5) 83.2(6)
O1 Fe1 O1 1_5455 5_5445 81.3(5) 79.3(5) 83.2(6)
O1 Fe1 O1 1_5455 5_5455 83.1(7) 81.7(8) 86.7(5)
O1 Fe1 O2 1_5455 1_4555 88.2(8) 83.4(12) 91.4(6)
O1 Fe1 O2 1_5455 . 88.2(8) 83.4(12) 91.4(6)
O1 Fe1 O3 1_5455 1_5545 94.0(4) 74.7(7) 108.7(3)
O1 Fe1 O3 1_5455 . 94.0(4) 74.7(7) 108.7(3)
O1 Fe1 O1 . 5_4445 83.1(7) 81.7(8) 86.7(5)
O1 Fe1 O1 . 5_4455 81.3(5) 79.3(5) 83.2(6)
O1 Fe1 O1 . 5_5445 81.3(5) 79.3(5) 83.2(6)
O1 Fe1 O1 . 5_5455 83.1(7) 81.7(8) 86.7(5)
O1 Fe1 O2 . 1_4555 88.2(8) 83.4(12) 91.4(6)
O1 Fe1 O2 . . 88.2(8) 83.4(12) 91.4(6)
O1 Fe1 O3 . 1_5545 94.0(4) 74.7(7) 108.7(3)
O1 Fe1 O3 . . 94.0(4) 74.7(7) 108.7(3)
O1 Fe1 O1 5_4445 5_5445 132.6(11) 131.5(11) 134.8(12)
O1 Fe1 O2 5_4445 . 142.0(8) 140.2(7) 144.9(8)
O1 Fe1 O3 5_4445 . 112.2(7) 107.3(9) 114.4(6)
O1 Fe1 O1 5_4455 5_5455 132.6(11) 131.5(11) 134.8(11)
O1 Fe1 O3 5_4455 1_5545 116.1(5) 114.2(6) 117.8(6)
O1 Fe1 O3 5_5445 . 116.1(5) 114.2(6) 117.8(6)
O1 Fe1 O2 5_5455 1_4555 142.0(8) 140.2(7) 144.9(8)
O1 Fe1 O3 5_5455 1_5545 112.2(7) 107.3(9) 114.4(6)
O2 Fe1 O2 1_4555 . 162.3(7) 150.5(11) 180.0(5)
O2 Fe1 O3 1_4555 1_5545 90.7(5) 73.8(6) 105.4(6)
O2 Fe1 O3 1_4555 . 91.4(5) 76.7(6) 106.0(8)
O2 Fe1 O3 . 1_5545 91.4(5) 76.7(6) 106.0(8)
O2 Fe1 O3 . . 90.7(5) 73.8(6) 105.4(6)
O3 Fe1 O3 1_5545 . 178.8(5) 178.1(6) 180.0(5)
Fe1 Pb1 Fe1 1_5545 5_4445 47.1(3) 46.3(3) 47.9(3)
Fe1 Pb1 Fe1 1_5545 5_4455 124.8(4) 123.0(3) 125.5(5)
Fe1 Pb1 Fe1 1_5545 5_4545 47.1(3) 46.3(3) 47.9(3)
Fe1 Pb1 Fe1 1_5545 5_4555 124.8(4) 123.0(3) 125.5(5)
Fe1 Pb1 Fe1 1_5545 5_5445 47.8(3) 47.4(3) 48.5(3)
Fe1 Pb1 Fe1 1_5545 5_5455 125.6(5) 121.9(6) 131.2(3)
Fe1 Pb1 Fe1 1_5545 5_5545 47.8(3) 47.4(3) 48.5(3)
Fe1 Pb1 Fe1 1_5545 5_5555 125.6(5) 121.9(6) 131.2(3)
Fe1 Pb1 Pb1 1_5545 1_4555 89.4(6) 88.2(6) 90.3(7)
Fe1 Pb1 Pb1 1_5545 1_5455 90.0(5) 90.0(4) 90.0(4)
Fe1 Pb1 Pb1 1_5545 1_5655 90.0(5) 90.0(4) 90.0(4)
Fe1 Pb1 Pb1 1_5545 1_6555 89.9(6) 87.0(6) 94.7(5)
Fe1 Pb1 Pb1 1_5545 5_4445 56.1(5) 55.0(5) 57.7(5)
Fe1 Pb1 Pb1 1_5545 5_4545 56.1(5) 55.0(5) 57.7(5)
Fe1 Pb1 Bi1 1_5545 1_4555 89.4(6) 87.7(6) 90.6(7)
Fe1 Pb1 Bi1 1_5545 1_5455 90.2(5) 90.1(5) 90.4(4)
Fe1 Pb1 Bi1 1_5545 . 140(140) 100(400) 140(80)
Fe1 Pb1 Bi1 1_5545 1_5655 90.2(5) 90.1(5) 90.4(4)
Fe1 Pb1 Bi1 1_5545 1_6555 90.0(6) 87.0(6) 94.9(5)
Fe1 Pb1 Bi1 1_5545 5_4445 55.5(5) 54.6(5) 57.0(5)
Fe1 Pb1 Bi1 1_5545 5_4545 55.5(5) 54.6(5) 57.0(5)
Fe1 Pb1 O1 1_5545 1_5445 30.4(3) 29.8(2) 31.7(3)
Fe1 Pb1 O1 1_5545 1_5545 30.4(3) 29.8(2) 31.7(3)
Fe1 Pb1 O1 1_5545 5_4445 30.2(8) 28.8(7) 31.5(8)
Fe1 Pb1 O1 1_5545 5_4455 123.7(10) 120.4(8) 126.4(12)
Fe1 Pb1 O1 1_5545 5_5445 31.4(7) 30.7(7) 33.0(7)
Fe1 Pb1 O1 1_5545 5_5455 131.3(12) 127.2(13) 138.7(12)
Fe1 Pb1 O2 1_5545 5_4455 127.0(4) 126.3(4) 128.6(3)
Fe1 Pb1 O2 1_5545 5_4555 127.0(4) 126.3(4) 128.6(3)
Fe1 Pb1 O3 1_5545 1_4545 70.6(6) 69.6(6) 71.8(7)
Fe1 Pb1 O3 1_5545 5_4445 75.8(9) 74.5(9) 77.0(10)
Fe1 Pb1 O3 1_5545 5_4545 75.8(9) 74.5(9) 77.0(10)
Fe1 Pb1 O3 1_5545 5_5445 76.7(9) 76.1(9) 78.0(10)
Fe1 Pb1 O3 1_5545 5_5545 76.7(9) 76.1(9) 78.0(10)
Fe1 Pb1 Fe1 1_5565 5_4445 125.6(5) 121.9(6) 131.2(3)
Fe1 Pb1 Fe1 1_5565 5_4455 47.8(3) 47.4(3) 48.5(3)
Fe1 Pb1 Fe1 1_5565 5_4545 125.6(5) 121.9(6) 131.2(3)
Fe1 Pb1 Fe1 1_5565 5_4555 47.8(3) 47.4(3) 48.5(3)
Fe1 Pb1 Fe1 1_5565 5_5445 124.8(4) 123.0(3) 125.5(5)
Fe1 Pb1 Fe1 1_5565 5_5455 47.1(3) 46.3(3) 47.9(3)
Fe1 Pb1 Fe1 1_5565 5_5545 124.8(4) 123.0(3) 125.5(5)
Fe1 Pb1 Fe1 1_5565 5_5555 47.1(3) 46.3(3) 47.9(3)
Fe1 Pb1 Pb1 1_5565 1_4555 89.9(6) 87.0(6) 94.7(5)
Fe1 Pb1 Pb1 1_5565 1_5455 90.0(5) 90.0(5) 90.0(5)
Fe1 Pb1 Pb1 1_5565 1_5655 90.0(5) 90.0(5) 90.0(5)
Fe1 Pb1 Pb1 1_5565 1_6555 89.4(6) 88.2(6) 90.3(7)
Fe1 Pb1 Pb1 1_5565 5_5455 56.1(5) 55.0(5) 57.7(5)
Fe1 Pb1 Pb1 1_5565 5_5555 56.1(5) 55.0(5) 57.7(5)
Fe1 Pb1 Bi1 1_5565 1_4555 90.0(6) 87.0(6) 94.9(5)
Fe1 Pb1 Bi1 1_5565 1_5455 90.2(5) 90.1(5) 90.4(4)
Fe1 Pb1 Bi1 1_5565 . 140(140) 100(400) 140(80)
Fe1 Pb1 Bi1 1_5565 1_5655 90.2(5) 90.1(5) 90.4(4)
Fe1 Pb1 Bi1 1_5565 1_6555 89.4(6) 87.7(6) 90.6(7)
Fe1 Pb1 Bi1 1_5565 5_5455 55.5(5) 54.6(5) 57.0(5)
Fe1 Pb1 Bi1 1_5565 5_5555 55.5(5) 54.6(5) 57.0(5)
Fe1 Pb1 O1 1_5565 1_5465 30.4(3) 29.8(2) 31.7(3)
Fe1 Pb1 O1 1_5565 1_5565 30.4(3) 29.8(2) 31.7(3)
Fe1 Pb1 O1 1_5565 5_4445 131.3(12) 127.2(13) 138.7(12)
Fe1 Pb1 O1 1_5565 5_4455 31.4(7) 30.7(7) 33.0(7)
Fe1 Pb1 O1 1_5565 5_5445 123.7(10) 120.4(8) 126.4(12)
Fe1 Pb1 O1 1_5565 5_5455 30.2(8) 28.8(7) 31.5(8)
Fe1 Pb1 O2 1_5565 5_4445 127.0(4) 126.3(4) 128.6(3)
Fe1 Pb1 O2 1_5565 5_4545 127.0(4) 126.3(4) 128.6(3)
Fe1 Pb1 O3 1_5565 1_6555 70.6(6) 69.6(6) 71.8(7)
Fe1 Pb1 O3 1_5565 5_4445 76.7(9) 76.1(9) 78.0(10)
Fe1 Pb1 O3 1_5565 5_4545 76.7(9) 76.1(9) 78.0(10)
Fe1 Pb1 O3 1_5565 5_5445 75.8(9) 74.5(9) 77.0(10)
Fe1 Pb1 O3 1_5565 5_5545 75.8(9) 74.5(9) 77.0(10)
Fe1 Pb1 Fe1 5_4445 5_4455 74.0(3) 69.9(2) 83.4(3)
Fe1 Pb1 Fe1 5_4445 5_4545 69.6(3) 62.1(3) 72.9(3)
Fe1 Pb1 Fe1 5_4445 5_4555 111.3(5) 107.2(4) 121.9(4)
Fe1 Pb1 Fe1 5_4445 5_5445 69.4(3) 61.1(3) 73.2(4)
Fe1 Pb1 Fe1 5_4445 5_5455 110.33(17) 109.75(16) 111.97(17)
Fe1 Pb1 Fe1 5_4445 5_5545 107.0(5) 93.9(4) 113.5(7)
Fe1 Pb1 Fe1 5_4445 5_5555 172.9(6) 169.7(8) 180.0(5)
Fe1 Pb1 Pb1 5_4445 1_4555 56.5(4) 53.8(4) 59.2(5)
Fe1 Pb1 Pb1 5_4445 1_5455 55.2(4) 53.6(4) 58.9(4)
Fe1 Pb1 Pb1 5_4445 1_5545 54.8(4) 51.4(4) 57.3(5)
Fe1 Pb1 Pb1 5_4445 1_5565 126.4(5) 118.5(6) 133.4(5)
Fe1 Pb1 Pb1 5_4445 1_5655 124.8(6) 121.1(6) 126.4(5)
Fe1 Pb1 Pb1 5_4445 1_6555 123.6(5) 118.9(6) 127.6(6)
Fe1 Pb1 Pb1 5_4445 5_5455 109.9(3) 109.5(3) 110.1(3)
Fe1 Pb1 Pb1 5_4445 5_5555 172.7(6) 170.0(6) 174.5(7)
Fe1 Pb1 Bi1 5_4445 1_4555 56.5(4) 53.8(4) 59.3(5)
Fe1 Pb1 Bi1 5_4445 1_5455 55.2(4) 53.5(4) 59.0(4)
Fe1 Pb1 Bi1 5_4445 1_5545 54.7(4) 51.1(4) 57.3(5)
Fe1 Pb1 Bi1 5_4445 . 100(500) 0 140(150)
Fe1 Pb1 Bi1 5_4445 1_5565 126.2(5) 118.7(6) 133.4(5)
Fe1 Pb1 Bi1 5_4445 1_5655 124.8(6) 121.1(6) 126.4(6)
Fe1 Pb1 Bi1 5_4445 1_6555 123.6(5) 118.8(6) 127.5(6)
Fe1 Pb1 Bi1 5_4445 5_5455 110.0(3) 109.6(3) 110.2(3)
Fe1 Pb1 Bi1 5_4445 5_5555 173.2(6) 170.3(6) 175.1(7)
Fe1 Pb1 O1 5_4445 1_5445 30.1(8) 29.5(8) 30.5(7)
Fe1 Pb1 O1 5_4445 1_5465 102.0(5) 99.6(6) 105.5(4)
Fe1 Pb1 O1 5_4445 1_5545 70.9(6) 70.0(5) 71.7(6)
Fe1 Pb1 O1 5_4445 1_5565 143.8(9) 141.3(10) 149.4(8)
Fe1 Pb1 O1 5_4445 5_4445 35.04(19) 31.8(2) 36.9(2)
Fe1 Pb1 O1 5_4445 5_4455 93.5(8) 88.6(8) 107.5(6)
Fe1 Pb1 O1 5_4445 5_5445 88.8(8) 70.4(7) 100.3(9)
Fe1 Pb1 O1 5_4445 5_5455 143.5(3) 140.2(4) 145.9(5)
Fe1 Pb1 O2 5_4445 5_4445 35.8(17) 31.9(14) 37.5(19)
Fe1 Pb1 O2 5_4445 5_4455 91.8(10) 88.9(10) 95.9(9)
Fe1 Pb1 O2 5_4445 5_4545 90.0(11) 75.5(8) 99.1(12)
Fe1 Pb1 O2 5_4445 5_4555 144.0(17) 138.9(15) 148.3(19)
Fe1 Pb1 O3 5_4445 1_6555 133.9(5) 131.5(4) 135.8(5)
Fe1 Pb1 O3 5_4445 5_4445 37.5(9) 28.3(8) 54.9(9)
Fe1 Pb1 O3 5_4445 5_4545 90.6(7) 78.3(7) 109.1(7)
Fe1 Pb1 O3 5_4445 5_5445 90.3(5) 79.3(7) 99.8(5)
Fe1 Pb1 O3 5_4445 5_5545 144.4(10) 122.8(10) 161.5(11)
Fe1 Pb1 Fe1 5_4455 5_4545 111.3(5) 107.2(5) 121.9(4)
Fe1 Pb1 Fe1 5_4455 5_4555 68.1(3) 64.4(4) 72.0(5)
Fe1 Pb1 Fe1 5_4455 5_5445 111.69(16) 110.70(14) 113.49(16)
Fe1 Pb1 Fe1 5_4455 5_5455 69.4(3) 61.1(3) 73.2(4)
Fe1 Pb1 Fe1 5_4455 5_5545 175.0(5) 169.5(4) 180.0(5)
Fe1 Pb1 Fe1 5_4455 5_5555 107.0(5) 93.9(5) 113.5(7)
Fe1 Pb1 Pb1 5_4455 1_4555 55.0(4) 52.8(3) 63.2(4)
Fe1 Pb1 Pb1 5_4455 1_5455 56.0(4) 54.0(5) 57.8(5)
Fe1 Pb1 Pb1 5_4455 1_5545 128.3(5) 125.3(3) 136.5(3)
Fe1 Pb1 Pb1 5_4455 1_5565 53.4(4) 46.0(4) 56.4(4)
Fe1 Pb1 Pb1 5_4455 1_5655 124.0(6) 122.2(7) 126.0(7)
Fe1 Pb1 Pb1 5_4455 1_6555 125.8(5) 119.3(6) 127.2(3)
Fe1 Pb1 Pb1 5_4455 5_4445 68.2(5) 67.5(5) 68.5(5)
Fe1 Pb1 Pb1 5_4455 5_4545 103.6(6) 102.7(5) 104.1(6)
Fe1 Pb1 Pb1 5_4455 5_5455 69.1(5) 68.1(5) 70.8(5)
Fe1 Pb1 Pb1 5_4455 5_5555 103.5(5) 102.8(5) 104.9(6)
Fe1 Pb1 Bi1 5_4455 1_4555 55.0(4) 52.8(3) 63.3(4)
Fe1 Pb1 Bi1 5_4455 1_5455 56.0(4) 54.0(5) 58.0(4)
Fe1 Pb1 Bi1 5_4455 1_5545 128.3(5) 125.3(3) 136.5(3)
Fe1 Pb1 Bi1 5_4455 . 100(300) 0 147(15)
Fe1 Pb1 Bi1 5_4455 1_5565 53.2(4) 45.5(4) 56.4(4)
Fe1 Pb1 Bi1 5_4455 1_5655 124.0(6) 122.0(5) 126.0(7)
Fe1 Pb1 Bi1 5_4455 1_6555 125.7(5) 118.7(5) 127.2(3)
Fe1 Pb1 Bi1 5_4455 5_4445 68.7(5) 68.2(5) 69.0(5)
Fe1 Pb1 Bi1 5_4455 5_4545 104.1(6) 103.0(5) 104.7(6)
Fe1 Pb1 Bi1 5_4455 5_5455 68.6(5) 67.7(5) 70.1(5)
Fe1 Pb1 Bi1 5_4455 5_5555 103.0(5) 102.4(5) 104.3(6)
Fe1 Pb1 O1 5_4455 1_5445 101.7(6) 99.5(6) 102.7(5)
Fe1 Pb1 O1 5_4455 1_5465 32.1(7) 30.9(7) 34.8(8)
Fe1 Pb1 O1 5_4455 1_5545 140.7(9) 138.7(8) 141.5(9)
Fe1 Pb1 O1 5_4455 1_5565 72.2(5) 71.1(5) 74.8(7)
Fe1 Pb1 O1 5_4455 5_4445 93.8(8) 87.8(10) 103.1(8)
Fe1 Pb1 O1 5_4455 5_4455 34.6(2) 32.8(2) 36.7(3)
Fe1 Pb1 O1 5_4455 5_5445 144.0(3) 141.0(4) 146.3(2)
Fe1 Pb1 O1 5_4455 5_5455 87.1(8) 69.8(7) 95.9(10)
Fe1 Pb1 O2 5_4455 5_4445 92.4(10) 87.2(12) 98.9(9)
Fe1 Pb1 O2 5_4455 5_4455 35.0(17) 31.6(18) 37.0(19)
Fe1 Pb1 O2 5_4455 5_4545 145.4(17) 143(2) 155.6(17)
Fe1 Pb1 O2 5_4455 5_4555 88.7(11) 75.7(9) 97.8(14)
Fe1 Pb1 O3 5_4455 1_4545 66.9(5) 65.7(5) 67.6(6)
Fe1 Pb1 O3 5_4455 1_6555 104.7(5) 104.0(5) 105.7(6)
Fe1 Pb1 O3 5_4455 5_4445 36.5(9) 28.7(9) 50.9(8)
Fe1 Pb1 O3 5_4455 5_4545 89.2(7) 82.2(8) 97.7(9)
Fe1 Pb1 O3 5_4455 5_5445 90.5(6) 80.2(6) 97.0(5)
Fe1 Pb1 O3 5_4455 5_5545 144.3(10) 122.0(10) 158.6(9)
Fe1 Pb1 Fe1 5_4545 5_4555 74.0(3) 69.9(2) 83.4(3)
Fe1 Pb1 Fe1 5_4545 5_5445 107.0(5) 93.9(4) 113.5(7)
Fe1 Pb1 Fe1 5_4545 5_5455 172.9(6) 169.7(8) 180.0(5)
Fe1 Pb1 Fe1 5_4545 5_5545 69.4(3) 61.1(3) 73.2(4)
Fe1 Pb1 Fe1 5_4545 5_5555 110.33(17) 109.75(16) 111.97(17)
Fe1 Pb1 Pb1 5_4545 1_4555 56.5(4) 53.8(4) 59.2(5)
Fe1 Pb1 Pb1 5_4545 1_5455 124.8(6) 121.1(6) 126.4(5)
Fe1 Pb1 Pb1 5_4545 1_5545 54.8(4) 51.4(4) 57.3(5)
Fe1 Pb1 Pb1 5_4545 1_5565 126.4(5) 118.5(6) 133.4(5)
Fe1 Pb1 Pb1 5_4545 1_5655 55.2(4) 53.6(4) 58.9(4)
Fe1 Pb1 Pb1 5_4545 1_6555 123.6(5) 118.9(6) 127.6(6)
Fe1 Pb1 Pb1 5_4545 5_5455 172.7(6) 170.0(6) 174.5(7)
Fe1 Pb1 Pb1 5_4545 5_5555 109.9(3) 109.5(3) 110.1(3)
Fe1 Pb1 Bi1 5_4545 1_4555 56.5(4) 53.8(4) 59.3(5)
Fe1 Pb1 Bi1 5_4545 1_5455 124.8(6) 121.1(6) 126.4(6)
Fe1 Pb1 Bi1 5_4545 1_5545 54.7(4) 51.1(4) 57.3(5)
Fe1 Pb1 Bi1 5_4545 . 100(500) 0 140(150)
Fe1 Pb1 Bi1 5_4545 1_5565 126.2(5) 118.7(6) 133.4(5)
Fe1 Pb1 Bi1 5_4545 1_5655 55.2(4) 53.5(4) 59.0(4)
Fe1 Pb1 Bi1 5_4545 1_6555 123.6(5) 118.8(6) 127.5(6)
Fe1 Pb1 Bi1 5_4545 5_5455 173.2(6) 170.3(6) 175.1(7)
Fe1 Pb1 Bi1 5_4545 5_5555 110.0(3) 109.6(3) 110.2(3)
Fe1 Pb1 O1 5_4545 1_5445 70.9(6) 70.0(5) 71.7(6)
Fe1 Pb1 O1 5_4545 1_5465 143.8(9) 141.3(10) 149.4(8)
Fe1 Pb1 O1 5_4545 1_5545 30.1(8) 29.5(8) 30.5(7)
Fe1 Pb1 O1 5_4545 1_5565 102.0(5) 99.6(6) 105.5(4)
Fe1 Pb1 O1 5_4545 5_4445 35.04(19) 31.8(2) 36.9(2)
Fe1 Pb1 O1 5_4545 5_4455 93.5(8) 88.6(8) 107.5(6)
Fe1 Pb1 O1 5_4545 5_5445 88.8(8) 70.4(7) 100.3(9)
Fe1 Pb1 O1 5_4545 5_5455 143.5(3) 140.2(4) 145.9(5)
Fe1 Pb1 O2 5_4545 5_4445 90.0(11) 75.5(8) 99.1(12)
Fe1 Pb1 O2 5_4545 5_4455 144.0(17) 138.9(15) 148.3(19)
Fe1 Pb1 O2 5_4545 5_4545 35.8(17) 31.9(14) 37.5(19)
Fe1 Pb1 O2 5_4545 5_4555 91.8(10) 88.9(10) 95.9(9)
Fe1 Pb1 O3 5_4545 1_6555 133.9(5) 131.5(4) 135.8(5)
Fe1 Pb1 O3 5_4545 5_4445 90.6(7) 78.3(7) 109.1(7)
Fe1 Pb1 O3 5_4545 5_4545 37.5(9) 28.3(8) 54.9(9)
Fe1 Pb1 O3 5_4545 5_5445 144.4(10) 122.8(10) 161.5(11)
Fe1 Pb1 O3 5_4545 5_5545 90.3(5) 79.3(7) 99.8(5)
Fe1 Pb1 Fe1 5_4555 5_5445 175.0(5) 169.5(4) 180.0(5)
Fe1 Pb1 Fe1 5_4555 5_5455 107.0(5) 93.9(5) 113.5(7)
Fe1 Pb1 Fe1 5_4555 5_5545 111.69(16) 110.70(14) 113.49(16)
Fe1 Pb1 Fe1 5_4555 5_5555 69.4(3) 61.1(3) 73.2(4)
Fe1 Pb1 Pb1 5_4555 1_4555 55.0(4) 52.8(3) 63.2(4)
Fe1 Pb1 Pb1 5_4555 1_5455 124.0(6) 122.2(7) 126.0(7)
Fe1 Pb1 Pb1 5_4555 1_5545 128.3(5) 125.3(3) 136.5(3)
Fe1 Pb1 Pb1 5_4555 1_5565 53.4(4) 46.0(4) 56.4(4)
Fe1 Pb1 Pb1 5_4555 1_5655 56.0(4) 54.0(5) 57.8(5)
Fe1 Pb1 Pb1 5_4555 1_6555 125.8(5) 119.3(6) 127.2(3)
Fe1 Pb1 Pb1 5_4555 5_4445 103.6(6) 102.7(5) 104.1(6)
Fe1 Pb1 Pb1 5_4555 5_4545 68.2(5) 67.5(5) 68.5(5)
Fe1 Pb1 Pb1 5_4555 5_5455 103.5(5) 102.8(5) 104.9(6)
Fe1 Pb1 Pb1 5_4555 5_5555 69.1(5) 68.1(5) 70.8(5)
Fe1 Pb1 Bi1 5_4555 1_4555 55.0(4) 52.8(3) 63.3(4)
Fe1 Pb1 Bi1 5_4555 1_5455 124.0(6) 122.0(5) 126.0(7)
Fe1 Pb1 Bi1 5_4555 1_5545 128.3(5) 125.3(3) 136.5(3)
Fe1 Pb1 Bi1 5_4555 . 100(300) 0 147(15)
Fe1 Pb1 Bi1 5_4555 1_5565 53.2(4) 45.5(4) 56.4(4)
Fe1 Pb1 Bi1 5_4555 1_5655 56.0(4) 54.0(5) 58.0(4)
Fe1 Pb1 Bi1 5_4555 1_6555 125.7(5) 118.7(5) 127.2(3)
Fe1 Pb1 Bi1 5_4555 5_4445 104.1(6) 103.0(5) 104.7(6)
Fe1 Pb1 Bi1 5_4555 5_4545 68.7(5) 68.2(5) 69.0(5)
Fe1 Pb1 Bi1 5_4555 5_5455 103.0(5) 102.4(5) 104.3(6)
Fe1 Pb1 Bi1 5_4555 5_5555 68.6(5) 67.7(5) 70.1(5)
Fe1 Pb1 O1 5_4555 1_5445 140.7(9) 138.7(8) 141.5(9)
Fe1 Pb1 O1 5_4555 1_5465 72.2(5) 71.1(5) 74.8(7)
Fe1 Pb1 O1 5_4555 1_5545 101.7(6) 99.5(6) 102.7(5)
Fe1 Pb1 O1 5_4555 1_5565 32.1(7) 30.9(7) 34.8(8)
Fe1 Pb1 O1 5_4555 5_4445 93.8(8) 87.8(10) 103.1(8)
Fe1 Pb1 O1 5_4555 5_4455 34.6(2) 32.8(2) 36.7(3)
Fe1 Pb1 O1 5_4555 5_5445 144.0(3) 141.0(4) 146.3(2)
Fe1 Pb1 O1 5_4555 5_5455 87.1(8) 69.8(7) 95.9(10)
Fe1 Pb1 O2 5_4555 5_4445 145.4(17) 143(2) 155.6(17)
Fe1 Pb1 O2 5_4555 5_4455 88.7(11) 75.7(9) 97.8(14)
Fe1 Pb1 O2 5_4555 5_4545 92.4(10) 87.2(12) 98.9(9)
Fe1 Pb1 O2 5_4555 5_4555 35.0(17) 31.6(18) 37.0(19)
Fe1 Pb1 O3 5_4555 1_4545 66.9(5) 65.7(5) 67.6(6)
Fe1 Pb1 O3 5_4555 1_6555 104.7(5) 104.0(5) 105.7(6)
Fe1 Pb1 O3 5_4555 5_4445 89.2(7) 82.2(8) 97.7(9)
Fe1 Pb1 O3 5_4555 5_4545 36.5(9) 28.7(9) 50.9(8)
Fe1 Pb1 O3 5_4555 5_5445 144.3(10) 122.0(10) 158.6(9)
Fe1 Pb1 O3 5_4555 5_5545 90.5(6) 80.2(6) 97.0(5)
Fe1 Pb1 Fe1 5_5445 5_5455 74.0(3) 69.9(3) 83.4(3)
Fe1 Pb1 Fe1 5_5445 5_5545 68.1(3) 64.4(4) 72.0(5)
Fe1 Pb1 Fe1 5_5445 5_5555 111.3(5) 107.2(5) 121.9(4)
Fe1 Pb1 Pb1 5_5445 1_4555 125.8(5) 119.3(6) 127.2(3)
Fe1 Pb1 Pb1 5_5445 1_5455 56.0(4) 54.0(5) 57.8(5)
Fe1 Pb1 Pb1 5_5445 1_5545 53.4(4) 46.0(4) 56.4(4)
Fe1 Pb1 Pb1 5_5445 1_5565 128.3(5) 125.3(3) 136.5(3)
Fe1 Pb1 Pb1 5_5445 1_5655 124.0(6) 122.2(7) 126.0(7)
Fe1 Pb1 Pb1 5_5445 1_6555 55.0(4) 52.8(3) 63.2(4)
Fe1 Pb1 Pb1 5_5445 5_4445 69.1(5) 68.1(5) 70.8(5)
Fe1 Pb1 Pb1 5_5445 5_4545 103.5(5) 102.8(5) 104.9(6)
Fe1 Pb1 Pb1 5_5445 5_5455 68.2(5) 67.5(5) 68.5(5)
Fe1 Pb1 Pb1 5_5445 5_5555 103.6(6) 102.7(5) 104.1(6)
Fe1 Pb1 Bi1 5_5445 1_4555 125.7(5) 118.7(5) 127.2(3)
Fe1 Pb1 Bi1 5_5445 1_5455 56.0(4) 54.0(5) 58.0(4)
Fe1 Pb1 Bi1 5_5445 1_5545 53.2(4) 45.5(4) 56.4(4)
Fe1 Pb1 Bi1 5_5445 . 100(300) 0 147(15)
Fe1 Pb1 Bi1 5_5445 1_5565 128.3(5) 125.3(3) 136.5(3)
Fe1 Pb1 Bi1 5_5445 1_5655 124.0(6) 122.0(5) 126.0(7)
Fe1 Pb1 Bi1 5_5445 1_6555 55.0(4) 52.8(3) 63.3(4)
Fe1 Pb1 Bi1 5_5445 5_4445 68.6(5) 67.7(5) 70.1(5)
Fe1 Pb1 Bi1 5_5445 5_4545 103.0(5) 102.4(5) 104.3(6)
Fe1 Pb1 Bi1 5_5445 5_5455 68.7(5) 68.2(5) 69.0(5)
Fe1 Pb1 Bi1 5_5445 5_5555 104.1(6) 103.0(5) 104.7(6)
Fe1 Pb1 O1 5_5445 1_5445 32.1(7) 30.9(7) 34.8(8)
Fe1 Pb1 O1 5_5445 1_5465 101.7(6) 99.5(6) 102.7(5)
Fe1 Pb1 O1 5_5445 1_5545 72.2(5) 71.1(5) 74.8(7)
Fe1 Pb1 O1 5_5445 1_5565 140.7(9) 138.7(8) 141.5(9)
Fe1 Pb1 O1 5_5445 5_4445 87.1(8) 69.8(7) 95.9(10)
Fe1 Pb1 O1 5_5445 5_4455 144.0(3) 141.0(4) 146.3(2)
Fe1 Pb1 O1 5_5445 5_5445 34.6(2) 32.8(2) 36.7(3)
Fe1 Pb1 O1 5_5445 5_5455 93.8(8) 87.8(10) 103.1(8)
Fe1 Pb1 O2 5_5445 5_4445 35.0(17) 31.6(18) 37.0(19)
Fe1 Pb1 O2 5_5445 5_4455 92.4(10) 87.2(12) 98.9(9)
Fe1 Pb1 O2 5_5445 5_4545 88.7(11) 75.7(9) 97.8(14)
Fe1 Pb1 O2 5_5445 5_4555 145.4(17) 143(2) 155.6(17)
Fe1 Pb1 O3 5_5445 1_4545 104.7(5) 104.0(5) 105.7(6)
Fe1 Pb1 O3 5_5445 1_6555 66.9(5) 65.7(5) 67.6(6)
Fe1 Pb1 O3 5_5445 5_4445 90.5(6) 80.2(6) 97.0(5)
Fe1 Pb1 O3 5_5445 5_4545 144.3(10) 122.0(10) 158.6(9)
Fe1 Pb1 O3 5_5445 5_5445 36.5(9) 28.7(9) 50.9(8)
Fe1 Pb1 O3 5_5445 5_5545 89.2(7) 82.2(8) 97.7(9)
Fe1 Pb1 Fe1 5_5455 5_5545 111.3(5) 107.2(4) 121.9(4)
Fe1 Pb1 Fe1 5_5455 5_5555 69.6(3) 62.1(3) 72.9(3)
Fe1 Pb1 Pb1 5_5455 1_4555 123.6(5) 118.9(6) 127.6(6)
Fe1 Pb1 Pb1 5_5455 1_5455 55.2(4) 53.6(4) 58.9(4)
Fe1 Pb1 Pb1 5_5455 1_5545 126.4(5) 118.5(6) 133.4(5)
Fe1 Pb1 Pb1 5_5455 1_5565 54.8(4) 51.4(4) 57.3(5)
Fe1 Pb1 Pb1 5_5455 1_5655 124.8(6) 121.1(6) 126.4(5)
Fe1 Pb1 Pb1 5_5455 1_6555 56.5(4) 53.8(4) 59.2(5)
Fe1 Pb1 Pb1 5_5455 5_4445 109.9(3) 109.5(3) 110.1(3)
Fe1 Pb1 Pb1 5_5455 5_4545 172.7(6) 170.0(6) 174.5(7)
Fe1 Pb1 Bi1 5_5455 1_4555 123.6(5) 118.8(6) 127.5(6)
Fe1 Pb1 Bi1 5_5455 1_5455 55.2(4) 53.5(4) 59.0(4)
Fe1 Pb1 Bi1 5_5455 1_5545 126.2(5) 118.7(6) 133.4(5)
Fe1 Pb1 Bi1 5_5455 . 100(500) 0 140(150)
Fe1 Pb1 Bi1 5_5455 1_5565 54.7(4) 51.1(4) 57.3(5)
Fe1 Pb1 Bi1 5_5455 1_5655 124.8(6) 121.1(6) 126.4(6)
Fe1 Pb1 Bi1 5_5455 1_6555 56.5(4) 53.8(4) 59.3(5)
Fe1 Pb1 Bi1 5_5455 5_4445 110.0(3) 109.6(3) 110.2(3)
Fe1 Pb1 Bi1 5_5455 5_4545 173.2(6) 170.3(6) 175.1(7)
Fe1 Pb1 O1 5_5455 1_5445 102.0(5) 99.6(6) 105.5(4)
Fe1 Pb1 O1 5_5455 1_5465 30.1(8) 29.5(8) 30.5(7)
Fe1 Pb1 O1 5_5455 1_5545 143.8(9) 141.3(10) 149.4(8)
Fe1 Pb1 O1 5_5455 1_5565 70.9(6) 70.0(5) 71.7(6)
Fe1 Pb1 O1 5_5455 5_4445 143.5(3) 140.2(4) 145.9(5)
Fe1 Pb1 O1 5_5455 5_4455 88.8(8) 70.4(7) 100.3(9)
Fe1 Pb1 O1 5_5455 5_5445 93.5(8) 88.6(8) 107.5(6)
Fe1 Pb1 O1 5_5455 5_5455 35.04(19) 31.8(2) 36.9(2)
Fe1 Pb1 O2 5_5455 5_4445 91.8(10) 88.9(10) 95.9(9)
Fe1 Pb1 O2 5_5455 5_4455 35.8(17) 31.9(14) 37.5(19)
Fe1 Pb1 O2 5_5455 5_4545 144.0(17) 138.9(15) 148.3(19)
Fe1 Pb1 O2 5_5455 5_4555 90.0(11) 75.5(8) 99.1(12)
Fe1 Pb1 O3 5_5455 1_4545 133.9(5) 131.5(4) 135.8(5)
Fe1 Pb1 O3 5_5455 5_4445 90.3(5) 79.3(7) 99.8(5)
Fe1 Pb1 O3 5_5455 5_4545 144.4(10) 122.8(10) 161.5(11)
Fe1 Pb1 O3 5_5455 5_5445 37.5(9) 28.3(8) 54.9(9)
Fe1 Pb1 O3 5_5455 5_5545 90.6(7) 78.3(7) 109.1(7)
Fe1 Pb1 Fe1 5_5545 5_5555 74.0(3) 69.9(3) 83.4(3)
Fe1 Pb1 Pb1 5_5545 1_4555 125.8(5) 119.3(6) 127.2(3)
Fe1 Pb1 Pb1 5_5545 1_5455 124.0(6) 122.2(7) 126.0(7)
Fe1 Pb1 Pb1 5_5545 1_5545 53.4(4) 46.0(4) 56.4(4)
Fe1 Pb1 Pb1 5_5545 1_5565 128.3(5) 125.3(3) 136.5(3)
Fe1 Pb1 Pb1 5_5545 1_5655 56.0(4) 54.0(5) 57.8(5)
Fe1 Pb1 Pb1 5_5545 1_6555 55.0(4) 52.8(3) 63.2(4)
Fe1 Pb1 Pb1 5_5545 5_4445 103.5(5) 102.8(5) 104.9(6)
Fe1 Pb1 Pb1 5_5545 5_4545 69.1(5) 68.1(5) 70.8(5)
Fe1 Pb1 Pb1 5_5545 5_5455 103.6(6) 102.7(5) 104.1(6)
Fe1 Pb1 Pb1 5_5545 5_5555 68.2(5) 67.5(5) 68.5(5)
Fe1 Pb1 Bi1 5_5545 1_4555 125.7(5) 118.7(5) 127.2(3)
Fe1 Pb1 Bi1 5_5545 1_5455 124.0(6) 122.0(5) 126.0(7)
Fe1 Pb1 Bi1 5_5545 1_5545 53.2(4) 45.5(4) 56.4(4)
Fe1 Pb1 Bi1 5_5545 . 100(300) 0 147(15)
Fe1 Pb1 Bi1 5_5545 1_5565 128.3(5) 125.3(3) 136.5(3)
Fe1 Pb1 Bi1 5_5545 1_5655 56.0(4) 54.0(5) 58.0(4)
Fe1 Pb1 Bi1 5_5545 1_6555 55.0(4) 52.8(3) 63.3(4)
Fe1 Pb1 Bi1 5_5545 5_4445 103.0(5) 102.4(5) 104.3(6)
Fe1 Pb1 Bi1 5_5545 5_4545 68.6(5) 67.7(5) 70.1(5)
Fe1 Pb1 Bi1 5_5545 5_5455 104.1(6) 103.0(5) 104.7(6)
Fe1 Pb1 Bi1 5_5545 5_5555 68.7(5) 68.2(5) 69.0(5)
Fe1 Pb1 O1 5_5545 1_5445 72.2(5) 71.1(5) 74.8(7)
Fe1 Pb1 O1 5_5545 1_5465 140.7(9) 138.7(8) 141.5(9)
Fe1 Pb1 O1 5_5545 1_5545 32.1(7) 30.9(7) 34.8(8)
Fe1 Pb1 O1 5_5545 1_5565 101.7(6) 99.5(6) 102.7(5)
Fe1 Pb1 O1 5_5545 5_4445 87.1(8) 69.8(7) 95.9(10)
Fe1 Pb1 O1 5_5545 5_4455 144.0(3) 141.0(4) 146.3(2)
Fe1 Pb1 O1 5_5545 5_5445 34.6(2) 32.8(2) 36.7(3)
Fe1 Pb1 O1 5_5545 5_5455 93.8(8) 87.8(10) 103.1(8)
Fe1 Pb1 O2 5_5545 5_4445 88.7(11) 75.7(9) 97.8(14)
Fe1 Pb1 O2 5_5545 5_4455 145.4(17) 143(2) 155.6(17)
Fe1 Pb1 O2 5_5545 5_4545 35.0(17) 31.6(18) 37.0(19)
Fe1 Pb1 O2 5_5545 5_4555 92.4(10) 87.2(12) 98.9(9)
Fe1 Pb1 O3 5_5545 1_4545 104.7(5) 104.0(5) 105.7(6)
Fe1 Pb1 O3 5_5545 1_6555 66.9(5) 65.7(5) 67.6(6)
Fe1 Pb1 O3 5_5545 5_4445 144.3(10) 122.0(10) 158.6(9)
Fe1 Pb1 O3 5_5545 5_4545 90.5(6) 80.2(6) 97.0(5)
Fe1 Pb1 O3 5_5545 5_5445 89.2(7) 82.2(8) 97.7(9)
Fe1 Pb1 O3 5_5545 5_5545 36.5(9) 28.7(9) 50.9(8)
Fe1 Pb1 Pb1 5_5555 1_4555 123.6(5) 118.9(6) 127.6(6)
Fe1 Pb1 Pb1 5_5555 1_5455 124.8(6) 121.1(6) 126.4(5)
Fe1 Pb1 Pb1 5_5555 1_5545 126.4(5) 118.5(6) 133.4(5)
Fe1 Pb1 Pb1 5_5555 1_5565 54.8(4) 51.4(4) 57.3(5)
Fe1 Pb1 Pb1 5_5555 1_5655 55.2(4) 53.6(4) 58.9(4)
Fe1 Pb1 Pb1 5_5555 1_6555 56.5(4) 53.8(4) 59.2(5)
Fe1 Pb1 Pb1 5_5555 5_4445 172.7(6) 170.0(6) 174.5(7)
Fe1 Pb1 Pb1 5_5555 5_4545 109.9(3) 109.5(3) 110.1(3)
Fe1 Pb1 Bi1 5_5555 1_4555 123.6(5) 118.8(6) 127.5(6)
Fe1 Pb1 Bi1 5_5555 1_5455 124.8(6) 121.1(6) 126.4(6)
Fe1 Pb1 Bi1 5_5555 1_5545 126.2(5) 118.7(6) 133.4(5)
Fe1 Pb1 Bi1 5_5555 . 100(500) 0 140(150)
Fe1 Pb1 Bi1 5_5555 1_5565 54.7(4) 51.1(4) 57.3(5)
Fe1 Pb1 Bi1 5_5555 1_5655 55.2(4) 53.5(4) 59.0(4)
Fe1 Pb1 Bi1 5_5555 1_6555 56.5(4) 53.8(4) 59.3(5)
Fe1 Pb1 Bi1 5_5555 5_4445 173.2(6) 170.3(6) 175.1(7)
Fe1 Pb1 Bi1 5_5555 5_4545 110.0(3) 109.6(3) 110.2(3)
Fe1 Pb1 O1 5_5555 1_5445 143.8(9) 141.3(10) 149.4(8)
Fe1 Pb1 O1 5_5555 1_5465 70.9(6) 70.0(5) 71.7(6)
Fe1 Pb1 O1 5_5555 1_5545 102.0(5) 99.6(6) 105.5(4)
Fe1 Pb1 O1 5_5555 1_5565 30.1(8) 29.5(8) 30.5(7)
Fe1 Pb1 O1 5_5555 5_4445 143.5(3) 140.2(4) 145.9(5)
Fe1 Pb1 O1 5_5555 5_4455 88.8(8) 70.4(7) 100.3(9)
Fe1 Pb1 O1 5_5555 5_5445 93.5(8) 88.6(8) 107.5(6)
Fe1 Pb1 O1 5_5555 5_5455 35.04(19) 31.8(2) 36.9(2)
Fe1 Pb1 O2 5_5555 5_4445 144.0(17) 138.9(15) 148.3(19)
Fe1 Pb1 O2 5_5555 5_4455 90.0(11) 75.5(8) 99.1(12)
Fe1 Pb1 O2 5_5555 5_4545 91.8(10) 88.9(10) 95.9(9)
Fe1 Pb1 O2 5_5555 5_4555 35.8(17) 31.9(14) 37.5(19)
Fe1 Pb1 O3 5_5555 1_4545 133.9(5) 131.5(4) 135.8(5)
Fe1 Pb1 O3 5_5555 5_4445 144.4(10) 122.8(10) 161.5(11)
Fe1 Pb1 O3 5_5555 5_4545 90.3(5) 79.3(7) 99.8(5)
Fe1 Pb1 O3 5_5555 5_5445 90.6(7) 78.3(7) 109.1(7)
Fe1 Pb1 O3 5_5555 5_5545 37.5(9) 28.3(8) 54.9(9)
Pb1 Pb1 Pb1 1_4555 1_5455 90.0(5) 90.0(5) 90.0(5)
Pb1 Pb1 Pb1 1_4555 1_5545 92.3(6) 91.2(5) 95.0(7)
Pb1 Pb1 Pb1 1_4555 1_5565 88.0(6) 82.6(7) 91.4(6)
Pb1 Pb1 Pb1 1_4555 1_5655 90.0(5) 90.0(5) 90.0(5)
Pb1 Pb1 Pb1 1_4555 1_6555 178.4(7) 176.6(7) 180.0(5)
Pb1 Pb1 Pb1 1_4555 5_5455 129.7(6) 129.2(6) 130.8(5)
Pb1 Pb1 Pb1 1_4555 5_5555 129.7(6) 129.2(6) 130.8(5)
Pb1 Pb1 Bi1 1_4555 1_4555 0.1(5) 0.0(5) 0.5(4)
Pb1 Pb1 Bi1 1_4555 1_5455 90.0(5) 89.9(5) 90.4(5)
Pb1 Pb1 Bi1 1_4555 1_5545 92.3(6) 91.2(5) 94.8(6)
Pb1 Pb1 Bi1 1_4555 . 100(800) 0 200(1200)
Pb1 Pb1 Bi1 1_4555 1_5565 87.9(6) 82.6(7) 91.4(6)
Pb1 Pb1 Bi1 1_4555 1_5655 90.0(5) 89.9(5) 90.4(5)
Pb1 Pb1 Bi1 1_4555 1_6555 178.4(7) 176.7(7) 180.0(5)
Pb1 Pb1 Bi1 1_4555 5_5455 129.2(6) 128.7(6) 130.4(5)
Pb1 Pb1 Bi1 1_4555 5_5555 129.2(6) 128.7(6) 130.4(5)
Pb1 Pb1 O1 1_4555 1_5445 88.1(9) 87.9(9) 88.2(9)
Pb1 Pb1 O1 1_4555 1_5465 90.3(9) 89.1(9) 93.2(8)
Pb1 Pb1 O1 1_4555 1_5545 88.1(9) 87.9(9) 88.2(9)
Pb1 Pb1 O1 1_4555 1_5565 90.3(9) 89.1(9) 93.2(8)
Pb1 Pb1 O1 1_4555 5_4445 48.6(9) 40.1(11) 59.4(8)
Pb1 Pb1 O1 1_4555 5_4455 46.8(9) 36.0(9) 61.7(8)
Pb1 Pb1 O1 1_4555 5_5445 136.3(10) 118.9(9) 146.9(11)
Pb1 Pb1 O1 1_4555 5_5455 130.5(10) 117.2(9) 142.9(12)
Pb1 Pb1 O2 1_4555 5_4445 91.8(18) 90(2) 95.8(19)
Pb1 Pb1 O2 1_4555 5_4455 88.7(17) 86.4(15) 91(2)
Pb1 Pb1 O2 1_4555 5_4545 91.8(18) 90(2) 95.8(19)
Pb1 Pb1 O2 1_4555 5_4555 88.7(17) 86.4(15) 91(2)
Pb1 Pb1 O3 1_4555 1_6555 162.3(7) 161.0(8) 164.3(7)
Pb1 Pb1 O3 1_4555 5_4445 46.0(3) 43.4(3) 54.3(4)
Pb1 Pb1 O3 1_4555 5_4545 46.0(3) 43.4(3) 54.3(4)
Pb1 Pb1 O3 1_4555 5_5445 134.4(3) 131.5(4) 136.5(2)
Pb1 Pb1 O3 1_4555 5_5545 134.4(3) 131.5(4) 136.5(2)
Pb1 Pb1 Pb1 1_5455 1_5545 90.0(3) 90.0(5) 90.0(5)
Pb1 Pb1 Pb1 1_5455 1_5565 90.0(3) 90.00(18) 90.00(18)
Pb1 Pb1 Pb1 1_5455 1_5655 180.0(5) 180.0(5) 180.0(5)
Pb1 Pb1 Pb1 1_5455 1_6555 90.0(3) 90.0(2) 90.0(2)
Pb1 Pb1 Pb1 1_5455 5_4445 56.7(3) 56.7(4) 56.7(3)
Pb1 Pb1 Pb1 1_5455 5_4545 123.3(4) 123.3(4) 123.3(5)
Pb1 Pb1 Pb1 1_5455 5_5455 56.7(3) 56.7(4) 56.7(3)
Pb1 Pb1 Pb1 1_5455 5_5555 123.3(4) 123.3(4) 123.3(5)
Pb1 Pb1 Bi1 1_5455 1_4555 90.0(3) 90.0(4) 90.0(4)
Pb1 Pb1 Bi1 1_5455 1_5455 0.1(5) 0.0(5) 0.6(5)
Pb1 Pb1 Bi1 1_5455 1_5545 90.0(3) 90.0(5) 90.0(5)
Pb1 Pb1 Bi1 1_5455 . 88.1(3) 0 90.0(2)
Pb1 Pb1 Bi1 1_5455 1_5565 90.0(3) 90.00(18) 90.00(18)
Pb1 Pb1 Bi1 1_5455 1_5655 179.9(6) 179.4(5) 180.0(5)
Pb1 Pb1 Bi1 1_5455 1_6555 90.0(3) 90.0(2) 90.0(2)
Pb1 Pb1 Bi1 1_5455 5_4445 56.7(3) 56.7(4) 56.7(3)
Pb1 Pb1 Bi1 1_5455 5_4545 123.3(4) 123.3(4) 123.3(5)
Pb1 Pb1 Bi1 1_5455 5_5455 56.7(3) 56.7(4) 56.7(3)
Pb1 Pb1 Bi1 1_5455 5_5555 123.3(4) 123.3(4) 123.3(5)
Pb1 Pb1 O1 1_5455 1_5445 59.7(3) 58.4(4) 60.2(3)
Pb1 Pb1 O1 1_5455 1_5465 59.7(3) 58.4(4) 60.2(3)
Pb1 Pb1 O1 1_5455 1_5545 120.3(5) 119.8(4) 121.6(7)
Pb1 Pb1 O1 1_5455 1_5565 120.3(5) 119.8(4) 121.6(7)
Pb1 Pb1 O1 1_5455 5_4445 90.0(3) 90.0(4) 90.0(4)
Pb1 Pb1 O1 1_5455 5_4455 90.0(3) 90.0(2) 90.0(2)
Pb1 Pb1 O1 1_5455 5_5445 90.0(3) 90.00(19) 90.00(19)
Pb1 Pb1 O1 1_5455 5_5455 90.0(3) 90.00(19) 90.00(19)
Pb1 Pb1 O2 1_5455 5_4445 45.0(3) 36.3(4) 56.0(4)
Pb1 Pb1 O2 1_5455 5_4455 45.0(3) 36.3(4) 56.0(4)
Pb1 Pb1 O2 1_5455 5_4545 135.0(5) 124.0(7) 143.7(8)
Pb1 Pb1 O2 1_5455 5_4555 135.0(5) 124.0(7) 143.7(8)
Pb1 Pb1 O3 1_5455 1_4545 90.0(3) 90.0(2) 90.0(2)
Pb1 Pb1 O3 1_5455 1_6555 90.0(3) 90.0(4) 90.0(4)
Pb1 Pb1 O3 1_5455 5_4445 45.6(3) 40.5(4) 49.0(4)
Pb1 Pb1 O3 1_5455 5_4545 134.4(6) 131.0(6) 139.5(5)
Pb1 Pb1 O3 1_5455 5_5445 45.6(3) 40.5(4) 49.0(4)
Pb1 Pb1 O3 1_5455 5_5545 134.4(6) 131.0(6) 139.5(5)
Pb1 Pb1 Pb1 1_5545 1_5565 176.7(7) 174.2(8) 180.0(5)
Pb1 Pb1 Pb1 1_5545 1_5655 90.0(5) 90.0(5) 90.0(5)
Pb1 Pb1 Pb1 1_5545 1_6555 88.0(6) 82.6(6) 91.4(7)
Pb1 Pb1 Pb1 1_5545 5_5455 121.0(6) 119.9(5) 121.6(6)
Pb1 Pb1 Pb1 1_5545 5_5555 121.0(6) 119.9(5) 121.6(6)
Pb1 Pb1 Bi1 1_5545 1_4555 92.3(6) 91.2(5) 95.2(7)
Pb1 Pb1 Bi1 1_5545 1_5455 89.9(5) 89.5(4) 90.0(4)
Pb1 Pb1 Bi1 1_5545 1_5545 0.0(5) 0.0(5) 0.3(4)
Pb1 Pb1 Bi1 1_5545 . 100(800) 0 200(1500)
Pb1 Pb1 Bi1 1_5545 1_5565 176.7(7) 174.1(8) 180.0(5)
Pb1 Pb1 Bi1 1_5545 1_5655 89.9(5) 89.5(4) 90.0(4)
Pb1 Pb1 Bi1 1_5545 1_6555 88.0(6) 82.5(6) 90.9(6)
Pb1 Pb1 Bi1 1_5545 5_5455 121.5(6) 120.2(5) 122.2(6)
Pb1 Pb1 Bi1 1_5545 5_5555 121.5(6) 120.2(5) 122.2(6)
Pb1 Pb1 O1 1_5545 1_5465 149.5(3) 148.4(3) 150.1(2)
Pb1 Pb1 O1 1_5545 1_5565 149.5(3) 148.4(3) 150.1(2)
Pb1 Pb1 O1 1_5545 5_4445 44.8(9) 36.5(8) 51.7(11)
Pb1 Pb1 O1 1_5545 5_4455 140.2(10) 131.1(12) 153.8(8)
Pb1 Pb1 O1 1_5545 5_5445 45.7(9) 27.8(8) 55.0(9)
Pb1 Pb1 O1 1_5545 5_5455 138.6(10) 122.9(12) 150.8(10)
Pb1 Pb1 O2 1_5545 5_4445 45.1(3) 34.2(3) 53.7(4)
Pb1 Pb1 O2 1_5545 5_4455 137.2(3) 126.5(6) 145.9(2)
Pb1 Pb1 O2 1_5545 5_4545 45.1(3) 34.2(3) 53.7(4)
Pb1 Pb1 O2 1_5545 5_4555 137.2(3) 126.5(6) 145.9(2)
Pb1 Pb1 O3 1_5545 1_6555 105.5(7) 103.6(7) 106.9(8)
Pb1 Pb1 O3 1_5545 5_4445 93.2(10) 80.8(10) 107.8(10)
Pb1 Pb1 O3 1_5545 5_4545 93.2(10) 80.8(10) 107.8(10)
Pb1 Pb1 O3 1_5545 5_5445 92.0(10) 75.6(10) 105.2(9)
Pb1 Pb1 O3 1_5545 5_5545 92.0(10) 75.6(10) 105.2(9)
Pb1 Pb1 Pb1 1_5565 1_5655 90.0(5) 90.0(4) 90.0(4)
Pb1 Pb1 Pb1 1_5565 1_6555 92.3(6) 91.2(5) 95.0(7)
Pb1 Pb1 Pb1 1_5565 5_4445 121.0(6) 119.9(5) 121.6(6)
Pb1 Pb1 Pb1 1_5565 5_4545 121.0(6) 119.9(5) 121.6(6)
Pb1 Pb1 Bi1 1_5565 1_4555 88.0(6) 82.5(6) 90.9(6)
Pb1 Pb1 Bi1 1_5565 1_5455 89.9(5) 89.5(4) 90.0(4)
Pb1 Pb1 Bi1 1_5565 1_5545 176.7(7) 174.1(8) 180.0(5)
Pb1 Pb1 Bi1 1_5565 . 100(800) 0 200(1500)
Pb1 Pb1 Bi1 1_5565 1_5565 0.0(5) 0.0(5) 0.3(4)
Pb1 Pb1 Bi1 1_5565 1_5655 89.9(5) 89.5(4) 90.0(4)
Pb1 Pb1 Bi1 1_5565 1_6555 92.3(6) 91.2(5) 95.2(7)
Pb1 Pb1 Bi1 1_5565 5_4445 121.5(6) 120.2(5) 122.2(6)
Pb1 Pb1 Bi1 1_5565 5_4545 121.5(6) 120.2(5) 122.2(6)
Pb1 Pb1 O1 1_5565 1_5445 149.5(3) 148.4(3) 150.1(2)
Pb1 Pb1 O1 1_5565 1_5545 149.5(3) 148.4(3) 150.1(2)
Pb1 Pb1 O1 1_5565 5_4445 138.6(10) 122.9(12) 150.8(10)
Pb1 Pb1 O1 1_5565 5_4455 45.7(9) 27.8(8) 55.0(9)
Pb1 Pb1 O1 1_5565 5_5445 140.2(10) 131.1(12) 153.8(8)
Pb1 Pb1 O1 1_5565 5_5455 44.8(9) 36.5(8) 51.7(11)
Pb1 Pb1 O2 1_5565 5_4445 137.2(3) 126.5(6) 145.9(2)
Pb1 Pb1 O2 1_5565 5_4455 45.1(3) 34.2(3) 53.7(4)
Pb1 Pb1 O2 1_5565 5_4545 137.2(3) 126.5(6) 145.9(2)
Pb1 Pb1 O2 1_5565 5_4555 45.1(3) 34.2(3) 53.7(4)
Pb1 Pb1 O3 1_5565 1_4545 105.5(7) 103.6(7) 106.9(8)
Pb1 Pb1 O3 1_5565 5_4445 92.0(10) 75.6(10) 105.2(9)
Pb1 Pb1 O3 1_5565 5_4545 92.0(10) 75.6(10) 105.2(9)
Pb1 Pb1 O3 1_5565 5_5445 93.2(10) 80.8(10) 107.8(10)
Pb1 Pb1 O3 1_5565 5_5545 93.2(10) 80.8(10) 107.8(10)
Pb1 Pb1 Pb1 1_5655 1_6555 90.0(3) 90.0(2) 90.0(2)
Pb1 Pb1 Pb1 1_5655 5_4445 123.3(4) 123.3(4) 123.3(5)
Pb1 Pb1 Pb1 1_5655 5_4545 56.7(3) 56.7(4) 56.7(3)
Pb1 Pb1 Pb1 1_5655 5_5455 123.3(4) 123.3(4) 123.3(5)
Pb1 Pb1 Pb1 1_5655 5_5555 56.7(3) 56.7(4) 56.7(3)
Pb1 Pb1 Bi1 1_5655 1_4555 90.0(3) 90.0(4) 90.0(4)
Pb1 Pb1 Bi1 1_5655 1_5455 179.9(6) 179.4(5) 180.0(5)
Pb1 Pb1 Bi1 1_5655 1_5545 90.0(3) 90.0(5) 90.0(5)
Pb1 Pb1 Bi1 1_5655 . 88.1(3) 0 90.0(2)
Pb1 Pb1 Bi1 1_5655 1_5565 90.0(3) 90.00(18) 90.00(18)
Pb1 Pb1 Bi1 1_5655 1_5655 0.1(5) 0.0(5) 0.6(5)
Pb1 Pb1 Bi1 1_5655 1_6555 90.0(3) 90.0(2) 90.0(2)
Pb1 Pb1 Bi1 1_5655 5_4445 123.3(4) 123.3(4) 123.3(5)
Pb1 Pb1 Bi1 1_5655 5_4545 56.7(3) 56.7(4) 56.7(3)
Pb1 Pb1 Bi1 1_5655 5_5455 123.3(4) 123.3(4) 123.3(5)
Pb1 Pb1 Bi1 1_5655 5_5555 56.7(3) 56.7(4) 56.7(3)
Pb1 Pb1 O1 1_5655 1_5445 120.3(5) 119.8(4) 121.6(7)
Pb1 Pb1 O1 1_5655 1_5465 120.3(5) 119.8(4) 121.6(7)
Pb1 Pb1 O1 1_5655 1_5545 59.7(3) 58.4(4) 60.2(3)
Pb1 Pb1 O1 1_5655 1_5565 59.7(3) 58.4(4) 60.2(3)
Pb1 Pb1 O1 1_5655 5_4445 90.0(3) 90.0(4) 90.0(4)
Pb1 Pb1 O1 1_5655 5_4455 90.0(3) 90.0(2) 90.0(2)
Pb1 Pb1 O1 1_5655 5_5445 90.0(3) 90.00(19) 90.00(19)
Pb1 Pb1 O1 1_5655 5_5455 90.0(3) 90.00(19) 90.00(19)
Pb1 Pb1 O2 1_5655 5_4445 135.0(5) 124.0(7) 143.7(8)
Pb1 Pb1 O2 1_5655 5_4455 135.0(5) 124.0(7) 143.7(8)
Pb1 Pb1 O2 1_5655 5_4545 45.0(3) 36.3(4) 56.0(4)
Pb1 Pb1 O2 1_5655 5_4555 45.0(3) 36.3(4) 56.0(4)
Pb1 Pb1 O3 1_5655 1_4545 90.0(3) 90.0(2) 90.0(2)
Pb1 Pb1 O3 1_5655 1_6555 90.0(3) 90.0(4) 90.0(4)
Pb1 Pb1 O3 1_5655 5_4445 134.4(6) 131.0(6) 139.5(5)
Pb1 Pb1 O3 1_5655 5_4545 45.6(3) 40.5(4) 49.0(4)
Pb1 Pb1 O3 1_5655 5_5445 134.4(6) 131.0(6) 139.5(5)
Pb1 Pb1 O3 1_5655 5_5545 45.6(3) 40.5(4) 49.0(4)
Pb1 Pb1 Pb1 1_6555 5_4445 129.7(6) 129.2(6) 130.8(5)
Pb1 Pb1 Pb1 1_6555 5_4545 129.7(6) 129.2(6) 130.8(5)
Pb1 Pb1 Bi1 1_6555 1_4555 178.4(7) 176.7(7) 180.0(5)
Pb1 Pb1 Bi1 1_6555 1_5455 90.0(5) 89.9(5) 90.4(5)
Pb1 Pb1 Bi1 1_6555 1_5545 87.9(6) 82.6(7) 91.4(6)
Pb1 Pb1 Bi1 1_6555 . 100(800) 0 200(1200)
Pb1 Pb1 Bi1 1_6555 1_5565 92.3(6) 91.2(5) 94.8(6)
Pb1 Pb1 Bi1 1_6555 1_5655 90.0(5) 89.9(5) 90.4(5)
Pb1 Pb1 Bi1 1_6555 1_6555 0.1(5) 0.0(5) 0.5(4)
Pb1 Pb1 Bi1 1_6555 5_4445 129.2(6) 128.7(6) 130.4(5)
Pb1 Pb1 Bi1 1_6555 5_4545 129.2(6) 128.7(6) 130.4(5)
Pb1 Pb1 O1 1_6555 1_5445 90.3(9) 89.1(9) 93.2(8)
Pb1 Pb1 O1 1_6555 1_5465 88.1(9) 87.9(9) 88.2(9)
Pb1 Pb1 O1 1_6555 1_5545 90.3(9) 89.1(9) 93.2(8)
Pb1 Pb1 O1 1_6555 1_5565 88.1(9) 87.9(9) 88.2(9)
Pb1 Pb1 O1 1_6555 5_4445 130.5(10) 117.2(9) 142.9(12)
Pb1 Pb1 O1 1_6555 5_4455 136.3(10) 118.9(9) 146.9(11)
Pb1 Pb1 O1 1_6555 5_5445 46.8(9) 36.0(9) 61.7(8)
Pb1 Pb1 O1 1_6555 5_5455 48.6(9) 40.1(11) 59.4(8)
Pb1 Pb1 O2 1_6555 5_4445 88.7(17) 86.4(15) 91(2)
Pb1 Pb1 O2 1_6555 5_4455 91.8(18) 90(2) 95.8(19)
Pb1 Pb1 O2 1_6555 5_4545 88.7(17) 86.4(15) 91(2)
Pb1 Pb1 O2 1_6555 5_4555 91.8(18) 90(2) 95.8(19)
Pb1 Pb1 O3 1_6555 1_4545 162.3(7) 161.0(8) 164.3(7)
Pb1 Pb1 O3 1_6555 5_4445 134.4(3) 131.5(4) 136.5(2)
Pb1 Pb1 O3 1_6555 5_4545 134.4(3) 131.5(4) 136.5(2)
Pb1 Pb1 O3 1_6555 5_5445 46.0(3) 43.4(3) 54.3(4)
Pb1 Pb1 O3 1_6555 5_5545 46.0(3) 43.4(3) 54.3(4)
Pb1 Pb1 Pb1 5_4445 5_4545 66.6(4) 66.5(3) 66.6(4)
Pb1 Pb1 Bi1 5_4445 1_4555 48.5(4) 48.5(4) 48.5(4)
Pb1 Pb1 Bi1 5_4445 1_5455 56.7(4) 56.7(4) 56.7(4)
Pb1 Pb1 Bi1 5_4445 . 90(50) 90(80) 90(40)
Pb1 Pb1 Bi1 5_4445 1_5655 123.3(5) 123.3(5) 123.3(6)
Pb1 Pb1 Bi1 5_4445 1_6555 129.8(4) 129.2(5) 130.9(4)
Pb1 Pb1 Bi1 5_4445 5_4445 0.6(5) 0.4(5) 0.8(5)
Pb1 Pb1 Bi1 5_4445 5_4545 66.6(4) 66.5(3) 66.6(4)
Pb1 Pb1 O1 5_4445 1_5445 41.2(7) 40.3(8) 42.4(7)
Pb1 Pb1 O1 5_4445 1_5545 78.1(6) 77.7(5) 79.1(6)
Pb1 Pb1 O1 5_4445 5_4455 76.8(7) 76.4(8) 77.1(7)
Pb1 Pb1 O1 5_4445 5_5445 81.5(7) 81.0(6) 82.5(7)
Pb1 Pb1 O1 5_4445 5_5455 146.62(17) 146.3(2) 146.72(15)
Pb1 Pb1 O2 5_4445 5_4455 81.4(12) 81.1(11) 81.6(12)
Pb1 Pb1 O2 5_4445 5_4555 135.6(19) 133.3(19) 137(2)
Pb1 Pb1 O3 5_4445 1_4545 39.4(4) 39.0(4) 39.7(4)
Pb1 Pb1 O3 5_4445 5_5445 81.8(6) 79.3(6) 84.6(5)
Pb1 Pb1 O3 5_4445 5_5545 131.7(10) 130.5(10) 133.5(10)
Pb1 Pb1 Bi1 5_4545 1_4555 48.5(4) 48.5(4) 48.5(4)
Pb1 Pb1 Bi1 5_4545 1_5455 123.3(5) 123.3(5) 123.3(6)
Pb1 Pb1 Bi1 5_4545 . 90(50) 90(80) 90(40)
Pb1 Pb1 Bi1 5_4545 1_5655 56.7(4) 56.7(4) 56.7(4)
Pb1 Pb1 Bi1 5_4545 1_6555 129.8(4) 129.2(5) 130.9(4)
Pb1 Pb1 Bi1 5_4545 5_4445 66.6(4) 66.5(3) 66.6(4)
Pb1 Pb1 Bi1 5_4545 5_4545 0.6(5) 0.4(5) 0.8(5)
Pb1 Pb1 O1 5_4545 1_5445 78.1(6) 77.7(5) 79.1(6)
Pb1 Pb1 O1 5_4545 1_5545 41.2(7) 40.3(8) 42.4(7)
Pb1 Pb1 O1 5_4545 5_4455 76.8(7) 76.4(8) 77.1(7)
Pb1 Pb1 O1 5_4545 5_5445 81.5(7) 81.0(6) 82.5(7)
Pb1 Pb1 O1 5_4545 5_5455 146.62(17) 146.3(2) 146.72(15)
Pb1 Pb1 O2 5_4545 5_4455 135.6(19) 133.3(19) 137(2)
Pb1 Pb1 O2 5_4545 5_4555 81.4(12) 81.1(11) 81.6(12)
Pb1 Pb1 O3 5_4545 1_4545 39.4(4) 39.0(4) 39.7(4)
Pb1 Pb1 O3 5_4545 5_5445 131.7(10) 130.5(10) 133.5(10)
Pb1 Pb1 O3 5_4545 5_5545 81.8(6) 79.3(6) 84.6(5)
Pb1 Pb1 Pb1 5_5455 5_5555 66.6(4) 66.5(3) 66.6(4)
Pb1 Pb1 Bi1 5_5455 1_4555 129.8(4) 129.2(5) 130.9(4)
Pb1 Pb1 Bi1 5_5455 1_5455 56.7(4) 56.7(4) 56.7(4)
Pb1 Pb1 Bi1 5_5455 . 90(50) 90(80) 90(40)
Pb1 Pb1 Bi1 5_5455 1_5655 123.3(5) 123.3(5) 123.3(6)
Pb1 Pb1 Bi1 5_5455 1_6555 48.5(4) 48.5(4) 48.5(4)
Pb1 Pb1 Bi1 5_5455 5_5455 0.6(5) 0.4(5) 0.8(5)
Pb1 Pb1 Bi1 5_5455 5_5555 66.6(4) 66.5(3) 66.6(4)
Pb1 Pb1 O1 5_5455 1_5465 41.2(7) 40.3(8) 42.4(7)
Pb1 Pb1 O1 5_5455 1_5565 78.1(6) 77.7(5) 79.1(6)
Pb1 Pb1 O1 5_5455 5_4445 146.62(17) 146.3(2) 146.72(15)
Pb1 Pb1 O1 5_5455 5_4455 81.5(7) 81.0(6) 82.5(7)
Pb1 Pb1 O1 5_5455 5_5445 76.8(7) 76.4(8) 77.1(7)
Pb1 Pb1 O2 5_5455 5_4445 81.4(12) 81.1(11) 81.6(12)
Pb1 Pb1 O2 5_5455 5_4545 135.6(19) 133.3(19) 137(2)
Pb1 Pb1 O3 5_5455 1_6555 39.4(4) 39.0(4) 39.7(4)
Pb1 Pb1 O3 5_5455 5_4445 81.8(6) 79.3(6) 84.6(5)
Pb1 Pb1 O3 5_5455 5_4545 131.7(10) 130.5(10) 133.5(10)
Pb1 Pb1 Bi1 5_5555 1_4555 129.8(4) 129.2(5) 130.9(4)
Pb1 Pb1 Bi1 5_5555 1_5455 123.3(5) 123.3(5) 123.3(6)
Pb1 Pb1 Bi1 5_5555 . 90(50) 90(80) 90(40)
Pb1 Pb1 Bi1 5_5555 1_5655 56.7(4) 56.7(4) 56.7(4)
Pb1 Pb1 Bi1 5_5555 1_6555 48.5(4) 48.5(4) 48.5(4)
Pb1 Pb1 Bi1 5_5555 5_5455 66.6(4) 66.5(3) 66.6(4)
Pb1 Pb1 Bi1 5_5555 5_5555 0.6(5) 0.4(5) 0.8(5)
Pb1 Pb1 O1 5_5555 1_5465 78.1(6) 77.7(5) 79.1(6)
Pb1 Pb1 O1 5_5555 1_5565 41.2(7) 40.3(8) 42.4(7)
Pb1 Pb1 O1 5_5555 5_4445 146.62(17) 146.3(2) 146.72(15)
Pb1 Pb1 O1 5_5555 5_4455 81.5(7) 81.0(6) 82.5(7)
Pb1 Pb1 O1 5_5555 5_5445 76.8(7) 76.4(8) 77.1(7)
Pb1 Pb1 O2 5_5555 5_4445 135.6(19) 133.3(19) 137(2)
Pb1 Pb1 O2 5_5555 5_4545 81.4(12) 81.1(11) 81.6(12)
Pb1 Pb1 O3 5_5555 1_6555 39.4(4) 39.0(4) 39.7(4)
Pb1 Pb1 O3 5_5555 5_4445 131.7(10) 130.5(10) 133.5(10)
Pb1 Pb1 O3 5_5555 5_4545 81.8(6) 79.3(6) 84.6(5)
Bi1 Pb1 Bi1 1_4555 1_5455 90.0(5) 89.8(5) 90.4(5)
Bi1 Pb1 Bi1 1_4555 1_5545 92.4(6) 91.2(5) 95.0(6)
Bi1 Pb1 Bi1 1_4555 . 100(700) 0 200(1200)
Bi1 Pb1 Bi1 1_4555 1_5565 87.9(6) 82.6(7) 90.9(6)
Bi1 Pb1 Bi1 1_4555 1_5655 90.0(5) 89.8(5) 90.4(5)
Bi1 Pb1 Bi1 1_4555 1_6555 178.4(7) 177.0(7) 180.0(5)
Bi1 Pb1 Bi1 1_4555 5_4445 49.1(5) 49.1(5) 49.1(5)
Bi1 Pb1 Bi1 1_4555 5_4545 49.1(5) 49.1(5) 49.1(5)
Bi1 Pb1 Bi1 1_4555 5_5455 129.3(6) 128.7(6) 130.6(5)
Bi1 Pb1 Bi1 1_4555 5_5555 129.3(6) 128.7(6) 130.6(5)
Bi1 Pb1 O1 1_4555 1_5445 88.3(9) 87.9(8) 88.6(9)
Bi1 Pb1 O1 1_4555 1_5465 90.4(9) 89.1(9) 93.4(8)
Bi1 Pb1 O1 1_4555 1_5545 88.3(9) 87.9(8) 88.6(9)
Bi1 Pb1 O1 1_4555 1_5565 90.4(9) 89.1(9) 93.4(8)
Bi1 Pb1 O1 1_4555 5_4445 48.6(9) 40.2(11) 59.9(8)
Bi1 Pb1 O1 1_4555 5_4455 46.5(9) 35.7(9) 61.9(8)
Bi1 Pb1 O1 1_4555 5_5445 136.0(10) 118.5(8) 147.0(11)
Bi1 Pb1 O1 1_4555 5_5455 130.8(10) 117.2(9) 142.5(13)
Bi1 Pb1 O2 1_4555 5_4445 91.8(18) 90(2) 95.7(19)
Bi1 Pb1 O2 1_4555 5_4455 88.7(17) 86.4(15) 91(2)
Bi1 Pb1 O2 1_4555 5_4545 91.8(18) 90(2) 95.7(19)
Bi1 Pb1 O2 1_4555 5_4555 88.7(17) 86.4(15) 91(2)
Bi1 Pb1 O3 1_4555 1_4545 16.0(6) 16.0(6) 16.0(6)
Bi1 Pb1 O3 1_4555 1_6555 162.4(7) 161.1(8) 164.5(7)
Bi1 Pb1 O3 1_4555 5_4445 46.0(3) 43.4(3) 54.4(4)
Bi1 Pb1 O3 1_4555 5_4545 46.0(3) 43.4(3) 54.4(4)
Bi1 Pb1 O3 1_4555 5_5445 134.3(3) 130.5(4) 136.5(2)
Bi1 Pb1 O3 1_4555 5_5545 134.3(3) 130.5(4) 136.5(2)
Bi1 Pb1 Bi1 1_5455 1_5545 89.9(3) 89.51(18) 90.1(5)
Bi1 Pb1 Bi1 1_5455 . 87.9(3) 0 89.990(7)
Bi1 Pb1 Bi1 1_5455 1_5565 89.9(3) 89.51(18) 90.1(5)
Bi1 Pb1 Bi1 1_5455 1_5655 179.7(6) 178.8(5) 180.0(5)
Bi1 Pb1 Bi1 1_5455 1_6555 90.0(3) 89.8(4) 90.4(2)
Bi1 Pb1 Bi1 1_5455 5_4445 56.7(3) 56.7(4) 56.7(3)
Bi1 Pb1 Bi1 1_5455 5_4545 123.3(4) 123.3(4) 123.3(5)
Bi1 Pb1 Bi1 1_5455 5_5455 56.7(3) 56.7(4) 56.7(3)
Bi1 Pb1 Bi1 1_5455 5_5555 123.3(4) 123.3(4) 123.3(5)
Bi1 Pb1 O1 1_5455 1_5445 59.9(3) 58.5(4) 60.5(3)
Bi1 Pb1 O1 1_5455 1_5465 59.9(3) 58.5(4) 60.5(3)
Bi1 Pb1 O1 1_5455 1_5545 120.6(5) 120.1(4) 121.6(7)
Bi1 Pb1 O1 1_5455 1_5565 120.6(5) 120.1(4) 121.6(7)
Bi1 Pb1 O1 1_5455 5_4445 90.0(3) 89.94(19) 90.1(4)
Bi1 Pb1 O1 1_5455 5_4455 90.0(3) 89.4(2) 90.60(19)
Bi1 Pb1 O1 1_5455 5_5445 90.0(3) 89.4(2) 90.60(19)
Bi1 Pb1 O1 1_5455 5_5455 90.0(3) 89.94(19) 90.1(4)
Bi1 Pb1 O2 1_5455 5_4445 44.9(3) 36.1(4) 56.0(4)
Bi1 Pb1 O2 1_5455 5_4455 44.9(3) 36.1(4) 56.0(4)
Bi1 Pb1 O2 1_5455 5_4545 135.0(5) 124.1(7) 143.6(8)
Bi1 Pb1 O2 1_5455 5_4555 135.0(5) 124.1(7) 143.6(8)
Bi1 Pb1 O3 1_5455 1_4545 89.8(3) 89.8(2) 89.9(4)
Bi1 Pb1 O3 1_5455 1_6555 89.8(3) 89.8(2) 89.9(4)
Bi1 Pb1 O3 1_5455 5_4445 45.6(3) 41.0(4) 48.9(4)
Bi1 Pb1 O3 1_5455 5_4545 134.5(6) 130.9(6) 140.1(5)
Bi1 Pb1 O3 1_5455 5_5445 45.6(3) 41.0(4) 48.9(4)
Bi1 Pb1 O3 1_5455 5_5545 134.5(6) 130.9(6) 140.1(5)
Bi1 Pb1 Bi1 1_5545 . 100(800) 0 200(1500)
Bi1 Pb1 Bi1 1_5545 1_5565 176.6(7) 174.3(8) 180.0(5)
Bi1 Pb1 Bi1 1_5545 1_5655 89.9(5) 89.5(4) 90.1(5)
Bi1 Pb1 Bi1 1_5545 1_6555 87.9(6) 82.6(6) 90.9(6)
Bi1 Pb1 Bi1 1_5545 5_5455 121.5(6) 120.2(5) 122.2(6)
Bi1 Pb1 Bi1 1_5545 5_5555 121.5(6) 120.2(5) 122.2(6)
Bi1 Pb1 O1 1_5545 1_5445 32.3(4) 32.3(4) 32.3(4)
Bi1 Pb1 O1 1_5545 1_5465 149.5(3) 148.4(3) 150.1(2)
Bi1 Pb1 O1 1_5545 1_5545 32.3(4) 32.3(4) 32.3(4)
Bi1 Pb1 O1 1_5545 1_5565 149.5(3) 148.4(3) 150.1(2)
Bi1 Pb1 O1 1_5545 5_4445 44.6(9) 35.9(8) 51.7(11)
Bi1 Pb1 O1 1_5545 5_4455 139.9(10) 130.8(11) 153.8(8)
Bi1 Pb1 O1 1_5545 5_5445 45.3(9) 27.1(8) 55.1(9)
Bi1 Pb1 O1 1_5545 5_5455 138.2(10) 122.8(12) 150.8(10)
Bi1 Pb1 O2 1_5545 5_4445 45.1(3) 34.2(3) 53.7(4)
Bi1 Pb1 O2 1_5545 5_4455 136.9(3) 126.2(6) 145.9(2)
Bi1 Pb1 O2 1_5545 5_4545 45.1(3) 34.2(3) 53.7(4)
Bi1 Pb1 O2 1_5545 5_4555 136.9(3) 126.2(6) 145.9(2)
Bi1 Pb1 O3 1_5545 1_6555 105.5(7) 103.6(7) 106.9(8)
Bi1 Pb1 O3 1_5545 5_4445 92.8(10) 80.1(10) 107.8(10)
Bi1 Pb1 O3 1_5545 5_4545 92.8(10) 80.1(10) 107.8(10)
Bi1 Pb1 O3 1_5545 5_5445 91.6(10) 74.9(10) 105.2(9)
Bi1 Pb1 O3 1_5545 5_5545 91.6(10) 74.9(10) 105.2(9)
Bi1 Pb1 Bi1 . 1_5565 100(500) 0 200(1300)
Bi1 Pb1 Bi1 . 1_5655 87.9(5) 0 90.0(4)
Bi1 Pb1 Bi1 . 1_6555 100(400) 0 200(1100)
Bi1 Pb1 Bi1 . 5_4445 90(30) 90(60) 90(20)
Bi1 Pb1 Bi1 . 5_4545 90(30) 90(60) 90(20)
Bi1 Pb1 Bi1 . 5_5455 90(30) 90(60) 90(20)
Bi1 Pb1 Bi1 . 5_5555 90(30) 90(60) 90(20)
Bi1 Pb1 O1 . 1_5445 130(90) 100(300) 130(30)
Bi1 Pb1 O1 . 1_5465 130(90) 100(300) 130(30)
Bi1 Pb1 O1 . 1_5545 130(90) 100(300) 130(30)
Bi1 Pb1 O1 . 1_5565 130(90) 100(300) 130(30)
Bi1 Pb1 O1 . 5_4445 100(400) 0 0(2000)
Bi1 Pb1 O1 . 5_4455 100(400) 0 170(40)
Bi1 Pb1 O1 . 5_5445 100(400) 0 170(40)
Bi1 Pb1 O1 . 5_5455 100(400) 0 0(2000)
Bi1 Pb1 O2 . 5_4445 100(200) 0 130(140)
Bi1 Pb1 O2 . 5_4455 100(200) 0 130(140)
Bi1 Pb1 O2 . 5_4545 100(200) 0 130(140)
Bi1 Pb1 O2 . 5_4555 100(200) 0 130(140)
Bi1 Pb1 O3 . 1_4545 70(40) 70(70) 70(20)
Bi1 Pb1 O3 . 1_6555 70(40) 70(70) 70(20)
Bi1 Pb1 O3 . 5_4445 100(200) 0 140(50)
Bi1 Pb1 O3 . 5_4545 100(200) 0 140(50)
Bi1 Pb1 O3 . 5_5445 100(200) 0 140(50)
Bi1 Pb1 O3 . 5_5545 100(200) 0 140(50)
Bi1 Pb1 Bi1 1_5565 1_5655 89.9(5) 89.5(4) 90.1(5)
Bi1 Pb1 Bi1 1_5565 1_6555 92.4(6) 91.2(5) 95.0(6)
Bi1 Pb1 Bi1 1_5565 5_4445 121.5(6) 120.2(5) 122.2(6)
Bi1 Pb1 Bi1 1_5565 5_4545 121.5(6) 120.2(5) 122.2(6)
Bi1 Pb1 O1 1_5565 1_5445 149.5(3) 148.4(3) 150.1(2)
Bi1 Pb1 O1 1_5565 1_5465 32.3(4) 32.3(4) 32.3(4)
Bi1 Pb1 O1 1_5565 1_5545 149.5(3) 148.4(3) 150.1(2)
Bi1 Pb1 O1 1_5565 1_5565 32.3(4) 32.3(4) 32.3(4)
Bi1 Pb1 O1 1_5565 5_4445 138.2(10) 122.8(12) 150.8(10)
Bi1 Pb1 O1 1_5565 5_4455 45.3(9) 27.1(8) 55.1(9)
Bi1 Pb1 O1 1_5565 5_5445 139.9(10) 130.8(11) 153.8(8)
Bi1 Pb1 O1 1_5565 5_5455 44.6(9) 35.9(8) 51.7(11)
Bi1 Pb1 O2 1_5565 5_4445 136.9(3) 126.2(6) 145.9(2)
Bi1 Pb1 O2 1_5565 5_4455 45.1(3) 34.2(3) 53.7(4)
Bi1 Pb1 O2 1_5565 5_4545 136.9(3) 126.2(6) 145.9(2)
Bi1 Pb1 O2 1_5565 5_4555 45.1(3) 34.2(3) 53.7(4)
Bi1 Pb1 O3 1_5565 1_4545 105.5(7) 103.6(7) 106.9(8)
Bi1 Pb1 O3 1_5565 5_4445 91.6(10) 74.9(10) 105.2(9)
Bi1 Pb1 O3 1_5565 5_4545 91.6(10) 74.9(10) 105.2(9)
Bi1 Pb1 O3 1_5565 5_5445 92.8(10) 80.1(10) 107.8(10)
Bi1 Pb1 O3 1_5565 5_5545 92.8(10) 80.1(10) 107.8(10)
Bi1 Pb1 Bi1 1_5655 1_6555 90.0(3) 89.8(4) 90.4(2)
Bi1 Pb1 Bi1 1_5655 5_4445 123.3(4) 123.3(4) 123.3(5)
Bi1 Pb1 Bi1 1_5655 5_4545 56.7(3) 56.7(4) 56.7(3)
Bi1 Pb1 Bi1 1_5655 5_5455 123.3(4) 123.3(4) 123.3(5)
Bi1 Pb1 Bi1 1_5655 5_5555 56.7(3) 56.7(4) 56.7(3)
Bi1 Pb1 O1 1_5655 1_5445 120.6(5) 120.1(4) 121.6(7)
Bi1 Pb1 O1 1_5655 1_5465 120.6(5) 120.1(4) 121.6(7)
Bi1 Pb1 O1 1_5655 1_5545 59.9(3) 58.5(4) 60.5(3)
Bi1 Pb1 O1 1_5655 1_5565 59.9(3) 58.5(4) 60.5(3)
Bi1 Pb1 O1 1_5655 5_4445 90.0(3) 89.94(19) 90.1(4)
Bi1 Pb1 O1 1_5655 5_4455 90.0(3) 89.4(2) 90.60(19)
Bi1 Pb1 O1 1_5655 5_5445 90.0(3) 89.4(2) 90.60(19)
Bi1 Pb1 O1 1_5655 5_5455 90.0(3) 89.94(19) 90.1(4)
Bi1 Pb1 O2 1_5655 5_4445 135.0(5) 124.1(7) 143.6(8)
Bi1 Pb1 O2 1_5655 5_4455 135.0(5) 124.1(7) 143.6(8)
Bi1 Pb1 O2 1_5655 5_4545 44.9(3) 36.1(4) 56.0(4)
Bi1 Pb1 O2 1_5655 5_4555 44.9(3) 36.1(4) 56.0(4)
Bi1 Pb1 O3 1_5655 1_4545 89.8(3) 89.8(2) 89.9(4)
Bi1 Pb1 O3 1_5655 1_6555 89.8(3) 89.8(2) 89.9(4)
Bi1 Pb1 O3 1_5655 5_4445 134.5(6) 130.9(6) 140.1(5)
Bi1 Pb1 O3 1_5655 5_4545 45.6(3) 41.0(4) 48.9(4)
Bi1 Pb1 O3 1_5655 5_5445 134.5(6) 130.9(6) 140.1(5)
Bi1 Pb1 O3 1_5655 5_5545 45.6(3) 41.0(4) 48.9(4)
Bi1 Pb1 Bi1 1_6555 5_4445 129.3(6) 128.7(6) 130.6(5)
Bi1 Pb1 Bi1 1_6555 5_4545 129.3(6) 128.7(6) 130.6(5)
Bi1 Pb1 Bi1 1_6555 5_5455 49.1(5) 49.1(5) 49.1(5)
Bi1 Pb1 Bi1 1_6555 5_5555 49.1(5) 49.1(5) 49.1(5)
Bi1 Pb1 O1 1_6555 1_5445 90.4(9) 89.1(9) 93.4(8)
Bi1 Pb1 O1 1_6555 1_5465 88.3(9) 87.9(8) 88.6(9)
Bi1 Pb1 O1 1_6555 1_5545 90.4(9) 89.1(9) 93.4(8)
Bi1 Pb1 O1 1_6555 1_5565 88.3(9) 87.9(8) 88.6(9)
Bi1 Pb1 O1 1_6555 5_4445 130.8(10) 117.2(9) 142.5(13)
Bi1 Pb1 O1 1_6555 5_4455 136.0(10) 118.5(8) 147.0(11)
Bi1 Pb1 O1 1_6555 5_5445 46.5(9) 35.7(9) 61.9(8)
Bi1 Pb1 O1 1_6555 5_5455 48.6(9) 40.2(11) 59.9(8)
Bi1 Pb1 O2 1_6555 5_4445 88.7(17) 86.4(15) 91(2)
Bi1 Pb1 O2 1_6555 5_4455 91.8(18) 90(2) 95.7(19)
Bi1 Pb1 O2 1_6555 5_4545 88.7(17) 86.4(15) 91(2)
Bi1 Pb1 O2 1_6555 5_4555 91.8(18) 90(2) 95.7(19)
Bi1 Pb1 O3 1_6555 1_4545 162.4(7) 161.1(8) 164.5(7)
Bi1 Pb1 O3 1_6555 1_6555 16.0(6) 16.0(6) 16.0(6)
Bi1 Pb1 O3 1_6555 5_4445 134.3(3) 130.5(4) 136.5(2)
Bi1 Pb1 O3 1_6555 5_4545 134.3(3) 130.5(4) 136.5(2)
Bi1 Pb1 O3 1_6555 5_5445 46.0(3) 43.4(3) 54.4(4)
Bi1 Pb1 O3 1_6555 5_5545 46.0(3) 43.4(3) 54.4(4)
Bi1 Pb1 Bi1 5_4445 5_4545 66.6(4) 66.5(3) 66.6(4)
Bi1 Pb1 O1 5_4445 1_5445 40.6(7) 39.9(8) 41.6(7)
Bi1 Pb1 O1 5_4445 1_5545 77.8(6) 77.4(5) 78.5(6)
Bi1 Pb1 O1 5_4445 5_4455 77.3(7) 76.8(7) 77.7(7)
Bi1 Pb1 O1 5_4445 5_5445 80.9(7) 80.5(7) 81.7(7)
Bi1 Pb1 O1 5_4445 5_5455 146.64(17) 146.4(2) 146.73(15)
Bi1 Pb1 O2 5_4445 5_4455 81.7(12) 81.3(11) 81.9(12)
Bi1 Pb1 O2 5_4445 5_4555 136.0(19) 133.6(19) 138(2)
Bi1 Pb1 O3 5_4445 1_4545 39.8(4) 39.4(4) 39.9(4)
Bi1 Pb1 O3 5_4445 5_5445 81.5(6) 79.1(6) 84.1(6)
Bi1 Pb1 O3 5_4445 5_5545 131.3(10) 130.2(10) 132.9(10)
Bi1 Pb1 O1 5_4545 1_5445 77.8(6) 77.4(5) 78.5(6)
Bi1 Pb1 O1 5_4545 1_5545 40.6(7) 39.9(8) 41.6(7)
Bi1 Pb1 O1 5_4545 5_4455 77.3(7) 76.8(7) 77.7(7)
Bi1 Pb1 O1 5_4545 5_5445 80.9(7) 80.5(7) 81.7(7)
Bi1 Pb1 O1 5_4545 5_5455 146.64(17) 146.4(2) 146.73(15)
Bi1 Pb1 O2 5_4545 5_4455 136.0(19) 133.6(19) 138(2)
Bi1 Pb1 O2 5_4545 5_4555 81.7(12) 81.3(11) 81.9(12)
Bi1 Pb1 O3 5_4545 1_4545 39.8(4) 39.4(4) 39.9(4)
Bi1 Pb1 O3 5_4545 5_5445 131.3(10) 130.2(10) 132.9(10)
Bi1 Pb1 O3 5_4545 5_5545 81.5(6) 79.1(6) 84.1(6)
Bi1 Pb1 Bi1 5_5455 5_5555 66.6(4) 66.5(3) 66.6(4)
Bi1 Pb1 O1 5_5455 1_5465 40.6(7) 39.9(8) 41.6(7)
Bi1 Pb1 O1 5_5455 1_5565 77.8(6) 77.4(5) 78.5(6)
Bi1 Pb1 O1 5_5455 5_4445 146.64(17) 146.4(2) 146.73(15)
Bi1 Pb1 O1 5_5455 5_4455 80.9(7) 80.5(7) 81.7(7)
Bi1 Pb1 O1 5_5455 5_5445 77.3(7) 76.8(7) 77.7(7)
Bi1 Pb1 O2 5_5455 5_4445 81.7(12) 81.3(11) 81.9(12)
Bi1 Pb1 O2 5_5455 5_4545 136.0(19) 133.6(19) 138(2)
Bi1 Pb1 O3 5_5455 1_6555 39.8(4) 39.4(4) 39.9(4)
Bi1 Pb1 O3 5_5455 5_4445 81.5(6) 79.1(6) 84.1(6)
Bi1 Pb1 O3 5_5455 5_4545 131.3(10) 130.2(10) 132.9(10)
Bi1 Pb1 O1 5_5555 1_5465 77.8(6) 77.4(5) 78.5(6)
Bi1 Pb1 O1 5_5555 1_5565 40.6(7) 39.9(8) 41.6(7)
Bi1 Pb1 O1 5_5555 5_4445 146.64(17) 146.4(2) 146.73(15)
Bi1 Pb1 O1 5_5555 5_4455 80.9(7) 80.5(7) 81.7(7)
Bi1 Pb1 O1 5_5555 5_5445 77.3(7) 76.8(7) 77.7(7)
Bi1 Pb1 O2 5_5555 5_4445 136.0(19) 133.6(19) 138(2)
Bi1 Pb1 O2 5_5555 5_4545 81.7(12) 81.3(11) 81.9(12)
Bi1 Pb1 O3 5_5555 1_6555 39.8(4) 39.4(4) 39.9(4)
Bi1 Pb1 O3 5_5555 5_4445 131.3(10) 130.2(10) 132.9(10)
Bi1 Pb1 O3 5_5555 5_4545 81.5(6) 79.1(6) 84.1(6)
O1 Pb1 O1 1_5445 1_5545 60.7(3) 59.6(3) 63.2(4)
O1 Pb1 O1 1_5445 5_4445 41.1(5) 40.4(5) 41.6(5)
O1 Pb1 O1 1_5445 5_4455 118.2(9) 116.7(8) 118.9(9)
O1 Pb1 O1 1_5445 5_5445 42.8(6) 41.8(6) 45.3(6)
O1 Pb1 O1 1_5445 5_5455 125.0(10) 122.9(10) 129.8(10)
O1 Pb1 O2 1_5445 5_4455 96.8(3) 94.9(3) 99.1(3)
O1 Pb1 O2 1_5445 5_4555 157.1(6) 156.5(5) 158.0(6)
O1 Pb1 O3 1_5445 1_4545 73.7(7) 73.2(7) 74.2(6)
O1 Pb1 O3 1_5445 5_4445 55.1(8) 54.6(8) 55.4(8)
O1 Pb1 O3 1_5445 5_4545 96.7(9) 95.3(9) 97.9(10)
O1 Pb1 O3 1_5445 5_5445 56.2(9) 53.6(9) 59.4(8)
O1 Pb1 O3 1_5445 5_5545 99.7(10) 98.6(9) 102.3(10)
O1 Pb1 O1 1_5465 1_5565 60.7(3) 59.6(3) 63.2(4)
O1 Pb1 O1 1_5465 5_4445 125.0(10) 122.9(10) 129.8(10)
O1 Pb1 O1 1_5465 5_4455 42.8(6) 41.8(6) 45.3(6)
O1 Pb1 O1 1_5465 5_5445 118.2(9) 116.7(8) 118.9(9)
O1 Pb1 O1 1_5465 5_5455 41.1(5) 40.4(5) 41.6(5)
O1 Pb1 O2 1_5465 5_4445 96.8(3) 94.9(3) 99.1(3)
O1 Pb1 O2 1_5465 5_4545 157.1(6) 156.5(5) 158.0(6)
O1 Pb1 O3 1_5465 1_6555 73.7(7) 73.2(7) 74.2(6)
O1 Pb1 O3 1_5465 5_4445 56.2(9) 53.6(9) 59.4(8)
O1 Pb1 O3 1_5465 5_4545 99.7(10) 98.6(9) 102.3(10)
O1 Pb1 O3 1_5465 5_5445 55.1(8) 54.6(8) 55.4(8)
O1 Pb1 O3 1_5465 5_5545 96.7(9) 95.3(9) 97.9(10)
O1 Pb1 O1 1_5545 5_4445 41.1(5) 40.4(5) 41.6(5)
O1 Pb1 O1 1_5545 5_4455 118.2(9) 116.7(8) 118.9(9)
O1 Pb1 O1 1_5545 5_5445 42.8(6) 41.8(6) 45.3(6)
O1 Pb1 O1 1_5545 5_5455 125.0(10) 122.9(10) 129.8(10)
O1 Pb1 O2 1_5545 5_4455 157.1(6) 156.5(5) 158.0(6)
O1 Pb1 O2 1_5545 5_4555 96.8(3) 94.9(3) 99.1(3)
O1 Pb1 O3 1_5545 1_4545 73.7(7) 73.2(7) 74.2(6)
O1 Pb1 O3 1_5545 5_4445 96.7(9) 95.3(9) 97.9(10)
O1 Pb1 O3 1_5545 5_4545 55.1(8) 54.6(8) 55.4(8)
O1 Pb1 O3 1_5545 5_5445 99.7(10) 98.6(9) 102.3(10)
O1 Pb1 O3 1_5545 5_5545 56.2(9) 53.6(9) 59.4(8)
O1 Pb1 O1 1_5565 5_4445 125.0(10) 122.9(10) 129.8(10)
O1 Pb1 O1 1_5565 5_4455 42.8(6) 41.8(6) 45.3(6)
O1 Pb1 O1 1_5565 5_5445 118.2(9) 116.7(8) 118.9(9)
O1 Pb1 O1 1_5565 5_5455 41.1(5) 40.4(5) 41.6(5)
O1 Pb1 O2 1_5565 5_4445 157.1(6) 156.5(5) 158.0(6)
O1 Pb1 O2 1_5565 5_4545 96.8(3) 94.9(3) 99.1(3)
O1 Pb1 O3 1_5565 1_6555 73.7(7) 73.2(7) 74.2(6)
O1 Pb1 O3 1_5565 5_4445 99.7(10) 98.6(9) 102.3(10)
O1 Pb1 O3 1_5565 5_4545 56.2(9) 53.6(9) 59.4(8)
O1 Pb1 O3 1_5565 5_5445 96.7(9) 95.3(9) 97.9(10)
O1 Pb1 O3 1_5565 5_5545 55.1(8) 54.6(8) 55.4(8)
O1 Pb1 O1 5_4445 5_4455 95.4(11) 93.4(8) 105.7(12)
O1 Pb1 O1 5_4445 5_5445 87.8(10) 59.5(8) 106.7(13)
O1 Pb1 O1 5_4445 5_5455 166.0(11) 157.7(13) 180.0(5)
O1 Pb1 O2 5_4445 5_4445 59.8(14) 45.6(10) 69.4(16)
O1 Pb1 O2 5_4445 5_4455 121.7(13) 119.7(14) 123.4(13)
O1 Pb1 O2 5_4445 5_4545 59.8(14) 45.6(10) 69.4(16)
O1 Pb1 O2 5_4445 5_4555 121.7(13) 119.7(14) 123.4(13)
O1 Pb1 O3 5_4445 1_6555 155.4(12) 151.7(11) 158.1(12)
O1 Pb1 O3 5_4445 5_4445 62.0(9) 55.0(8) 77.1(10)
O1 Pb1 O3 5_4445 5_4545 62.0(9) 55.0(8) 77.1(10)
O1 Pb1 O3 5_4445 5_5445 118.1(8) 96.8(9) 135.8(7)
O1 Pb1 O3 5_4445 5_5545 118.1(8) 96.8(9) 135.8(7)
O1 Pb1 O1 5_4455 5_5445 163.4(11) 153.4(9) 180.0(5)
O1 Pb1 O1 5_4455 5_5455 87.8(11) 59.5(9) 106.7(14)
O1 Pb1 O2 5_4455 5_4445 121.8(14) 119.5(14) 127.4(11)
O1 Pb1 O2 5_4455 5_4455 59.9(15) 45.3(11) 70.2(18)
O1 Pb1 O2 5_4455 5_4545 121.8(14) 119.5(14) 127.4(11)
O1 Pb1 O2 5_4455 5_4555 59.9(15) 45.3(11) 70.2(18)
O1 Pb1 O3 5_4455 1_4545 51.6(8) 50.8(7) 52.1(9)
O1 Pb1 O3 5_4455 1_6555 102.3(7) 102.0(7) 102.6(6)
O1 Pb1 O3 5_4455 5_4445 60.7(8) 57.2(9) 64.8(10)
O1 Pb1 O3 5_4455 5_4545 60.7(8) 57.2(9) 64.8(10)
O1 Pb1 O3 5_4455 5_5445 119.3(8) 97.5(9) 133.2(7)
O1 Pb1 O3 5_4455 5_5545 119.3(8) 97.5(9) 133.2(7)
O1 Pb1 O1 5_5445 5_5455 95.4(11) 93.4(10) 105.7(12)
O1 Pb1 O2 5_5445 5_4445 59.9(15) 45.3(11) 70.2(18)
O1 Pb1 O2 5_5445 5_4455 121.8(14) 119.5(14) 127.4(11)
O1 Pb1 O2 5_5445 5_4545 59.9(15) 45.3(11) 70.2(18)
O1 Pb1 O2 5_5445 5_4555 121.8(14) 119.5(14) 127.4(11)
O1 Pb1 O3 5_5445 1_4545 102.3(7) 102.0(7) 102.6(6)
O1 Pb1 O3 5_5445 1_6555 51.6(8) 50.8(7) 52.1(9)
O1 Pb1 O3 5_5445 5_4445 119.3(8) 97.5(9) 133.2(7)
O1 Pb1 O3 5_5445 5_4545 119.3(8) 97.5(9) 133.2(7)
O1 Pb1 O3 5_5445 5_5445 60.7(8) 57.2(9) 64.8(10)
O1 Pb1 O3 5_5445 5_5545 60.7(8) 57.2(9) 64.8(10)
O1 Pb1 O2 5_5455 5_4445 121.7(13) 119.7(14) 123.4(13)
O1 Pb1 O2 5_5455 5_4455 59.8(14) 45.6(10) 69.4(16)
O1 Pb1 O2 5_5455 5_4545 121.7(13) 119.7(14) 123.4(13)
O1 Pb1 O2 5_5455 5_4555 59.8(14) 45.6(10) 69.4(16)
O1 Pb1 O3 5_5455 1_4545 155.4(12) 151.7(11) 158.1(12)
O1 Pb1 O3 5_5455 5_4445 118.1(8) 96.8(9) 135.8(7)
O1 Pb1 O3 5_5455 5_4545 118.1(8) 96.8(9) 135.8(7)
O1 Pb1 O3 5_5455 5_5445 62.0(9) 55.0(8) 77.1(10)
O1 Pb1 O3 5_5455 5_5545 62.0(9) 55.0(8) 77.1(10)
O2 Pb1 O2 5_4445 5_4455 94.64(18) 92.8(3) 96.16(12)
O2 Pb1 O2 5_4445 5_4545 90.0(5) 68.1(4) 107.5(8)
O2 Pb1 O2 5_4445 5_4555 168.6(6) 160.7(7) 180.0(5)
O2 Pb1 O3 5_4445 1_6555 96.6(15) 94.3(12) 98.4(17)
O2 Pb1 O3 5_4445 5_4445 62.2(11) 55.9(11) 69.9(11)
O2 Pb1 O3 5_4445 5_4545 122.1(12) 102.3(12) 145.3(13)
O2 Pb1 O3 5_4445 5_5445 62.4(10) 56.7(10) 67.3(14)
O2 Pb1 O3 5_4445 5_5545 120.3(12) 102.6(12) 134.2(18)
O2 Pb1 O2 5_4455 5_4545 168.6(6) 160.7(7) 180.0(5)
O2 Pb1 O2 5_4455 5_4555 90.0(5) 68.1(4) 107.5(8)
O2 Pb1 O3 5_4455 1_4545 96.6(15) 94.3(12) 98.4(17)
O2 Pb1 O3 5_4455 5_4445 62.4(10) 56.7(10) 67.3(14)
O2 Pb1 O3 5_4455 5_4545 120.3(12) 102.6(12) 134.2(18)
O2 Pb1 O3 5_4455 5_5445 62.2(11) 55.9(11) 69.9(11)
O2 Pb1 O3 5_4455 5_5545 122.1(12) 102.3(12) 145.3(13)
O2 Pb1 O2 5_4545 5_4555 94.64(18) 92.8(3) 96.16(12)
O2 Pb1 O3 5_4545 1_6555 96.6(15) 94.3(12) 98.4(17)
O2 Pb1 O3 5_4545 5_4445 122.1(12) 102.3(12) 145.3(13)
O2 Pb1 O3 5_4545 5_4545 62.2(11) 55.9(11) 69.9(11)
O2 Pb1 O3 5_4545 5_5445 120.3(12) 102.6(12) 134.2(18)
O2 Pb1 O3 5_4545 5_5545 62.4(10) 56.7(10) 67.3(14)
O2 Pb1 O3 5_4555 1_4545 96.6(15) 94.3(12) 98.4(17)
O2 Pb1 O3 5_4555 5_4445 120.3(12) 102.6(12) 134.2(18)
O2 Pb1 O3 5_4555 5_4545 62.4(10) 56.7(10) 67.3(14)
O2 Pb1 O3 5_4555 5_5445 122.1(12) 102.3(12) 145.3(13)
O2 Pb1 O3 5_4555 5_5545 62.2(11) 55.9(11) 69.9(11)
O3 Pb1 O3 1_4545 5_5445 121.3(6) 119.0(6) 123.5(6)
O3 Pb1 O3 1_4545 5_5545 121.3(6) 119.0(6) 123.5(6)
O3 Pb1 O3 1_6555 5_4445 121.3(6) 119.0(6) 123.5(6)
O3 Pb1 O3 1_6555 5_4545 121.3(6) 119.0(6) 123.5(6)
O3 Pb1 O3 5_4445 5_4545 88.8(5) 82.0(6) 99.1(5)
O3 Pb1 O3 5_4445 5_5445 89.2(2) 87.0(4) 90.66(14)
O3 Pb1 O3 5_4445 5_5545 164.2(12) 150.8(11) 180.0(5)
O3 Pb1 O3 5_4545 5_5445 164.2(12) 150.8(11) 180.0(5)
O3 Pb1 O3 5_4545 5_5545 89.2(2) 87.0(4) 90.66(14)
O3 Pb1 O3 5_5445 5_5545 88.8(5) 82.0(6) 99.1(5)
Fe1 Bi1 Fe1 1_5545 . 151.5(13) 151.5(13) 151.5(13)
Fe1 Bi1 Fe1 1_5545 5_4445 47.1(3) 46.2(3) 47.9(3)
Fe1 Bi1 Fe1 1_5545 5_4455 124.6(4) 122.3(3) 125.6(5)
Fe1 Bi1 Fe1 1_5545 5_4545 47.1(3) 46.2(3) 47.9(3)
Fe1 Bi1 Fe1 1_5545 5_4555 124.6(4) 122.3(3) 125.6(5)
Fe1 Bi1 Fe1 1_5545 5_5445 47.6(3) 47.2(3) 48.4(3)
Fe1 Bi1 Fe1 1_5545 5_5455 125.9(4) 121.8(6) 132.3(3)
Fe1 Bi1 Fe1 1_5545 5_5545 47.6(3) 47.2(3) 48.4(3)
Fe1 Bi1 Fe1 1_5545 5_5555 125.9(4) 121.8(6) 132.3(3)
Fe1 Bi1 Pb1 1_5545 1_4555 89.4(6) 88.2(6) 90.4(7)
Fe1 Bi1 Pb1 1_5545 1_5455 89.8(5) 89.6(4) 89.9(5)
Fe1 Bi1 Pb1 1_5545 . 40(140) 40(80) 0(400)
Fe1 Bi1 Pb1 1_5545 1_5655 89.8(5) 89.6(4) 89.9(5)
Fe1 Bi1 Pb1 1_5545 1_6555 90.1(6) 86.9(6) 95.6(5)
Fe1 Bi1 Pb1 1_5545 5_4445 55.6(5) 54.6(5) 57.5(5)
Fe1 Bi1 Pb1 1_5545 5_4545 55.6(5) 54.6(5) 57.5(5)
Fe1 Bi1 Pb1 1_5545 5_5445 55.2(5) 55.2(5) 55.2(5)
Fe1 Bi1 Pb1 1_5545 5_5545 55.2(5) 55.2(5) 55.2(5)
Fe1 Bi1 Bi1 1_5545 1_4555 89.3(6) 87.7(6) 90.6(7)
Fe1 Bi1 Bi1 1_5545 1_5455 90.0(5) 90.0(4) 90.0(4)
Fe1 Bi1 Bi1 1_5545 1_5565 177.2(7) 172.1(5) 179.9(7)
Fe1 Bi1 Bi1 1_5545 1_5655 90.0(5) 90.0(4) 90.0(4)
Fe1 Bi1 Bi1 1_5545 1_6555 90.2(6) 86.9(6) 95.8(5)
Fe1 Bi1 Bi1 1_5545 5_4445 55.2(5) 54.3(5) 56.8(5)
Fe1 Bi1 Bi1 1_5545 5_4545 55.2(5) 54.3(5) 56.8(5)
Fe1 Bi1 Bi1 1_5545 5_5445 54.9(5) 54.9(5) 54.9(5)
Fe1 Bi1 Bi1 1_5545 5_5545 54.9(5) 54.9(5) 54.9(5)
Fe1 Bi1 O1 1_5545 1_5445 30.2(3) 29.7(2) 31.7(3)
Fe1 Bi1 O1 1_5545 1_5455 123.5(6) 123.5(6) 123.5(6)
Fe1 Bi1 O1 1_5545 1_5545 30.2(3) 29.7(2) 31.7(3)
Fe1 Bi1 O1 1_5545 . 123.5(6) 123.5(6) 123.5(6)
Fe1 Bi1 O1 1_5545 5_4445 30.2(8) 28.7(7) 31.5(8)
Fe1 Bi1 O1 1_5545 5_4455 123.3(10) 119.4(8) 126.4(12)
Fe1 Bi1 O1 1_5545 5_5445 31.3(7) 30.6(7) 32.7(7)
Fe1 Bi1 O1 1_5545 5_5455 131.5(12) 127.0(13) 140.1(12)
Fe1 Bi1 O2 1_5545 1_5545 29.7(11) 29.7(11) 29.7(11)
Fe1 Bi1 O2 1_5545 5_4455 126.8(4) 126.1(4) 128.2(3)
Fe1 Bi1 O2 1_5545 5_4555 126.8(4) 126.1(4) 128.2(3)
Fe1 Bi1 O3 1_5545 1_4545 70.2(6) 69.1(6) 71.7(7)
Fe1 Bi1 O3 1_5545 1_5545 2.7(7) 2.7(7) 2.7(7)
Fe1 Bi1 O3 1_5545 5_4445 75.7(9) 74.4(9) 76.9(10)
Fe1 Bi1 O3 1_5545 5_4545 75.7(9) 74.4(9) 76.9(10)
Fe1 Bi1 O3 1_5545 5_5445 76.3(9) 75.5(9) 77.9(10)
Fe1 Bi1 O3 1_5545 5_5545 76.3(9) 75.5(9) 77.9(10)
Fe1 Bi1 Fe1 . 1_5565 151.5(9) 151.5(9) 151.5(9)
Fe1 Bi1 Fe1 . 5_4445 67.6(6) 67.6(6) 67.6(6)
Fe1 Bi1 Fe1 . 5_4455 38.6(4) 38.6(4) 38.6(4)
Fe1 Bi1 Fe1 . 5_4545 67.6(6) 67.6(6) 67.6(6)
Fe1 Bi1 Fe1 . 5_4555 38.6(4) 38.6(4) 38.6(4)
Fe1 Bi1 Fe1 . 5_5445 38.6(4) 38.6(4) 38.6(4)
Fe1 Bi1 Fe1 . 5_5455 67.6(6) 67.6(6) 67.6(6)
Fe1 Bi1 Fe1 . 5_5545 38.6(4) 38.6(4) 38.6(4)
Fe1 Bi1 Fe1 . 5_5555 67.6(6) 67.6(6) 67.6(6)
Fe1 Bi1 Pb1 . 1_4555 113.0(9) 113.0(9) 113.0(9)
Fe1 Bi1 Pb1 . 1_6555 113.0(9) 113.0(9) 113.0(9)
Fe1 Bi1 Pb1 . 5_4445 102.8(8) 102.8(8) 102.8(8)
Fe1 Bi1 Pb1 . 5_4455 137.1(4) 137.1(4) 137.1(4)
Fe1 Bi1 Pb1 . 5_4545 102.8(8) 102.8(8) 102.8(8)
Fe1 Bi1 Pb1 . 5_4555 137.1(4) 137.1(4) 137.1(4)
Fe1 Bi1 Pb1 . 5_5445 137.1(4) 137.1(4) 137.1(4)
Fe1 Bi1 Pb1 . 5_5455 102.8(8) 102.8(8) 102.8(8)
Fe1 Bi1 Pb1 . 5_5545 137.1(4) 137.1(4) 137.1(4)
Fe1 Bi1 Pb1 . 5_5555 102.8(8) 102.8(8) 102.8(8)
Fe1 Bi1 Bi1 . 1_4555 112.7(9) 112.7(9) 112.7(9)
Fe1 Bi1 Bi1 . 1_5455 90.0(4) 90.0(4) 90.0(4)
Fe1 Bi1 Bi1 . 1_5655 90.0(4) 90.0(4) 90.0(4)
Fe1 Bi1 Bi1 . 1_6555 112.7(9) 112.7(9) 112.7(9)
Fe1 Bi1 Bi1 . 5_4445 103.1(8) 103.1(8) 103.1(8)
Fe1 Bi1 Bi1 . 5_4455 137.7(4) 137.7(4) 137.7(4)
Fe1 Bi1 Bi1 . 5_4545 103.1(8) 103.1(8) 103.1(8)
Fe1 Bi1 Bi1 . 5_4555 137.7(4) 137.7(4) 137.7(4)
Fe1 Bi1 Bi1 . 5_5445 137.7(4) 137.7(4) 137.7(4)
Fe1 Bi1 Bi1 . 5_5455 103.1(8) 103.1(8) 103.1(8)
Fe1 Bi1 Bi1 . 5_5545 137.7(4) 137.7(4) 137.7(4)
Fe1 Bi1 Bi1 . 5_5555 103.1(8) 103.1(8) 103.1(8)
Fe1 Bi1 O1 . 1_5445 140.2(8) 140.2(8) 140.2(8)
Fe1 Bi1 O1 . 1_5455 53.1(7) 53.1(7) 53.1(7)
Fe1 Bi1 O1 . 1_5465 140.2(8) 140.2(8) 140.2(8)
Fe1 Bi1 O1 . 1_5545 140.2(8) 140.2(8) 140.2(8)
Fe1 Bi1 O1 . . 53.1(7) 53.1(7) 53.1(7)
Fe1 Bi1 O1 . 1_5565 140.2(8) 140.2(8) 140.2(8)
Fe1 Bi1 O1 . 5_4445 68.5(13) 68.5(13) 68.5(13)
Fe1 Bi1 O1 . 5_4455 32.0(10) 32.0(10) 32.0(10)
Fe1 Bi1 O1 . 5_5445 32.0(10) 32.0(10) 32.0(10)
Fe1 Bi1 O1 . 5_5455 68.5(13) 68.5(13) 68.5(13)
Fe1 Bi1 O2 . 1_4565 178.8(14) 178.8(14) 178.8(14)
Fe1 Bi1 O2 . 1_5545 178.8(14) 178.8(14) 178.8(14)
Fe1 Bi1 O3 . 1_5545 148.8(13) 148.8(13) 148.8(13)
Fe1 Bi1 O3 . . 148.8(13) 148.8(13) 148.8(13)
Fe1 Bi1 Fe1 1_5565 5_4445 125.9(4) 121.8(6) 132.3(3)
Fe1 Bi1 Fe1 1_5565 5_4455 47.6(3) 47.2(3) 48.4(3)
Fe1 Bi1 Fe1 1_5565 5_4545 125.9(4) 121.8(6) 132.3(3)
Fe1 Bi1 Fe1 1_5565 5_4555 47.6(3) 47.2(3) 48.4(3)
Fe1 Bi1 Fe1 1_5565 5_5445 124.6(4) 122.3(3) 125.6(5)
Fe1 Bi1 Fe1 1_5565 5_5455 47.1(3) 46.2(3) 47.9(3)
Fe1 Bi1 Fe1 1_5565 5_5545 124.6(4) 122.3(3) 125.6(5)
Fe1 Bi1 Fe1 1_5565 5_5555 47.1(3) 46.2(3) 47.9(3)
Fe1 Bi1 Pb1 1_5565 1_4555 90.1(6) 86.9(6) 95.6(5)
Fe1 Bi1 Pb1 1_5565 1_5455 89.8(5) 89.6(4) 89.9(5)
Fe1 Bi1 Pb1 1_5565 . 40(140) 40(80) 0(400)
Fe1 Bi1 Pb1 1_5565 1_5655 89.8(5) 89.6(4) 89.9(5)
Fe1 Bi1 Pb1 1_5565 1_6555 89.4(6) 88.2(6) 90.4(7)
Fe1 Bi1 Pb1 1_5565 5_4455 55.2(5) 55.2(5) 55.2(5)
Fe1 Bi1 Pb1 1_5565 5_4555 55.2(5) 55.2(5) 55.2(5)
Fe1 Bi1 Pb1 1_5565 5_5455 55.6(5) 54.6(5) 57.5(5)
Fe1 Bi1 Pb1 1_5565 5_5555 55.6(5) 54.6(5) 57.5(5)
Fe1 Bi1 Bi1 1_5565 1_4555 90.2(6) 86.9(6) 95.8(5)
Fe1 Bi1 Bi1 1_5565 1_5455 90.0(5) 90.0(5) 90.0(5)
Fe1 Bi1 Bi1 1_5565 1_5545 177.2(7) 172.1(5) 179.9(7)
Fe1 Bi1 Bi1 1_5565 1_5655 90.0(5) 90.0(5) 90.0(5)
Fe1 Bi1 Bi1 1_5565 1_6555 89.3(6) 87.7(6) 90.6(7)
Fe1 Bi1 Bi1 1_5565 5_4455 54.9(5) 54.9(5) 54.9(5)
Fe1 Bi1 Bi1 1_5565 5_4555 54.9(5) 54.9(5) 54.9(5)
Fe1 Bi1 Bi1 1_5565 5_5455 55.2(5) 54.3(5) 56.8(5)
Fe1 Bi1 Bi1 1_5565 5_5555 55.2(5) 54.3(5) 56.8(5)
Fe1 Bi1 O1 1_5565 1_5455 123.5(6) 123.5(6) 123.5(6)
Fe1 Bi1 O1 1_5565 1_5465 30.2(3) 29.7(2) 31.7(3)
Fe1 Bi1 O1 1_5565 . 123.5(6) 123.5(6) 123.5(6)
Fe1 Bi1 O1 1_5565 1_5565 30.2(3) 29.7(2) 31.7(3)
Fe1 Bi1 O1 1_5565 5_4445 131.5(12) 127.0(13) 140.1(12)
Fe1 Bi1 O1 1_5565 5_4455 31.3(7) 30.6(7) 32.7(7)
Fe1 Bi1 O1 1_5565 5_5445 123.3(10) 119.4(8) 126.4(12)
Fe1 Bi1 O1 1_5565 5_5455 30.2(8) 28.7(7) 31.5(8)
Fe1 Bi1 O2 1_5565 1_4565 29.7(11) 29.7(11) 29.7(11)
Fe1 Bi1 O2 1_5565 5_4445 126.8(4) 126.1(4) 128.2(3)
Fe1 Bi1 O2 1_5565 5_4545 126.8(4) 126.1(4) 128.2(3)
Fe1 Bi1 O3 1_5565 . 2.7(7) 2.7(7) 2.7(7)
Fe1 Bi1 O3 1_5565 1_6555 70.2(6) 69.1(6) 71.7(7)
Fe1 Bi1 O3 1_5565 5_4445 76.3(9) 75.5(9) 77.9(10)
Fe1 Bi1 O3 1_5565 5_4545 76.3(9) 75.5(9) 77.9(10)
Fe1 Bi1 O3 1_5565 5_5445 75.7(9) 74.4(9) 76.9(10)
Fe1 Bi1 O3 1_5565 5_5545 75.7(9) 74.4(9) 76.9(10)
Fe1 Bi1 Fe1 5_4445 5_4455 73.9(3) 69.9(2) 83.0(3)
Fe1 Bi1 Fe1 5_4445 5_4545 69.7(3) 62.1(3) 73.0(3)
Fe1 Bi1 Fe1 5_4445 5_4555 111.2(5) 107.2(4) 121.0(4)
Fe1 Bi1 Fe1 5_4445 5_5445 69.3(3) 61.0(3) 73.1(4)
Fe1 Bi1 Fe1 5_4445 5_5455 110.32(17) 109.75(16) 111.92(17)
Fe1 Bi1 Fe1 5_4445 5_5545 107.0(5) 93.6(4) 113.4(7)
Fe1 Bi1 Fe1 5_4445 5_5555 172.9(6) 169.5(7) 180.0(5)
Fe1 Bi1 Pb1 5_4445 1_4555 56.6(4) 53.8(4) 59.7(4)
Fe1 Bi1 Pb1 5_4445 1_5455 55.2(4) 53.6(4) 58.9(4)
Fe1 Bi1 Pb1 5_4445 1_5545 54.8(4) 51.4(4) 57.3(5)
Fe1 Bi1 Pb1 5_4445 . 100(500) 0 100(500)
Fe1 Bi1 Pb1 5_4445 1_5565 126.4(5) 118.4(6) 133.7(5)
Fe1 Bi1 Pb1 5_4445 1_5655 124.8(6) 121.0(6) 126.6(5)
Fe1 Bi1 Pb1 5_4445 1_6555 123.6(5) 118.7(6) 127.6(6)
Fe1 Bi1 Pb1 5_4445 5_4455 77.1(5) 77.1(5) 77.1(5)
Fe1 Bi1 Pb1 5_4445 5_4555 124.4(7) 124.4(7) 124.4(7)
Fe1 Bi1 Pb1 5_4445 5_5455 109.9(3) 109.3(3) 110.2(3)
Fe1 Bi1 Pb1 5_4445 5_5555 172.8(6) 169.0(6) 175.0(7)
Fe1 Bi1 Bi1 5_4445 1_4555 56.6(4) 53.8(4) 59.5(4)
Fe1 Bi1 Bi1 5_4445 1_5455 55.2(4) 53.5(4) 59.0(4)
Fe1 Bi1 Bi1 5_4445 1_5545 54.7(4) 51.0(4) 57.3(5)
Fe1 Bi1 Bi1 5_4445 1_5565 126.2(5) 118.6(6) 133.7(5)
Fe1 Bi1 Bi1 5_4445 1_5655 124.8(6) 121.0(6) 126.5(5)
Fe1 Bi1 Bi1 5_4445 1_6555 123.6(5) 118.7(6) 127.5(6)
Fe1 Bi1 Bi1 5_4445 5_4455 77.4(5) 77.4(5) 77.4(5)
Fe1 Bi1 Bi1 5_4445 5_4555 124.1(7) 124.1(7) 124.1(7)
Fe1 Bi1 Bi1 5_4445 5_5455 109.9(3) 109.3(3) 110.2(3)
Fe1 Bi1 Bi1 5_4445 5_5555 173.3(6) 169.3(6) 175.6(7)
Fe1 Bi1 O1 5_4445 1_5445 30.1(8) 29.5(8) 30.5(7)
Fe1 Bi1 O1 5_4445 1_5455 42.4(11) 42.4(11) 42.4(11)
Fe1 Bi1 O1 5_4445 1_5465 102.2(5) 99.5(6) 106.1(4)
Fe1 Bi1 O1 5_4445 1_5545 70.8(6) 69.9(5) 71.7(6)
Fe1 Bi1 O1 5_4445 . 102.1(8) 102.1(8) 102.1(8)
Fe1 Bi1 O1 5_4445 1_5565 143.9(9) 141.0(10) 150.7(8)
Fe1 Bi1 O1 5_4445 5_4445 35.09(19) 31.8(2) 37.0(2)
Fe1 Bi1 O1 5_4445 5_4455 93.5(8) 88.8(8) 106.7(6)
Fe1 Bi1 O1 5_4445 5_5445 89.0(8) 70.2(7) 100.4(9)
Fe1 Bi1 O1 5_4445 5_5455 143.5(3) 140.1(4) 145.6(5)
Fe1 Bi1 O2 5_4445 1_4565 111.4(9) 111.4(9) 111.4(9)
Fe1 Bi1 O2 5_4445 5_4445 35.8(17) 31.9(14) 37.5(19)
Fe1 Bi1 O2 5_4445 5_4455 91.8(10) 88.9(10) 95.9(9)
Fe1 Bi1 O2 5_4445 5_4545 90.1(11) 75.5(8) 99.3(12)
Fe1 Bi1 O2 5_4445 5_4555 144.0(17) 138.9(15) 148.3(19)
Fe1 Bi1 O3 5_4445 . 133.8(5) 133.8(5) 133.8(5)
Fe1 Bi1 O3 5_4445 1_6555 133.8(4) 130.7(4) 136.1(5)
Fe1 Bi1 O3 5_4445 5_4445 37.5(9) 28.3(8) 54.8(9)
Fe1 Bi1 O3 5_4445 5_4545 90.6(7) 78.3(7) 108.6(7)
Fe1 Bi1 O3 5_4445 5_5445 90.3(5) 79.1(7) 99.9(5)
Fe1 Bi1 O3 5_4445 5_5545 144.4(10) 122.5(10) 161.9(10)
Fe1 Bi1 Fe1 5_4455 5_4545 111.2(5) 107.2(5) 121.0(4)
Fe1 Bi1 Fe1 5_4455 5_4555 68.0(3) 64.2(3) 72.0(5)
Fe1 Bi1 Fe1 5_4455 5_5445 111.68(16) 110.70(14) 113.48(15)
Fe1 Bi1 Fe1 5_4455 5_5455 69.3(3) 61.0(3) 73.1(4)
Fe1 Bi1 Fe1 5_4455 5_5545 175.0(5) 169.5(4) 180.0(5)
Fe1 Bi1 Fe1 5_4455 5_5555 107.0(5) 93.6(5) 113.4(7)
Fe1 Bi1 Pb1 5_4455 1_4555 55.0(4) 52.8(3) 62.6(4)
Fe1 Bi1 Pb1 5_4455 1_5455 56.0(4) 54.0(5) 57.7(5)
Fe1 Bi1 Pb1 5_4455 1_5545 128.3(5) 125.3(3) 136.5(3)
Fe1 Bi1 Pb1 5_4455 . 100(300) 0 146(7)
Fe1 Bi1 Pb1 5_4455 1_5565 53.4(4) 46.0(4) 56.4(4)
Fe1 Bi1 Pb1 5_4455 1_5655 124.0(6) 121.8(5) 126.0(7)
Fe1 Bi1 Pb1 5_4455 1_6555 125.9(5) 119.2(6) 127.2(3)
Fe1 Bi1 Pb1 5_4455 5_4445 68.3(5) 67.7(5) 68.8(5)
Fe1 Bi1 Pb1 5_4455 5_4545 103.8(6) 102.2(5) 104.5(6)
Fe1 Bi1 Pb1 5_4455 5_5445 105.3(4) 105.3(4) 105.3(4)
Fe1 Bi1 Pb1 5_4455 5_5455 68.9(5) 67.7(5) 70.7(5)
Fe1 Bi1 Pb1 5_4455 5_5545 167.7(6) 167.7(6) 167.7(6)
Fe1 Bi1 Pb1 5_4455 5_5555 103.0(5) 102.1(5) 104.6(6)
Fe1 Bi1 Bi1 5_4455 1_4555 54.9(4) 52.8(3) 62.7(4)
Fe1 Bi1 Bi1 5_4455 1_5455 56.0(4) 54.0(5) 57.9(4)
Fe1 Bi1 Bi1 5_4455 1_5545 128.3(5) 125.3(3) 136.5(3)
Fe1 Bi1 Bi1 5_4455 1_5565 53.3(4) 45.4(4) 56.4(4)
Fe1 Bi1 Bi1 5_4455 1_5655 124.0(6) 122.1(6) 126.0(7)
Fe1 Bi1 Bi1 5_4455 1_6555 125.7(5) 118.6(5) 127.2(3)
Fe1 Bi1 Bi1 5_4455 5_4445 68.8(5) 68.1(5) 69.3(5)
Fe1 Bi1 Bi1 5_4455 5_4545 104.3(6) 102.5(5) 105.1(6)
Fe1 Bi1 Bi1 5_4455 5_5445 106.0(4) 106.0(4) 106.0(4)
Fe1 Bi1 Bi1 5_4455 5_5455 68.4(5) 67.4(5) 70.0(5)
Fe1 Bi1 Bi1 5_4455 5_5545 168.2(6) 168.2(6) 168.2(6)
Fe1 Bi1 Bi1 5_4455 5_5555 102.5(5) 101.8(5) 103.9(6)
Fe1 Bi1 O1 5_4455 1_5445 101.8(6) 99.5(6) 102.7(5)
Fe1 Bi1 O1 5_4455 1_5455 28.2(11) 28.2(11) 28.2(11)
Fe1 Bi1 O1 5_4455 1_5465 32.0(7) 30.6(7) 34.7(8)
Fe1 Bi1 O1 5_4455 1_5545 140.5(9) 137.9(8) 141.6(9)
Fe1 Bi1 O1 5_4455 . 88.6(9) 88.6(9) 88.6(9)
Fe1 Bi1 O1 5_4455 1_5565 71.8(5) 70.7(5) 74.7(7)
Fe1 Bi1 O1 5_4455 5_4445 93.7(8) 87.8(10) 103.2(8)
Fe1 Bi1 O1 5_4455 5_4455 34.6(2) 32.61(17) 36.7(3)
Fe1 Bi1 O1 5_4455 5_5445 144.0(3) 141.1(4) 146.3(2)
Fe1 Bi1 O1 5_4455 5_5455 87.3(8) 69.6(7) 96.0(10)
Fe1 Bi1 O2 5_4455 1_5545 142.0(5) 142.0(5) 142.0(5)
Fe1 Bi1 O2 5_4455 5_4445 92.3(10) 87.2(12) 98.9(9)
Fe1 Bi1 O2 5_4455 5_4455 35.0(17) 32.0(18) 37.0(19)
Fe1 Bi1 O2 5_4455 5_4545 145.2(17) 143(2) 154.6(17)
Fe1 Bi1 O2 5_4455 5_4555 88.8(11) 75.6(9) 97.9(14)
Fe1 Bi1 O3 5_4455 1_4545 66.9(5) 65.2(5) 67.9(6)
Fe1 Bi1 O3 5_4455 1_5545 120.2(6) 120.2(6) 120.2(6)
Fe1 Bi1 O3 5_4455 1_6555 104.5(6) 103.7(5) 105.6(6)
Fe1 Bi1 O3 5_4455 5_4445 36.5(9) 28.3(9) 51.0(8)
Fe1 Bi1 O3 5_4455 5_4545 89.1(7) 82.1(8) 97.8(9)
Fe1 Bi1 O3 5_4455 5_5445 90.6(6) 80.1(6) 97.1(5)
Fe1 Bi1 O3 5_4455 5_5545 144.4(10) 121.7(10) 159.2(9)
Fe1 Bi1 Fe1 5_4545 5_4555 73.9(3) 69.9(2) 83.0(3)
Fe1 Bi1 Fe1 5_4545 5_5445 107.0(5) 93.6(4) 113.4(7)
Fe1 Bi1 Fe1 5_4545 5_5455 172.9(6) 169.5(7) 180.0(5)
Fe1 Bi1 Fe1 5_4545 5_5545 69.3(3) 61.0(3) 73.1(4)
Fe1 Bi1 Fe1 5_4545 5_5555 110.32(17) 109.75(16) 111.92(17)
Fe1 Bi1 Pb1 5_4545 1_4555 56.6(4) 53.8(4) 59.7(4)
Fe1 Bi1 Pb1 5_4545 1_5455 124.8(6) 121.0(6) 126.6(5)
Fe1 Bi1 Pb1 5_4545 1_5545 54.8(4) 51.4(4) 57.3(5)
Fe1 Bi1 Pb1 5_4545 . 100(500) 0 100(500)
Fe1 Bi1 Pb1 5_4545 1_5565 126.4(5) 118.4(6) 133.7(5)
Fe1 Bi1 Pb1 5_4545 1_5655 55.2(4) 53.6(4) 58.9(4)
Fe1 Bi1 Pb1 5_4545 1_6555 123.6(5) 118.7(6) 127.6(6)
Fe1 Bi1 Pb1 5_4545 5_4455 124.4(7) 124.4(7) 124.4(7)
Fe1 Bi1 Pb1 5_4545 5_4555 77.1(5) 77.1(5) 77.1(5)
Fe1 Bi1 Pb1 5_4545 5_5455 172.8(6) 169.0(6) 175.0(7)
Fe1 Bi1 Pb1 5_4545 5_5555 109.9(3) 109.3(3) 110.2(3)
Fe1 Bi1 Bi1 5_4545 1_4555 56.6(4) 53.8(4) 59.5(4)
Fe1 Bi1 Bi1 5_4545 1_5455 124.8(6) 121.0(6) 126.5(5)
Fe1 Bi1 Bi1 5_4545 1_5545 54.7(4) 51.0(4) 57.3(5)
Fe1 Bi1 Bi1 5_4545 1_5565 126.2(5) 118.6(6) 133.7(5)
Fe1 Bi1 Bi1 5_4545 1_5655 55.2(4) 53.5(4) 59.0(4)
Fe1 Bi1 Bi1 5_4545 1_6555 123.6(5) 118.7(6) 127.5(6)
Fe1 Bi1 Bi1 5_4545 5_4455 124.1(7) 124.1(7) 124.1(7)
Fe1 Bi1 Bi1 5_4545 5_4555 77.4(5) 77.4(5) 77.4(5)
Fe1 Bi1 Bi1 5_4545 5_5455 173.3(6) 169.3(6) 175.6(7)
Fe1 Bi1 Bi1 5_4545 5_5555 109.9(3) 109.3(3) 110.2(3)
Fe1 Bi1 O1 5_4545 1_5445 70.8(6) 69.9(5) 71.7(6)
Fe1 Bi1 O1 5_4545 1_5455 102.1(8) 102.1(8) 102.1(8)
Fe1 Bi1 O1 5_4545 1_5465 143.9(9) 141.0(10) 150.7(8)
Fe1 Bi1 O1 5_4545 1_5545 30.1(8) 29.5(8) 30.5(7)
Fe1 Bi1 O1 5_4545 . 42.4(11) 42.4(11) 42.4(11)
Fe1 Bi1 O1 5_4545 1_5565 102.2(5) 99.5(6) 106.1(4)
Fe1 Bi1 O1 5_4545 5_4445 35.09(19) 31.8(2) 37.0(2)
Fe1 Bi1 O1 5_4545 5_4455 93.5(8) 88.8(8) 106.7(6)
Fe1 Bi1 O1 5_4545 5_5445 89.0(8) 70.2(7) 100.4(9)
Fe1 Bi1 O1 5_4545 5_5455 143.5(3) 140.1(4) 145.6(5)
Fe1 Bi1 O2 5_4545 1_4565 111.4(9) 111.4(9) 111.4(9)
Fe1 Bi1 O2 5_4545 5_4445 90.1(11) 75.5(8) 99.3(12)
Fe1 Bi1 O2 5_4545 5_4455 144.0(17) 138.9(15) 148.3(19)
Fe1 Bi1 O2 5_4545 5_4545 35.8(17) 31.9(14) 37.5(19)
Fe1 Bi1 O2 5_4545 5_4555 91.8(10) 88.9(10) 95.9(9)
Fe1 Bi1 O3 5_4545 . 133.8(5) 133.8(5) 133.8(5)
Fe1 Bi1 O3 5_4545 1_6555 133.8(4) 130.7(4) 136.1(5)
Fe1 Bi1 O3 5_4545 5_4445 90.6(7) 78.3(7) 108.6(7)
Fe1 Bi1 O3 5_4545 5_4545 37.5(9) 28.3(8) 54.8(9)
Fe1 Bi1 O3 5_4545 5_5445 144.4(10) 122.5(10) 161.9(10)
Fe1 Bi1 O3 5_4545 5_5545 90.3(5) 79.1(7) 99.9(5)
Fe1 Bi1 Fe1 5_4555 5_5445 175.0(5) 169.5(4) 180.0(5)
Fe1 Bi1 Fe1 5_4555 5_5455 107.0(5) 93.6(5) 113.4(7)
Fe1 Bi1 Fe1 5_4555 5_5545 111.68(16) 110.70(14) 113.48(15)
Fe1 Bi1 Fe1 5_4555 5_5555 69.3(3) 61.0(3) 73.1(4)
Fe1 Bi1 Pb1 5_4555 1_4555 55.0(4) 52.8(3) 62.6(4)
Fe1 Bi1 Pb1 5_4555 1_5455 124.0(6) 121.8(5) 126.0(7)
Fe1 Bi1 Pb1 5_4555 1_5545 128.3(5) 125.3(3) 136.5(3)
Fe1 Bi1 Pb1 5_4555 . 100(300) 0 146(7)
Fe1 Bi1 Pb1 5_4555 1_5565 53.4(4) 46.0(4) 56.4(4)
Fe1 Bi1 Pb1 5_4555 1_5655 56.0(4) 54.0(5) 57.7(5)
Fe1 Bi1 Pb1 5_4555 1_6555 125.9(5) 119.2(6) 127.2(3)
Fe1 Bi1 Pb1 5_4555 5_4445 103.8(6) 102.2(5) 104.5(6)
Fe1 Bi1 Pb1 5_4555 5_4545 68.3(5) 67.7(5) 68.8(5)
Fe1 Bi1 Pb1 5_4555 5_5445 167.7(6) 167.7(6) 167.7(6)
Fe1 Bi1 Pb1 5_4555 5_5455 103.0(5) 102.1(5) 104.6(6)
Fe1 Bi1 Pb1 5_4555 5_5545 105.3(4) 105.3(4) 105.3(4)
Fe1 Bi1 Pb1 5_4555 5_5555 68.9(5) 67.7(5) 70.7(5)
Fe1 Bi1 Bi1 5_4555 1_4555 54.9(4) 52.8(3) 62.7(4)
Fe1 Bi1 Bi1 5_4555 1_5455 124.0(6) 122.1(6) 126.0(7)
Fe1 Bi1 Bi1 5_4555 1_5545 128.3(5) 125.3(3) 136.5(3)
Fe1 Bi1 Bi1 5_4555 1_5565 53.3(4) 45.4(4) 56.4(4)
Fe1 Bi1 Bi1 5_4555 1_5655 56.0(4) 54.0(5) 57.9(4)
Fe1 Bi1 Bi1 5_4555 1_6555 125.7(5) 118.6(5) 127.2(3)
Fe1 Bi1 Bi1 5_4555 5_4445 104.3(6) 102.5(5) 105.1(6)
Fe1 Bi1 Bi1 5_4555 5_4545 68.8(5) 68.1(5) 69.3(5)
Fe1 Bi1 Bi1 5_4555 5_5445 168.2(6) 168.2(6) 168.2(6)
Fe1 Bi1 Bi1 5_4555 5_5455 102.5(5) 101.8(5) 103.9(6)
Fe1 Bi1 Bi1 5_4555 5_5545 106.0(4) 106.0(4) 106.0(4)
Fe1 Bi1 Bi1 5_4555 5_5555 68.4(5) 67.4(5) 70.0(5)
Fe1 Bi1 O1 5_4555 1_5445 140.5(9) 137.9(8) 141.6(9)
Fe1 Bi1 O1 5_4555 1_5455 88.6(9) 88.6(9) 88.6(9)
Fe1 Bi1 O1 5_4555 1_5465 71.8(5) 70.7(5) 74.7(7)
Fe1 Bi1 O1 5_4555 1_5545 101.8(6) 99.5(6) 102.7(5)
Fe1 Bi1 O1 5_4555 . 28.2(11) 28.2(11) 28.2(11)
Fe1 Bi1 O1 5_4555 1_5565 32.0(7) 30.6(7) 34.7(8)
Fe1 Bi1 O1 5_4555 5_4445 93.7(8) 87.8(10) 103.2(8)
Fe1 Bi1 O1 5_4555 5_4455 34.6(2) 32.61(17) 36.7(3)
Fe1 Bi1 O1 5_4555 5_5445 144.0(3) 141.1(4) 146.3(2)
Fe1 Bi1 O1 5_4555 5_5455 87.3(8) 69.6(7) 96.0(10)
Fe1 Bi1 O2 5_4555 1_5545 142.0(5) 142.0(5) 142.0(5)
Fe1 Bi1 O2 5_4555 5_4445 145.2(17) 143(2) 154.6(17)
Fe1 Bi1 O2 5_4555 5_4455 88.8(11) 75.6(9) 97.9(14)
Fe1 Bi1 O2 5_4555 5_4545 92.3(10) 87.2(12) 98.9(9)
Fe1 Bi1 O2 5_4555 5_4555 35.0(17) 32.0(18) 37.0(19)
Fe1 Bi1 O3 5_4555 1_4545 66.9(5) 65.2(5) 67.9(6)
Fe1 Bi1 O3 5_4555 1_5545 120.2(6) 120.2(6) 120.2(6)
Fe1 Bi1 O3 5_4555 1_6555 104.5(6) 103.7(5) 105.6(6)
Fe1 Bi1 O3 5_4555 5_4445 89.1(7) 82.1(8) 97.8(9)
Fe1 Bi1 O3 5_4555 5_4545 36.5(9) 28.3(9) 51.0(8)
Fe1 Bi1 O3 5_4555 5_5445 144.4(10) 121.7(10) 159.2(9)
Fe1 Bi1 O3 5_4555 5_5545 90.6(6) 80.1(6) 97.1(5)
Fe1 Bi1 Fe1 5_5445 5_5455 73.9(3) 69.9(3) 83.0(3)
Fe1 Bi1 Fe1 5_5445 5_5545 68.0(3) 64.2(3) 72.0(5)
Fe1 Bi1 Fe1 5_5445 5_5555 111.2(5) 107.2(5) 121.0(4)
Fe1 Bi1 Pb1 5_5445 1_4555 125.9(5) 119.2(6) 127.2(3)
Fe1 Bi1 Pb1 5_5445 1_5455 56.0(4) 54.0(5) 57.7(5)
Fe1 Bi1 Pb1 5_5445 1_5545 53.4(4) 46.0(4) 56.4(4)
Fe1 Bi1 Pb1 5_5445 . 100(300) 0 146(7)
Fe1 Bi1 Pb1 5_5445 1_5565 128.3(5) 125.3(3) 136.5(3)
Fe1 Bi1 Pb1 5_5445 1_5655 124.0(6) 121.8(5) 126.0(7)
Fe1 Bi1 Pb1 5_5445 1_6555 55.0(4) 52.8(3) 62.6(4)
Fe1 Bi1 Pb1 5_5445 5_4445 68.9(5) 67.7(5) 70.7(5)
Fe1 Bi1 Pb1 5_5445 5_4455 105.3(4) 105.3(4) 105.3(4)
Fe1 Bi1 Pb1 5_5445 5_4545 103.0(5) 102.1(5) 104.6(6)
Fe1 Bi1 Pb1 5_5445 5_4555 167.7(6) 167.7(6) 167.7(6)
Fe1 Bi1 Pb1 5_5445 5_5455 68.3(5) 67.7(5) 68.8(5)
Fe1 Bi1 Pb1 5_5445 5_5555 103.8(6) 102.2(5) 104.5(6)
Fe1 Bi1 Bi1 5_5445 1_4555 125.7(5) 118.6(5) 127.2(3)
Fe1 Bi1 Bi1 5_5445 1_5455 56.0(4) 54.0(5) 57.9(4)
Fe1 Bi1 Bi1 5_5445 1_5545 53.3(4) 45.4(4) 56.4(4)
Fe1 Bi1 Bi1 5_5445 1_5565 128.3(5) 125.3(3) 136.5(3)
Fe1 Bi1 Bi1 5_5445 1_5655 124.0(6) 122.1(6) 126.0(7)
Fe1 Bi1 Bi1 5_5445 1_6555 54.9(4) 52.8(3) 62.7(4)
Fe1 Bi1 Bi1 5_5445 5_4445 68.4(5) 67.4(5) 70.0(5)
Fe1 Bi1 Bi1 5_5445 5_4455 106.0(4) 106.0(4) 106.0(4)
Fe1 Bi1 Bi1 5_5445 5_4545 102.5(5) 101.8(5) 103.9(6)
Fe1 Bi1 Bi1 5_5445 5_4555 168.2(6) 168.2(6) 168.2(6)
Fe1 Bi1 Bi1 5_5445 5_5455 68.8(5) 68.1(5) 69.3(5)
Fe1 Bi1 Bi1 5_5445 5_5555 104.3(6) 102.5(5) 105.1(6)
Fe1 Bi1 O1 5_5445 1_5445 32.0(7) 30.6(7) 34.7(8)
Fe1 Bi1 O1 5_5445 1_5455 28.2(11) 28.2(11) 28.2(11)
Fe1 Bi1 O1 5_5445 1_5465 101.8(6) 99.5(6) 102.7(5)
Fe1 Bi1 O1 5_5445 1_5545 71.8(5) 70.7(5) 74.7(7)
Fe1 Bi1 O1 5_5445 . 88.6(9) 88.6(9) 88.6(9)
Fe1 Bi1 O1 5_5445 1_5565 140.5(9) 137.9(8) 141.6(9)
Fe1 Bi1 O1 5_5445 5_4445 87.3(8) 69.6(7) 96.0(10)
Fe1 Bi1 O1 5_5445 5_4455 144.0(3) 141.1(4) 146.3(2)
Fe1 Bi1 O1 5_5445 5_5445 34.6(2) 32.61(17) 36.7(3)
Fe1 Bi1 O1 5_5445 5_5455 93.7(8) 87.8(10) 103.2(8)
Fe1 Bi1 O2 5_5445 1_4565 142.0(5) 142.0(5) 142.0(5)
Fe1 Bi1 O2 5_5445 5_4445 35.0(17) 32.0(18) 37.0(19)
Fe1 Bi1 O2 5_5445 5_4455 92.3(10) 87.2(12) 98.9(9)
Fe1 Bi1 O2 5_5445 5_4545 88.8(11) 75.6(9) 97.9(14)
Fe1 Bi1 O2 5_5445 5_4555 145.2(17) 143(2) 154.6(17)
Fe1 Bi1 O3 5_5445 1_4545 104.5(6) 103.7(5) 105.6(6)
Fe1 Bi1 O3 5_5445 . 120.2(6) 120.2(6) 120.2(6)
Fe1 Bi1 O3 5_5445 1_6555 66.9(5) 65.2(5) 67.9(6)
Fe1 Bi1 O3 5_5445 5_4445 90.6(6) 80.1(6) 97.1(5)
Fe1 Bi1 O3 5_5445 5_4545 144.4(10) 121.7(10) 159.2(9)
Fe1 Bi1 O3 5_5445 5_5445 36.5(9) 28.3(9) 51.0(8)
Fe1 Bi1 O3 5_5445 5_5545 89.1(7) 82.1(8) 97.8(9)
Fe1 Bi1 Fe1 5_5455 5_5545 111.2(5) 107.2(4) 121.0(4)
Fe1 Bi1 Fe1 5_5455 5_5555 69.7(3) 62.1(3) 73.0(3)
Fe1 Bi1 Pb1 5_5455 1_4555 123.6(5) 118.7(6) 127.6(6)
Fe1 Bi1 Pb1 5_5455 1_5455 55.2(4) 53.6(4) 58.9(4)
Fe1 Bi1 Pb1 5_5455 1_5545 126.4(5) 118.4(6) 133.7(5)
Fe1 Bi1 Pb1 5_5455 . 100(500) 0 100(500)
Fe1 Bi1 Pb1 5_5455 1_5565 54.8(4) 51.4(4) 57.3(5)
Fe1 Bi1 Pb1 5_5455 1_5655 124.8(6) 121.0(6) 126.6(5)
Fe1 Bi1 Pb1 5_5455 1_6555 56.6(4) 53.8(4) 59.7(4)
Fe1 Bi1 Pb1 5_5455 5_4445 109.9(3) 109.3(3) 110.2(3)
Fe1 Bi1 Pb1 5_5455 5_4545 172.8(6) 169.0(6) 175.0(7)
Fe1 Bi1 Pb1 5_5455 5_5445 77.1(5) 77.1(5) 77.1(5)
Fe1 Bi1 Pb1 5_5455 5_5545 124.4(7) 124.4(7) 124.4(7)
Fe1 Bi1 Bi1 5_5455 1_4555 123.6(5) 118.7(6) 127.5(6)
Fe1 Bi1 Bi1 5_5455 1_5455 55.2(4) 53.5(4) 59.0(4)
Fe1 Bi1 Bi1 5_5455 1_5545 126.2(5) 118.6(6) 133.7(5)
Fe1 Bi1 Bi1 5_5455 1_5565 54.7(4) 51.0(4) 57.3(5)
Fe1 Bi1 Bi1 5_5455 1_5655 124.8(6) 121.0(6) 126.5(5)
Fe1 Bi1 Bi1 5_5455 1_6555 56.6(4) 53.8(4) 59.5(4)
Fe1 Bi1 Bi1 5_5455 5_4445 109.9(3) 109.3(3) 110.2(3)
Fe1 Bi1 Bi1 5_5455 5_4545 173.3(6) 169.3(6) 175.6(7)
Fe1 Bi1 Bi1 5_5455 5_5445 77.4(5) 77.4(5) 77.4(5)
Fe1 Bi1 Bi1 5_5455 5_5545 124.1(7) 124.1(7) 124.1(7)
Fe1 Bi1 O1 5_5455 1_5445 102.2(5) 99.5(6) 106.1(4)
Fe1 Bi1 O1 5_5455 1_5455 42.4(11) 42.4(11) 42.4(11)
Fe1 Bi1 O1 5_5455 1_5465 30.1(8) 29.5(8) 30.5(7)
Fe1 Bi1 O1 5_5455 1_5545 143.9(9) 141.0(10) 150.7(8)
Fe1 Bi1 O1 5_5455 . 102.1(8) 102.1(8) 102.1(8)
Fe1 Bi1 O1 5_5455 1_5565 70.8(6) 69.9(5) 71.7(6)
Fe1 Bi1 O1 5_5455 5_4445 143.5(3) 140.1(4) 145.6(5)
Fe1 Bi1 O1 5_5455 5_4455 89.0(8) 70.2(7) 100.4(9)
Fe1 Bi1 O1 5_5455 5_5445 93.5(8) 88.8(8) 106.7(6)
Fe1 Bi1 O1 5_5455 5_5455 35.09(19) 31.8(2) 37.0(2)
Fe1 Bi1 O2 5_5455 1_5545 111.4(9) 111.4(9) 111.4(9)
Fe1 Bi1 O2 5_5455 5_4445 91.8(10) 88.9(10) 95.9(9)
Fe1 Bi1 O2 5_5455 5_4455 35.8(17) 31.9(14) 37.5(19)
Fe1 Bi1 O2 5_5455 5_4545 144.0(17) 138.9(15) 148.3(19)
Fe1 Bi1 O2 5_5455 5_4555 90.1(11) 75.5(8) 99.3(12)
Fe1 Bi1 O3 5_5455 1_4545 133.8(4) 130.7(4) 136.1(5)
Fe1 Bi1 O3 5_5455 1_5545 133.8(5) 133.8(5) 133.8(5)
Fe1 Bi1 O3 5_5455 5_4445 90.3(5) 79.1(7) 99.9(5)
Fe1 Bi1 O3 5_5455 5_4545 144.4(10) 122.5(10) 161.9(10)
Fe1 Bi1 O3 5_5455 5_5445 37.5(9) 28.3(8) 54.8(9)
Fe1 Bi1 O3 5_5455 5_5545 90.6(7) 78.3(7) 108.6(7)
Fe1 Bi1 Fe1 5_5545 5_5555 73.9(3) 69.9(3) 83.0(3)
Fe1 Bi1 Pb1 5_5545 1_4555 125.9(5) 119.2(6) 127.2(3)
Fe1 Bi1 Pb1 5_5545 1_5455 124.0(6) 121.8(5) 126.0(7)
Fe1 Bi1 Pb1 5_5545 1_5545 53.4(4) 46.0(4) 56.4(4)
Fe1 Bi1 Pb1 5_5545 . 100(300) 0 146(7)
Fe1 Bi1 Pb1 5_5545 1_5565 128.3(5) 125.3(3) 136.5(3)
Fe1 Bi1 Pb1 5_5545 1_5655 56.0(4) 54.0(5) 57.7(5)
Fe1 Bi1 Pb1 5_5545 1_6555 55.0(4) 52.8(3) 62.6(4)
Fe1 Bi1 Pb1 5_5545 5_4445 103.0(5) 102.1(5) 104.6(6)
Fe1 Bi1 Pb1 5_5545 5_4455 167.7(6) 167.7(6) 167.7(6)
Fe1 Bi1 Pb1 5_5545 5_4545 68.9(5) 67.7(5) 70.7(5)
Fe1 Bi1 Pb1 5_5545 5_4555 105.3(4) 105.3(4) 105.3(4)
Fe1 Bi1 Pb1 5_5545 5_5455 103.8(6) 102.2(5) 104.5(6)
Fe1 Bi1 Pb1 5_5545 5_5555 68.3(5) 67.7(5) 68.8(5)
Fe1 Bi1 Bi1 5_5545 1_4555 125.7(5) 118.6(5) 127.2(3)
Fe1 Bi1 Bi1 5_5545 1_5455 124.0(6) 122.1(6) 126.0(7)
Fe1 Bi1 Bi1 5_5545 1_5545 53.3(4) 45.4(4) 56.4(4)
Fe1 Bi1 Bi1 5_5545 1_5565 128.3(5) 125.3(3) 136.5(3)
Fe1 Bi1 Bi1 5_5545 1_5655 56.0(4) 54.0(5) 57.9(4)
Fe1 Bi1 Bi1 5_5545 1_6555 54.9(4) 52.8(3) 62.7(4)
Fe1 Bi1 Bi1 5_5545 5_4445 102.5(5) 101.8(5) 103.9(6)
Fe1 Bi1 Bi1 5_5545 5_4455 168.2(6) 168.2(6) 168.2(6)
Fe1 Bi1 Bi1 5_5545 5_4545 68.4(5) 67.4(5) 70.0(5)
Fe1 Bi1 Bi1 5_5545 5_4555 106.0(4) 106.0(4) 106.0(4)
Fe1 Bi1 Bi1 5_5545 5_5455 104.3(6) 102.5(5) 105.1(6)
Fe1 Bi1 Bi1 5_5545 5_5555 68.8(5) 68.1(5) 69.3(5)
Fe1 Bi1 O1 5_5545 1_5445 71.8(5) 70.7(5) 74.7(7)
Fe1 Bi1 O1 5_5545 1_5455 88.6(9) 88.6(9) 88.6(9)
Fe1 Bi1 O1 5_5545 1_5465 140.5(9) 137.9(8) 141.6(9)
Fe1 Bi1 O1 5_5545 1_5545 32.0(7) 30.6(7) 34.7(8)
Fe1 Bi1 O1 5_5545 . 28.2(11) 28.2(11) 28.2(11)
Fe1 Bi1 O1 5_5545 1_5565 101.8(6) 99.5(6) 102.7(5)
Fe1 Bi1 O1 5_5545 5_4445 87.3(8) 69.6(7) 96.0(10)
Fe1 Bi1 O1 5_5545 5_4455 144.0(3) 141.1(4) 146.3(2)
Fe1 Bi1 O1 5_5545 5_5445 34.6(2) 32.61(17) 36.7(3)
Fe1 Bi1 O1 5_5545 5_5455 93.7(8) 87.8(10) 103.2(8)
Fe1 Bi1 O2 5_5545 1_4565 142.0(5) 142.0(5) 142.0(5)
Fe1 Bi1 O2 5_5545 5_4445 88.8(11) 75.6(9) 97.9(14)
Fe1 Bi1 O2 5_5545 5_4455 145.2(17) 143(2) 154.6(17)
Fe1 Bi1 O2 5_5545 5_4545 35.0(17) 32.0(18) 37.0(19)
Fe1 Bi1 O2 5_5545 5_4555 92.3(10) 87.2(12) 98.9(9)
Fe1 Bi1 O3 5_5545 1_4545 104.5(6) 103.7(5) 105.6(6)
Fe1 Bi1 O3 5_5545 . 120.2(6) 120.2(6) 120.2(6)
Fe1 Bi1 O3 5_5545 1_6555 66.9(5) 65.2(5) 67.9(6)
Fe1 Bi1 O3 5_5545 5_4445 144.4(10) 121.7(10) 159.2(9)
Fe1 Bi1 O3 5_5545 5_4545 90.6(6) 80.1(6) 97.1(5)
Fe1 Bi1 O3 5_5545 5_5445 89.1(7) 82.1(8) 97.8(9)
Fe1 Bi1 O3 5_5545 5_5545 36.5(9) 28.3(9) 51.0(8)
Fe1 Bi1 Pb1 5_5555 1_4555 123.6(5) 118.7(6) 127.6(6)
Fe1 Bi1 Pb1 5_5555 1_5455 124.8(6) 121.0(6) 126.6(5)
Fe1 Bi1 Pb1 5_5555 1_5545 126.4(5) 118.4(6) 133.7(5)
Fe1 Bi1 Pb1 5_5555 . 100(500) 0 100(500)
Fe1 Bi1 Pb1 5_5555 1_5565 54.8(4) 51.4(4) 57.3(5)
Fe1 Bi1 Pb1 5_5555 1_5655 55.2(4) 53.6(4) 58.9(4)
Fe1 Bi1 Pb1 5_5555 1_6555 56.6(4) 53.8(4) 59.7(4)
Fe1 Bi1 Pb1 5_5555 5_4445 172.8(6) 169.0(6) 175.0(7)
Fe1 Bi1 Pb1 5_5555 5_4545 109.9(3) 109.3(3) 110.2(3)
Fe1 Bi1 Pb1 5_5555 5_5445 124.4(7) 124.4(7) 124.4(7)
Fe1 Bi1 Pb1 5_5555 5_5545 77.1(5) 77.1(5) 77.1(5)
Fe1 Bi1 Bi1 5_5555 1_4555 123.6(5) 118.7(6) 127.5(6)
Fe1 Bi1 Bi1 5_5555 1_5455 124.8(6) 121.0(6) 126.5(5)
Fe1 Bi1 Bi1 5_5555 1_5545 126.2(5) 118.6(6) 133.7(5)
Fe1 Bi1 Bi1 5_5555 1_5565 54.7(4) 51.0(4) 57.3(5)
Fe1 Bi1 Bi1 5_5555 1_5655 55.2(4) 53.5(4) 59.0(4)
Fe1 Bi1 Bi1 5_5555 1_6555 56.6(4) 53.8(4) 59.5(4)
Fe1 Bi1 Bi1 5_5555 5_4445 173.3(6) 169.3(6) 175.6(7)
Fe1 Bi1 Bi1 5_5555 5_4545 109.9(3) 109.3(3) 110.2(3)
Fe1 Bi1 Bi1 5_5555 5_5445 124.1(7) 124.1(7) 124.1(7)
Fe1 Bi1 Bi1 5_5555 5_5545 77.4(5) 77.4(5) 77.4(5)
Fe1 Bi1 O1 5_5555 1_5445 143.9(9) 141.0(10) 150.7(8)
Fe1 Bi1 O1 5_5555 1_5455 102.1(8) 102.1(8) 102.1(8)
Fe1 Bi1 O1 5_5555 1_5465 70.8(6) 69.9(5) 71.7(6)
Fe1 Bi1 O1 5_5555 1_5545 102.2(5) 99.5(6) 106.1(4)
Fe1 Bi1 O1 5_5555 . 42.4(11) 42.4(11) 42.4(11)
Fe1 Bi1 O1 5_5555 1_5565 30.1(8) 29.5(8) 30.5(7)
Fe1 Bi1 O1 5_5555 5_4445 143.5(3) 140.1(4) 145.6(5)
Fe1 Bi1 O1 5_5555 5_4455 89.0(8) 70.2(7) 100.4(9)
Fe1 Bi1 O1 5_5555 5_5445 93.5(8) 88.8(8) 106.7(6)
Fe1 Bi1 O1 5_5555 5_5455 35.09(19) 31.8(2) 37.0(2)
Fe1 Bi1 O2 5_5555 1_5545 111.4(9) 111.4(9) 111.4(9)
Fe1 Bi1 O2 5_5555 5_4445 144.0(17) 138.9(15) 148.3(19)
Fe1 Bi1 O2 5_5555 5_4455 90.1(11) 75.5(8) 99.3(12)
Fe1 Bi1 O2 5_5555 5_4545 91.8(10) 88.9(10) 95.9(9)
Fe1 Bi1 O2 5_5555 5_4555 35.8(17) 31.9(14) 37.5(19)
Fe1 Bi1 O3 5_5555 1_4545 133.8(4) 130.7(4) 136.1(5)
Fe1 Bi1 O3 5_5555 1_5545 133.8(5) 133.8(5) 133.8(5)
Fe1 Bi1 O3 5_5555 5_4445 144.4(10) 122.5(10) 161.9(10)
Fe1 Bi1 O3 5_5555 5_4545 90.3(5) 79.1(7) 99.9(5)
Fe1 Bi1 O3 5_5555 5_5445 90.6(7) 78.3(7) 108.6(7)
Fe1 Bi1 O3 5_5555 5_5545 37.5(9) 28.3(8) 54.8(9)
Pb1 Bi1 Pb1 1_4555 1_5455 90.0(5) 89.6(5) 90.1(5)
Pb1 Bi1 Pb1 1_4555 1_5545 92.3(6) 91.2(5) 95.0(7)
Pb1 Bi1 Pb1 1_4555 . 100(800) 0 200(1200)
Pb1 Bi1 Pb1 1_4555 1_5565 88.0(6) 82.5(7) 91.7(6)
Pb1 Bi1 Pb1 1_4555 1_5655 90.0(5) 89.6(5) 90.1(5)
Pb1 Bi1 Pb1 1_4555 1_6555 178.4(7) 176.3(7) 180.0(5)
Pb1 Bi1 Pb1 1_4555 5_4455 64.8(6) 64.8(6) 64.8(6)
Pb1 Bi1 Pb1 1_4555 5_4555 64.8(6) 64.8(6) 64.8(6)
Pb1 Bi1 Pb1 1_4555 5_5455 129.4(6) 128.7(6) 131.0(5)
Pb1 Bi1 Pb1 1_4555 5_5555 129.4(6) 128.7(6) 131.0(5)
Pb1 Bi1 Bi1 1_4555 1_4555 0.1(5) 0.0(5) 0.5(5)
Pb1 Bi1 Bi1 1_4555 1_5455 90.0(5) 90.0(5) 90.0(5)
Pb1 Bi1 Bi1 1_4555 1_5545 92.4(6) 91.2(6) 94.7(6)
Pb1 Bi1 Bi1 1_4555 1_5565 87.9(6) 82.5(7) 91.7(6)
Pb1 Bi1 Bi1 1_4555 1_5655 90.0(5) 90.0(5) 90.0(5)
Pb1 Bi1 Bi1 1_4555 1_6555 178.4(7) 176.3(7) 180.0(5)
Pb1 Bi1 Bi1 1_4555 5_4455 64.5(6) 64.5(6) 64.5(6)
Pb1 Bi1 Bi1 1_4555 5_4555 64.5(6) 64.5(6) 64.5(6)
Pb1 Bi1 Bi1 1_4555 5_5455 128.9(6) 128.1(6) 130.7(5)
Pb1 Bi1 Bi1 1_4555 5_5555 128.9(6) 128.1(6) 130.7(5)
Pb1 Bi1 O1 1_4555 1_5445 88.1(9) 87.9(9) 88.2(9)
Pb1 Bi1 O1 1_4555 1_5455 100.8(12) 100.8(12) 100.8(12)
Pb1 Bi1 O1 1_4555 1_5465 90.3(9) 88.9(9) 93.9(8)
Pb1 Bi1 O1 1_4555 1_5545 88.1(9) 87.9(9) 88.2(9)
Pb1 Bi1 O1 1_4555 . 100.8(12) 100.8(12) 100.8(12)
Pb1 Bi1 O1 1_4555 1_5565 90.3(9) 88.9(9) 93.9(8)
Pb1 Bi1 O1 1_4555 5_4445 48.4(9) 40.0(11) 59.5(8)
Pb1 Bi1 O1 1_4555 5_4455 46.7(9) 36.1(9) 61.1(8)
Pb1 Bi1 O1 1_4555 5_5445 136.6(10) 118.8(9) 147.2(11)
Pb1 Bi1 O1 1_4555 5_5455 130.6(10) 116.8(9) 143.5(12)
Pb1 Bi1 O2 1_4555 1_4565 65.9(11) 65.9(11) 65.9(11)
Pb1 Bi1 O2 1_4555 5_4445 91.8(18) 90(2) 95.6(19)
Pb1 Bi1 O2 1_4555 5_4455 88.7(17) 86.4(15) 91(2)
Pb1 Bi1 O2 1_4555 5_4545 91.8(18) 90(2) 95.6(19)
Pb1 Bi1 O2 1_4555 5_4555 88.7(17) 86.4(15) 91(2)
Pb1 Bi1 O3 1_4555 . 98.2(8) 98.2(8) 98.2(8)
Pb1 Bi1 O3 1_4555 1_6555 162.1(7) 160.6(8) 164.7(6)
Pb1 Bi1 O3 1_4555 5_4445 45.9(3) 43.4(3) 53.8(4)
Pb1 Bi1 O3 1_4555 5_4545 45.9(3) 43.4(3) 53.8(4)
Pb1 Bi1 O3 1_4555 5_5445 134.3(3) 131.5(4) 136.5(2)
Pb1 Bi1 O3 1_4555 5_5545 134.3(3) 131.5(4) 136.5(2)
Pb1 Bi1 Pb1 1_5455 1_5545 90.1(3) 90.0(3) 90.49(18)
Pb1 Bi1 Pb1 1_5455 . 87.9(3) 0 89.990(7)
Pb1 Bi1 Pb1 1_5455 1_5565 90.1(3) 90.0(3) 90.49(18)
Pb1 Bi1 Pb1 1_5455 1_5655 179.7(6) 178.8(5) 180.0(5)
Pb1 Bi1 Pb1 1_5455 1_6555 90.0(3) 89.6(2) 90.1(4)
Pb1 Bi1 Pb1 1_5455 5_4445 56.7(3) 56.7(4) 56.7(3)
Pb1 Bi1 Pb1 1_5455 5_4545 123.3(4) 123.3(4) 123.3(5)
Pb1 Bi1 Pb1 1_5455 5_5455 56.7(3) 56.7(4) 56.7(3)
Pb1 Bi1 Pb1 1_5455 5_5555 123.3(4) 123.3(4) 123.3(5)
Pb1 Bi1 Bi1 1_5455 1_4555 90.0(3) 89.6(2) 90.2(4)
Pb1 Bi1 Bi1 1_5455 1_5455 0.1(5) 0.0(5) 0.6(5)
Pb1 Bi1 Bi1 1_5455 1_5545 90.1(3) 89.9(5) 90.49(18)
Pb1 Bi1 Bi1 1_5455 1_5565 90.1(3) 89.9(5) 90.49(18)
Pb1 Bi1 Bi1 1_5455 1_5655 179.9(6) 179.4(5) 180.0(5)
Pb1 Bi1 Bi1 1_5455 1_6555 90.0(3) 89.6(2) 90.2(4)
Pb1 Bi1 Bi1 1_5455 5_4445 56.7(3) 56.7(4) 56.7(3)
Pb1 Bi1 Bi1 1_5455 5_4545 123.3(4) 123.2(4) 123.3(5)
Pb1 Bi1 Bi1 1_5455 5_5455 56.7(3) 56.7(4) 56.7(3)
Pb1 Bi1 Bi1 1_5455 5_5555 123.3(4) 123.2(4) 123.3(5)
Pb1 Bi1 O1 1_5455 1_5445 59.5(3) 58.4(4) 60.0(3)
Pb1 Bi1 O1 1_5455 1_5465 59.5(3) 58.4(4) 60.0(3)
Pb1 Bi1 O1 1_5455 1_5545 120.0(5) 119.3(3) 121.5(7)
Pb1 Bi1 O1 1_5455 1_5565 120.0(5) 119.3(3) 121.5(7)
Pb1 Bi1 O1 1_5455 5_4445 90.0(3) 89.9(4) 90.04(19)
Pb1 Bi1 O1 1_5455 5_4455 90.0(3) 89.40(19) 90.6(2)
Pb1 Bi1 O1 1_5455 5_5445 90.0(3) 89.40(19) 90.6(2)
Pb1 Bi1 O1 1_5455 5_5455 90.0(3) 89.9(4) 90.04(19)
Pb1 Bi1 O2 1_5455 5_4445 45.0(3) 36.2(4) 56.0(4)
Pb1 Bi1 O2 1_5455 5_4455 45.0(3) 36.2(4) 56.0(4)
Pb1 Bi1 O2 1_5455 5_4545 135.2(5) 124.0(7) 144.0(8)
Pb1 Bi1 O2 1_5455 5_4555 135.2(5) 124.0(7) 144.0(8)
Pb1 Bi1 O3 1_5455 1_4545 90.2(3) 90.1(4) 90.2(2)
Pb1 Bi1 O3 1_5455 1_6555 90.2(3) 90.1(4) 90.2(2)
Pb1 Bi1 O3 1_5455 5_4445 45.6(3) 40.5(3) 49.0(4)
Pb1 Bi1 O3 1_5455 5_4545 134.3(6) 131.2(7) 138.4(5)
Pb1 Bi1 O3 1_5455 5_5445 45.6(3) 40.5(3) 49.0(4)
Pb1 Bi1 O3 1_5455 5_5545 134.3(6) 131.2(7) 138.4(5)
Pb1 Bi1 Pb1 1_5545 . 100(800) 0 200(1500)
Pb1 Bi1 Pb1 1_5545 1_5565 176.7(7) 174.1(8) 180.0(5)
Pb1 Bi1 Pb1 1_5545 1_5655 90.1(5) 90.0(4) 90.5(4)
Pb1 Bi1 Pb1 1_5545 1_6555 88.0(6) 82.5(6) 91.7(7)
Pb1 Bi1 Pb1 1_5545 5_4455 129.2(5) 129.2(5) 129.2(5)
Pb1 Bi1 Pb1 1_5545 5_4555 129.2(5) 129.2(5) 129.2(5)
Pb1 Bi1 Pb1 1_5545 5_5455 121.3(6) 119.5(5) 122.1(6)
Pb1 Bi1 Pb1 1_5545 5_5555 121.3(6) 119.5(5) 122.1(6)
Pb1 Bi1 Bi1 1_5545 1_4555 92.3(6) 91.2(5) 95.2(7)
Pb1 Bi1 Bi1 1_5545 1_5455 90.0(5) 90.0(5) 90.0(5)
Pb1 Bi1 Bi1 1_5545 1_5545 0.0(5) 0.0(5) 0.3(4)
Pb1 Bi1 Bi1 1_5545 1_5565 176.7(7) 174.1(8) 180.0(5)
Pb1 Bi1 Bi1 1_5545 1_5655 90.0(5) 90.0(5) 90.0(5)
Pb1 Bi1 Bi1 1_5545 1_6555 88.1(6) 82.5(6) 91.3(6)
Pb1 Bi1 Bi1 1_5545 5_4455 129.6(5) 129.6(5) 129.6(5)
Pb1 Bi1 Bi1 1_5545 5_4555 129.6(5) 129.6(5) 129.6(5)
Pb1 Bi1 Bi1 1_5545 5_5455 121.7(6) 119.8(5) 122.7(6)
Pb1 Bi1 Bi1 1_5545 5_5555 121.7(6) 119.8(5) 122.7(6)
Pb1 Bi1 O1 1_5545 1_5455 54.6(6) 54.6(6) 54.6(6)
Pb1 Bi1 O1 1_5545 1_5465 149.6(3) 148.4(3) 150.2(2)
Pb1 Bi1 O1 1_5545 . 54.6(6) 54.6(6) 54.6(6)
Pb1 Bi1 O1 1_5545 1_5565 149.6(3) 148.4(3) 150.2(2)
Pb1 Bi1 O1 1_5545 5_4445 45.0(9) 36.4(8) 51.8(11)
Pb1 Bi1 O1 1_5545 5_4455 140.2(10) 131.2(12) 153.4(8)
Pb1 Bi1 O1 1_5545 5_5445 45.9(9) 27.8(8) 55.2(9)
Pb1 Bi1 O1 1_5545 5_5455 138.6(10) 122.8(12) 151.1(10)
Pb1 Bi1 O2 1_5545 1_4565 158.1(12) 158.1(12) 158.1(12)
Pb1 Bi1 O2 1_5545 5_4445 45.1(3) 34.2(3) 53.9(4)
Pb1 Bi1 O2 1_5545 5_4455 137.2(3) 126.5(6) 145.9(2)
Pb1 Bi1 O2 1_5545 5_4545 45.1(3) 34.2(3) 53.9(4)
Pb1 Bi1 O2 1_5545 5_4555 137.2(3) 126.5(6) 145.9(2)
Pb1 Bi1 O3 1_5545 . 169.5(9) 169.5(9) 169.5(9)
Pb1 Bi1 O3 1_5545 1_6555 105.7(7) 103.1(7) 107.3(8)
Pb1 Bi1 O3 1_5545 5_4445 93.2(10) 80.8(10) 108.2(10)
Pb1 Bi1 O3 1_5545 5_4545 93.2(10) 80.8(10) 108.2(10)
Pb1 Bi1 O3 1_5545 5_5445 92.1(10) 75.6(10) 105.5(9)
Pb1 Bi1 O3 1_5545 5_5545 92.1(10) 75.6(10) 105.5(9)
Pb1 Bi1 Pb1 . 1_5565 100(500) 0 200(1300)
Pb1 Bi1 Pb1 . 1_5655 87.9(5) 0 90.0(4)
Pb1 Bi1 Pb1 . 1_6555 100(400) 0 200(1100)
Pb1 Bi1 Pb1 . 5_4445 90(30) 90(20) 90(60)
Pb1 Bi1 Pb1 . 5_4545 90(30) 90(20) 90(60)
Pb1 Bi1 Pb1 . 5_5455 90(30) 90(20) 90(60)
Pb1 Bi1 Pb1 . 5_5555 90(30) 90(20) 90(60)
Pb1 Bi1 Bi1 . 1_4555 100(400) 0 200(1100)
Pb1 Bi1 Bi1 . 1_5455 88.1(5) 0 90.0(5)
Pb1 Bi1 Bi1 . 1_5545 100(500) 0 200(1300)
Pb1 Bi1 Bi1 . 1_5565 100(500) 0 200(1300)
Pb1 Bi1 Bi1 . 1_5655 88.1(5) 0 90.0(5)
Pb1 Bi1 Bi1 . 1_6555 100(400) 0 200(1100)
Pb1 Bi1 Bi1 . 5_4445 90(30) 90(20) 90(60)
Pb1 Bi1 Bi1 . 5_4545 90(30) 90(20) 90(60)
Pb1 Bi1 Bi1 . 5_5455 90(30) 90(20) 90(60)
Pb1 Bi1 Bi1 . 5_5555 90(30) 90(20) 90(60)
Pb1 Bi1 O1 . 1_5445 50(90) 50(30) 100(300)
Pb1 Bi1 O1 . 1_5465 50(90) 50(30) 100(300)
Pb1 Bi1 O1 . 1_5545 50(90) 50(30) 100(300)
Pb1 Bi1 O1 . 1_5565 50(90) 50(30) 100(300)
Pb1 Bi1 O1 . 5_4445 100(400) 0 0(2000)
Pb1 Bi1 O1 . 5_4455 100(400) 0 200(600)
Pb1 Bi1 O1 . 5_5445 100(400) 0 200(600)
Pb1 Bi1 O1 . 5_5455 100(400) 0 0(2000)
Pb1 Bi1 O2 . 5_4445 100(200) 0 140(130)
Pb1 Bi1 O2 . 5_4455 100(200) 0 140(130)
Pb1 Bi1 O2 . 5_4545 100(200) 0 140(130)
Pb1 Bi1 O2 . 5_4555 100(200) 0 140(130)
Pb1 Bi1 O3 . 1_4545 110(40) 110(20) 110(70)
Pb1 Bi1 O3 . 1_6555 110(40) 110(20) 110(70)
Pb1 Bi1 O3 . 5_4445 100(200) 0 100(900)
Pb1 Bi1 O3 . 5_4545 100(200) 0 100(900)
Pb1 Bi1 O3 . 5_5445 100(200) 0 100(900)
Pb1 Bi1 O3 . 5_5545 100(200) 0 100(900)
Pb1 Bi1 Pb1 1_5565 1_5655 90.1(5) 90.0(4) 90.5(4)
Pb1 Bi1 Pb1 1_5565 1_6555 92.3(6) 91.2(5) 95.0(7)
Pb1 Bi1 Pb1 1_5565 5_4445 121.3(6) 119.5(5) 122.1(6)
Pb1 Bi1 Pb1 1_5565 5_4545 121.3(6) 119.5(5) 122.1(6)
Pb1 Bi1 Pb1 1_5565 5_5445 129.2(5) 129.2(5) 129.2(5)
Pb1 Bi1 Pb1 1_5565 5_5545 129.2(5) 129.2(5) 129.2(5)
Pb1 Bi1 Bi1 1_5565 1_4555 88.1(6) 82.5(6) 91.3(6)
Pb1 Bi1 Bi1 1_5565 1_5455 90.0(5) 90.0(4) 90.0(4)
Pb1 Bi1 Bi1 1_5565 1_5545 176.7(7) 174.1(8) 180.0(5)
Pb1 Bi1 Bi1 1_5565 1_5565 0.0(5) 0.0(5) 0.3(4)
Pb1 Bi1 Bi1 1_5565 1_5655 90.0(5) 90.0(4) 90.0(4)
Pb1 Bi1 Bi1 1_5565 1_6555 92.3(6) 91.2(5) 95.2(7)
Pb1 Bi1 Bi1 1_5565 5_4445 121.7(6) 119.8(5) 122.7(6)
Pb1 Bi1 Bi1 1_5565 5_4545 121.7(6) 119.8(5) 122.7(6)
Pb1 Bi1 Bi1 1_5565 5_5445 129.6(5) 129.6(5) 129.6(5)
Pb1 Bi1 Bi1 1_5565 5_5545 129.6(5) 129.6(5) 129.6(5)
Pb1 Bi1 O1 1_5565 1_5445 149.6(3) 148.4(3) 150.2(2)
Pb1 Bi1 O1 1_5565 1_5455 54.6(6) 54.6(6) 54.6(6)
Pb1 Bi1 O1 1_5565 1_5545 149.6(3) 148.4(3) 150.2(2)
Pb1 Bi1 O1 1_5565 . 54.6(6) 54.6(6) 54.6(6)
Pb1 Bi1 O1 1_5565 5_4445 138.6(10) 122.8(12) 151.1(10)
Pb1 Bi1 O1 1_5565 5_4455 45.9(9) 27.8(8) 55.2(9)
Pb1 Bi1 O1 1_5565 5_5445 140.2(10) 131.2(12) 153.4(8)
Pb1 Bi1 O1 1_5565 5_5455 45.0(9) 36.4(8) 51.8(11)
Pb1 Bi1 O2 1_5565 1_5545 158.1(12) 158.1(12) 158.1(12)
Pb1 Bi1 O2 1_5565 5_4445 137.2(3) 126.5(6) 145.9(2)
Pb1 Bi1 O2 1_5565 5_4455 45.1(3) 34.2(3) 53.9(4)
Pb1 Bi1 O2 1_5565 5_4545 137.2(3) 126.5(6) 145.9(2)
Pb1 Bi1 O2 1_5565 5_4555 45.1(3) 34.2(3) 53.9(4)
Pb1 Bi1 O3 1_5565 1_4545 105.7(7) 103.1(7) 107.3(8)
Pb1 Bi1 O3 1_5565 1_5545 169.5(9) 169.5(9) 169.5(9)
Pb1 Bi1 O3 1_5565 5_4445 92.1(10) 75.6(10) 105.5(9)
Pb1 Bi1 O3 1_5565 5_4545 92.1(10) 75.6(10) 105.5(9)
Pb1 Bi1 O3 1_5565 5_5445 93.2(10) 80.8(10) 108.2(10)
Pb1 Bi1 O3 1_5565 5_5545 93.2(10) 80.8(10) 108.2(10)
Pb1 Bi1 Pb1 1_5655 1_6555 90.0(3) 89.6(2) 90.1(4)
Pb1 Bi1 Pb1 1_5655 5_4445 123.3(4) 123.3(4) 123.3(5)
Pb1 Bi1 Pb1 1_5655 5_4545 56.7(3) 56.7(4) 56.7(3)
Pb1 Bi1 Pb1 1_5655 5_5455 123.3(4) 123.3(4) 123.3(5)
Pb1 Bi1 Pb1 1_5655 5_5555 56.7(3) 56.7(4) 56.7(3)
Pb1 Bi1 Bi1 1_5655 1_4555 90.0(3) 89.6(2) 90.2(4)
Pb1 Bi1 Bi1 1_5655 1_5455 179.9(6) 179.4(5) 180.0(5)
Pb1 Bi1 Bi1 1_5655 1_5545 90.1(3) 89.9(5) 90.49(18)
Pb1 Bi1 Bi1 1_5655 1_5565 90.1(3) 89.9(5) 90.49(18)
Pb1 Bi1 Bi1 1_5655 1_5655 0.1(5) 0.0(5) 0.6(5)
Pb1 Bi1 Bi1 1_5655 1_6555 90.0(3) 89.6(2) 90.2(4)
Pb1 Bi1 Bi1 1_5655 5_4445 123.3(4) 123.2(4) 123.3(5)
Pb1 Bi1 Bi1 1_5655 5_4545 56.7(3) 56.7(4) 56.7(3)
Pb1 Bi1 Bi1 1_5655 5_5455 123.3(4) 123.2(4) 123.3(5)
Pb1 Bi1 Bi1 1_5655 5_5555 56.7(3) 56.7(4) 56.7(3)
Pb1 Bi1 O1 1_5655 1_5445 120.0(5) 119.3(3) 121.5(7)
Pb1 Bi1 O1 1_5655 1_5465 120.0(5) 119.3(3) 121.5(7)
Pb1 Bi1 O1 1_5655 1_5545 59.5(3) 58.4(4) 60.0(3)
Pb1 Bi1 O1 1_5655 1_5565 59.5(3) 58.4(4) 60.0(3)
Pb1 Bi1 O1 1_5655 5_4445 90.0(3) 89.9(4) 90.04(19)
Pb1 Bi1 O1 1_5655 5_4455 90.0(3) 89.40(19) 90.6(2)
Pb1 Bi1 O1 1_5655 5_5445 90.0(3) 89.40(19) 90.6(2)
Pb1 Bi1 O1 1_5655 5_5455 90.0(3) 89.9(4) 90.04(19)
Pb1 Bi1 O2 1_5655 5_4445 135.2(5) 124.0(7) 144.0(8)
Pb1 Bi1 O2 1_5655 5_4455 135.2(5) 124.0(7) 144.0(8)
Pb1 Bi1 O2 1_5655 5_4545 45.0(3) 36.2(4) 56.0(4)
Pb1 Bi1 O2 1_5655 5_4555 45.0(3) 36.2(4) 56.0(4)
Pb1 Bi1 O3 1_5655 1_4545 90.2(3) 90.1(4) 90.2(2)
Pb1 Bi1 O3 1_5655 1_6555 90.2(3) 90.1(4) 90.2(2)
Pb1 Bi1 O3 1_5655 5_4445 134.3(6) 131.2(7) 138.4(5)
Pb1 Bi1 O3 1_5655 5_4545 45.6(3) 40.5(3) 49.0(4)
Pb1 Bi1 O3 1_5655 5_5445 134.3(6) 131.2(7) 138.4(5)
Pb1 Bi1 O3 1_5655 5_5545 45.6(3) 40.5(3) 49.0(4)
Pb1 Bi1 Pb1 1_6555 5_4445 129.4(6) 128.7(6) 131.0(5)
Pb1 Bi1 Pb1 1_6555 5_4545 129.4(6) 128.7(6) 131.0(5)
Pb1 Bi1 Pb1 1_6555 5_5445 64.8(6) 64.8(6) 64.8(6)
Pb1 Bi1 Pb1 1_6555 5_5545 64.8(6) 64.8(6) 64.8(6)
Pb1 Bi1 Bi1 1_6555 1_4555 178.4(7) 176.3(7) 180.0(5)
Pb1 Bi1 Bi1 1_6555 1_5455 90.0(5) 90.0(5) 90.0(5)
Pb1 Bi1 Bi1 1_6555 1_5545 87.9(6) 82.5(7) 91.7(6)
Pb1 Bi1 Bi1 1_6555 1_5565 92.4(6) 91.2(6) 94.7(6)
Pb1 Bi1 Bi1 1_6555 1_5655 90.0(5) 90.0(5) 90.0(5)
Pb1 Bi1 Bi1 1_6555 1_6555 0.1(5) 0.0(5) 0.5(5)
Pb1 Bi1 Bi1 1_6555 5_4445 128.9(6) 128.1(6) 130.7(5)
Pb1 Bi1 Bi1 1_6555 5_4545 128.9(6) 128.1(6) 130.7(5)
Pb1 Bi1 Bi1 1_6555 5_5445 64.5(6) 64.5(6) 64.5(6)
Pb1 Bi1 Bi1 1_6555 5_5545 64.5(6) 64.5(6) 64.5(6)
Pb1 Bi1 O1 1_6555 1_5445 90.3(9) 88.9(9) 93.9(8)
Pb1 Bi1 O1 1_6555 1_5455 100.8(12) 100.8(12) 100.8(12)
Pb1 Bi1 O1 1_6555 1_5465 88.1(9) 87.9(9) 88.2(9)
Pb1 Bi1 O1 1_6555 1_5545 90.3(9) 88.9(9) 93.9(8)
Pb1 Bi1 O1 1_6555 . 100.8(12) 100.8(12) 100.8(12)
Pb1 Bi1 O1 1_6555 1_5565 88.1(9) 87.9(9) 88.2(9)
Pb1 Bi1 O1 1_6555 5_4445 130.6(10) 116.8(9) 143.5(12)
Pb1 Bi1 O1 1_6555 5_4455 136.6(10) 118.8(9) 147.2(11)
Pb1 Bi1 O1 1_6555 5_5445 46.7(9) 36.1(9) 61.1(8)
Pb1 Bi1 O1 1_6555 5_5455 48.4(9) 40.0(11) 59.5(8)
Pb1 Bi1 O2 1_6555 1_5545 65.9(11) 65.9(11) 65.9(11)
Pb1 Bi1 O2 1_6555 5_4445 88.7(17) 86.4(15) 91(2)
Pb1 Bi1 O2 1_6555 5_4455 91.8(18) 90(2) 95.6(19)
Pb1 Bi1 O2 1_6555 5_4545 88.7(17) 86.4(15) 91(2)
Pb1 Bi1 O2 1_6555 5_4555 91.8(18) 90(2) 95.6(19)
Pb1 Bi1 O3 1_6555 1_4545 162.1(7) 160.6(8) 164.7(6)
Pb1 Bi1 O3 1_6555 1_5545 98.2(8) 98.2(8) 98.2(8)
Pb1 Bi1 O3 1_6555 5_4445 134.3(3) 131.5(4) 136.5(2)
Pb1 Bi1 O3 1_6555 5_4545 134.3(3) 131.5(4) 136.5(2)
Pb1 Bi1 O3 1_6555 5_5445 45.9(3) 43.4(3) 53.8(4)
Pb1 Bi1 O3 1_6555 5_5545 45.9(3) 43.4(3) 53.8(4)
Pb1 Bi1 Pb1 5_4445 5_4545 66.6(4) 66.5(3) 66.6(4)
Pb1 Bi1 Pb1 5_4445 5_5445 66.2(6) 66.2(6) 66.2(6)
Pb1 Bi1 Pb1 5_4445 5_5545 108.9(6) 108.9(6) 108.9(6)
Pb1 Bi1 Bi1 5_4445 1_4555 48.6(4) 48.6(4) 48.6(4)
Pb1 Bi1 Bi1 5_4445 1_5455 56.7(4) 56.7(4) 56.7(4)
Pb1 Bi1 Bi1 5_4445 1_5655 123.3(5) 123.3(5) 123.3(6)
Pb1 Bi1 Bi1 5_4445 1_6555 129.5(4) 128.7(5) 131.1(4)
Pb1 Bi1 Bi1 5_4445 5_4445 0.5(5) 0.3(5) 0.8(5)
Pb1 Bi1 Bi1 5_4445 5_4545 66.6(4) 66.5(3) 66.6(4)
Pb1 Bi1 Bi1 5_4445 5_5445 66.5(6) 66.5(6) 66.5(6)
Pb1 Bi1 Bi1 5_4445 5_5545 108.7(6) 108.7(6) 108.7(6)
Pb1 Bi1 O1 5_4445 1_5445 40.8(7) 39.9(8) 42.3(7)
Pb1 Bi1 O1 5_4445 1_5455 74.7(9) 74.7(9) 74.7(9)
Pb1 Bi1 O1 5_4445 1_5545 77.8(6) 77.3(5) 78.9(6)
Pb1 Bi1 O1 5_4445 . 127.8(12) 127.8(12) 127.8(12)
Pb1 Bi1 O1 5_4445 5_4455 76.9(7) 76.1(7) 77.4(7)
Pb1 Bi1 O1 5_4445 5_5445 81.1(7) 80.5(6) 82.2(7)
Pb1 Bi1 O1 5_4445 5_5455 146.60(18) 146.2(3) 146.73(15)
Pb1 Bi1 O2 5_4445 1_5545 78.2(9) 78.2(9) 78.2(9)
Pb1 Bi1 O2 5_4445 5_4455 81.6(12) 81.4(11) 81.8(12)
Pb1 Bi1 O2 5_4445 5_4555 136.3(19) 134.3(19) 138(2)
Pb1 Bi1 O3 5_4445 1_4545 39.6(4) 39.0(4) 39.8(4)
Pb1 Bi1 O3 5_4445 1_5545 52.6(5) 52.6(5) 52.6(5)
Pb1 Bi1 O3 5_4445 5_5445 81.6(6) 79.0(6) 84.4(5)
Pb1 Bi1 O3 5_4445 5_5545 131.0(10) 129.6(10) 133.1(10)
Pb1 Bi1 Pb1 5_4455 5_4555 83.1(5) 83.1(5) 83.1(5)
Pb1 Bi1 Pb1 5_4455 5_5455 66.2(5) 66.2(5) 66.2(5)
Pb1 Bi1 Pb1 5_4455 5_5555 108.9(5) 108.9(5) 108.9(5)
Pb1 Bi1 Bi1 5_4455 1_4555 64.9(4) 64.9(4) 64.9(4)
Pb1 Bi1 Bi1 5_4455 1_5455 48.4(4) 48.4(4) 48.4(4)
Pb1 Bi1 Bi1 5_4455 1_5655 131.6(5) 131.6(5) 131.6(5)
Pb1 Bi1 Bi1 5_4455 5_4455 0.6(4) 0.6(4) 0.6(4)
Pb1 Bi1 Bi1 5_4455 5_4555 82.5(4) 82.5(4) 82.5(4)
Pb1 Bi1 Bi1 5_4455 5_5455 65.9(5) 65.9(5) 65.9(5)
Pb1 Bi1 Bi1 5_4455 5_5555 108.7(5) 108.7(5) 108.7(5)
Pb1 Bi1 O1 5_4455 1_5455 84.4(8) 84.4(8) 84.4(8)
Pb1 Bi1 O1 5_4455 1_5465 33.4(7) 33.4(7) 33.4(7)
Pb1 Bi1 O1 5_4455 . 164.0(11) 164.0(11) 164.0(11)
Pb1 Bi1 O1 5_4455 1_5565 80.3(5) 80.3(5) 80.3(5)
Pb1 Bi1 O1 5_4455 5_4445 97.3(9) 97.3(9) 97.3(9)
Pb1 Bi1 O1 5_4455 5_5445 134.6(4) 134.6(4) 134.6(4)
Pb1 Bi1 O2 5_4455 1_4565 42.6(3) 42.6(3) 42.6(3)
Pb1 Bi1 O3 5_4455 . 56.8(4) 56.8(4) 56.8(4)
Pb1 Bi1 Pb1 5_4545 5_5445 108.9(6) 108.9(6) 108.9(6)
Pb1 Bi1 Pb1 5_4545 5_5545 66.2(6) 66.2(6) 66.2(6)
Pb1 Bi1 Bi1 5_4545 1_4555 48.6(4) 48.6(4) 48.6(4)
Pb1 Bi1 Bi1 5_4545 1_5455 123.3(5) 123.3(5) 123.3(6)
Pb1 Bi1 Bi1 5_4545 1_5655 56.7(4) 56.7(4) 56.7(4)
Pb1 Bi1 Bi1 5_4545 1_6555 129.5(4) 128.7(5) 131.1(4)
Pb1 Bi1 Bi1 5_4545 5_4445 66.6(4) 66.5(3) 66.6(4)
Pb1 Bi1 Bi1 5_4545 5_4545 0.5(5) 0.3(5) 0.8(5)
Pb1 Bi1 Bi1 5_4545 5_5445 108.7(6) 108.7(6) 108.7(6)
Pb1 Bi1 Bi1 5_4545 5_5545 66.5(6) 66.5(6) 66.5(6)
Pb1 Bi1 O1 5_4545 1_5445 77.8(6) 77.3(5) 78.9(6)
Pb1 Bi1 O1 5_4545 1_5455 127.8(12) 127.8(12) 127.8(12)
Pb1 Bi1 O1 5_4545 1_5545 40.8(7) 39.9(8) 42.3(7)
Pb1 Bi1 O1 5_4545 . 74.7(9) 74.7(9) 74.7(9)
Pb1 Bi1 O1 5_4545 5_4455 76.9(7) 76.1(7) 77.4(7)
Pb1 Bi1 O1 5_4545 5_5445 81.1(7) 80.5(6) 82.2(7)
Pb1 Bi1 O1 5_4545 5_5455 146.60(18) 146.2(3) 146.73(15)
Pb1 Bi1 O2 5_4545 1_5545 78.2(9) 78.2(9) 78.2(9)
Pb1 Bi1 O2 5_4545 5_4455 136.3(19) 134.3(19) 138(2)
Pb1 Bi1 O2 5_4545 5_4555 81.6(12) 81.4(11) 81.8(12)
Pb1 Bi1 O3 5_4545 1_4545 39.6(4) 39.0(4) 39.8(4)
Pb1 Bi1 O3 5_4545 1_5545 52.6(5) 52.6(5) 52.6(5)
Pb1 Bi1 O3 5_4545 5_5445 131.0(10) 129.6(10) 133.1(10)
Pb1 Bi1 O3 5_4545 5_5545 81.6(6) 79.0(6) 84.4(5)
Pb1 Bi1 Pb1 5_4555 5_5455 108.9(5) 108.9(5) 108.9(5)
Pb1 Bi1 Pb1 5_4555 5_5555 66.2(5) 66.2(5) 66.2(5)
Pb1 Bi1 Bi1 5_4555 1_4555 64.9(4) 64.9(4) 64.9(4)
Pb1 Bi1 Bi1 5_4555 1_5455 131.6(5) 131.6(5) 131.6(5)
Pb1 Bi1 Bi1 5_4555 1_5655 48.4(4) 48.4(4) 48.4(4)
Pb1 Bi1 Bi1 5_4555 5_4455 82.5(4) 82.5(4) 82.5(4)
Pb1 Bi1 Bi1 5_4555 5_4555 0.6(4) 0.6(4) 0.6(4)
Pb1 Bi1 Bi1 5_4555 5_5455 108.7(5) 108.7(5) 108.7(5)
Pb1 Bi1 Bi1 5_4555 5_5555 65.9(5) 65.9(5) 65.9(5)
Pb1 Bi1 O1 5_4555 1_5455 164.0(11) 164.0(11) 164.0(11)
Pb1 Bi1 O1 5_4555 1_5465 80.3(5) 80.3(5) 80.3(5)
Pb1 Bi1 O1 5_4555 . 84.4(8) 84.4(8) 84.4(8)
Pb1 Bi1 O1 5_4555 1_5565 33.4(7) 33.4(7) 33.4(7)
Pb1 Bi1 O1 5_4555 5_4445 97.3(9) 97.3(9) 97.3(9)
Pb1 Bi1 O1 5_4555 5_5445 134.6(4) 134.6(4) 134.6(4)
Pb1 Bi1 O2 5_4555 1_4565 42.6(3) 42.6(3) 42.6(3)
Pb1 Bi1 O3 5_4555 . 56.8(4) 56.8(4) 56.8(4)
Pb1 Bi1 Pb1 5_5445 5_5545 83.1(5) 83.1(5) 83.1(5)
Pb1 Bi1 Bi1 5_5445 1_5455 48.4(4) 48.4(4) 48.4(4)
Pb1 Bi1 Bi1 5_5445 1_5655 131.6(5) 131.6(5) 131.6(5)
Pb1 Bi1 Bi1 5_5445 1_6555 64.9(4) 64.9(4) 64.9(4)
Pb1 Bi1 Bi1 5_5445 5_4445 65.9(5) 65.9(5) 65.9(5)
Pb1 Bi1 Bi1 5_5445 5_4545 108.7(5) 108.7(5) 108.7(5)
Pb1 Bi1 Bi1 5_5445 5_5445 0.6(4) 0.6(4) 0.6(4)
Pb1 Bi1 Bi1 5_5445 5_5545 82.5(4) 82.5(4) 82.5(4)
Pb1 Bi1 O1 5_5445 1_5445 33.4(7) 33.4(7) 33.4(7)
Pb1 Bi1 O1 5_5445 1_5455 84.4(8) 84.4(8) 84.4(8)
Pb1 Bi1 O1 5_5445 1_5545 80.3(5) 80.3(5) 80.3(5)
Pb1 Bi1 O1 5_5445 . 164.0(11) 164.0(11) 164.0(11)
Pb1 Bi1 O1 5_5445 5_4455 134.6(4) 134.6(4) 134.6(4)
Pb1 Bi1 O1 5_5445 5_5455 97.3(9) 97.3(9) 97.3(9)
Pb1 Bi1 O2 5_5445 1_5545 42.6(3) 42.6(3) 42.6(3)
Pb1 Bi1 O3 5_5445 1_5545 56.8(4) 56.8(4) 56.8(4)
Pb1 Bi1 Pb1 5_5455 5_5555 66.6(4) 66.5(3) 66.6(4)
Pb1 Bi1 Bi1 5_5455 1_4555 129.5(4) 128.7(5) 131.1(4)
Pb1 Bi1 Bi1 5_5455 1_5455 56.7(4) 56.7(4) 56.7(4)
Pb1 Bi1 Bi1 5_5455 1_5655 123.3(5) 123.3(5) 123.3(6)
Pb1 Bi1 Bi1 5_5455 1_6555 48.6(4) 48.6(4) 48.6(4)
Pb1 Bi1 Bi1 5_5455 5_4455 66.5(6) 66.5(6) 66.5(6)
Pb1 Bi1 Bi1 5_5455 5_4555 108.7(6) 108.7(6) 108.7(6)
Pb1 Bi1 Bi1 5_5455 5_5455 0.5(5) 0.3(5) 0.8(5)
Pb1 Bi1 Bi1 5_5455 5_5555 66.6(4) 66.5(3) 66.6(4)
Pb1 Bi1 O1 5_5455 1_5455 74.7(9) 74.7(9) 74.7(9)
Pb1 Bi1 O1 5_5455 1_5465 40.8(7) 39.9(8) 42.3(7)
Pb1 Bi1 O1 5_5455 . 127.8(12) 127.8(12) 127.8(12)
Pb1 Bi1 O1 5_5455 1_5565 77.8(6) 77.3(5) 78.9(6)
Pb1 Bi1 O1 5_5455 5_4445 146.60(18) 146.2(3) 146.73(15)
Pb1 Bi1 O1 5_5455 5_4455 81.1(7) 80.5(6) 82.2(7)
Pb1 Bi1 O1 5_5455 5_5445 76.9(7) 76.1(7) 77.4(7)
Pb1 Bi1 O2 5_5455 1_4565 78.2(9) 78.2(9) 78.2(9)
Pb1 Bi1 O2 5_5455 5_4445 81.6(12) 81.4(11) 81.8(12)
Pb1 Bi1 O2 5_5455 5_4545 136.3(19) 134.3(19) 138(2)
Pb1 Bi1 O3 5_5455 . 52.6(5) 52.6(5) 52.6(5)
Pb1 Bi1 O3 5_5455 1_6555 39.6(4) 39.0(4) 39.8(4)
Pb1 Bi1 O3 5_5455 5_4445 81.6(6) 79.0(6) 84.4(5)
Pb1 Bi1 O3 5_5455 5_4545 131.0(10) 129.6(10) 133.1(10)
Pb1 Bi1 Bi1 5_5545 1_5455 131.6(5) 131.6(5) 131.6(5)
Pb1 Bi1 Bi1 5_5545 1_5655 48.4(4) 48.4(4) 48.4(4)
Pb1 Bi1 Bi1 5_5545 1_6555 64.9(4) 64.9(4) 64.9(4)
Pb1 Bi1 Bi1 5_5545 5_4445 108.7(5) 108.7(5) 108.7(5)
Pb1 Bi1 Bi1 5_5545 5_4545 65.9(5) 65.9(5) 65.9(5)
Pb1 Bi1 Bi1 5_5545 5_5445 82.5(4) 82.5(4) 82.5(4)
Pb1 Bi1 Bi1 5_5545 5_5545 0.6(4) 0.6(4) 0.6(4)
Pb1 Bi1 O1 5_5545 1_5445 80.3(5) 80.3(5) 80.3(5)
Pb1 Bi1 O1 5_5545 1_5455 164.0(11) 164.0(11) 164.0(11)
Pb1 Bi1 O1 5_5545 1_5545 33.4(7) 33.4(7) 33.4(7)
Pb1 Bi1 O1 5_5545 . 84.4(8) 84.4(8) 84.4(8)
Pb1 Bi1 O1 5_5545 5_4455 134.6(4) 134.6(4) 134.6(4)
Pb1 Bi1 O1 5_5545 5_5455 97.3(9) 97.3(9) 97.3(9)
Pb1 Bi1 O2 5_5545 1_5545 42.6(3) 42.6(3) 42.6(3)
Pb1 Bi1 O3 5_5545 1_5545 56.8(4) 56.8(4) 56.8(4)
Pb1 Bi1 Bi1 5_5555 1_4555 129.5(4) 128.7(5) 131.1(4)
Pb1 Bi1 Bi1 5_5555 1_5455 123.3(5) 123.3(5) 123.3(6)
Pb1 Bi1 Bi1 5_5555 1_5655 56.7(4) 56.7(4) 56.7(4)
Pb1 Bi1 Bi1 5_5555 1_6555 48.6(4) 48.6(4) 48.6(4)
Pb1 Bi1 Bi1 5_5555 5_4455 108.7(6) 108.7(6) 108.7(6)
Pb1 Bi1 Bi1 5_5555 5_4555 66.5(6) 66.5(6) 66.5(6)
Pb1 Bi1 Bi1 5_5555 5_5455 66.6(4) 66.5(3) 66.6(4)
Pb1 Bi1 Bi1 5_5555 5_5555 0.5(5) 0.3(5) 0.8(5)
Pb1 Bi1 O1 5_5555 1_5455 127.8(12) 127.8(12) 127.8(12)
Pb1 Bi1 O1 5_5555 1_5465 77.8(6) 77.3(5) 78.9(6)
Pb1 Bi1 O1 5_5555 . 74.7(9) 74.7(9) 74.7(9)
Pb1 Bi1 O1 5_5555 1_5565 40.8(7) 39.9(8) 42.3(7)
Pb1 Bi1 O1 5_5555 5_4445 146.60(18) 146.2(3) 146.73(15)
Pb1 Bi1 O1 5_5555 5_4455 81.1(7) 80.5(6) 82.2(7)
Pb1 Bi1 O1 5_5555 5_5445 76.9(7) 76.1(7) 77.4(7)
Pb1 Bi1 O2 5_5555 1_4565 78.2(9) 78.2(9) 78.2(9)
Pb1 Bi1 O2 5_5555 5_4445 136.3(19) 134.3(19) 138(2)
Pb1 Bi1 O2 5_5555 5_4545 81.6(12) 81.4(11) 81.8(12)
Pb1 Bi1 O3 5_5555 . 52.6(5) 52.6(5) 52.6(5)
Pb1 Bi1 O3 5_5555 1_6555 39.6(4) 39.0(4) 39.8(4)
Pb1 Bi1 O3 5_5555 5_4445 131.0(10) 129.6(10) 133.1(10)
Pb1 Bi1 O3 5_5555 5_4545 81.6(6) 79.0(6) 84.4(5)
Bi1 Bi1 Bi1 1_4555 1_5455 90.0(5) 90.0(5) 90.0(5)
Bi1 Bi1 Bi1 1_4555 1_5545 92.4(6) 91.2(5) 95.0(6)
Bi1 Bi1 Bi1 1_4555 1_5565 88.0(6) 82.5(7) 91.3(6)
Bi1 Bi1 Bi1 1_4555 1_5655 90.0(5) 90.0(5) 90.0(5)
Bi1 Bi1 Bi1 1_4555 1_6555 178.4(7) 176.6(7) 180.0(5)
Bi1 Bi1 Bi1 1_4555 5_4445 49.2(5) 49.2(5) 49.2(5)
Bi1 Bi1 Bi1 1_4555 5_4455 64.6(6) 64.6(6) 64.6(6)
Bi1 Bi1 Bi1 1_4555 5_4545 49.2(5) 49.2(5) 49.2(5)
Bi1 Bi1 Bi1 1_4555 5_4555 64.6(6) 64.6(6) 64.6(6)
Bi1 Bi1 Bi1 1_4555 5_5455 129.0(6) 128.2(6) 130.9(5)
Bi1 Bi1 Bi1 1_4555 5_5555 129.0(6) 128.2(6) 130.9(5)
Bi1 Bi1 O1 1_4555 1_5445 88.3(9) 87.9(8) 88.6(9)
Bi1 Bi1 O1 1_4555 1_5455 100.7(12) 100.7(12) 100.7(12)
Bi1 Bi1 O1 1_4555 1_5465 90.4(9) 88.9(9) 94.1(8)
Bi1 Bi1 O1 1_4555 1_5545 88.3(9) 87.9(8) 88.6(9)
Bi1 Bi1 O1 1_4555 . 100.7(12) 100.7(12) 100.7(12)
Bi1 Bi1 O1 1_4555 1_5565 90.4(9) 88.9(9) 94.1(8)
Bi1 Bi1 O1 1_4555 5_4445 48.5(9) 40.0(11) 60.0(8)
Bi1 Bi1 O1 1_4555 5_4455 46.4(9) 35.8(9) 61.3(8)
Bi1 Bi1 O1 1_4555 5_5445 136.2(10) 118.3(8) 147.2(11)
Bi1 Bi1 O1 1_4555 5_5455 130.8(10) 116.9(9) 142.9(12)
Bi1 Bi1 O2 1_4555 1_4565 66.1(11) 66.1(11) 66.1(11)
Bi1 Bi1 O2 1_4555 5_4445 91.8(18) 90(2) 95.5(19)
Bi1 Bi1 O2 1_4555 5_4455 88.7(17) 86.4(15) 91(2)
Bi1 Bi1 O2 1_4555 5_4545 91.8(18) 90(2) 95.5(19)
Bi1 Bi1 O2 1_4555 5_4555 88.7(17) 86.4(15) 91(2)
Bi1 Bi1 O3 1_4555 1_4545 16.0(6) 16.0(6) 16.0(6)
Bi1 Bi1 O3 1_4555 . 98.4(8) 98.4(8) 98.4(8)
Bi1 Bi1 O3 1_4555 1_6555 162.2(7) 160.6(8) 164.9(6)
Bi1 Bi1 O3 1_4555 5_4445 45.9(3) 43.4(3) 53.9(4)
Bi1 Bi1 O3 1_4555 5_4545 45.9(3) 43.4(3) 53.9(4)
Bi1 Bi1 O3 1_4555 5_5445 134.3(3) 130.6(4) 136.5(2)
Bi1 Bi1 O3 1_4555 5_5545 134.3(3) 130.6(4) 136.5(2)
Bi1 Bi1 Bi1 1_5455 1_5545 90.0(3) 90.0(5) 90.0(5)
Bi1 Bi1 Bi1 1_5455 1_5565 90.0(3) 90.00(16) 90.00(16)
Bi1 Bi1 Bi1 1_5455 1_5655 180.0(5) 180.0(5) 180.0(5)
Bi1 Bi1 Bi1 1_5455 1_6555 90.0(3) 90.00(19) 90.00(19)
Bi1 Bi1 Bi1 1_5455 5_4445 56.7(3) 56.7(3) 56.7(3)
Bi1 Bi1 Bi1 1_5455 5_4455 49.1(4) 49.1(4) 49.1(4)
Bi1 Bi1 Bi1 1_5455 5_4545 123.3(4) 123.3(4) 123.3(3)
Bi1 Bi1 Bi1 1_5455 5_4555 130.9(5) 130.9(5) 130.9(5)
Bi1 Bi1 Bi1 1_5455 5_5445 49.1(4) 49.1(4) 49.1(4)
Bi1 Bi1 Bi1 1_5455 5_5455 56.7(3) 56.7(3) 56.7(3)
Bi1 Bi1 Bi1 1_5455 5_5545 130.9(5) 130.9(5) 130.9(5)
Bi1 Bi1 Bi1 1_5455 5_5555 123.3(4) 123.3(4) 123.3(3)
Bi1 Bi1 O1 1_5455 1_5445 59.8(3) 58.4(4) 60.3(3)
Bi1 Bi1 O1 1_5455 1_5455 37.1(6) 37.1(6) 37.1(6)
Bi1 Bi1 O1 1_5455 1_5465 59.8(3) 58.4(4) 60.3(3)
Bi1 Bi1 O1 1_5455 1_5545 120.2(5) 119.7(4) 121.6(7)
Bi1 Bi1 O1 1_5455 . 142.9(7) 142.9(7) 142.9(7)
Bi1 Bi1 O1 1_5455 1_5565 120.2(5) 119.7(4) 121.6(7)
Bi1 Bi1 O1 1_5455 5_4445 90.0(3) 90.0(4) 90.0(4)
Bi1 Bi1 O1 1_5455 5_4455 90.0(3) 90.00(19) 90.00(19)
Bi1 Bi1 O1 1_5455 5_5445 90.0(3) 90.00(19) 90.00(19)
Bi1 Bi1 O1 1_5455 5_5455 90.0(3) 90.00(17) 90.00(17)
Bi1 Bi1 O2 1_5455 1_4565 90.00(17) 90.00(17) 90.00(17)
Bi1 Bi1 O2 1_5455 1_5545 90.00(17) 90.00(17) 90.00(17)
Bi1 Bi1 O2 1_5455 5_4445 44.9(3) 36.1(4) 56.0(4)
Bi1 Bi1 O2 1_5455 5_4455 44.9(3) 36.1(4) 56.0(4)
Bi1 Bi1 O2 1_5455 5_4545 135.1(5) 124.0(7) 143.9(8)
Bi1 Bi1 O2 1_5455 5_4555 135.1(5) 124.0(7) 143.9(8)
Bi1 Bi1 O3 1_5455 1_4545 90.0(3) 90.00(19) 90.00(19)
Bi1 Bi1 O3 1_5455 1_5545 90.00(16) 90.00(16) 90.00(16)
Bi1 Bi1 O3 1_5455 . 90.00(16) 90.00(16) 90.00(16)
Bi1 Bi1 O3 1_5455 1_6555 90.0(3) 90.0(4) 90.0(4)
Bi1 Bi1 O3 1_5455 5_4445 45.7(3) 41.1(4) 48.9(4)
Bi1 Bi1 O3 1_5455 5_4545 134.3(6) 131.1(7) 138.9(5)
Bi1 Bi1 O3 1_5455 5_5445 45.7(3) 41.1(4) 48.9(4)
Bi1 Bi1 O3 1_5455 5_5545 134.3(6) 131.1(7) 138.9(5)
Bi1 Bi1 Bi1 1_5545 1_5565 176.6(7) 174.2(8) 180.0(5)
Bi1 Bi1 Bi1 1_5545 1_5655 90.0(5) 90.0(5) 90.0(5)
Bi1 Bi1 Bi1 1_5545 1_6555 88.0(6) 82.5(6) 91.3(6)
Bi1 Bi1 Bi1 1_5545 5_4455 129.6(5) 129.6(5) 129.6(5)
Bi1 Bi1 Bi1 1_5545 5_4555 129.6(5) 129.6(5) 129.6(5)
Bi1 Bi1 Bi1 1_5545 5_5455 121.7(6) 119.7(5) 122.7(6)
Bi1 Bi1 Bi1 1_5545 5_5555 121.7(6) 119.7(5) 122.7(6)
Bi1 Bi1 O1 1_5545 1_5445 32.3(4) 32.3(4) 32.3(4)
Bi1 Bi1 O1 1_5545 1_5455 54.6(6) 54.6(6) 54.6(6)
Bi1 Bi1 O1 1_5545 1_5465 149.6(3) 148.4(3) 150.2(2)
Bi1 Bi1 O1 1_5545 1_5545 32.3(4) 32.3(4) 32.3(4)
Bi1 Bi1 O1 1_5545 . 54.6(6) 54.6(6) 54.6(6)
Bi1 Bi1 O1 1_5545 1_5565 149.6(3) 148.4(3) 150.2(2)
Bi1 Bi1 O1 1_5545 5_4445 44.7(9) 35.9(8) 51.8(11)
Bi1 Bi1 O1 1_5545 5_4455 139.9(10) 130.8(11) 153.4(8)
Bi1 Bi1 O1 1_5545 5_5445 45.5(9) 27.1(8) 55.2(9)
Bi1 Bi1 O1 1_5545 5_5455 138.2(10) 122.6(12) 151.2(10)
Bi1 Bi1 O2 1_5545 1_4565 158.2(12) 158.2(12) 158.2(12)
Bi1 Bi1 O2 1_5545 5_4445 45.1(3) 34.2(3) 53.9(4)
Bi1 Bi1 O2 1_5545 5_4455 136.9(3) 126.2(6) 145.9(2)
Bi1 Bi1 O2 1_5545 5_4545 45.1(3) 34.2(3) 53.9(4)
Bi1 Bi1 O2 1_5545 5_4555 136.9(3) 126.2(6) 145.9(2)
Bi1 Bi1 O3 1_5545 . 169.5(9) 169.5(9) 169.5(9)
Bi1 Bi1 O3 1_5545 1_6555 105.6(7) 103.0(7) 107.3(8)
Bi1 Bi1 O3 1_5545 5_4445 92.8(10) 80.1(10) 108.2(10)
Bi1 Bi1 O3 1_5545 5_4545 92.8(10) 80.1(10) 108.2(10)
Bi1 Bi1 O3 1_5545 5_5445 91.6(10) 74.8(10) 105.6(9)
Bi1 Bi1 O3 1_5545 5_5545 91.6(10) 74.8(10) 105.6(9)
Bi1 Bi1 Bi1 1_5565 1_5655 90.0(5) 90.0(4) 90.0(4)
Bi1 Bi1 Bi1 1_5565 1_6555 92.4(6) 91.2(5) 95.0(6)
Bi1 Bi1 Bi1 1_5565 5_4445 121.7(6) 119.7(5) 122.7(6)
Bi1 Bi1 Bi1 1_5565 5_4545 121.7(6) 119.7(5) 122.7(6)
Bi1 Bi1 Bi1 1_5565 5_5445 129.6(5) 129.6(5) 129.6(5)
Bi1 Bi1 Bi1 1_5565 5_5545 129.6(5) 129.6(5) 129.6(5)
Bi1 Bi1 O1 1_5565 1_5445 149.6(3) 148.4(3) 150.2(2)
Bi1 Bi1 O1 1_5565 1_5455 54.6(6) 54.6(6) 54.6(6)
Bi1 Bi1 O1 1_5565 1_5465 32.3(4) 32.3(4) 32.3(4)
Bi1 Bi1 O1 1_5565 1_5545 149.6(3) 148.4(3) 150.2(2)
Bi1 Bi1 O1 1_5565 . 54.6(6) 54.6(6) 54.6(6)
Bi1 Bi1 O1 1_5565 1_5565 32.3(4) 32.3(4) 32.3(4)
Bi1 Bi1 O1 1_5565 5_4445 138.2(10) 122.6(12) 151.2(10)
Bi1 Bi1 O1 1_5565 5_4455 45.5(9) 27.1(8) 55.2(9)
Bi1 Bi1 O1 1_5565 5_5445 139.9(10) 130.8(11) 153.4(8)
Bi1 Bi1 O1 1_5565 5_5455 44.7(9) 35.9(8) 51.8(11)
Bi1 Bi1 O2 1_5565 1_5545 158.2(12) 158.2(12) 158.2(12)
Bi1 Bi1 O2 1_5565 5_4445 136.9(3) 126.2(6) 145.9(2)
Bi1 Bi1 O2 1_5565 5_4455 45.1(3) 34.2(3) 53.9(4)
Bi1 Bi1 O2 1_5565 5_4545 136.9(3) 126.2(6) 145.9(2)
Bi1 Bi1 O2 1_5565 5_4555 45.1(3) 34.2(3) 53.9(4)
Bi1 Bi1 O3 1_5565 1_4545 105.6(7) 103.0(7) 107.3(8)
Bi1 Bi1 O3 1_5565 1_5545 169.5(9) 169.5(9) 169.5(9)
Bi1 Bi1 O3 1_5565 5_4445 91.6(10) 74.8(10) 105.6(9)
Bi1 Bi1 O3 1_5565 5_4545 91.6(10) 74.8(10) 105.6(9)
Bi1 Bi1 O3 1_5565 5_5445 92.8(10) 80.1(10) 108.2(10)
Bi1 Bi1 O3 1_5565 5_5545 92.8(10) 80.1(10) 108.2(10)
Bi1 Bi1 Bi1 1_5655 1_6555 90.0(3) 90.00(19) 90.00(19)
Bi1 Bi1 Bi1 1_5655 5_4445 123.3(4) 123.3(4) 123.3(3)
Bi1 Bi1 Bi1 1_5655 5_4455 130.9(5) 130.9(5) 130.9(5)
Bi1 Bi1 Bi1 1_5655 5_4545 56.7(3) 56.7(3) 56.7(3)
Bi1 Bi1 Bi1 1_5655 5_4555 49.1(4) 49.1(4) 49.1(4)
Bi1 Bi1 Bi1 1_5655 5_5445 130.9(5) 130.9(5) 130.9(5)
Bi1 Bi1 Bi1 1_5655 5_5455 123.3(4) 123.3(4) 123.3(3)
Bi1 Bi1 Bi1 1_5655 5_5545 49.1(4) 49.1(4) 49.1(4)
Bi1 Bi1 Bi1 1_5655 5_5555 56.7(3) 56.7(3) 56.7(3)
Bi1 Bi1 O1 1_5655 1_5445 120.2(5) 119.7(4) 121.6(7)
Bi1 Bi1 O1 1_5655 1_5455 142.9(7) 142.9(7) 142.9(7)
Bi1 Bi1 O1 1_5655 1_5465 120.2(5) 119.7(4) 121.6(7)
Bi1 Bi1 O1 1_5655 1_5545 59.8(3) 58.4(4) 60.3(3)
Bi1 Bi1 O1 1_5655 . 37.1(6) 37.1(6) 37.1(6)
Bi1 Bi1 O1 1_5655 1_5565 59.8(3) 58.4(4) 60.3(3)
Bi1 Bi1 O1 1_5655 5_4445 90.0(3) 90.0(4) 90.0(4)
Bi1 Bi1 O1 1_5655 5_4455 90.0(3) 90.00(19) 90.00(19)
Bi1 Bi1 O1 1_5655 5_5445 90.0(3) 90.00(19) 90.00(19)
Bi1 Bi1 O1 1_5655 5_5455 90.0(3) 90.00(17) 90.00(17)
Bi1 Bi1 O2 1_5655 1_4565 90.00(17) 90.00(17) 90.00(17)
Bi1 Bi1 O2 1_5655 1_5545 90.00(17) 90.00(17) 90.00(17)
Bi1 Bi1 O2 1_5655 5_4445 135.1(5) 124.0(7) 143.9(8)
Bi1 Bi1 O2 1_5655 5_4455 135.1(5) 124.0(7) 143.9(8)
Bi1 Bi1 O2 1_5655 5_4545 44.9(3) 36.1(4) 56.0(4)
Bi1 Bi1 O2 1_5655 5_4555 44.9(3) 36.1(4) 56.0(4)
Bi1 Bi1 O3 1_5655 1_4545 90.0(3) 90.00(19) 90.00(19)
Bi1 Bi1 O3 1_5655 1_5545 90.00(16) 90.00(16) 90.00(16)
Bi1 Bi1 O3 1_5655 . 90.00(16) 90.00(16) 90.00(16)
Bi1 Bi1 O3 1_5655 1_6555 90.0(3) 90.0(4) 90.0(4)
Bi1 Bi1 O3 1_5655 5_4445 134.3(6) 131.1(7) 138.9(5)
Bi1 Bi1 O3 1_5655 5_4545 45.7(3) 41.1(4) 48.9(4)
Bi1 Bi1 O3 1_5655 5_5445 134.3(6) 131.1(7) 138.9(5)
Bi1 Bi1 O3 1_5655 5_5545 45.7(3) 41.1(4) 48.9(4)
Bi1 Bi1 Bi1 1_6555 5_4445 129.0(6) 128.2(6) 130.9(5)
Bi1 Bi1 Bi1 1_6555 5_4545 129.0(6) 128.2(6) 130.9(5)
Bi1 Bi1 Bi1 1_6555 5_5445 64.6(6) 64.6(6) 64.6(6)
Bi1 Bi1 Bi1 1_6555 5_5455 49.2(5) 49.2(5) 49.2(5)
Bi1 Bi1 Bi1 1_6555 5_5545 64.6(6) 64.6(6) 64.6(6)
Bi1 Bi1 Bi1 1_6555 5_5555 49.2(5) 49.2(5) 49.2(5)
Bi1 Bi1 O1 1_6555 1_5445 90.4(9) 88.9(9) 94.1(8)
Bi1 Bi1 O1 1_6555 1_5455 100.7(12) 100.7(12) 100.7(12)
Bi1 Bi1 O1 1_6555 1_5465 88.3(9) 87.9(8) 88.6(9)
Bi1 Bi1 O1 1_6555 1_5545 90.4(9) 88.9(9) 94.1(8)
Bi1 Bi1 O1 1_6555 . 100.7(12) 100.7(12) 100.7(12)
Bi1 Bi1 O1 1_6555 1_5565 88.3(9) 87.9(8) 88.6(9)
Bi1 Bi1 O1 1_6555 5_4445 130.8(10) 116.9(9) 142.9(12)
Bi1 Bi1 O1 1_6555 5_4455 136.2(10) 118.3(8) 147.2(11)
Bi1 Bi1 O1 1_6555 5_5445 46.4(9) 35.8(9) 61.3(8)
Bi1 Bi1 O1 1_6555 5_5455 48.5(9) 40.0(11) 60.0(8)
Bi1 Bi1 O2 1_6555 1_5545 66.1(11) 66.1(11) 66.1(11)
Bi1 Bi1 O2 1_6555 5_4445 88.7(17) 86.4(15) 91(2)
Bi1 Bi1 O2 1_6555 5_4455 91.8(18) 90(2) 95.5(19)
Bi1 Bi1 O2 1_6555 5_4545 88.7(17) 86.4(15) 91(2)
Bi1 Bi1 O2 1_6555 5_4555 91.8(18) 90(2) 95.5(19)
Bi1 Bi1 O3 1_6555 1_4545 162.2(7) 160.6(8) 164.9(6)
Bi1 Bi1 O3 1_6555 1_5545 98.4(8) 98.4(8) 98.4(8)
Bi1 Bi1 O3 1_6555 1_6555 16.0(6) 16.0(6) 16.0(6)
Bi1 Bi1 O3 1_6555 5_4445 134.3(3) 130.6(4) 136.5(2)
Bi1 Bi1 O3 1_6555 5_4545 134.3(3) 130.6(4) 136.5(2)
Bi1 Bi1 O3 1_6555 5_5445 45.9(3) 43.4(3) 53.9(4)
Bi1 Bi1 O3 1_6555 5_5545 45.9(3) 43.4(3) 53.9(4)
Bi1 Bi1 Bi1 5_4445 5_4545 66.6(4) 66.5(3) 66.6(3)
Bi1 Bi1 Bi1 5_4445 5_5445 66.2(6) 66.2(6) 66.2(6)
Bi1 Bi1 Bi1 5_4445 5_5545 108.5(6) 108.5(6) 108.5(6)
Bi1 Bi1 O1 5_4445 1_5445 40.3(7) 39.6(8) 41.5(7)
Bi1 Bi1 O1 5_4445 1_5455 74.9(9) 74.9(9) 74.9(9)
Bi1 Bi1 O1 5_4445 1_5545 77.5(6) 77.1(5) 78.4(6)
Bi1 Bi1 O1 5_4445 . 128.0(12) 128.0(12) 128.0(12)
Bi1 Bi1 O1 5_4445 5_4455 77.5(7) 76.4(7) 78.0(7)
Bi1 Bi1 O1 5_4445 5_5445 80.5(7) 80.0(6) 81.5(7)
Bi1 Bi1 O1 5_4445 5_5455 146.61(18) 146.3(2) 146.73(15)
Bi1 Bi1 O2 5_4445 1_5545 77.9(9) 77.9(9) 77.9(9)
Bi1 Bi1 O2 5_4445 5_4455 81.9(12) 81.6(11) 82.1(12)
Bi1 Bi1 O2 5_4445 5_4555 136.7(19) 134.6(19) 138(2)
Bi1 Bi1 O3 5_4445 1_4545 39.9(4) 39.5(4) 40.1(4)
Bi1 Bi1 O3 5_4445 1_5545 52.4(5) 52.4(5) 52.4(5)
Bi1 Bi1 O3 5_4445 5_5445 81.3(6) 78.8(6) 83.9(6)
Bi1 Bi1 O3 5_4445 5_5545 130.5(10) 129.3(10) 132.4(10)
Bi1 Bi1 Bi1 5_4455 5_4555 81.9(4) 81.9(4) 81.9(4)
Bi1 Bi1 Bi1 5_4455 5_5455 66.2(5) 66.2(5) 66.2(5)
Bi1 Bi1 Bi1 5_4455 5_5555 108.5(5) 108.5(5) 108.5(5)
Bi1 Bi1 O1 5_4455 1_5455 85.0(8) 85.0(8) 85.0(8)
Bi1 Bi1 O1 5_4455 1_5465 33.4(7) 33.4(7) 33.4(7)
Bi1 Bi1 O1 5_4455 . 163.5(11) 163.5(11) 163.5(11)
Bi1 Bi1 O1 5_4455 1_5565 79.8(5) 79.8(5) 79.8(5)
Bi1 Bi1 O1 5_4455 5_4445 97.3(9) 97.3(9) 97.3(9)
Bi1 Bi1 O1 5_4455 5_5445 135.1(4) 135.1(4) 135.1(4)
Bi1 Bi1 O2 5_4455 1_4565 42.1(3) 42.1(3) 42.1(3)
Bi1 Bi1 O3 5_4455 . 56.5(5) 56.5(5) 56.5(5)
Bi1 Bi1 Bi1 5_4545 5_5445 108.5(6) 108.5(6) 108.5(6)
Bi1 Bi1 Bi1 5_4545 5_5545 66.2(6) 66.2(6) 66.2(6)
Bi1 Bi1 O1 5_4545 1_5445 77.5(6) 77.1(5) 78.4(6)
Bi1 Bi1 O1 5_4545 1_5455 128.0(12) 128.0(12) 128.0(12)
Bi1 Bi1 O1 5_4545 1_5545 40.3(7) 39.6(8) 41.5(7)
Bi1 Bi1 O1 5_4545 . 74.9(9) 74.9(9) 74.9(9)
Bi1 Bi1 O1 5_4545 5_4455 77.5(7) 76.4(7) 78.0(7)
Bi1 Bi1 O1 5_4545 5_5445 80.5(7) 80.0(6) 81.5(7)
Bi1 Bi1 O1 5_4545 5_5455 146.61(18) 146.3(2) 146.73(15)
Bi1 Bi1 O2 5_4545 1_5545 77.9(9) 77.9(9) 77.9(9)
Bi1 Bi1 O2 5_4545 5_4455 136.7(19) 134.6(19) 138(2)
Bi1 Bi1 O2 5_4545 5_4555 81.9(12) 81.6(11) 82.1(12)
Bi1 Bi1 O3 5_4545 1_4545 39.9(4) 39.5(4) 40.1(4)
Bi1 Bi1 O3 5_4545 1_5545 52.4(5) 52.4(5) 52.4(5)
Bi1 Bi1 O3 5_4545 5_5445 130.5(10) 129.3(10) 132.4(10)
Bi1 Bi1 O3 5_4545 5_5545 81.3(6) 78.8(6) 83.9(6)
Bi1 Bi1 Bi1 5_4555 5_5455 108.5(5) 108.5(5) 108.5(5)
Bi1 Bi1 Bi1 5_4555 5_5555 66.2(5) 66.2(5) 66.2(5)
Bi1 Bi1 O1 5_4555 1_5455 163.5(11) 163.5(11) 163.5(11)
Bi1 Bi1 O1 5_4555 1_5465 79.8(5) 79.8(5) 79.8(5)
Bi1 Bi1 O1 5_4555 . 85.0(8) 85.0(8) 85.0(8)
Bi1 Bi1 O1 5_4555 1_5565 33.4(7) 33.4(7) 33.4(7)
Bi1 Bi1 O1 5_4555 5_4445 97.3(9) 97.3(9) 97.3(9)
Bi1 Bi1 O1 5_4555 5_5445 135.1(4) 135.1(4) 135.1(4)
Bi1 Bi1 O2 5_4555 1_4565 42.1(3) 42.1(3) 42.1(3)
Bi1 Bi1 O3 5_4555 . 56.5(5) 56.5(5) 56.5(5)
Bi1 Bi1 Bi1 5_5445 5_5545 81.9(4) 81.9(4) 81.9(4)
Bi1 Bi1 O1 5_5445 1_5445 33.4(7) 33.4(7) 33.4(7)
Bi1 Bi1 O1 5_5445 1_5455 85.0(8) 85.0(8) 85.0(8)
Bi1 Bi1 O1 5_5445 1_5545 79.8(5) 79.8(5) 79.8(5)
Bi1 Bi1 O1 5_5445 . 163.5(11) 163.5(11) 163.5(11)
Bi1 Bi1 O1 5_5445 5_4455 135.1(4) 135.1(4) 135.1(4)
Bi1 Bi1 O1 5_5445 5_5455 97.3(9) 97.3(9) 97.3(9)
Bi1 Bi1 O2 5_5445 1_5545 42.1(3) 42.1(3) 42.1(3)
Bi1 Bi1 O3 5_5445 1_5545 56.5(5) 56.5(5) 56.5(5)
Bi1 Bi1 Bi1 5_5455 5_5555 66.6(4) 66.5(3) 66.6(3)
Bi1 Bi1 O1 5_5455 1_5455 74.9(9) 74.9(9) 74.9(9)
Bi1 Bi1 O1 5_5455 1_5465 40.3(7) 39.6(8) 41.5(7)
Bi1 Bi1 O1 5_5455 . 128.0(12) 128.0(12) 128.0(12)
Bi1 Bi1 O1 5_5455 1_5565 77.5(6) 77.1(5) 78.4(6)
Bi1 Bi1 O1 5_5455 5_4445 146.61(18) 146.3(2) 146.73(15)
Bi1 Bi1 O1 5_5455 5_4455 80.5(7) 80.0(6) 81.5(7)
Bi1 Bi1 O1 5_5455 5_5445 77.5(7) 76.4(7) 78.0(7)
Bi1 Bi1 O2 5_5455 1_4565 77.9(9) 77.9(9) 77.9(9)
Bi1 Bi1 O2 5_5455 5_4445 81.9(12) 81.6(11) 82.1(12)
Bi1 Bi1 O2 5_5455 5_4545 136.7(19) 134.6(19) 138(2)
Bi1 Bi1 O3 5_5455 . 52.4(5) 52.4(5) 52.4(5)
Bi1 Bi1 O3 5_5455 1_6555 39.9(4) 39.5(4) 40.1(4)
Bi1 Bi1 O3 5_5455 5_4445 81.3(6) 78.8(6) 83.9(6)
Bi1 Bi1 O3 5_5455 5_4545 130.5(10) 129.3(10) 132.4(10)
Bi1 Bi1 O1 5_5545 1_5445 79.8(5) 79.8(5) 79.8(5)
Bi1 Bi1 O1 5_5545 1_5455 163.5(11) 163.5(11) 163.5(11)
Bi1 Bi1 O1 5_5545 1_5545 33.4(7) 33.4(7) 33.4(7)
Bi1 Bi1 O1 5_5545 . 85.0(8) 85.0(8) 85.0(8)
Bi1 Bi1 O1 5_5545 5_4455 135.1(4) 135.1(4) 135.1(4)
Bi1 Bi1 O1 5_5545 5_5455 97.3(9) 97.3(9) 97.3(9)
Bi1 Bi1 O2 5_5545 1_5545 42.1(3) 42.1(3) 42.1(3)
Bi1 Bi1 O3 5_5545 1_5545 56.5(5) 56.5(5) 56.5(5)
Bi1 Bi1 O1 5_5555 1_5455 128.0(12) 128.0(12) 128.0(12)
Bi1 Bi1 O1 5_5555 1_5465 77.5(6) 77.1(5) 78.4(6)
Bi1 Bi1 O1 5_5555 . 74.9(9) 74.9(9) 74.9(9)
Bi1 Bi1 O1 5_5555 1_5565 40.3(7) 39.6(8) 41.5(7)
Bi1 Bi1 O1 5_5555 5_4445 146.61(18) 146.3(2) 146.73(15)
Bi1 Bi1 O1 5_5555 5_4455 80.5(7) 80.0(6) 81.5(7)
Bi1 Bi1 O1 5_5555 5_5445 77.5(7) 76.4(7) 78.0(7)
Bi1 Bi1 O2 5_5555 1_4565 77.9(9) 77.9(9) 77.9(9)
Bi1 Bi1 O2 5_5555 5_4445 136.7(19) 134.6(19) 138(2)
Bi1 Bi1 O2 5_5555 5_4545 81.9(12) 81.6(11) 82.1(12)
Bi1 Bi1 O3 5_5555 . 52.4(5) 52.4(5) 52.4(5)
Bi1 Bi1 O3 5_5555 1_6555 39.9(4) 39.5(4) 40.1(4)
Bi1 Bi1 O3 5_5555 5_4445 130.5(10) 129.3(10) 132.4(10)
Bi1 Bi1 O3 5_5555 5_4545 81.3(6) 78.8(6) 83.9(6)
O1 Bi1 O1 1_5445 1_5455 94.7(6) 94.7(6) 94.7(6)
O1 Bi1 O1 1_5445 1_5545 60.4(3) 59.3(3) 63.1(4)
O1 Bi1 O1 1_5445 . 151.8(8) 151.8(8) 151.8(8)
O1 Bi1 O1 1_5445 5_4445 41.0(5) 40.3(5) 41.6(5)
O1 Bi1 O1 1_5445 5_4455 118.1(9) 116.1(9) 119.0(9)
O1 Bi1 O1 1_5445 5_5445 42.7(6) 41.6(6) 45.3(6)
O1 Bi1 O1 1_5445 5_5455 125.1(10) 122.6(10) 130.7(10)
O1 Bi1 O2 1_5445 1_5545 40.6(8) 40.6(8) 40.6(8)
O1 Bi1 O2 1_5445 5_4455 96.7(3) 94.8(3) 98.9(2)
O1 Bi1 O2 1_5445 5_4555 156.8(5) 156.2(5) 158.0(6)
O1 Bi1 O3 1_5445 1_4545 73.5(7) 73.0(7) 74.1(6)
O1 Bi1 O3 1_5445 1_5545 30.3(2) 30.3(2) 30.3(2)
O1 Bi1 O3 1_5445 5_4445 55.1(8) 54.6(8) 55.3(8)
O1 Bi1 O3 1_5445 5_4545 96.6(9) 95.2(9) 97.9(10)
O1 Bi1 O3 1_5445 5_5445 55.9(9) 53.1(9) 59.3(8)
O1 Bi1 O3 1_5445 5_5545 99.1(10) 97.9(9) 102.1(10)
O1 Bi1 O1 1_5455 1_5465 94.7(4) 94.7(4) 94.7(4)
O1 Bi1 O1 1_5455 1_5545 151.8(5) 151.8(5) 151.8(5)
O1 Bi1 O1 1_5455 . 105.9(7) 105.9(7) 105.9(7)
O1 Bi1 O1 1_5455 1_5565 151.8(5) 151.8(5) 151.8(5)
O1 Bi1 O1 1_5455 5_4445 74.5(7) 74.5(7) 74.5(7)
O1 Bi1 O1 1_5455 5_4455 61.2(5) 61.2(5) 61.2(5)
O1 Bi1 O1 1_5455 5_5445 61.2(5) 61.2(5) 61.2(5)
O1 Bi1 O1 1_5455 5_5455 74.5(7) 74.5(7) 74.5(7)
O1 Bi1 O2 1_5455 1_4565 126.8(3) 126.8(3) 126.8(3)
O1 Bi1 O2 1_5455 1_5545 126.8(3) 126.8(3) 126.8(3)
O1 Bi1 O3 1_5455 1_5545 122.7(4) 122.7(4) 122.7(4)
O1 Bi1 O3 1_5455 . 122.7(4) 122.7(4) 122.7(4)
O1 Bi1 O1 1_5465 . 151.8(8) 151.8(8) 151.8(8)
O1 Bi1 O1 1_5465 1_5565 60.4(3) 59.3(3) 63.1(4)
O1 Bi1 O1 1_5465 5_4445 125.1(10) 122.6(10) 130.7(10)
O1 Bi1 O1 1_5465 5_4455 42.7(6) 41.6(6) 45.3(6)
O1 Bi1 O1 1_5465 5_5445 118.1(9) 116.1(9) 119.0(9)
O1 Bi1 O1 1_5465 5_5455 41.0(5) 40.3(5) 41.6(5)
O1 Bi1 O2 1_5465 1_4565 40.6(8) 40.6(8) 40.6(8)
O1 Bi1 O2 1_5465 5_4445 96.7(3) 94.8(3) 98.9(2)
O1 Bi1 O2 1_5465 5_4545 156.8(5) 156.2(5) 158.0(6)
O1 Bi1 O3 1_5465 . 30.3(2) 30.3(2) 30.3(2)
O1 Bi1 O3 1_5465 1_6555 73.5(7) 73.0(7) 74.1(6)
O1 Bi1 O3 1_5465 5_4445 55.9(9) 53.1(9) 59.3(8)
O1 Bi1 O3 1_5465 5_4545 99.1(10) 97.9(9) 102.1(10)
O1 Bi1 O3 1_5465 5_5445 55.1(8) 54.6(8) 55.3(8)
O1 Bi1 O3 1_5465 5_5545 96.6(9) 95.2(9) 97.9(10)
O1 Bi1 O1 1_5545 . 94.7(6) 94.7(6) 94.7(6)
O1 Bi1 O1 1_5545 5_4445 41.0(5) 40.3(5) 41.6(5)
O1 Bi1 O1 1_5545 5_4455 118.1(9) 116.1(9) 119.0(9)
O1 Bi1 O1 1_5545 5_5445 42.7(6) 41.6(6) 45.3(6)
O1 Bi1 O1 1_5545 5_5455 125.1(10) 122.6(10) 130.7(10)
O1 Bi1 O2 1_5545 1_5545 40.6(8) 40.6(8) 40.6(8)
O1 Bi1 O2 1_5545 5_4455 156.8(5) 156.2(5) 158.0(6)
O1 Bi1 O2 1_5545 5_4555 96.7(3) 94.8(3) 98.9(2)
O1 Bi1 O3 1_5545 1_4545 73.5(7) 73.0(7) 74.1(6)
O1 Bi1 O3 1_5545 1_5545 30.3(2) 30.3(2) 30.3(2)
O1 Bi1 O3 1_5545 5_4445 96.6(9) 95.2(9) 97.9(10)
O1 Bi1 O3 1_5545 5_4545 55.1(8) 54.6(8) 55.3(8)
O1 Bi1 O3 1_5545 5_5445 99.1(10) 97.9(9) 102.1(10)
O1 Bi1 O3 1_5545 5_5545 55.9(9) 53.1(9) 59.3(8)
O1 Bi1 O1 . 1_5565 94.7(4) 94.7(4) 94.7(4)
O1 Bi1 O1 . 5_4445 74.5(7) 74.5(7) 74.5(7)
O1 Bi1 O1 . 5_4455 61.2(5) 61.2(5) 61.2(5)
O1 Bi1 O1 . 5_5445 61.2(5) 61.2(5) 61.2(5)
O1 Bi1 O1 . 5_5455 74.5(7) 74.5(7) 74.5(7)
O1 Bi1 O2 . 1_4565 126.8(3) 126.8(3) 126.8(3)
O1 Bi1 O2 . 1_5545 126.8(3) 126.8(3) 126.8(3)
O1 Bi1 O3 . 1_5545 122.7(4) 122.7(4) 122.7(4)
O1 Bi1 O3 . . 122.7(4) 122.7(4) 122.7(4)
O1 Bi1 O1 1_5565 5_4445 125.1(10) 122.6(10) 130.7(10)
O1 Bi1 O1 1_5565 5_4455 42.7(6) 41.6(6) 45.3(6)
O1 Bi1 O1 1_5565 5_5445 118.1(9) 116.1(9) 119.0(9)
O1 Bi1 O1 1_5565 5_5455 41.0(5) 40.3(5) 41.6(5)
O1 Bi1 O2 1_5565 1_4565 40.6(8) 40.6(8) 40.6(8)
O1 Bi1 O2 1_5565 5_4445 156.8(5) 156.2(5) 158.0(6)
O1 Bi1 O2 1_5565 5_4545 96.7(3) 94.8(3) 98.9(2)
O1 Bi1 O3 1_5565 . 30.3(2) 30.3(2) 30.3(2)
O1 Bi1 O3 1_5565 1_6555 73.5(7) 73.0(7) 74.1(6)
O1 Bi1 O3 1_5565 5_4445 99.1(10) 97.9(9) 102.1(10)
O1 Bi1 O3 1_5565 5_4545 55.9(9) 53.1(9) 59.3(8)
O1 Bi1 O3 1_5565 5_5445 96.6(9) 95.2(9) 97.9(10)
O1 Bi1 O3 1_5565 5_5545 55.1(8) 54.6(8) 55.3(8)
O1 Bi1 O1 5_4445 5_4455 95.2(11) 93.5(8) 104.5(12)
O1 Bi1 O1 5_4445 5_5445 88.2(11) 59.3(8) 107.1(13)
O1 Bi1 O1 5_4445 5_5455 165.9(11) 157.1(13) 180.0(5)
O1 Bi1 O2 5_4445 1_4565 110.4(14) 110.4(14) 110.4(14)
O1 Bi1 O2 5_4445 5_4445 59.8(14) 45.6(10) 69.6(17)
O1 Bi1 O2 5_4445 5_4455 121.7(13) 119.7(14) 123.4(13)
O1 Bi1 O2 5_4445 5_4545 59.8(14) 45.6(10) 69.6(17)
O1 Bi1 O2 5_4445 5_4555 121.7(13) 119.7(14) 123.4(13)
O1 Bi1 O3 5_4445 . 142.7(12) 142.7(12) 142.7(12)
O1 Bi1 O3 5_4445 1_6555 155.6(12) 150.8(11) 158.9(12)
O1 Bi1 O3 5_4445 5_4445 62.0(9) 54.9(8) 76.7(10)
O1 Bi1 O3 5_4445 5_4545 62.0(9) 54.9(8) 76.7(10)
O1 Bi1 O3 5_4445 5_5445 118.1(8) 96.6(9) 136.0(7)
O1 Bi1 O3 5_4445 5_5545 118.1(8) 96.6(9) 136.0(7)
O1 Bi1 O1 5_4455 5_5445 163.4(11) 153.2(8) 180.0(5)
O1 Bi1 O1 5_4455 5_5455 88.2(11) 59.3(9) 107.1(14)
O1 Bi1 O2 5_4455 1_5545 149.2(12) 149.2(12) 149.2(12)
O1 Bi1 O2 5_4455 5_4445 121.7(14) 119.5(14) 126.6(11)
O1 Bi1 O2 5_4455 5_4455 60.0(15) 45.2(11) 70.3(18)
O1 Bi1 O2 5_4455 5_4545 121.7(14) 119.5(14) 126.6(11)
O1 Bi1 O2 5_4455 5_4555 60.0(15) 45.2(11) 70.3(18)
O1 Bi1 O3 5_4455 1_4545 51.6(8) 50.3(6) 52.3(9)
O1 Bi1 O3 5_4455 1_5545 116.8(9) 116.8(9) 116.8(9)
O1 Bi1 O3 5_4455 1_6555 102.0(7) 101.7(7) 102.3(8)
O1 Bi1 O3 5_4455 5_4445 60.6(8) 56.9(8) 64.9(9)
O1 Bi1 O3 5_4455 5_4545 60.6(8) 56.9(8) 64.9(9)
O1 Bi1 O3 5_4455 5_5445 119.4(8) 97.3(9) 133.4(7)
O1 Bi1 O3 5_4455 5_5545 119.4(8) 97.3(9) 133.4(7)
O1 Bi1 O1 5_5445 5_5455 95.2(11) 93.5(10) 104.5(12)
O1 Bi1 O2 5_5445 1_4565 149.2(12) 149.2(12) 149.2(12)
O1 Bi1 O2 5_5445 5_4445 60.0(15) 45.2(11) 70.3(18)
O1 Bi1 O2 5_5445 5_4455 121.7(14) 119.5(14) 126.6(11)
O1 Bi1 O2 5_5445 5_4545 60.0(15) 45.2(11) 70.3(18)
O1 Bi1 O2 5_5445 5_4555 121.7(14) 119.5(14) 126.6(11)
O1 Bi1 O3 5_5445 1_4545 102.0(7) 101.7(7) 102.3(8)
O1 Bi1 O3 5_5445 . 116.8(9) 116.8(9) 116.8(9)
O1 Bi1 O3 5_5445 1_6555 51.6(8) 50.3(6) 52.3(9)
O1 Bi1 O3 5_5445 5_4445 119.4(8) 97.3(9) 133.4(7)
O1 Bi1 O3 5_5445 5_4545 119.4(8) 97.3(9) 133.4(7)
O1 Bi1 O3 5_5445 5_5445 60.6(8) 56.9(8) 64.9(9)
O1 Bi1 O3 5_5445 5_5545 60.6(8) 56.9(8) 64.9(9)
O1 Bi1 O2 5_5455 1_5545 110.4(14) 110.4(14) 110.4(14)
O1 Bi1 O2 5_5455 5_4445 121.7(13) 119.7(14) 123.4(13)
O1 Bi1 O2 5_5455 5_4455 59.8(14) 45.6(10) 69.6(17)
O1 Bi1 O2 5_5455 5_4545 121.7(13) 119.7(14) 123.4(13)
O1 Bi1 O2 5_5455 5_4555 59.8(14) 45.6(10) 69.6(17)
O1 Bi1 O3 5_5455 1_4545 155.6(12) 150.8(11) 158.9(12)
O1 Bi1 O3 5_5455 1_5545 142.7(12) 142.7(12) 142.7(12)
O1 Bi1 O3 5_5455 5_4445 118.1(8) 96.6(9) 136.0(7)
O1 Bi1 O3 5_5455 5_4545 118.1(8) 96.6(9) 136.0(7)
O1 Bi1 O3 5_5455 5_5445 62.0(9) 54.9(8) 76.7(10)
O1 Bi1 O3 5_5455 5_5545 62.0(9) 54.9(8) 76.7(10)
O2 Bi1 O3 1_4565 . 32.4(9) 32.4(9) 32.4(9)
O2 Bi1 O3 1_5545 1_5545 32.4(9) 32.4(9) 32.4(9)
O2 Bi1 O2 5_4445 5_4455 94.64(18) 92.7(3) 96.16(12)
O2 Bi1 O2 5_4445 5_4545 90.2(5) 68.0(4) 107.8(8)
O2 Bi1 O2 5_4445 5_4555 168.7(6) 160.7(7) 180.0(5)
O2 Bi1 O3 5_4445 1_6555 97.1(15) 95.0(12) 98.8(17)
O2 Bi1 O3 5_4445 5_4445 62.2(11) 55.9(11) 69.9(11)
O2 Bi1 O3 5_4445 5_4545 122.1(12) 102.3(12) 145.2(13)
O2 Bi1 O3 5_4445 5_5445 62.4(10) 56.7(10) 67.5(14)
O2 Bi1 O3 5_4445 5_5545 120.4(12) 102.5(12) 134.3(18)
O2 Bi1 O2 5_4455 5_4545 168.7(6) 160.7(7) 180.0(5)
O2 Bi1 O2 5_4455 5_4555 90.2(5) 68.0(4) 107.8(8)
O2 Bi1 O3 5_4455 1_4545 97.1(15) 95.0(12) 98.8(17)
O2 Bi1 O3 5_4455 5_4445 62.4(10) 56.7(10) 67.5(14)
O2 Bi1 O3 5_4455 5_4545 120.4(12) 102.5(12) 134.3(18)
O2 Bi1 O3 5_4455 5_5445 62.2(11) 55.9(11) 69.9(11)
O2 Bi1 O3 5_4455 5_5545 122.1(12) 102.3(12) 145.2(13)
O2 Bi1 O2 5_4545 5_4555 94.64(18) 92.7(3) 96.16(12)
O2 Bi1 O3 5_4545 1_6555 97.1(15) 95.0(12) 98.8(17)
O2 Bi1 O3 5_4545 5_4445 122.1(12) 102.3(12) 145.2(13)
O2 Bi1 O3 5_4545 5_4545 62.2(11) 55.9(11) 69.9(11)
O2 Bi1 O3 5_4545 5_5445 120.4(12) 102.5(12) 134.3(18)
O2 Bi1 O3 5_4545 5_5545 62.4(10) 56.7(10) 67.5(14)
O2 Bi1 O3 5_4555 1_4545 97.1(15) 95.0(12) 98.8(17)
O2 Bi1 O3 5_4555 5_4445 120.4(12) 102.5(12) 134.3(18)
O2 Bi1 O3 5_4555 5_4545 62.4(10) 56.7(10) 67.5(14)
O2 Bi1 O3 5_4555 5_5445 122.1(12) 102.3(12) 145.2(13)
O2 Bi1 O3 5_4555 5_5545 62.2(11) 55.9(11) 69.9(11)
O3 Bi1 O3 1_4545 1_5545 66.5(8) 66.5(8) 66.5(8)
O3 Bi1 O3 1_4545 5_5445 121.1(6) 118.8(6) 123.4(6)
O3 Bi1 O3 1_4545 5_5545 121.1(6) 118.8(6) 123.4(6)
O3 Bi1 O3 1_6555 5_4445 121.1(6) 118.8(6) 123.4(6)
O3 Bi1 O3 1_6555 5_4545 121.1(6) 118.8(6) 123.4(6)
O3 Bi1 O3 5_4445 5_4545 88.7(5) 82.2(6) 97.8(5)
O3 Bi1 O3 5_4445 5_5445 89.2(2) 86.9(4) 90.66(14)
O3 Bi1 O3 5_4445 5_5545 164.2(12) 150.5(11) 180.0(5)
O3 Bi1 O3 5_4545 5_5445 164.2(12) 150.5(11) 180.0(5)
O3 Bi1 O3 5_4545 5_5545 89.2(2) 86.9(4) 90.66(14)
O3 Bi1 O3 5_5445 5_5545 88.7(5) 82.2(6) 97.8(5)
Fe1 O1 Fe1 . 1_5655 156.2(10) 142.2(7) 180.0(5)
Fe1 O1 Fe1 . 5_4545 96.8(7) 91.7(5) 99.1(10)
Fe1 O1 Fe1 . 5_4555 98.7(5) 96.5(6) 101.0(5)
Fe1 O1 Fe1 . 5_5545 98.7(5) 96.5(6) 101.0(5)
Fe1 O1 Fe1 . 5_5555 96.8(7) 91.7(5) 99.1(10)
Fe1 O1 Pb1 . 1_5545 77.1(4) 75.6(5) 77.9(3)
Fe1 O1 Pb1 . 1_5565 77.1(4) 75.6(5) 77.9(3)
Fe1 O1 Pb1 . 1_5645 137.7(6) 136.2(8) 139.5(5)
Fe1 O1 Pb1 . 1_5665 137.7(6) 136.2(8) 139.5(5)
Fe1 O1 Pb1 . 5_4545 86.4(6) 74.9(5) 103.0(10)
Fe1 O1 Pb1 . 5_4555 87.0(6) 71.9(3) 99.1(6)
Fe1 O1 Pb1 . 5_5545 87.0(6) 71.9(3) 99.1(6)
Fe1 O1 Pb1 . 5_5555 86.4(6) 74.9(5) 103.0(10)
Fe1 O1 Bi1 . 1_5545 77.2(4) 75.8(5) 78.0(3)
Fe1 O1 Bi1 . . 18.4(6) 18.4(6) 18.4(6)
Fe1 O1 Bi1 . 1_5565 77.2(4) 75.8(5) 78.0(3)
Fe1 O1 Bi1 . 1_5645 137.6(6) 135.9(8) 139.5(5)
Fe1 O1 Bi1 . 1_5655 124.1(7) 124.1(7) 124.1(7)
Fe1 O1 Bi1 . 1_5665 137.6(6) 135.9(8) 139.5(5)
Fe1 O1 Bi1 . 5_4545 86.8(6) 74.9(5) 103.3(9)
Fe1 O1 Bi1 . 5_4555 87.2(6) 71.9(3) 99.8(6)
Fe1 O1 Bi1 . 5_5545 87.2(6) 71.9(3) 99.8(6)
Fe1 O1 Bi1 . 5_5555 86.8(6) 74.9(5) 103.3(9)
Fe1 O1 O1 . 1_4555 90.2(7) 86.6(13) 93.6(13)
Fe1 O1 O1 . 1_5455 11.9(5) 0.0(5) 18.9(5)
Fe1 O1 O1 . 1_5655 168.1(8) 161.1(7) 180.0(5)
Fe1 O1 O1 . 1_6555 90.2(7) 86.6(13) 93.6(13)
Fe1 O1 O1 . 5_4445 49.0(8) 45.9(7) 51.7(9)
Fe1 O1 O1 . 5_4455 48.0(8) 45.6(8) 49.8(8)
Fe1 O1 O1 . 5_4545 134.7(13) 128.6(10) 137.2(15)
Fe1 O1 O1 . 5_4555 137.9(10) 136.2(11) 140.2(10)
Fe1 O1 O1 . 5_5445 48.0(8) 45.6(8) 49.8(8)
Fe1 O1 O1 . 5_5455 49.0(8) 45.9(7) 51.7(9)
Fe1 O1 O1 . 5_5545 137.9(10) 136.2(11) 140.2(10)
Fe1 O1 O1 . 5_5555 134.7(13) 128.6(10) 137.2(15)
Fe1 O1 O2 . 1_4555 46.0(13) 44.7(12) 48.2(14)
Fe1 O1 O2 . 1_4655 133.5(17) 129(2) 139(2)
Fe1 O1 O2 . . 46.0(13) 44.7(12) 48.2(14)
Fe1 O1 O2 . 1_5655 133.5(17) 129(2) 139(2)
Fe1 O1 O2 . 5_3545 89.2(5) 86.3(4) 91.7(6)
Fe1 O1 O2 . 5_5555 89.2(5) 86.3(4) 91.7(6)
Fe1 O1 O3 . 1_5545 44.6(6) 33.2(5) 64.2(7)
Fe1 O1 O3 . . 44.6(6) 33.2(5) 64.2(7)
Fe1 O1 O3 . 1_5645 127.3(9) 109.2(6) 146.1(11)
Fe1 O1 O3 . 1_5655 127.3(9) 109.2(6) 146.1(11)
Fe1 O1 O3 . 5_4535 104.1(5) 101.0(4) 105.2(6)
Fe1 O1 O3 . 5_4555 105.7(4) 103.8(5) 107.5(4)
Fe1 O1 O3 . 5_5535 105.7(4) 103.8(5) 107.5(4)
Fe1 O1 O3 . 5_5555 104.1(5) 101.0(4) 105.2(6)
Fe1 O1 Fe1 1_5655 5_4545 96.8(7) 91.7(5) 99.1(10)
Fe1 O1 Fe1 1_5655 5_4555 98.7(5) 96.5(6) 101.0(5)
Fe1 O1 Fe1 1_5655 5_5545 98.7(5) 96.5(6) 101.0(5)
Fe1 O1 Fe1 1_5655 5_5555 96.8(7) 91.7(5) 99.1(10)
Fe1 O1 Pb1 1_5655 1_5545 137.7(6) 136.2(8) 139.5(5)
Fe1 O1 Pb1 1_5655 1_5565 137.7(6) 136.2(8) 139.5(5)
Fe1 O1 Pb1 1_5655 1_5645 77.1(4) 75.6(5) 77.9(3)
Fe1 O1 Pb1 1_5655 1_5665 77.1(4) 75.6(5) 77.9(3)
Fe1 O1 Pb1 1_5655 5_4545 86.4(6) 74.9(5) 103.0(10)
Fe1 O1 Pb1 1_5655 5_4555 87.0(6) 71.9(3) 99.1(6)
Fe1 O1 Pb1 1_5655 5_5545 87.0(6) 71.9(3) 99.1(6)
Fe1 O1 Pb1 1_5655 5_5555 86.4(6) 74.9(5) 103.0(10)
Fe1 O1 Bi1 1_5655 1_5545 137.6(6) 135.9(8) 139.5(5)
Fe1 O1 Bi1 1_5655 . 124.1(7) 124.1(7) 124.1(7)
Fe1 O1 Bi1 1_5655 1_5565 137.6(6) 135.9(8) 139.5(5)
Fe1 O1 Bi1 1_5655 1_5645 77.2(4) 75.8(5) 78.0(3)
Fe1 O1 Bi1 1_5655 1_5655 18.4(6) 18.4(6) 18.4(6)
Fe1 O1 Bi1 1_5655 1_5665 77.2(4) 75.8(5) 78.0(3)
Fe1 O1 Bi1 1_5655 5_4545 86.8(6) 74.9(5) 103.3(9)
Fe1 O1 Bi1 1_5655 5_4555 87.2(6) 71.9(3) 99.8(6)
Fe1 O1 Bi1 1_5655 5_5545 87.2(6) 71.9(3) 99.8(6)
Fe1 O1 Bi1 1_5655 5_5555 86.8(6) 74.9(5) 103.3(9)
Fe1 O1 O1 1_5655 1_4555 90.2(7) 86.6(13) 93.6(13)
Fe1 O1 O1 1_5655 1_5455 168.1(8) 161.1(7) 180.0(5)
Fe1 O1 O1 1_5655 1_5655 11.9(5) 0.0(5) 18.9(5)
Fe1 O1 O1 1_5655 1_6555 90.2(7) 86.6(13) 93.6(13)
Fe1 O1 O1 1_5655 5_4445 134.7(13) 128.6(10) 137.2(15)
Fe1 O1 O1 1_5655 5_4455 137.9(10) 136.2(11) 140.2(10)
Fe1 O1 O1 1_5655 5_4545 49.0(8) 45.9(7) 51.7(9)
Fe1 O1 O1 1_5655 5_4555 48.0(8) 45.6(8) 49.8(8)
Fe1 O1 O1 1_5655 5_5445 137.9(10) 136.2(11) 140.2(10)
Fe1 O1 O1 1_5655 5_5455 134.7(13) 128.6(10) 137.2(15)
Fe1 O1 O1 1_5655 5_5545 48.0(8) 45.6(8) 49.8(8)
Fe1 O1 O1 1_5655 5_5555 49.0(8) 45.9(7) 51.7(9)
Fe1 O1 O2 1_5655 1_4555 133.5(17) 129(2) 139(2)
Fe1 O1 O2 1_5655 1_4655 46.0(13) 44.7(12) 48.2(14)
Fe1 O1 O2 1_5655 . 133.5(17) 129(2) 139(2)
Fe1 O1 O2 1_5655 1_5655 46.0(13) 44.7(12) 48.2(14)
Fe1 O1 O2 1_5655 5_3545 89.2(5) 86.3(4) 91.7(6)
Fe1 O1 O2 1_5655 5_5555 89.2(5) 86.3(4) 91.7(6)
Fe1 O1 O3 1_5655 1_5545 127.3(9) 109.2(6) 146.1(11)
Fe1 O1 O3 1_5655 . 127.3(9) 109.2(6) 146.1(11)
Fe1 O1 O3 1_5655 1_5645 44.6(6) 33.2(5) 64.2(7)
Fe1 O1 O3 1_5655 1_5655 44.6(6) 33.2(5) 64.2(7)
Fe1 O1 O3 1_5655 5_4535 104.1(5) 101.0(4) 105.2(6)
Fe1 O1 O3 1_5655 5_4555 105.7(4) 103.8(5) 107.5(4)
Fe1 O1 O3 1_5655 5_5535 105.7(4) 103.8(5) 107.5(4)
Fe1 O1 O3 1_5655 5_5555 104.1(5) 101.0(4) 105.2(6)
Fe1 O1 Fe1 5_4545 5_5545 135.5(8) 133.5(8) 138.7(8)
Fe1 O1 Pb1 5_4545 1_5545 68.0(6) 66.5(6) 71.1(6)
Fe1 O1 Pb1 5_4545 1_5645 68.0(6) 66.5(6) 71.1(6)
Fe1 O1 Pb1 5_4545 5_4555 83.8(8) 79.2(7) 85.8(9)
Fe1 O1 Pb1 5_4545 5_5545 120.5(10) 120.1(9) 121.3(11)
Fe1 O1 Pb1 5_4545 5_5555 146.5(9) 137.3(7) 151.0(12)
Fe1 O1 Bi1 5_4545 1_5545 68.2(6) 66.8(6) 71.2(6)
Fe1 O1 Bi1 5_4545 . 89.5(8) 89.5(8) 89.5(8)
Fe1 O1 Bi1 5_4545 1_5645 68.2(6) 66.8(6) 71.2(6)
Fe1 O1 Bi1 5_4545 1_5655 89.5(8) 89.5(8) 89.5(8)
Fe1 O1 Bi1 5_4545 5_4545 22.1(9) 22.1(9) 22.1(9)
Fe1 O1 Bi1 5_4545 5_4555 83.7(8) 79.1(6) 85.7(9)
Fe1 O1 Bi1 5_4545 5_5545 120.8(10) 120.3(9) 121.4(12)
Fe1 O1 Bi1 5_4545 5_5555 146.4(9) 137.0(7) 151.1(12)
Fe1 O1 O1 5_4545 1_4555 23.3(6) 22.8(7) 23.8(6)
Fe1 O1 O1 5_4545 1_5455 90.0(7) 90.0(7) 90.0(7)
Fe1 O1 O1 5_4545 1_5655 90.0(7) 90.0(7) 90.0(7)
Fe1 O1 O1 5_4545 1_6555 157.3(8) 154.5(10) 164.0(7)
Fe1 O1 O1 5_4545 5_4445 47.9(8) 46.0(7) 48.8(8)
Fe1 O1 O1 5_4545 5_4545 47.9(8) 46.0(7) 48.8(8)
Fe1 O1 O1 5_4545 5_5445 127.1(8) 125.9(8) 128.2(8)
Fe1 O1 O1 5_4545 5_5545 127.1(8) 125.9(8) 128.2(8)
Fe1 O1 O2 5_4545 . 130.7(10) 130.5(10) 131.1(11)
Fe1 O1 O2 5_4545 1_5655 130.7(10) 130.5(10) 131.1(11)
Fe1 O1 O2 5_4545 5_3545 18.2(4) 16.5(4) 19.3(4)
Fe1 O1 O3 5_4545 . 107.4(7) 98.1(5) 111.6(10)
Fe1 O1 O3 5_4545 1_5655 107.4(7) 98.1(5) 111.6(10)
Fe1 O1 O3 5_4545 5_4535 31.4(5) 30.3(5) 34.3(6)
Fe1 O1 O3 5_4545 5_5535 104.9(7) 104.2(7) 106.3(7)
Fe1 O1 Fe1 5_4555 5_5555 135.5(7) 133.5(8) 138.7(7)
Fe1 O1 Pb1 5_4555 1_5565 72.8(6) 72.1(5) 74.0(6)
Fe1 O1 Pb1 5_4555 1_5665 72.8(6) 72.1(5) 74.0(6)
Fe1 O1 Pb1 5_4555 5_4545 81.8(6) 79.2(7) 84.0(6)
Fe1 O1 Pb1 5_4555 5_5545 141.8(7) 141.2(8) 142.1(7)
Fe1 O1 Bi1 5_4555 . 113.8(8) 113.8(8) 113.8(8)
Fe1 O1 Bi1 5_4555 1_5565 72.6(6) 72.0(5) 73.9(6)
Fe1 O1 Bi1 5_4555 1_5655 113.8(8) 113.8(8) 113.8(8)
Fe1 O1 Bi1 5_4555 1_5665 72.6(6) 72.0(5) 73.9(6)
Fe1 O1 Bi1 5_4555 5_4545 82.0(6) 79.3(7) 84.2(6)
Fe1 O1 Bi1 5_4555 5_4555 12.2(6) 12.2(6) 12.2(6)
Fe1 O1 Bi1 5_4555 5_5545 141.9(7) 141.2(8) 142.2(7)
Fe1 O1 O1 5_4555 1_4555 24.1(5) 22.5(5) 25.3(5)
Fe1 O1 O1 5_4555 1_5455 90.0(7) 90.0(8) 90.0(8)
Fe1 O1 O1 5_4555 1_5655 90.0(7) 90.0(8) 90.0(8)
Fe1 O1 O1 5_4555 5_4455 50.8(8) 50.5(8) 51.2(8)
Fe1 O1 O1 5_4555 5_4555 50.8(8) 50.5(8) 51.2(8)
Fe1 O1 O1 5_4555 5_5455 127.9(8) 127.0(9) 129.6(8)
Fe1 O1 O1 5_4555 5_5555 127.9(8) 127.0(9) 129.6(8)
Fe1 O1 O2 5_4555 5_5555 153.8(6) 152.9(6) 155.3(5)
Fe1 O1 O3 5_4555 1_5545 110.8(5) 107.5(5) 113.9(5)
Fe1 O1 O3 5_4555 1_5645 110.8(5) 107.5(5) 113.9(5)
Fe1 O1 O3 5_4555 5_4555 30.6(5) 29.3(6) 32.4(6)
Fe1 O1 O3 5_4555 5_5555 105.0(6) 103.1(7) 107.8(7)
Fe1 O1 Pb1 5_5545 1_5545 72.8(6) 72.1(5) 74.0(6)
Fe1 O1 Pb1 5_5545 1_5645 72.8(6) 72.1(5) 74.0(6)
Fe1 O1 Pb1 5_5545 5_4555 141.8(7) 141.2(8) 142.1(7)
Fe1 O1 Pb1 5_5545 5_5555 81.8(6) 79.2(7) 84.0(6)
Fe1 O1 Bi1 5_5545 1_5545 72.6(6) 72.0(5) 73.9(6)
Fe1 O1 Bi1 5_5545 . 113.8(8) 113.8(8) 113.8(8)
Fe1 O1 Bi1 5_5545 1_5645 72.6(6) 72.0(5) 73.9(6)
Fe1 O1 Bi1 5_5545 1_5655 113.8(8) 113.8(8) 113.8(8)
Fe1 O1 Bi1 5_5545 5_4555 141.9(7) 141.2(8) 142.2(7)
Fe1 O1 Bi1 5_5545 5_5545 12.2(6) 12.2(6) 12.2(6)
Fe1 O1 Bi1 5_5545 5_5555 82.0(6) 79.3(7) 84.2(6)
Fe1 O1 O1 5_5545 1_5455 90.0(7) 90.0(7) 90.0(7)
Fe1 O1 O1 5_5545 1_5655 90.0(7) 90.0(7) 90.0(7)
Fe1 O1 O1 5_5545 1_6555 24.1(5) 22.5(5) 25.3(5)
Fe1 O1 O1 5_5545 5_4445 127.9(8) 127.0(9) 129.6(8)
Fe1 O1 O1 5_5545 5_4545 127.9(8) 127.0(9) 129.6(8)
Fe1 O1 O1 5_5545 5_5445 50.8(8) 50.5(8) 51.2(8)
Fe1 O1 O1 5_5545 5_5545 50.8(8) 50.5(8) 51.2(8)
Fe1 O1 O2 5_5545 5_3545 153.8(6) 152.9(6) 155.3(5)
Fe1 O1 O3 5_5545 . 110.8(5) 107.5(5) 113.9(5)
Fe1 O1 O3 5_5545 1_5655 110.8(5) 107.5(5) 113.9(5)
Fe1 O1 O3 5_5545 5_4535 105.0(6) 103.1(7) 107.8(7)
Fe1 O1 O3 5_5545 5_5535 30.6(5) 29.3(6) 32.4(6)
Fe1 O1 Pb1 5_5555 1_5565 68.0(6) 66.5(6) 71.1(6)
Fe1 O1 Pb1 5_5555 1_5665 68.0(6) 66.5(6) 71.1(6)
Fe1 O1 Pb1 5_5555 5_4545 146.5(9) 137.3(7) 151.0(12)
Fe1 O1 Pb1 5_5555 5_4555 120.5(10) 120.1(9) 121.3(11)
Fe1 O1 Pb1 5_5555 5_5545 83.8(8) 79.2(7) 85.8(9)
Fe1 O1 Bi1 5_5555 . 89.5(8) 89.5(8) 89.5(8)
Fe1 O1 Bi1 5_5555 1_5565 68.2(6) 66.8(6) 71.2(6)
Fe1 O1 Bi1 5_5555 1_5655 89.5(8) 89.5(8) 89.5(8)
Fe1 O1 Bi1 5_5555 1_5665 68.2(6) 66.8(6) 71.2(6)
Fe1 O1 Bi1 5_5555 5_4545 146.4(9) 137.0(7) 151.1(12)
Fe1 O1 Bi1 5_5555 5_4555 120.8(10) 120.3(9) 121.4(12)
Fe1 O1 Bi1 5_5555 5_5545 83.7(8) 79.1(6) 85.7(9)
Fe1 O1 Bi1 5_5555 5_5555 22.1(9) 22.1(9) 22.1(9)
Fe1 O1 O1 5_5555 1_4555 157.3(8) 154.5(10) 164.0(7)
Fe1 O1 O1 5_5555 1_5455 90.0(7) 90.0(8) 90.0(8)
Fe1 O1 O1 5_5555 1_5655 90.0(7) 90.0(8) 90.0(8)
Fe1 O1 O1 5_5555 1_6555 23.3(6) 22.8(7) 23.8(6)
Fe1 O1 O1 5_5555 5_4455 127.1(8) 125.9(8) 128.2(8)
Fe1 O1 O1 5_5555 5_4555 127.1(8) 125.9(8) 128.2(8)
Fe1 O1 O1 5_5555 5_5455 47.9(8) 46.0(7) 48.8(8)
Fe1 O1 O1 5_5555 5_5555 47.9(8) 46.0(7) 48.8(8)
Fe1 O1 O2 5_5555 1_4555 130.7(10) 130.5(10) 131.1(11)
Fe1 O1 O2 5_5555 1_4655 130.7(10) 130.5(10) 131.1(11)
Fe1 O1 O2 5_5555 5_5555 18.2(4) 16.5(4) 19.3(4)
Fe1 O1 O3 5_5555 1_5545 107.4(7) 98.1(5) 111.6(10)
Fe1 O1 O3 5_5555 1_5645 107.4(7) 98.1(5) 111.6(10)
Fe1 O1 O3 5_5555 5_4555 104.9(7) 104.2(7) 106.3(7)
Fe1 O1 O3 5_5555 5_5555 31.4(5) 30.3(5) 34.3(6)
Pb1 O1 Pb1 1_5545 1_5645 60.7(3) 59.6(3) 63.4(3)
Pb1 O1 Pb1 1_5545 5_4555 137.0(6) 135.5(5) 138.1(5)
Pb1 O1 Pb1 1_5545 5_5545 62.4(6) 61.9(6) 63.3(7)
Pb1 O1 Pb1 1_5545 5_5555 137.8(6) 136.0(9) 140.5(5)
Pb1 O1 Bi1 1_5545 1_5545 0.3(5) 0.0(5) 0.5(4)
Pb1 O1 Bi1 1_5545 . 93.0(6) 93.0(6) 93.0(6)
Pb1 O1 Bi1 1_5545 1_5645 60.6(3) 59.5(3) 63.3(3)
Pb1 O1 Bi1 1_5545 1_5655 153.0(8) 153.0(8) 153.0(8)
Pb1 O1 Bi1 1_5545 5_4545 49.0(7) 49.0(7) 49.0(7)
Pb1 O1 Bi1 1_5545 5_4555 137.0(6) 135.4(5) 138.0(6)
Pb1 O1 Bi1 1_5545 5_5545 62.5(6) 62.1(6) 63.4(7)
Pb1 O1 Bi1 1_5545 5_5555 137.9(6) 136.0(9) 140.7(5)
Pb1 O1 O1 1_5545 1_4555 86.7(6) 86.1(7) 86.9(6)
Pb1 O1 O1 1_5545 1_5455 59.6(5) 58.3(5) 60.2(5)
Pb1 O1 O1 1_5545 1_5655 120.4(6) 119.8(6) 121.7(5)
Pb1 O1 O1 1_5545 1_6555 92.6(6) 91.5(6) 95.4(6)
Pb1 O1 O1 1_5545 5_4445 63.2(8) 62.9(8) 63.9(8)
Pb1 O1 O1 1_5545 5_4545 105.6(8) 105.3(9) 106.2(7)
Pb1 O1 O1 1_5545 5_5445 66.8(7) 66.6(7) 67.3(8)
Pb1 O1 O1 1_5545 5_5545 111.5(8) 110.6(8) 113.5(8)
Pb1 O1 O2 1_5545 . 71.8(5) 71.5(6) 72.2(5)
Pb1 O1 O2 1_5545 1_5655 112.8(9) 112.4(9) 113.7(8)
Pb1 O1 O2 1_5545 5_3545 84.8(5) 84.2(4) 85.1(5)
Pb1 O1 O3 1_5545 . 110.9(5) 109.4(5) 111.5(5)
Pb1 O1 O3 1_5545 1_5655 170.7(6) 168.3(6) 171.3(6)
Pb1 O1 O3 1_5545 5_4535 43.6(4) 40.6(4) 47.0(5)
Pb1 O1 O3 1_5545 5_5535 48.2(5) 48.0(5) 48.6(5)
Pb1 O1 Pb1 1_5565 1_5665 60.7(3) 59.6(3) 63.4(3)
Pb1 O1 Pb1 1_5565 5_4545 137.8(6) 136.0(9) 140.5(5)
Pb1 O1 Pb1 1_5565 5_4555 62.4(6) 61.9(6) 63.3(7)
Pb1 O1 Pb1 1_5565 5_5545 137.0(6) 135.5(5) 138.1(5)
Pb1 O1 Bi1 1_5565 . 93.0(6) 93.0(6) 93.0(6)
Pb1 O1 Bi1 1_5565 1_5565 0.3(5) 0.0(5) 0.5(4)
Pb1 O1 Bi1 1_5565 1_5655 153.0(8) 153.0(8) 153.0(8)
Pb1 O1 Bi1 1_5565 1_5665 60.6(3) 59.5(3) 63.3(3)
Pb1 O1 Bi1 1_5565 5_4545 137.9(6) 136.0(9) 140.7(5)
Pb1 O1 Bi1 1_5565 5_4555 62.5(6) 62.1(6) 63.4(7)
Pb1 O1 Bi1 1_5565 5_5545 137.0(6) 135.4(5) 138.0(6)
Pb1 O1 Bi1 1_5565 5_5555 49.0(7) 49.0(7) 49.0(7)
Pb1 O1 O1 1_5565 1_4555 92.6(6) 91.5(6) 95.4(6)
Pb1 O1 O1 1_5565 1_5455 59.6(5) 58.3(5) 60.2(5)
Pb1 O1 O1 1_5565 1_5655 120.4(6) 119.8(6) 121.7(5)
Pb1 O1 O1 1_5565 1_6555 86.7(6) 86.1(7) 86.9(6)
Pb1 O1 O1 1_5565 5_4455 66.8(7) 66.6(7) 67.3(8)
Pb1 O1 O1 1_5565 5_4555 111.5(8) 110.6(8) 113.5(8)
Pb1 O1 O1 1_5565 5_5455 63.2(8) 62.9(8) 63.9(8)
Pb1 O1 O1 1_5565 5_5555 105.6(8) 105.3(9) 106.2(7)
Pb1 O1 O2 1_5565 1_4555 71.8(5) 71.5(6) 72.2(5)
Pb1 O1 O2 1_5565 1_4655 112.8(9) 112.4(9) 113.7(8)
Pb1 O1 O2 1_5565 5_5555 84.8(5) 84.2(4) 85.1(5)
Pb1 O1 O3 1_5565 1_5545 110.9(5) 109.4(5) 111.5(5)
Pb1 O1 O3 1_5565 1_5645 170.7(6) 168.3(6) 171.3(6)
Pb1 O1 O3 1_5565 5_4555 48.2(5) 48.0(5) 48.6(5)
Pb1 O1 O3 1_5565 5_5555 43.6(4) 40.6(4) 47.0(5)
Pb1 O1 Pb1 1_5645 5_4555 137.0(6) 135.5(5) 138.1(5)
Pb1 O1 Pb1 1_5645 5_5545 62.4(6) 61.9(6) 63.3(7)
Pb1 O1 Pb1 1_5645 5_5555 137.8(6) 136.0(9) 140.5(5)
Pb1 O1 Bi1 1_5645 1_5545 60.6(3) 59.5(3) 63.3(3)
Pb1 O1 Bi1 1_5645 . 153.0(8) 153.0(8) 153.0(8)
Pb1 O1 Bi1 1_5645 1_5645 0.3(5) 0.0(5) 0.5(4)
Pb1 O1 Bi1 1_5645 1_5655 93.0(6) 93.0(6) 93.0(6)
Pb1 O1 Bi1 1_5645 5_4545 49.0(7) 49.0(7) 49.0(7)
Pb1 O1 Bi1 1_5645 5_4555 137.0(6) 135.4(5) 138.0(6)
Pb1 O1 Bi1 1_5645 5_5545 62.5(6) 62.1(6) 63.4(7)
Pb1 O1 Bi1 1_5645 5_5555 137.9(6) 136.0(9) 140.7(5)
Pb1 O1 O1 1_5645 1_4555 86.7(6) 86.1(7) 86.9(6)
Pb1 O1 O1 1_5645 1_5455 120.4(6) 119.8(6) 121.7(5)
Pb1 O1 O1 1_5645 1_5655 59.6(5) 58.3(5) 60.2(5)
Pb1 O1 O1 1_5645 1_6555 92.6(6) 91.5(6) 95.4(6)
Pb1 O1 O1 1_5645 5_4445 105.6(8) 105.3(9) 106.2(7)
Pb1 O1 O1 1_5645 5_4545 63.2(8) 62.9(8) 63.9(8)
Pb1 O1 O1 1_5645 5_5445 111.5(8) 110.6(8) 113.5(8)
Pb1 O1 O1 1_5645 5_5545 66.8(7) 66.6(7) 67.3(8)
Pb1 O1 O2 1_5645 . 112.8(9) 112.4(9) 113.7(8)
Pb1 O1 O2 1_5645 1_5655 71.8(5) 71.5(6) 72.2(5)
Pb1 O1 O2 1_5645 5_3545 84.8(5) 84.2(4) 85.1(5)
Pb1 O1 O3 1_5645 . 170.7(6) 168.3(6) 171.3(6)
Pb1 O1 O3 1_5645 1_5655 110.9(5) 109.4(5) 111.5(5)
Pb1 O1 O3 1_5645 5_4535 43.6(4) 40.6(4) 47.0(5)
Pb1 O1 O3 1_5645 5_5535 48.2(5) 48.0(5) 48.6(5)
Pb1 O1 Pb1 1_5665 5_4545 137.8(6) 136.0(9) 140.5(5)
Pb1 O1 Pb1 1_5665 5_4555 62.4(6) 61.9(6) 63.3(7)
Pb1 O1 Pb1 1_5665 5_5545 137.0(6) 135.5(5) 138.1(5)
Pb1 O1 Bi1 1_5665 . 153.0(8) 153.0(8) 153.0(8)
Pb1 O1 Bi1 1_5665 1_5565 60.6(3) 59.5(3) 63.3(3)
Pb1 O1 Bi1 1_5665 1_5655 93.0(6) 93.0(6) 93.0(6)
Pb1 O1 Bi1 1_5665 1_5665 0.3(5) 0.0(5) 0.5(4)
Pb1 O1 Bi1 1_5665 5_4545 137.9(6) 136.0(9) 140.7(5)
Pb1 O1 Bi1 1_5665 5_4555 62.5(6) 62.1(6) 63.4(7)
Pb1 O1 Bi1 1_5665 5_5545 137.0(6) 135.4(5) 138.0(6)
Pb1 O1 Bi1 1_5665 5_5555 49.0(7) 49.0(7) 49.0(7)
Pb1 O1 O1 1_5665 1_4555 92.6(6) 91.5(6) 95.4(6)
Pb1 O1 O1 1_5665 1_5455 120.4(6) 119.8(6) 121.7(5)
Pb1 O1 O1 1_5665 1_5655 59.6(5) 58.3(5) 60.2(5)
Pb1 O1 O1 1_5665 1_6555 86.7(6) 86.1(7) 86.9(6)
Pb1 O1 O1 1_5665 5_4455 111.5(8) 110.6(8) 113.5(8)
Pb1 O1 O1 1_5665 5_4555 66.8(7) 66.6(7) 67.3(8)
Pb1 O1 O1 1_5665 5_5455 105.6(8) 105.3(9) 106.2(7)
Pb1 O1 O1 1_5665 5_5555 63.2(8) 62.9(8) 63.9(8)
Pb1 O1 O2 1_5665 1_4555 112.8(9) 112.4(9) 113.7(8)
Pb1 O1 O2 1_5665 1_4655 71.8(5) 71.5(6) 72.2(5)
Pb1 O1 O2 1_5665 5_5555 84.8(5) 84.2(4) 85.1(5)
Pb1 O1 O3 1_5665 1_5545 170.7(6) 168.3(6) 171.3(6)
Pb1 O1 O3 1_5665 1_5645 110.9(5) 109.4(5) 111.5(5)
Pb1 O1 O3 1_5665 5_4555 48.2(5) 48.0(5) 48.6(5)
Pb1 O1 O3 1_5665 5_5555 43.6(4) 40.6(4) 47.0(5)
Pb1 O1 Pb1 5_4545 5_4555 89.3(11) 85.3(10) 104.0(14)
Pb1 O1 Pb1 5_4545 5_5545 84.3(8) 58.1(6) 103.2(12)
Pb1 O1 Pb1 5_4545 5_5555 174.0(12) 171.2(17) 180.0(5)
Pb1 O1 Bi1 5_4545 . 66.3(7) 66.3(7) 66.3(7)
Pb1 O1 Bi1 5_4545 1_5565 137.7(6) 135.8(9) 140.5(5)
Pb1 O1 Bi1 5_4545 1_5655 66.3(7) 66.3(7) 66.3(7)
Pb1 O1 Bi1 5_4545 1_5665 137.7(6) 135.8(9) 140.5(5)
Pb1 O1 Bi1 5_4545 5_4545 0.1(6) 0.0(5) 1.1(8)
Pb1 O1 Bi1 5_4545 5_4555 89.3(11) 85.3(10) 104.0(14)
Pb1 O1 Bi1 5_4545 5_5545 84.3(8) 58.2(6) 103.2(12)
Pb1 O1 Bi1 5_4545 5_5555 173.8(12) 170.8(17) 180.0(5)
Pb1 O1 O1 5_4545 1_4555 45.8(7) 37.6(8) 58.7(6)
Pb1 O1 O1 5_4545 1_5455 90.0(7) 90.0(6) 90.0(6)
Pb1 O1 O1 5_4545 1_5655 90.0(7) 90.0(6) 90.0(6)
Pb1 O1 O1 5_4545 1_6555 135.9(9) 125.9(8) 141.9(8)
Pb1 O1 O1 5_4545 5_4455 72.3(7) 71.1(8) 73.3(7)
Pb1 O1 O1 5_4545 5_4555 72.3(7) 71.1(8) 73.3(7)
Pb1 O1 O1 5_4545 5_5455 116.4(7) 113.1(7) 118.4(8)
Pb1 O1 O1 5_4545 5_5555 116.4(7) 113.1(7) 118.4(8)
Pb1 O1 O2 5_4545 1_4555 59.6(9) 55.8(9) 65.1(6)
Pb1 O1 O2 5_4545 1_4655 59.6(9) 55.8(9) 65.1(6)
Pb1 O1 O2 5_4545 . 121.3(8) 113.6(8) 124.4(8)
Pb1 O1 O2 5_4545 1_5655 121.3(8) 113.6(8) 124.4(8)
Pb1 O1 O2 5_4545 5_5555 124.4(5) 120.8(5) 127.9(6)
Pb1 O1 O3 5_4545 1_5545 56.8(5) 49.0(5) 64.9(6)
Pb1 O1 O3 5_4545 . 121.1(8) 118.3(4) 126.9(10)
Pb1 O1 O3 5_4545 1_5645 56.8(5) 49.0(5) 64.9(6)
Pb1 O1 O3 5_4545 1_5655 121.1(8) 118.3(4) 126.9(10)
Pb1 O1 O3 5_4545 5_4555 112.5(7) 108.6(8) 116.4(7)
Pb1 O1 O3 5_4545 5_5555 175.2(9) 168.2(7) 179.6(9)
Pb1 O1 Pb1 5_4555 5_5545 164.2(11) 153.8(8) 180.0(5)
Pb1 O1 Pb1 5_4555 5_5555 84.3(8) 58.1(5) 103.2(12)
Pb1 O1 Bi1 5_4555 1_5545 137.3(6) 135.5(5) 138.3(6)
Pb1 O1 Bi1 5_4555 . 53.6(6) 53.6(6) 53.6(6)
Pb1 O1 Bi1 5_4555 1_5565 62.1(6) 61.6(5) 62.8(7)
Pb1 O1 Bi1 5_4555 1_5645 137.3(6) 135.5(5) 138.3(6)
Pb1 O1 Bi1 5_4555 1_5655 53.6(6) 53.6(6) 53.6(6)
Pb1 O1 Bi1 5_4555 1_5665 62.1(6) 61.6(5) 62.8(7)
Pb1 O1 Bi1 5_4555 5_4545 89.6(11) 85.3(11) 105.1(15)
Pb1 O1 Bi1 5_4555 5_4555 0.0(5) 0.0(5) 0.3(6)
Pb1 O1 Bi1 5_4555 5_5545 163.9(11) 153.4(8) 180.0(5)
Pb1 O1 Bi1 5_4555 5_5555 84.7(8) 57.8(5) 103.6(12)
Pb1 O1 O1 5_4555 1_4555 46.9(7) 34.3(7) 62.8(6)
Pb1 O1 O1 5_4555 1_5455 90.0(7) 90.0(6) 90.0(6)
Pb1 O1 O1 5_4555 1_5655 90.0(7) 90.0(6) 90.0(6)
Pb1 O1 O1 5_4555 1_6555 131.5(8) 116.7(6) 144.1(10)
Pb1 O1 O1 5_4555 5_4445 73.9(8) 71.6(10) 75.2(8)
Pb1 O1 O1 5_4555 5_4545 73.9(8) 71.6(10) 75.2(8)
Pb1 O1 O1 5_4555 5_5445 111.3(8) 110.9(7) 111.6(7)
Pb1 O1 O1 5_4555 5_5455 122.0(9) 121.0(9) 123.5(9)
Pb1 O1 O1 5_4555 5_5545 111.3(8) 110.9(7) 111.6(7)
Pb1 O1 O1 5_4555 5_5555 122.0(9) 121.0(9) 123.5(9)
Pb1 O1 O2 5_4555 1_4555 60.0(9) 53.2(11) 68.0(10)
Pb1 O1 O2 5_4555 1_4655 60.0(9) 53.2(11) 68.0(10)
Pb1 O1 O2 5_4555 . 117.9(9) 108.2(7) 125.0(12)
Pb1 O1 O2 5_4555 1_5655 117.9(9) 108.2(7) 125.0(12)
Pb1 O1 O2 5_4555 5_3545 64.4(4) 62.7(3) 66.0(5)
Pb1 O1 O3 5_4555 1_5545 120.3(8) 113.0(12) 129.8(9)
Pb1 O1 O3 5_4555 . 55.8(5) 42.7(4) 64.7(7)
Pb1 O1 O3 5_4555 1_5645 120.3(8) 113.0(12) 129.8(9)
Pb1 O1 O3 5_4555 1_5655 55.8(5) 42.7(4) 64.7(7)
Pb1 O1 O3 5_4555 5_4535 115.1(8) 110.1(6) 117.4(11)
Pb1 O1 O3 5_4555 5_5535 172.4(7) 170.5(8) 174.4(7)
Pb1 O1 O3 5_4555 5_5555 88.3(7) 87.1(8) 89.7(6)
Pb1 O1 Pb1 5_5545 5_5555 89.3(11) 85.3(11) 104.0(16)
Pb1 O1 Bi1 5_5545 1_5545 62.1(6) 61.6(5) 62.8(7)
Pb1 O1 Bi1 5_5545 . 53.6(6) 53.6(6) 53.6(6)
Pb1 O1 Bi1 5_5545 1_5565 137.3(6) 135.5(5) 138.3(6)
Pb1 O1 Bi1 5_5545 1_5645 62.1(6) 61.6(5) 62.8(7)
Pb1 O1 Bi1 5_5545 1_5655 53.6(6) 53.6(6) 53.6(6)
Pb1 O1 Bi1 5_5545 1_5665 137.3(6) 135.5(5) 138.3(6)
Pb1 O1 Bi1 5_5545 5_4545 84.7(8) 57.8(5) 103.6(12)
Pb1 O1 Bi1 5_5545 5_4555 163.9(11) 153.4(8) 180.0(5)
Pb1 O1 Bi1 5_5545 5_5545 0.0(5) 0.0(5) 0.3(6)
Pb1 O1 Bi1 5_5545 5_5555 89.6(11) 85.3(11) 105.1(15)
Pb1 O1 O1 5_5545 1_4555 131.5(8) 116.7(6) 144.1(10)
Pb1 O1 O1 5_5545 1_5455 90.0(7) 90.0(6) 90.0(6)
Pb1 O1 O1 5_5545 1_5655 90.0(7) 90.0(6) 90.0(6)
Pb1 O1 O1 5_5545 1_6555 46.9(7) 34.3(7) 62.8(6)
Pb1 O1 O1 5_5545 5_4445 122.0(9) 121.0(9) 123.5(9)
Pb1 O1 O1 5_5545 5_4455 111.3(8) 110.9(7) 111.6(7)
Pb1 O1 O1 5_5545 5_4545 122.0(9) 121.0(9) 123.5(9)
Pb1 O1 O1 5_5545 5_4555 111.3(8) 110.9(7) 111.6(7)
Pb1 O1 O1 5_5545 5_5455 73.9(8) 71.6(10) 75.2(8)
Pb1 O1 O1 5_5545 5_5555 73.9(8) 71.6(10) 75.2(8)
Pb1 O1 O2 5_5545 1_4555 117.9(9) 108.2(7) 125.0(12)
Pb1 O1 O2 5_5545 1_4655 117.9(9) 108.2(7) 125.0(12)
Pb1 O1 O2 5_5545 . 60.0(9) 53.2(11) 68.0(10)
Pb1 O1 O2 5_5545 1_5655 60.0(9) 53.2(11) 68.0(10)
Pb1 O1 O2 5_5545 5_5555 64.4(4) 62.7(3) 66.0(5)
Pb1 O1 O3 5_5545 1_5545 55.8(5) 42.7(4) 64.7(7)
Pb1 O1 O3 5_5545 . 120.3(8) 113.0(12) 129.8(9)
Pb1 O1 O3 5_5545 1_5645 55.8(5) 42.7(4) 64.7(7)
Pb1 O1 O3 5_5545 1_5655 120.3(8) 113.0(12) 129.8(9)
Pb1 O1 O3 5_5545 5_4535 88.3(7) 87.1(8) 89.7(6)
Pb1 O1 O3 5_5545 5_4555 172.4(7) 170.5(8) 174.4(7)
Pb1 O1 O3 5_5545 5_5555 115.1(8) 110.1(6) 117.4(11)
Pb1 O1 Bi1 5_5555 1_5545 137.7(6) 135.8(9) 140.5(5)
Pb1 O1 Bi1 5_5555 . 66.3(7) 66.3(7) 66.3(7)
Pb1 O1 Bi1 5_5555 1_5645 137.7(6) 135.8(9) 140.5(5)
Pb1 O1 Bi1 5_5555 1_5655 66.3(7) 66.3(7) 66.3(7)
Pb1 O1 Bi1 5_5555 5_4545 173.8(12) 170.8(17) 180.0(5)
Pb1 O1 Bi1 5_5555 5_4555 84.3(8) 58.2(6) 103.2(12)
Pb1 O1 Bi1 5_5555 5_5545 89.3(11) 85.3(10) 104.0(14)
Pb1 O1 Bi1 5_5555 5_5555 0.1(6) 0.0(5) 1.1(8)
Pb1 O1 O1 5_5555 1_4555 135.9(9) 125.9(8) 141.9(8)
Pb1 O1 O1 5_5555 1_5455 90.0(7) 90.0(6) 90.0(6)
Pb1 O1 O1 5_5555 1_5655 90.0(7) 90.0(6) 90.0(6)
Pb1 O1 O1 5_5555 1_6555 45.8(7) 37.6(8) 58.7(6)
Pb1 O1 O1 5_5555 5_4445 116.4(7) 113.1(7) 118.4(8)
Pb1 O1 O1 5_5555 5_4545 116.4(7) 113.1(7) 118.4(8)
Pb1 O1 O1 5_5555 5_5445 72.3(7) 71.1(8) 73.3(7)
Pb1 O1 O1 5_5555 5_5545 72.3(7) 71.1(8) 73.3(7)
Pb1 O1 O2 5_5555 1_4555 121.3(8) 113.6(8) 124.4(8)
Pb1 O1 O2 5_5555 1_4655 121.3(8) 113.6(8) 124.4(8)
Pb1 O1 O2 5_5555 . 59.6(9) 55.8(9) 65.1(6)
Pb1 O1 O2 5_5555 1_5655 59.6(9) 55.8(9) 65.1(6)
Pb1 O1 O2 5_5555 5_3545 124.4(5) 120.8(5) 127.9(6)
Pb1 O1 O3 5_5555 1_5545 121.1(8) 118.3(4) 126.9(10)
Pb1 O1 O3 5_5555 . 56.8(5) 49.0(5) 64.9(6)
Pb1 O1 O3 5_5555 1_5645 121.1(8) 118.3(4) 126.9(10)
Pb1 O1 O3 5_5555 1_5655 56.8(5) 49.0(5) 64.9(6)
Pb1 O1 O3 5_5555 5_4535 175.2(9) 168.2(7) 179.6(9)
Pb1 O1 O3 5_5555 5_5535 112.5(7) 108.6(8) 116.4(7)
Bi1 O1 Bi1 1_5545 . 93.0(6) 93.0(6) 93.0(6)
Bi1 O1 Bi1 1_5545 1_5645 60.5(3) 59.3(3) 63.3(3)
Bi1 O1 Bi1 1_5545 1_5655 153.0(7) 153.0(7) 153.0(7)
Bi1 O1 Bi1 1_5545 5_4545 49.2(7) 49.2(7) 49.2(7)
Bi1 O1 Bi1 1_5545 5_4555 137.3(6) 135.4(5) 138.3(6)
Bi1 O1 Bi1 1_5545 5_5545 62.2(6) 61.8(6) 62.9(7)
Bi1 O1 Bi1 1_5545 5_5555 137.8(6) 135.8(9) 140.6(5)
Bi1 O1 O1 1_5545 1_4555 87.0(6) 86.5(7) 87.2(6)
Bi1 O1 O1 1_5545 1_5455 59.8(5) 58.3(5) 60.3(5)
Bi1 O1 O1 1_5545 1_5655 120.2(6) 119.7(6) 121.7(5)
Bi1 O1 O1 1_5545 1_6555 92.4(6) 91.2(6) 95.4(6)
Bi1 O1 O1 1_5545 5_4445 63.4(8) 63.0(8) 64.4(8)
Bi1 O1 O1 1_5545 5_4545 105.7(8) 105.4(8) 106.2(7)
Bi1 O1 O1 1_5545 5_5445 66.8(7) 66.6(7) 67.3(8)
Bi1 O1 O1 1_5545 5_5545 111.4(8) 110.4(8) 113.4(8)
Bi1 O1 O2 1_5545 . 71.6(5) 71.4(5) 72.1(5)
Bi1 O1 O2 1_5545 1_5655 112.4(9) 111.9(9) 113.5(8)
Bi1 O1 O2 1_5545 5_3545 84.9(5) 84.4(4) 85.2(5)
Bi1 O1 O3 1_5545 . 111.0(5) 109.4(5) 111.6(5)
Bi1 O1 O3 1_5545 1_5655 170.6(6) 168.3(6) 171.3(6)
Bi1 O1 O3 1_5545 5_4535 43.7(4) 40.7(4) 47.0(5)
Bi1 O1 O3 1_5545 5_5535 48.1(5) 47.8(5) 48.4(5)
Bi1 O1 Bi1 . 1_5565 93.0(3) 93.0(3) 93.0(3)
Bi1 O1 Bi1 . 1_5645 153.0(5) 153.0(5) 153.0(5)
Bi1 O1 Bi1 . 1_5655 105.9(7) 105.9(7) 105.9(7)
Bi1 O1 Bi1 . 1_5665 153.0(5) 153.0(5) 153.0(5)
Bi1 O1 Bi1 . 5_4545 66.1(4) 66.1(4) 66.1(4)
Bi1 O1 Bi1 . 5_4555 53.6(3) 53.6(3) 53.6(3)
Bi1 O1 Bi1 . 5_5545 53.6(3) 53.6(3) 53.6(3)
Bi1 O1 Bi1 . 5_5555 66.1(4) 66.1(4) 66.1(4)
Bi1 O1 O1 . 1_4555 100.0(5) 100.0(5) 100.0(5)
Bi1 O1 O1 . 1_5455 37.1(5) 37.1(5) 37.1(5)
Bi1 O1 O1 . 1_5655 142.9(6) 142.9(6) 142.9(6)
Bi1 O1 O1 . 1_6555 100.0(5) 100.0(5) 100.0(5)
Bi1 O1 O1 . 5_4445 48.1(6) 48.1(6) 48.1(6)
Bi1 O1 O1 . 5_4455 63.7(8) 63.7(8) 63.7(8)
Bi1 O1 O1 . 5_4545 116.5(9) 116.5(9) 116.5(9)
Bi1 O1 O1 . 5_4555 138.5(9) 138.5(9) 138.5(9)
Bi1 O1 O1 . 5_5445 63.7(8) 63.7(8) 63.7(8)
Bi1 O1 O1 . 5_5455 48.1(6) 48.1(6) 48.1(6)
Bi1 O1 O1 . 5_5545 138.5(9) 138.5(9) 138.5(9)
Bi1 O1 O1 . 5_5555 116.5(9) 116.5(9) 116.5(9)
Bi1 O1 O3 . 1_5545 16.8(5) 16.8(5) 16.8(5)
Bi1 O1 O3 . . 16.8(5) 16.8(5) 16.8(5)
Bi1 O1 O3 . 1_5645 91.5(6) 91.5(6) 91.5(6)
Bi1 O1 O3 . 1_5655 91.5(6) 91.5(6) 91.5(6)
Bi1 O1 O3 . 5_4535 107.6(5) 107.6(5) 107.6(5)
Bi1 O1 O3 . 5_4555 125.5(3) 125.5(3) 125.5(3)
Bi1 O1 O3 . 5_5535 125.5(3) 125.5(3) 125.5(3)
Bi1 O1 O3 . 5_5555 107.6(5) 107.6(5) 107.6(5)
Bi1 O1 Bi1 1_5565 1_5655 153.0(7) 153.0(7) 153.0(7)
Bi1 O1 Bi1 1_5565 1_5665 60.5(3) 59.3(3) 63.3(3)
Bi1 O1 Bi1 1_5565 5_4545 137.8(6) 135.8(9) 140.6(5)
Bi1 O1 Bi1 1_5565 5_4555 62.2(6) 61.8(6) 62.9(7)
Bi1 O1 Bi1 1_5565 5_5545 137.3(6) 135.4(5) 138.3(6)
Bi1 O1 Bi1 1_5565 5_5555 49.2(7) 49.2(7) 49.2(7)
Bi1 O1 O1 1_5565 1_4555 92.4(6) 91.2(6) 95.4(6)
Bi1 O1 O1 1_5565 1_5455 59.8(5) 58.3(5) 60.3(5)
Bi1 O1 O1 1_5565 1_5655 120.2(6) 119.7(6) 121.7(5)
Bi1 O1 O1 1_5565 1_6555 87.0(6) 86.5(7) 87.2(6)
Bi1 O1 O1 1_5565 5_4455 66.8(7) 66.6(7) 67.3(8)
Bi1 O1 O1 1_5565 5_4555 111.4(8) 110.4(8) 113.4(8)
Bi1 O1 O1 1_5565 5_5455 63.4(8) 63.0(8) 64.4(8)
Bi1 O1 O1 1_5565 5_5555 105.7(8) 105.4(8) 106.2(7)
Bi1 O1 O2 1_5565 1_4555 71.6(5) 71.4(5) 72.1(5)
Bi1 O1 O2 1_5565 1_4655 112.4(9) 111.9(9) 113.5(8)
Bi1 O1 O2 1_5565 5_5555 84.9(5) 84.4(4) 85.2(5)
Bi1 O1 O3 1_5565 1_5545 111.0(5) 109.4(5) 111.6(5)
Bi1 O1 O3 1_5565 1_5645 170.6(6) 168.3(6) 171.3(6)
Bi1 O1 O3 1_5565 5_4555 48.1(5) 47.8(5) 48.4(5)
Bi1 O1 O3 1_5565 5_5555 43.7(4) 40.7(4) 47.0(5)
Bi1 O1 Bi1 1_5645 1_5655 93.0(6) 93.0(6) 93.0(6)
Bi1 O1 Bi1 1_5645 5_4545 49.2(7) 49.2(7) 49.2(7)
Bi1 O1 Bi1 1_5645 5_4555 137.3(6) 135.4(5) 138.3(6)
Bi1 O1 Bi1 1_5645 5_5545 62.2(6) 61.8(6) 62.9(7)
Bi1 O1 Bi1 1_5645 5_5555 137.8(6) 135.8(9) 140.6(5)
Bi1 O1 O1 1_5645 1_4555 87.0(6) 86.5(7) 87.2(6)
Bi1 O1 O1 1_5645 1_5455 120.2(6) 119.7(6) 121.7(5)
Bi1 O1 O1 1_5645 1_5655 59.8(5) 58.3(5) 60.3(5)
Bi1 O1 O1 1_5645 1_6555 92.4(6) 91.2(6) 95.4(6)
Bi1 O1 O1 1_5645 5_4445 105.7(8) 105.4(8) 106.2(7)
Bi1 O1 O1 1_5645 5_4545 63.4(8) 63.0(8) 64.4(8)
Bi1 O1 O1 1_5645 5_5445 111.4(8) 110.4(8) 113.4(8)
Bi1 O1 O1 1_5645 5_5545 66.8(7) 66.6(7) 67.3(8)
Bi1 O1 O2 1_5645 . 112.4(9) 111.9(9) 113.5(8)
Bi1 O1 O2 1_5645 1_5655 71.6(5) 71.4(5) 72.1(5)
Bi1 O1 O2 1_5645 5_3545 84.9(5) 84.4(4) 85.2(5)
Bi1 O1 O3 1_5645 . 170.6(6) 168.3(6) 171.3(6)
Bi1 O1 O3 1_5645 1_5655 111.0(5) 109.4(5) 111.6(5)
Bi1 O1 O3 1_5645 5_4535 43.7(4) 40.7(4) 47.0(5)
Bi1 O1 O3 1_5645 5_5535 48.1(5) 47.8(5) 48.4(5)
Bi1 O1 Bi1 1_5655 1_5665 93.0(3) 93.0(3) 93.0(3)
Bi1 O1 Bi1 1_5655 5_4545 66.1(4) 66.1(4) 66.1(4)
Bi1 O1 Bi1 1_5655 5_4555 53.6(3) 53.6(3) 53.6(3)
Bi1 O1 Bi1 1_5655 5_5545 53.6(3) 53.6(3) 53.6(3)
Bi1 O1 Bi1 1_5655 5_5555 66.1(4) 66.1(4) 66.1(4)
Bi1 O1 O1 1_5655 1_4555 100.0(5) 100.0(5) 100.0(5)
Bi1 O1 O1 1_5655 1_5455 142.9(6) 142.9(6) 142.9(6)
Bi1 O1 O1 1_5655 1_5655 37.1(5) 37.1(5) 37.1(5)
Bi1 O1 O1 1_5655 1_6555 100.0(5) 100.0(5) 100.0(5)
Bi1 O1 O1 1_5655 5_4445 116.5(9) 116.5(9) 116.5(9)
Bi1 O1 O1 1_5655 5_4455 138.5(9) 138.5(9) 138.5(9)
Bi1 O1 O1 1_5655 5_4545 48.1(6) 48.1(6) 48.1(6)
Bi1 O1 O1 1_5655 5_4555 63.7(8) 63.7(8) 63.7(8)
Bi1 O1 O1 1_5655 5_5445 138.5(9) 138.5(9) 138.5(9)
Bi1 O1 O1 1_5655 5_5455 116.5(9) 116.5(9) 116.5(9)
Bi1 O1 O1 1_5655 5_5545 63.7(8) 63.7(8) 63.7(8)
Bi1 O1 O1 1_5655 5_5555 48.1(6) 48.1(6) 48.1(6)
Bi1 O1 O3 1_5655 1_5545 91.5(6) 91.5(6) 91.5(6)
Bi1 O1 O3 1_5655 . 91.5(6) 91.5(6) 91.5(6)
Bi1 O1 O3 1_5655 1_5645 16.8(5) 16.8(5) 16.8(5)
Bi1 O1 O3 1_5655 1_5655 16.8(5) 16.8(5) 16.8(5)
Bi1 O1 O3 1_5655 5_4535 107.6(5) 107.6(5) 107.6(5)
Bi1 O1 O3 1_5655 5_4555 125.5(3) 125.5(3) 125.5(3)
Bi1 O1 O3 1_5655 5_5535 125.5(3) 125.5(3) 125.5(3)
Bi1 O1 O3 1_5655 5_5555 107.6(5) 107.6(5) 107.6(5)
Bi1 O1 Bi1 1_5665 5_4545 137.8(6) 135.8(9) 140.6(5)
Bi1 O1 Bi1 1_5665 5_4555 62.2(6) 61.8(6) 62.9(7)
Bi1 O1 Bi1 1_5665 5_5545 137.3(6) 135.4(5) 138.3(6)
Bi1 O1 Bi1 1_5665 5_5555 49.2(7) 49.2(7) 49.2(7)
Bi1 O1 O1 1_5665 1_4555 92.4(6) 91.2(6) 95.4(6)
Bi1 O1 O1 1_5665 1_5455 120.2(6) 119.7(6) 121.7(5)
Bi1 O1 O1 1_5665 1_5655 59.8(5) 58.3(5) 60.3(5)
Bi1 O1 O1 1_5665 1_6555 87.0(6) 86.5(7) 87.2(6)
Bi1 O1 O1 1_5665 5_4455 111.4(8) 110.4(8) 113.4(8)
Bi1 O1 O1 1_5665 5_4555 66.8(7) 66.6(7) 67.3(8)
Bi1 O1 O1 1_5665 5_5455 105.7(8) 105.4(8) 106.2(7)
Bi1 O1 O1 1_5665 5_5555 63.4(8) 63.0(8) 64.4(8)
Bi1 O1 O2 1_5665 1_4555 112.4(9) 111.9(9) 113.5(8)
Bi1 O1 O2 1_5665 1_4655 71.6(5) 71.4(5) 72.1(5)
Bi1 O1 O2 1_5665 5_5555 84.9(5) 84.4(4) 85.2(5)
Bi1 O1 O3 1_5665 1_5545 170.6(6) 168.3(6) 171.3(6)
Bi1 O1 O3 1_5665 1_5645 111.0(5) 109.4(5) 111.6(5)
Bi1 O1 O3 1_5665 5_4555 48.1(5) 47.8(5) 48.4(5)
Bi1 O1 O3 1_5665 5_5555 43.7(4) 40.7(4) 47.0(5)
Bi1 O1 Bi1 5_4545 5_4555 89.6(11) 85.3(10) 105.1(14)
Bi1 O1 Bi1 5_4545 5_5545 84.8(8) 57.9(6) 103.6(12)
Bi1 O1 Bi1 5_4545 5_5555 173.7(12) 170.8(17) 180.0(5)
Bi1 O1 O1 5_4545 1_4555 45.7(7) 37.6(8) 58.9(6)
Bi1 O1 O1 5_4545 1_5455 90.0(7) 90.0(6) 90.0(6)
Bi1 O1 O1 5_4545 1_5655 90.0(7) 90.0(6) 90.0(6)
Bi1 O1 O1 5_4545 1_6555 136.0(9) 125.8(8) 141.9(8)
Bi1 O1 O1 5_4545 5_4445 57.5(9) 57.5(9) 57.5(9)
Bi1 O1 O1 5_4545 5_4455 72.4(7) 71.1(8) 73.5(7)
Bi1 O1 O1 5_4545 5_4545 57.5(9) 57.5(9) 57.5(9)
Bi1 O1 O1 5_4545 5_4555 72.4(7) 71.1(8) 73.5(7)
Bi1 O1 O1 5_4545 5_5455 116.4(7) 112.9(7) 118.5(8)
Bi1 O1 O1 5_4545 5_5555 116.4(7) 112.9(7) 118.5(8)
Bi1 O1 O2 5_4545 1_4555 59.5(9) 55.8(9) 65.1(6)
Bi1 O1 O2 5_4545 1_4655 59.5(9) 55.8(9) 65.1(6)
Bi1 O1 O2 5_4545 . 121.4(8) 113.6(8) 124.5(8)
Bi1 O1 O2 5_4545 1_5655 121.4(8) 113.6(8) 124.5(8)
Bi1 O1 O2 5_4545 5_5555 124.2(5) 120.5(5) 127.8(6)
Bi1 O1 O3 5_4545 1_5545 56.9(5) 49.0(5) 65.0(6)
Bi1 O1 O3 5_4545 . 121.2(8) 118.4(4) 126.9(10)
Bi1 O1 O3 5_4545 1_5645 56.9(5) 49.0(5) 65.0(6)
Bi1 O1 O3 5_4545 1_5655 121.2(8) 118.4(4) 126.9(10)
Bi1 O1 O3 5_4545 5_4535 12.1(5) 12.1(5) 12.1(5)
Bi1 O1 O3 5_4545 5_4555 112.7(7) 108.6(8) 116.6(7)
Bi1 O1 O3 5_4545 5_5555 175.1(9) 167.9(7) 179.5(9)
Bi1 O1 Bi1 5_4555 5_5545 163.7(11) 153.4(7) 180.0(5)
Bi1 O1 Bi1 5_4555 5_5555 84.8(8) 57.9(5) 103.6(12)
Bi1 O1 O1 5_4555 1_4555 46.6(7) 34.1(6) 62.8(6)
Bi1 O1 O1 5_4555 1_5455 90.0(7) 90.0(6) 90.0(6)
Bi1 O1 O1 5_4555 1_5655 90.0(7) 90.0(6) 90.0(6)
Bi1 O1 O1 5_4555 1_6555 131.6(8) 116.9(6) 144.2(9)
Bi1 O1 O1 5_4555 5_4445 73.8(8) 71.6(10) 75.1(8)
Bi1 O1 O1 5_4555 5_4455 55.0(8) 55.0(8) 55.0(8)
Bi1 O1 O1 5_4555 5_4545 73.8(8) 71.6(10) 75.1(8)
Bi1 O1 O1 5_4555 5_4555 55.0(8) 55.0(8) 55.0(8)
Bi1 O1 O1 5_4555 5_5445 111.4(8) 111.0(7) 111.7(7)
Bi1 O1 O1 5_4555 5_5455 121.9(9) 121.1(9) 123.5(9)
Bi1 O1 O1 5_4555 5_5545 111.4(8) 111.0(7) 111.7(7)
Bi1 O1 O1 5_4555 5_5555 121.9(9) 121.1(9) 123.5(9)
Bi1 O1 O2 5_4555 1_4555 60.0(9) 53.2(11) 68.0(10)
Bi1 O1 O2 5_4555 1_4655 60.0(9) 53.2(11) 68.0(10)
Bi1 O1 O2 5_4555 . 117.9(9) 108.3(7) 125.0(12)
Bi1 O1 O2 5_4555 1_5655 117.9(9) 108.3(7) 125.0(12)
Bi1 O1 O2 5_4555 5_3545 64.3(4) 62.6(3) 65.9(5)
Bi1 O1 O2 5_4555 5_5555 140.7(5) 140.7(5) 140.7(5)
Bi1 O1 O3 5_4555 1_5545 120.2(8) 113.0(12) 129.8(9)
Bi1 O1 O3 5_4555 . 55.8(5) 42.8(4) 64.8(7)
Bi1 O1 O3 5_4555 1_5645 120.2(8) 113.0(12) 129.8(9)
Bi1 O1 O3 5_4555 1_5655 55.8(5) 42.8(4) 64.8(7)
Bi1 O1 O3 5_4555 5_4535 115.1(8) 110.0(6) 117.4(11)
Bi1 O1 O3 5_4555 5_4555 17.2(5) 17.2(5) 17.2(5)
Bi1 O1 O3 5_4555 5_5535 172.5(7) 170.6(8) 174.6(7)
Bi1 O1 O3 5_4555 5_5555 88.9(7) 87.2(8) 90.9(6)
Bi1 O1 Bi1 5_5545 5_5555 89.6(11) 85.3(11) 105.1(15)
Bi1 O1 O1 5_5545 1_4555 131.6(8) 116.9(6) 144.2(9)
Bi1 O1 O1 5_5545 1_5455 90.0(7) 90.0(6) 90.0(6)
Bi1 O1 O1 5_5545 1_5655 90.0(7) 90.0(6) 90.0(6)
Bi1 O1 O1 5_5545 1_6555 46.6(7) 34.1(6) 62.8(6)
Bi1 O1 O1 5_5545 5_4445 121.9(9) 121.1(9) 123.5(9)
Bi1 O1 O1 5_5545 5_4455 111.4(8) 111.0(7) 111.7(7)
Bi1 O1 O1 5_5545 5_4545 121.9(9) 121.1(9) 123.5(9)
Bi1 O1 O1 5_5545 5_4555 111.4(8) 111.0(7) 111.7(7)
Bi1 O1 O1 5_5545 5_5445 55.0(8) 55.0(8) 55.0(8)
Bi1 O1 O1 5_5545 5_5455 73.8(8) 71.6(10) 75.1(8)
Bi1 O1 O1 5_5545 5_5545 55.0(8) 55.0(8) 55.0(8)
Bi1 O1 O1 5_5545 5_5555 73.8(8) 71.6(10) 75.1(8)
Bi1 O1 O2 5_5545 1_4555 117.9(9) 108.3(7) 125.0(12)
Bi1 O1 O2 5_5545 1_4655 117.9(9) 108.3(7) 125.0(12)
Bi1 O1 O2 5_5545 . 60.0(9) 53.2(11) 68.0(10)
Bi1 O1 O2 5_5545 1_5655 60.0(9) 53.2(11) 68.0(10)
Bi1 O1 O2 5_5545 5_3545 140.7(5) 140.7(5) 140.7(5)
Bi1 O1 O2 5_5545 5_5555 64.3(4) 62.6(3) 65.9(5)
Bi1 O1 O3 5_5545 1_5545 55.8(5) 42.8(4) 64.8(7)
Bi1 O1 O3 5_5545 . 120.2(8) 113.0(12) 129.8(9)
Bi1 O1 O3 5_5545 1_5645 55.8(5) 42.8(4) 64.8(7)
Bi1 O1 O3 5_5545 1_5655 120.2(8) 113.0(12) 129.8(9)
Bi1 O1 O3 5_5545 5_4535 88.9(7) 87.2(8) 90.9(6)
Bi1 O1 O3 5_5545 5_4555 172.5(7) 170.6(8) 174.6(7)
Bi1 O1 O3 5_5545 5_5535 17.2(5) 17.2(5) 17.2(5)
Bi1 O1 O3 5_5545 5_5555 115.1(8) 110.0(6) 117.4(11)
Bi1 O1 O1 5_5555 1_4555 136.0(9) 125.8(8) 141.9(8)
Bi1 O1 O1 5_5555 1_5455 90.0(7) 90.0(6) 90.0(6)
Bi1 O1 O1 5_5555 1_5655 90.0(7) 90.0(6) 90.0(6)
Bi1 O1 O1 5_5555 1_6555 45.7(7) 37.6(8) 58.9(6)
Bi1 O1 O1 5_5555 5_4445 116.4(7) 112.9(7) 118.5(8)
Bi1 O1 O1 5_5555 5_4545 116.4(7) 112.9(7) 118.5(8)
Bi1 O1 O1 5_5555 5_5445 72.4(7) 71.1(8) 73.5(7)
Bi1 O1 O1 5_5555 5_5455 57.5(9) 57.5(9) 57.5(9)
Bi1 O1 O1 5_5555 5_5545 72.4(7) 71.1(8) 73.5(7)
Bi1 O1 O1 5_5555 5_5555 57.5(9) 57.5(9) 57.5(9)
Bi1 O1 O2 5_5555 1_4555 121.4(8) 113.6(8) 124.5(8)
Bi1 O1 O2 5_5555 1_4655 121.4(8) 113.6(8) 124.5(8)
Bi1 O1 O2 5_5555 . 59.5(9) 55.8(9) 65.1(6)
Bi1 O1 O2 5_5555 1_5655 59.5(9) 55.8(9) 65.1(6)
Bi1 O1 O2 5_5555 5_3545 124.2(5) 120.5(5) 127.8(6)
Bi1 O1 O3 5_5555 1_5545 121.2(8) 118.4(4) 126.9(10)
Bi1 O1 O3 5_5555 . 56.9(5) 49.0(5) 65.0(6)
Bi1 O1 O3 5_5555 1_5645 121.2(8) 118.4(4) 126.9(10)
Bi1 O1 O3 5_5555 1_5655 56.9(5) 49.0(5) 65.0(6)
Bi1 O1 O3 5_5555 5_4535 175.1(9) 167.9(7) 179.5(9)
Bi1 O1 O3 5_5555 5_5535 112.7(7) 108.6(8) 116.6(7)
Bi1 O1 O3 5_5555 5_5555 12.1(5) 12.1(5) 12.1(5)
O1 O1 O1 1_4555 1_5455 90.0(8) 90.0(7) 90.0(7)
O1 O1 O1 1_4555 1_5655 90.0(8) 90.0(7) 90.0(7)
O1 O1 O1 1_4555 1_6555 179.1(7) 178.0(7) 180.0(5)
O1 O1 O1 1_4555 5_4445 45.7(9) 44.5(9) 46.5(8)
O1 O1 O1 1_4555 5_4455 48.3(8) 48.0(8) 48.6(8)
O1 O1 O1 1_4555 5_4545 45.7(9) 44.5(9) 46.5(8)
O1 O1 O1 1_4555 5_4555 48.3(8) 48.0(8) 48.6(8)
O1 O1 O1 1_4555 5_5455 134.3(8) 133.3(8) 135.7(7)
O1 O1 O1 1_4555 5_5555 134.3(8) 133.3(8) 135.7(7)
O1 O1 O2 1_4555 1_4555 44.7(13) 43.2(13) 46.9(14)
O1 O1 O2 1_4555 1_4655 44.7(13) 43.2(13) 46.9(14)
O1 O1 O2 1_4555 . 135.3(13) 133.1(14) 136.8(12)
O1 O1 O2 1_4555 1_5655 135.3(13) 133.1(14) 136.8(12)
O1 O1 O2 1_4555 5_5555 177.7(5) 175.4(6) 179.4(4)
O1 O1 O3 1_4555 1_5545 89.2(6) 86.3(9) 94.4(4)
O1 O1 O3 1_4555 . 91.4(6) 88.1(7) 94.5(9)
O1 O1 O3 1_4555 1_5645 89.2(6) 86.3(9) 94.4(4)
O1 O1 O3 1_4555 1_5655 91.4(6) 88.1(7) 94.5(9)
O1 O1 O3 1_4555 5_4535 55.6(6) 53.7(5) 57.1(7)
O1 O1 O3 1_4555 5_4555 54.8(6) 51.9(7) 57.7(6)
O1 O1 O3 1_4555 5_5555 125.9(8) 121.5(10) 133.1(6)
O1 O1 O1 1_5455 1_5655 180.0(5) 180.0(5) 180.0(5)
O1 O1 O1 1_5455 1_6555 90.0(5) 90 90
O1 O1 O1 1_5455 5_4445 44.5(8) 43.8(8) 45.7(7)
O1 O1 O1 1_5455 5_4455 42.0(8) 41.7(8) 42.2(8)
O1 O1 O1 1_5455 5_4545 135.5(10) 134.3(8) 136.2(10)
O1 O1 O1 1_5455 5_4555 138.0(10) 137.8(9) 138.3(10)
O1 O1 O1 1_5455 5_5445 42.0(8) 41.7(8) 42.2(8)
O1 O1 O1 1_5455 5_5455 44.5(8) 43.8(8) 45.7(7)
O1 O1 O1 1_5455 5_5545 138.0(10) 137.8(9) 138.3(10)
O1 O1 O1 1_5455 5_5555 135.5(10) 134.3(8) 136.2(10)
O1 O1 O2 1_5455 1_4555 45.3(13) 43.1(14) 46.8(13)
O1 O1 O2 1_5455 1_4655 134.7(15) 133.2(17) 136.9(19)
O1 O1 O2 1_5455 . 45.3(13) 43.1(14) 46.8(13)
O1 O1 O2 1_5455 1_5655 134.7(15) 133.2(17) 136.9(19)
O1 O1 O2 1_5455 5_3545 90.0(3) 90.0(3) 90.0(3)
O1 O1 O2 1_5455 5_5555 90.0(3) 90.0(4) 90.0(4)
O1 O1 O3 1_5455 1_5545 48.6(6) 46.2(6) 52.0(5)
O1 O1 O3 1_5455 . 48.6(6) 46.2(6) 52.0(5)
O1 O1 O3 1_5455 1_5645 131.4(7) 128.0(6) 133.8(6)
O1 O1 O3 1_5455 1_5655 131.4(7) 128.0(6) 133.8(6)
O1 O1 O3 1_5455 5_4535 90.0(3) 90.0(3) 90.0(3)
O1 O1 O3 1_5455 5_4555 90.0(3) 90.0(3) 90.0(3)
O1 O1 O3 1_5455 5_5535 90.0(3) 90.0(3) 90.0(3)
O1 O1 O3 1_5455 5_5555 90.0(3) 90.0(5) 90.0(5)
O1 O1 O1 1_5655 1_6555 90.0(5) 90 90
O1 O1 O1 1_5655 5_4445 135.5(10) 134.3(8) 136.2(10)
O1 O1 O1 1_5655 5_4455 138.0(10) 137.8(9) 138.3(10)
O1 O1 O1 1_5655 5_4545 44.5(8) 43.8(8) 45.7(7)
O1 O1 O1 1_5655 5_4555 42.0(8) 41.7(8) 42.2(8)
O1 O1 O1 1_5655 5_5445 138.0(10) 137.8(9) 138.3(10)
O1 O1 O1 1_5655 5_5455 135.5(10) 134.3(8) 136.2(10)
O1 O1 O1 1_5655 5_5545 42.0(8) 41.7(8) 42.2(8)
O1 O1 O1 1_5655 5_5555 44.5(8) 43.8(8) 45.7(7)
O1 O1 O2 1_5655 1_4555 134.7(15) 133.2(17) 136.9(19)
O1 O1 O2 1_5655 1_4655 45.3(13) 43.1(14) 46.8(13)
O1 O1 O2 1_5655 . 134.7(15) 133.2(17) 136.9(19)
O1 O1 O2 1_5655 1_5655 45.3(13) 43.1(14) 46.8(13)
O1 O1 O2 1_5655 5_3545 90.0(3) 90.0(3) 90.0(3)
O1 O1 O2 1_5655 5_5555 90.0(3) 90.0(4) 90.0(4)
O1 O1 O3 1_5655 1_5545 131.4(7) 128.0(6) 133.8(6)
O1 O1 O3 1_5655 . 131.4(7) 128.0(6) 133.8(6)
O1 O1 O3 1_5655 1_5645 48.6(6) 46.2(6) 52.0(5)
O1 O1 O3 1_5655 1_5655 48.6(6) 46.2(6) 52.0(5)
O1 O1 O3 1_5655 5_4535 90.0(3) 90.0(3) 90.0(3)
O1 O1 O3 1_5655 5_4555 90.0(3) 90.0(3) 90.0(3)
O1 O1 O3 1_5655 5_5535 90.0(3) 90.0(3) 90.0(3)
O1 O1 O3 1_5655 5_5555 90.0(3) 90.0(5) 90.0(5)
O1 O1 O1 1_6555 5_4445 134.3(8) 133.3(8) 135.7(7)
O1 O1 O1 1_6555 5_4545 134.3(8) 133.3(8) 135.7(7)
O1 O1 O1 1_6555 5_5445 48.3(8) 48.0(8) 48.6(8)
O1 O1 O1 1_6555 5_5455 45.7(9) 44.5(9) 46.5(8)
O1 O1 O1 1_6555 5_5545 48.3(8) 48.0(8) 48.6(8)
O1 O1 O1 1_6555 5_5555 45.7(9) 44.5(9) 46.5(8)
O1 O1 O2 1_6555 1_4555 135.3(13) 133.1(14) 136.8(12)
O1 O1 O2 1_6555 1_4655 135.3(13) 133.1(14) 136.8(12)
O1 O1 O2 1_6555 . 44.7(13) 43.2(13) 46.9(14)
O1 O1 O2 1_6555 1_5655 44.7(13) 43.2(13) 46.9(14)
O1 O1 O2 1_6555 5_3545 177.7(5) 175.4(6) 179.4(4)
O1 O1 O3 1_6555 1_5545 91.4(6) 88.1(7) 94.5(9)
O1 O1 O3 1_6555 . 89.2(6) 86.3(9) 94.4(4)
O1 O1 O3 1_6555 1_5645 91.4(6) 88.1(7) 94.5(9)
O1 O1 O3 1_6555 1_5655 89.2(6) 86.3(9) 94.4(4)
O1 O1 O3 1_6555 5_4535 125.9(8) 121.5(10) 133.1(6)
O1 O1 O3 1_6555 5_5535 54.8(6) 51.9(7) 57.7(6)
O1 O1 O3 1_6555 5_5555 55.6(6) 53.7(5) 57.1(7)
O1 O1 O1 5_4445 5_4545 90.9(11) 88.5(10) 92.4(10)
O1 O1 O1 5_4445 5_5445 86.1(9) 85.0(9) 87.2(10)
O1 O1 O1 5_4445 5_5545 172.6(9) 172.1(9) 173.3(9)
O1 O1 O2 5_4445 . 89.9(12) 88.4(12) 91.6(12)
O1 O1 O2 5_4445 1_5655 176.2(10) 175.8(10) 176.7(9)
O1 O1 O2 5_4445 5_3545 45.5(5) 44.3(6) 46.3(4)
O1 O1 O3 5_4445 . 66.9(5) 62.2(6) 69.1(5)
O1 O1 O3 5_4445 1_5655 119.8(8) 113.2(7) 122.5(9)
O1 O1 O3 5_4445 5_4535 62.3(5) 59.6(6) 64.8(7)
O1 O1 O3 5_4445 5_5535 110.8(6) 110.6(6) 111.2(7)
O1 O1 O1 5_4455 5_4555 96.1(10) 95.6(10) 96.7(10)
O1 O1 O1 5_4455 5_5455 86.1(8) 85.0(8) 87.2(8)
O1 O1 O1 5_4455 5_5555 172.6(8) 172.1(8) 173.3(8)
O1 O1 O2 5_4455 5_5555 131.5(4) 131.1(4) 131.8(3)
O1 O1 O3 5_4455 1_5545 67.2(4) 64.8(4) 69.1(4)
O1 O1 O3 5_4455 1_5645 122.2(6) 120.2(7) 124.3(7)
O1 O1 O3 5_4455 5_4555 64.3(5) 63.4(5) 65.8(5)
O1 O1 O3 5_4455 5_5555 111.9(5) 110.3(5) 113.8(5)
O1 O1 O1 5_4545 5_5445 172.6(9) 172.1(9) 173.3(9)
O1 O1 O1 5_4545 5_5545 86.1(9) 85.0(9) 87.2(10)
O1 O1 O2 5_4545 . 176.2(10) 175.8(10) 176.7(9)
O1 O1 O2 5_4545 1_5655 89.9(12) 88.4(12) 91.6(12)
O1 O1 O2 5_4545 5_3545 45.5(5) 44.3(6) 46.3(4)
O1 O1 O3 5_4545 . 119.8(8) 113.2(7) 122.5(9)
O1 O1 O3 5_4545 1_5655 66.9(5) 62.2(6) 69.1(5)
O1 O1 O3 5_4545 5_4535 62.3(5) 59.6(6) 64.8(7)
O1 O1 O3 5_4545 5_5535 110.8(6) 110.6(6) 111.2(7)
O1 O1 O1 5_4555 5_5455 172.6(8) 172.1(8) 173.3(8)
O1 O1 O1 5_4555 5_5555 86.1(8) 85.0(8) 87.2(8)
O1 O1 O2 5_4555 5_5555 131.5(4) 131.1(4) 131.8(3)
O1 O1 O3 5_4555 1_5545 122.2(6) 120.2(7) 124.3(7)
O1 O1 O3 5_4555 1_5645 67.2(4) 64.8(4) 69.1(4)
O1 O1 O3 5_4555 5_4555 64.3(5) 63.4(5) 65.8(5)
O1 O1 O3 5_4555 5_5555 111.9(5) 110.3(5) 113.8(5)
O1 O1 O1 5_5445 5_5545 96.1(10) 95.6(10) 96.7(10)
O1 O1 O2 5_5445 5_3545 131.5(4) 131.1(4) 131.8(3)
O1 O1 O3 5_5445 . 67.2(4) 64.8(4) 69.1(4)
O1 O1 O3 5_5445 1_5655 122.2(6) 120.2(7) 124.3(7)
O1 O1 O3 5_5445 5_4535 111.9(5) 110.3(5) 113.8(5)
O1 O1 O3 5_5445 5_5535 64.3(5) 63.4(5) 65.8(5)
O1 O1 O1 5_5455 5_5555 90.9(11) 88.5(10) 92.4(10)
O1 O1 O2 5_5455 1_4555 89.9(12) 88.4(12) 91.6(12)
O1 O1 O2 5_5455 1_4655 176.2(10) 175.8(10) 176.7(9)
O1 O1 O2 5_5455 5_5555 45.5(5) 44.3(6) 46.3(4)
O1 O1 O3 5_5455 1_5545 66.9(5) 62.2(6) 69.1(5)
O1 O1 O3 5_5455 1_5645 119.8(8) 113.2(7) 122.5(9)
O1 O1 O3 5_5455 5_4555 110.8(6) 110.6(6) 111.2(7)
O1 O1 O3 5_5455 5_5555 62.3(5) 59.6(6) 64.8(7)
O1 O1 O2 5_5545 5_3545 131.5(4) 131.1(4) 131.8(3)
O1 O1 O3 5_5545 . 122.2(6) 120.2(7) 124.3(7)
O1 O1 O3 5_5545 1_5655 67.2(4) 64.8(4) 69.1(4)
O1 O1 O3 5_5545 5_4535 111.9(5) 110.3(5) 113.8(5)
O1 O1 O3 5_5545 5_5535 64.3(5) 63.4(5) 65.8(5)
O1 O1 O2 5_5555 1_4555 176.2(10) 175.8(10) 176.7(9)
O1 O1 O2 5_5555 1_4655 89.9(12) 88.4(12) 91.6(12)
O1 O1 O2 5_5555 5_5555 45.5(5) 44.3(6) 46.3(4)
O1 O1 O3 5_5555 1_5545 119.8(8) 113.2(7) 122.5(9)
O1 O1 O3 5_5555 1_5645 66.9(5) 62.2(6) 69.1(5)
O1 O1 O3 5_5555 5_4555 110.8(6) 110.6(6) 111.2(7)
O1 O1 O3 5_5555 5_5555 62.3(5) 59.6(6) 64.8(7)
O2 O1 O2 1_4555 1_4655 89.5(16) 86.4(18) 93.7(19)
O2 O1 O2 1_4555 . 90.5(14) 89.4(16) 91.1(12)
O2 O1 O2 1_4555 1_5655 177.4(15) 176.3(18) 180.0(5)
O2 O1 O3 1_4555 1_5545 61.0(6) 60.4(4) 62.2(7)
O2 O1 O3 1_4555 . 62.5(6) 59.7(5) 65.3(8)
O2 O1 O3 1_4555 1_5645 117.0(9) 113.6(12) 120.4(12)
O2 O1 O3 1_4555 1_5655 119.0(9) 115.8(13) 122.0(12)
O2 O1 O3 1_4555 5_5555 113.5(6) 112.2(7) 115.2(5)
O2 O1 O2 1_4655 . 177.4(15) 176.3(18) 180.0(5)
O2 O1 O2 1_4655 1_5655 90.5(14) 89.4(16) 91.1(12)
O2 O1 O3 1_4655 1_5545 117.0(9) 113.6(12) 120.4(12)
O2 O1 O3 1_4655 . 119.0(9) 115.8(13) 122.0(12)
O2 O1 O3 1_4655 1_5645 61.0(6) 60.4(4) 62.2(7)
O2 O1 O3 1_4655 1_5655 62.5(6) 59.7(5) 65.3(8)
O2 O1 O3 1_4655 5_5555 113.5(6) 112.2(7) 115.2(5)
O2 O1 O2 . 1_5655 89.5(16) 86.4(18) 93.7(19)
O2 O1 O3 . 1_5545 62.5(6) 59.7(5) 65.3(8)
O2 O1 O3 . . 61.0(6) 60.4(4) 62.2(7)
O2 O1 O3 . 1_5645 119.0(9) 115.8(13) 122.0(12)
O2 O1 O3 . 1_5655 117.0(9) 113.6(12) 120.4(12)
O2 O1 O3 . 5_4535 113.5(6) 112.2(7) 115.2(5)
O2 O1 O3 1_5655 1_5545 119.0(9) 115.8(13) 122.0(12)
O2 O1 O3 1_5655 . 117.0(9) 113.6(12) 120.4(12)
O2 O1 O3 1_5655 1_5645 62.5(6) 59.7(5) 65.3(8)
O2 O1 O3 1_5655 1_5655 61.0(6) 60.4(4) 62.2(7)
O2 O1 O3 1_5655 5_4535 113.5(6) 112.2(7) 115.2(5)
O2 O1 O3 5_3545 . 89.5(4) 85.1(4) 93.5(5)
O2 O1 O3 5_3545 1_5655 89.5(4) 85.1(4) 93.5(5)
O2 O1 O3 5_3545 5_4535 48.7(5) 47.4(5) 49.7(5)
O2 O1 O3 5_3545 5_5535 123.1(6) 122.9(6) 123.5(7)
O2 O1 O3 5_5555 1_5545 89.5(4) 85.1(4) 93.5(5)
O2 O1 O3 5_5555 1_5645 89.5(4) 85.1(4) 93.5(5)
O2 O1 O3 5_5555 5_4555 123.1(6) 122.9(6) 123.5(7)
O2 O1 O3 5_5555 5_5555 48.7(5) 47.4(5) 49.7(5)
O3 O1 O3 1_5545 . 95.4(7) 93.3(6) 99.5(7)
O3 O1 O3 1_5545 1_5645 82.8(7) 76.0(6) 87.6(8)
O3 O1 O3 1_5545 1_5655 176.0(10) 174.1(15) 180.0(5)
O3 O1 O3 1_5545 5_4555 131.4(5) 128.1(6) 134.7(4)
O3 O1 O3 1_5545 5_5555 128.9(6) 121.3(5) 133.3(8)
O3 O1 O3 . 1_5645 176.0(10) 174.1(15) 180.0(5)
O3 O1 O3 . 1_5655 82.8(7) 76.0(6) 87.6(8)
O3 O1 O3 . 5_4535 128.9(6) 121.3(5) 133.3(8)
O3 O1 O3 . 5_5535 131.4(5) 128.1(6) 134.7(4)
O3 O1 O3 1_5645 1_5655 95.4(7) 93.3(6) 99.5(7)
O3 O1 O3 1_5645 5_4555 131.4(5) 128.1(6) 134.7(4)
O3 O1 O3 1_5645 5_5555 128.9(6) 121.3(5) 133.3(8)
O3 O1 O3 1_5655 5_4535 128.9(6) 121.3(5) 133.3(8)
O3 O1 O3 1_5655 5_5535 131.4(5) 128.1(6) 134.7(4)
O3 O1 O3 5_4535 5_5535 74.4(7) 73.8(7) 75.4(7)
O3 O1 O3 5_4555 5_5555 74.4(6) 73.8(5) 75.4(6)
Fe1 O2 Fe1 . 1_6555 161.2(5) 151.5(6) 178.7(4)
Fe1 O2 Pb1 . 5_5445 90.2(11) 78.4(7) 105.8(14)
Fe1 O2 Pb1 . 5_5455 88.0(12) 77.5(10) 96.2(19)
Fe1 O2 Pb1 . 5_5545 90.2(11) 78.4(7) 105.8(14)
Fe1 O2 Pb1 . 5_5555 88.0(12) 77.5(10) 96.2(19)
Fe1 O2 Bi1 . 5_5445 90.2(11) 78.5(7) 105.2(14)
Fe1 O2 Bi1 . 5_5455 88.1(12) 77.5(10) 96.3(19)
Fe1 O2 Bi1 . 5_5545 90.2(11) 78.5(7) 105.2(14)
Fe1 O2 Bi1 . 5_5555 88.1(12) 77.5(10) 96.3(19)
Fe1 O2 O1 . 1_5455 45.7(10) 43.9(7) 48.8(11)
Fe1 O2 O1 . . 45.7(10) 43.9(7) 48.8(11)
Fe1 O2 O1 . 1_6455 134.3(10) 131.4(12) 136.5(7)
Fe1 O2 O1 . 1_6555 134.3(10) 131.4(12) 136.5(7)
Fe1 O2 O1 . 5_4445 19.7(7) 18.4(8) 20.5(6)
Fe1 O2 O1 . 5_6455 171.5(9) 170.6(9) 172.4(8)
Fe1 O2 O2 . 1_4555 8.9(4) 0.0(5) 14.8(5)
Fe1 O2 O2 . 1_5455 90.0(14) 90.0(12) 90.0(12)
Fe1 O2 O2 . 1_5655 90.0(14) 90.0(12) 90.0(12)
Fe1 O2 O2 . 1_6555 171.1(4) 165.3(6) 180.0(5)
Fe1 O2 O3 . 1_5545 46.7(9) 35.3(7) 63.1(17)
Fe1 O2 O3 . . 46.6(10) 35.6(7) 65.5(13)
Fe1 O2 O3 . 1_6545 133.3(9) 115.8(8) 148.2(17)
Fe1 O2 O3 . 1_6555 129.1(9) 116.2(8) 144.0(17)
Fe1 O2 Pb1 1_6555 5_5445 87.9(12) 77.5(10) 96.2(19)
Fe1 O2 Pb1 1_6555 5_5455 90.3(11) 78.4(7) 105.8(14)
Fe1 O2 Pb1 1_6555 5_5545 87.9(12) 77.5(10) 96.2(19)
Fe1 O2 Pb1 1_6555 5_5555 90.3(11) 78.4(7) 105.8(14)
Fe1 O2 Bi1 1_6555 5_5445 88.0(12) 77.5(10) 96.3(19)
Fe1 O2 Bi1 1_6555 5_5455 90.2(11) 78.5(7) 105.2(14)
Fe1 O2 Bi1 1_6555 5_5545 88.0(12) 77.5(10) 96.3(19)
Fe1 O2 Bi1 1_6555 5_5555 90.2(11) 78.5(7) 105.2(14)
Fe1 O2 O1 1_6555 1_5455 134.3(10) 131.4(12) 136.5(7)
Fe1 O2 O1 1_6555 . 134.3(10) 131.4(12) 136.5(7)
Fe1 O2 O1 1_6555 1_6455 45.7(10) 43.9(7) 48.8(11)
Fe1 O2 O1 1_6555 1_6555 45.7(10) 43.9(7) 48.8(11)
Fe1 O2 O1 1_6555 5_4445 171.5(9) 170.6(9) 172.4(8)
Fe1 O2 O1 1_6555 5_6455 19.7(7) 18.4(8) 20.5(6)
Fe1 O2 O2 1_6555 1_4555 171.0(4) 165.3(6) 180.0(5)
Fe1 O2 O2 1_6555 1_5455 90.0(14) 90.0(12) 90.0(12)
Fe1 O2 O2 1_6555 1_5655 90.0(14) 90.0(12) 90.0(12)
Fe1 O2 O2 1_6555 1_6555 9.0(4) 0.0(5) 14.8(5)
Fe1 O2 O3 1_6555 1_5545 128.9(9) 116.2(8) 144.0(17)
Fe1 O2 O3 1_6555 . 133.6(9) 115.8(8) 148.2(17)
Fe1 O2 O3 1_6555 1_6545 46.5(10) 35.6(7) 65.5(13)
Fe1 O2 O3 1_6555 1_6555 46.9(9) 35.3(7) 63.1(17)
Pb1 O2 Pb1 5_5445 5_5455 89.8(5) 87.8(4) 95.5(3)
Pb1 O2 Pb1 5_5445 5_5545 90.0(5) 68.1(4) 107.5(7)
Pb1 O2 Pb1 5_5445 5_5555 167.3(6) 161.7(6) 179.1(4)
Pb1 O2 Bi1 5_5445 5_5445 0.1(6) 0.0(5) 0.8(6)
Pb1 O2 Bi1 5_5445 5_5455 89.7(5) 87.9(4) 95.5(3)
Pb1 O2 Bi1 5_5445 5_5545 90.1(5) 68.1(4) 107.6(7)
Pb1 O2 Bi1 5_5445 5_5555 167.3(6) 161.5(7) 179.1(4)
Pb1 O2 O1 5_5445 1_5455 60.1(9) 56.2(11) 66.8(8)
Pb1 O2 O1 5_5445 . 119.3(13) 114.6(15) 126.7(14)
Pb1 O2 O1 5_5445 1_6455 60.5(8) 49.2(8) 69.2(8)
Pb1 O2 O1 5_5445 1_6555 120.1(15) 114.0(17) 127(2)
Pb1 O2 O1 5_5445 5_4445 91.7(14) 90.6(17) 93.0(11)
Pb1 O2 O1 5_5445 5_6455 94.0(13) 92.6(14) 95.3(11)
Pb1 O2 O2 5_5445 1_4555 89.1(9) 87.5(4) 91.9(18)
Pb1 O2 O2 5_5445 1_5455 45.0(3) 36.3(4) 56.0(3)
Pb1 O2 O2 5_5445 1_5655 135.0(3) 124.0(3) 143.7(5)
Pb1 O2 O2 5_5445 1_6555 90.2(10) 82.4(11) 92.5(4)
Pb1 O2 O3 5_5445 1_5545 57.8(6) 51.1(6) 65.0(9)
Pb1 O2 O3 5_5445 . 121.4(12) 116.9(13) 130.4(13)
Pb1 O2 O3 5_5445 1_6545 58.3(6) 50.4(6) 65.6(9)
Pb1 O2 O3 5_5445 1_6555 120.1(11) 113.5(13) 127.1(18)
Pb1 O2 Pb1 5_5455 5_5545 167.3(6) 161.7(7) 179.1(4)
Pb1 O2 Pb1 5_5455 5_5555 90.3(5) 68.1(4) 107.5(7)
Pb1 O2 Bi1 5_5455 5_5445 89.7(5) 87.9(4) 95.5(3)
Pb1 O2 Bi1 5_5455 5_5455 0.1(6) 0.0(5) 0.8(6)
Pb1 O2 Bi1 5_5455 5_5545 167.3(6) 161.5(7) 179.1(4)
Pb1 O2 Bi1 5_5455 5_5555 90.3(5) 68.1(4) 107.6(7)
Pb1 O2 O1 5_5455 1_5455 60.5(8) 49.2(8) 69.2(8)
Pb1 O2 O1 5_5455 . 120.2(15) 114.0(17) 127(2)
Pb1 O2 O1 5_5455 1_6455 60.0(9) 56.2(11) 66.8(8)
Pb1 O2 O1 5_5455 1_6555 119.3(13) 114.6(15) 126.7(14)
Pb1 O2 O1 5_5455 5_4445 94.0(13) 92.6(14) 95.3(11)
Pb1 O2 O1 5_5455 5_6455 91.7(14) 90.6(17) 93.0(11)
Pb1 O2 O2 5_5455 1_4555 90.3(10) 82.4(11) 92.5(4)
Pb1 O2 O2 5_5455 1_5455 44.9(3) 36.3(4) 56.0(3)
Pb1 O2 O2 5_5455 1_5655 135.1(3) 124.0(3) 143.7(5)
Pb1 O2 O2 5_5455 1_6555 89.1(9) 87.5(4) 91.9(18)
Pb1 O2 O3 5_5455 1_5545 120.0(11) 113.5(13) 127.1(18)
Pb1 O2 O3 5_5455 . 58.4(6) 50.4(6) 65.6(9)
Pb1 O2 O3 5_5455 1_6545 121.4(12) 116.9(13) 130.4(13)
Pb1 O2 O3 5_5455 1_6555 57.9(6) 51.1(6) 65.0(9)
Pb1 O2 Pb1 5_5545 5_5555 89.8(5) 87.8(4) 95.5(3)
Pb1 O2 Bi1 5_5545 5_5445 90.1(5) 68.1(4) 107.6(7)
Pb1 O2 Bi1 5_5545 5_5455 167.3(6) 161.5(7) 179.1(4)
Pb1 O2 Bi1 5_5545 5_5545 0.1(6) 0.0(5) 0.8(6)
Pb1 O2 Bi1 5_5545 5_5555 89.7(5) 87.9(4) 95.5(3)
Pb1 O2 O1 5_5545 1_5455 119.3(13) 114.6(15) 126.7(14)
Pb1 O2 O1 5_5545 . 60.1(9) 56.2(11) 66.8(8)
Pb1 O2 O1 5_5545 1_6455 120.1(15) 114.0(17) 127(2)
Pb1 O2 O1 5_5545 1_6555 60.5(8) 49.2(8) 69.2(8)
Pb1 O2 O1 5_5545 5_4445 91.7(14) 90.6(17) 93.0(11)
Pb1 O2 O1 5_5545 5_6455 94.0(13) 92.6(14) 95.3(11)
Pb1 O2 O2 5_5545 1_4555 89.1(9) 87.5(4) 91.9(18)
Pb1 O2 O2 5_5545 1_5455 135.0(3) 124.0(3) 143.7(5)
Pb1 O2 O2 5_5545 1_5655 45.0(3) 36.3(4) 56.0(3)
Pb1 O2 O2 5_5545 1_6555 90.2(10) 82.4(11) 92.5(4)
Pb1 O2 O3 5_5545 1_5545 57.8(6) 51.1(6) 65.0(9)
Pb1 O2 O3 5_5545 . 121.4(12) 116.9(13) 130.4(13)
Pb1 O2 O3 5_5545 1_6545 58.3(6) 50.4(6) 65.6(9)
Pb1 O2 O3 5_5545 1_6555 120.1(11) 113.5(13) 127.1(18)
Pb1 O2 Bi1 5_5555 5_5445 167.3(6) 161.5(7) 179.1(4)
Pb1 O2 Bi1 5_5555 5_5455 90.3(5) 68.1(4) 107.6(7)
Pb1 O2 Bi1 5_5555 5_5545 89.7(5) 87.9(4) 95.5(3)
Pb1 O2 Bi1 5_5555 5_5555 0.1(6) 0.0(5) 0.8(6)
Pb1 O2 O1 5_5555 1_5455 120.2(15) 114.0(17) 127(2)
Pb1 O2 O1 5_5555 . 60.5(8) 49.2(8) 69.2(8)
Pb1 O2 O1 5_5555 1_6455 119.3(13) 114.6(15) 126.7(14)
Pb1 O2 O1 5_5555 1_6555 60.0(9) 56.2(11) 66.8(8)
Pb1 O2 O1 5_5555 5_4445 94.0(13) 92.6(14) 95.3(11)
Pb1 O2 O1 5_5555 5_6455 91.7(14) 90.6(17) 93.0(11)
Pb1 O2 O2 5_5555 1_4555 90.3(10) 82.4(11) 92.5(4)
Pb1 O2 O2 5_5555 1_5455 135.1(3) 124.0(3) 143.7(5)
Pb1 O2 O2 5_5555 1_5655 44.9(3) 36.3(4) 56.0(3)
Pb1 O2 O2 5_5555 1_6555 89.1(9) 87.5(4) 91.9(18)
Pb1 O2 O3 5_5555 1_5545 120.0(11) 113.5(13) 127.1(18)
Pb1 O2 O3 5_5555 . 58.4(6) 50.4(6) 65.6(9)
Pb1 O2 O3 5_5555 1_6545 121.4(12) 116.9(13) 130.4(13)
Pb1 O2 O3 5_5555 1_6555 57.9(6) 51.1(6) 65.0(9)
Bi1 O2 Bi1 5_5445 5_5455 89.6(5) 87.9(4) 95.0(3)
Bi1 O2 Bi1 5_5445 5_5545 90.2(5) 68.0(4) 107.8(7)
Bi1 O2 Bi1 5_5445 5_5555 167.2(6) 161.5(5) 179.1(4)
Bi1 O2 O1 5_5445 1_5455 60.0(9) 56.2(11) 66.9(8)
Bi1 O2 O1 5_5445 . 119.2(13) 114.6(15) 126.6(14)
Bi1 O2 O1 5_5445 1_6455 60.6(8) 49.3(8) 69.2(8)
Bi1 O2 O1 5_5445 1_6555 120.2(15) 114.0(17) 127(2)
Bi1 O2 O1 5_5445 5_4445 91.3(14) 90.3(17) 92.4(11)
Bi1 O2 O1 5_5445 5_6455 94.0(13) 92.6(14) 95.3(11)
Bi1 O2 O2 5_5445 1_4555 89.1(9) 87.5(4) 91.6(18)
Bi1 O2 O2 5_5445 1_5455 44.9(3) 36.1(4) 56.0(3)
Bi1 O2 O2 5_5445 1_5655 135.1(3) 124.0(3) 143.9(5)
Bi1 O2 O2 5_5445 1_6555 90.3(10) 83.0(12) 92.5(4)
Bi1 O2 O3 5_5445 1_5545 57.8(6) 51.1(6) 65.0(9)
Bi1 O2 O3 5_5445 . 121.3(12) 116.8(14) 130.5(13)
Bi1 O2 O3 5_5445 1_6545 58.4(6) 50.4(6) 65.6(9)
Bi1 O2 O3 5_5445 1_6555 120.1(11) 113.6(13) 127.1(18)
Bi1 O2 Bi1 5_5455 5_5545 167.2(6) 161.5(7) 179.1(4)
Bi1 O2 Bi1 5_5455 5_5555 90.4(5) 68.0(4) 107.8(7)
Bi1 O2 O1 5_5455 1_5455 60.5(8) 49.3(8) 69.2(8)
Bi1 O2 O1 5_5455 . 120.3(15) 114.0(17) 127(2)
Bi1 O2 O1 5_5455 1_6455 59.9(9) 56.2(11) 66.9(8)
Bi1 O2 O1 5_5455 1_6555 119.3(13) 114.6(15) 126.6(14)
Bi1 O2 O1 5_5455 5_4445 94.0(13) 92.6(14) 95.3(11)
Bi1 O2 O1 5_5455 5_6455 91.3(14) 90.3(17) 92.4(11)
Bi1 O2 O2 5_5455 1_4555 90.3(10) 83.0(12) 92.5(4)
Bi1 O2 O2 5_5455 1_5455 44.8(3) 36.1(4) 56.0(3)
Bi1 O2 O2 5_5455 1_5655 135.2(3) 124.0(3) 143.9(5)
Bi1 O2 O2 5_5455 1_6555 89.1(9) 87.5(4) 91.6(18)
Bi1 O2 O3 5_5455 1_5545 120.0(11) 113.6(13) 127.1(18)
Bi1 O2 O3 5_5455 . 58.5(6) 50.4(6) 65.6(9)
Bi1 O2 O3 5_5455 1_6545 121.3(12) 116.8(14) 130.5(13)
Bi1 O2 O3 5_5455 1_6555 57.9(6) 51.1(6) 65.0(9)
Bi1 O2 Bi1 5_5545 5_5555 89.6(5) 87.9(4) 95.0(3)
Bi1 O2 O1 5_5545 1_5455 119.2(13) 114.6(15) 126.6(14)
Bi1 O2 O1 5_5545 . 60.0(9) 56.2(11) 66.9(8)
Bi1 O2 O1 5_5545 1_6455 120.2(15) 114.0(17) 127(2)
Bi1 O2 O1 5_5545 1_6555 60.6(8) 49.3(8) 69.2(8)
Bi1 O2 O1 5_5545 5_4445 91.3(14) 90.3(17) 92.4(11)
Bi1 O2 O1 5_5545 5_6455 94.0(13) 92.6(14) 95.3(11)
Bi1 O2 O2 5_5545 1_4555 89.1(9) 87.5(4) 91.6(18)
Bi1 O2 O2 5_5545 1_5455 135.1(3) 124.0(3) 143.9(5)
Bi1 O2 O2 5_5545 1_5655 44.9(3) 36.1(4) 56.0(3)
Bi1 O2 O2 5_5545 1_6555 90.3(10) 83.0(12) 92.5(4)
Bi1 O2 O3 5_5545 1_5545 57.8(6) 51.1(6) 65.0(9)
Bi1 O2 O3 5_5545 . 121.3(12) 116.8(14) 130.5(13)
Bi1 O2 O3 5_5545 1_6545 58.4(6) 50.4(6) 65.6(9)
Bi1 O2 O3 5_5545 1_6555 120.1(11) 113.6(13) 127.1(18)
Bi1 O2 O1 5_5555 1_5455 120.3(15) 114.0(17) 127(2)
Bi1 O2 O1 5_5555 . 60.5(8) 49.3(8) 69.2(8)
Bi1 O2 O1 5_5555 1_6455 119.3(13) 114.6(15) 126.6(14)
Bi1 O2 O1 5_5555 1_6555 59.9(9) 56.2(11) 66.9(8)
Bi1 O2 O1 5_5555 5_4445 94.0(13) 92.6(14) 95.3(11)
Bi1 O2 O1 5_5555 5_6455 91.3(14) 90.3(17) 92.4(11)
Bi1 O2 O2 5_5555 1_4555 90.3(10) 83.0(12) 92.5(4)
Bi1 O2 O2 5_5555 1_5455 135.2(3) 124.0(3) 143.9(5)
Bi1 O2 O2 5_5555 1_5655 44.8(3) 36.1(4) 56.0(3)
Bi1 O2 O2 5_5555 1_6555 89.1(9) 87.5(4) 91.6(18)
Bi1 O2 O3 5_5555 1_5545 120.0(11) 113.6(13) 127.1(18)
Bi1 O2 O3 5_5555 . 58.5(6) 50.4(6) 65.6(9)
Bi1 O2 O3 5_5555 1_6545 121.3(12) 116.8(14) 130.5(13)
Bi1 O2 O3 5_5555 1_6555 57.9(6) 51.1(6) 65.0(9)
O1 O2 O1 1_5455 . 89.5(16) 86.4(17) 93.7(18)
O1 O2 O1 1_5455 1_6455 90.5(8) 87.8(8) 92.0(7)
O1 O2 O1 1_5455 1_6555 177.6(14) 175.7(9) 179.8(7)
O1 O2 O1 1_5455 5_4445 44.6(10) 44.0(11) 45.3(8)
O1 O2 O1 1_5455 5_6455 133.0(11) 132.6(10) 133.3(13)
O1 O2 O2 1_5455 1_4555 44.8(7) 43.2(9) 46.9(10)
O1 O2 O2 1_5455 1_5455 45.3(13) 43.1(14) 46.8(13)
O1 O2 O2 1_5455 1_5655 134.7(19) 133(2) 137(2)
O1 O2 O2 1_5455 1_6555 135.6(7) 133.4(13) 136.8(9)
O1 O2 O3 1_5455 1_5545 60.9(9) 59.7(4) 64.4(10)
O1 O2 O3 1_5455 . 62.1(9) 60.8(4) 65.5(10)
O1 O2 O3 1_5455 1_6545 117.9(5) 113.4(5) 121.3(6)
O1 O2 O3 1_5455 1_6555 119.6(5) 117.8(6) 120.4(4)
O1 O2 O1 . 1_6455 177.6(14) 175.7(9) 179.8(7)
O1 O2 O1 . 1_6555 90.5(8) 87.8(8) 92.0(7)
O1 O2 O1 . 5_4445 44.6(10) 44.0(11) 45.3(8)
O1 O2 O1 . 5_6455 133.0(11) 132.6(10) 133.3(13)
O1 O2 O2 . 1_4555 44.8(7) 43.2(9) 46.9(10)
O1 O2 O2 . 1_5455 134.7(19) 133(2) 137(2)
O1 O2 O2 . 1_5655 45.3(13) 43.1(14) 46.8(13)
O1 O2 O2 . 1_6555 135.6(7) 133.4(13) 136.8(9)
O1 O2 O3 . 1_5545 60.9(9) 59.7(4) 64.4(10)
O1 O2 O3 . . 62.1(9) 60.8(4) 65.5(10)
O1 O2 O3 . 1_6545 117.9(5) 113.4(5) 121.3(6)
O1 O2 O3 . 1_6555 119.6(5) 117.8(6) 120.4(4)
O1 O2 O1 1_6455 1_6555 89.4(16) 86.4(17) 93.7(18)
O1 O2 O1 1_6455 5_4445 133.0(11) 132.6(10) 133.3(13)
O1 O2 O1 1_6455 5_6455 44.6(10) 44.0(11) 45.3(8)
O1 O2 O2 1_6455 1_4555 135.6(7) 133.4(13) 136.8(9)
O1 O2 O2 1_6455 1_5455 45.3(13) 43.1(14) 46.8(13)
O1 O2 O2 1_6455 1_5655 134.7(19) 133(2) 137(2)
O1 O2 O2 1_6455 1_6555 44.7(7) 43.2(9) 46.9(10)
O1 O2 O3 1_6455 1_5545 119.5(5) 117.8(6) 120.4(4)
O1 O2 O3 1_6455 . 117.9(5) 113.4(5) 121.3(6)
O1 O2 O3 1_6455 1_6545 62.1(9) 60.8(4) 65.5(10)
O1 O2 O3 1_6455 1_6555 60.9(9) 59.7(4) 64.4(10)
O1 O2 O1 1_6555 5_4445 133.0(11) 132.6(10) 133.3(13)
O1 O2 O1 1_6555 5_6455 44.6(10) 44.0(11) 45.3(8)
O1 O2 O2 1_6555 1_4555 135.6(7) 133.4(13) 136.8(9)
O1 O2 O2 1_6555 1_5455 134.7(19) 133(2) 137(2)
O1 O2 O2 1_6555 1_5655 45.3(13) 43.1(14) 46.8(13)
O1 O2 O2 1_6555 1_6555 44.7(7) 43.2(9) 46.9(10)
O1 O2 O3 1_6555 1_5545 119.5(5) 117.8(6) 120.4(4)
O1 O2 O3 1_6555 . 117.9(5) 113.4(5) 121.3(6)
O1 O2 O3 1_6555 1_6545 62.1(9) 60.8(4) 65.5(10)
O1 O2 O3 1_6555 1_6555 60.9(9) 59.7(4) 64.4(10)
O1 O2 O2 5_4445 1_5455 90.0(15) 90.0(14) 90.0(14)
O1 O2 O2 5_4445 1_5655 90.0(15) 90.0(14) 90.0(14)
O1 O2 O2 5_4445 1_6555 174.5(3) 172.8(4) 176.3(3)
O1 O2 O3 5_4445 . 55.5(11) 54.4(12) 56.1(10)
O1 O2 O3 5_4445 1_6545 125.6(10) 122.1(9) 129.1(11)
O1 O2 O3 5_4445 1_6555 136.0(12) 134.8(13) 137.1(10)
O1 O2 O2 5_6455 1_4555 174.5(3) 172.8(4) 176.3(3)
O1 O2 O2 5_6455 1_5455 90.0(15) 90.0(16) 90.0(16)
O1 O2 O2 5_6455 1_5655 90.0(15) 90.0(16) 90.0(16)
O1 O2 O3 5_6455 1_5545 136.0(12) 134.8(13) 137.1(10)
O1 O2 O3 5_6455 . 125.6(10) 122.1(9) 129.1(11)
O1 O2 O3 5_6455 1_6545 55.5(11) 54.4(12) 56.1(10)
O2 O2 O2 1_4555 1_5455 90.0(14) 90.0(12) 90.0(12)
O2 O2 O2 1_4555 1_5655 90.0(14) 90.0(12) 90.0(12)
O2 O2 O2 1_4555 1_6555 180.0(5) 180.0(5) 180.0(5)
O2 O2 O3 1_4555 1_5545 46.7(9) 44.9(6) 50.1(9)
O2 O2 O3 1_4555 . 48.2(9) 45.6(10) 51.1(12)
O2 O2 O3 1_4555 1_6545 131.6(9) 128.9(11) 134.4(10)
O2 O2 O3 1_4555 1_6555 133.8(9) 131.5(12) 135.1(6)
O2 O2 O2 1_5455 1_5655 180.0(5) 180.0(5) 180.0(5)
O2 O2 O2 1_5455 1_6555 90.0(9) 90.00(14) 90.00(14)
O2 O2 O3 1_5455 1_5545 90.0(6) 90.00(9) 90.00(9)
O2 O2 O3 1_5455 . 90.0(6) 90.00(10) 90.00(10)
O2 O2 O3 1_5455 1_6545 90.0(6) 90.00(9) 90.00(9)
O2 O2 O3 1_5455 1_6555 90.0(6) 90.00(9) 90.00(9)
O2 O2 O2 1_5655 1_6555 90.0(9) 90.00(14) 90.00(14)
O2 O2 O3 1_5655 1_5545 90.0(6) 90.00(9) 90.00(9)
O2 O2 O3 1_5655 . 90.0(6) 90.00(10) 90.00(10)
O2 O2 O3 1_5655 1_6545 90.0(6) 90.00(9) 90.00(9)
O2 O2 O3 1_5655 1_6555 90.0(6) 90.00(9) 90.00(9)
O2 O2 O3 1_6555 1_5545 133.7(9) 131.5(12) 135.1(6)
O2 O2 O3 1_6555 . 131.6(9) 128.9(11) 134.4(10)
O2 O2 O3 1_6555 1_6545 48.3(9) 45.6(10) 51.1(12)
O2 O2 O3 1_6555 1_6555 46.7(9) 44.9(6) 50.1(9)
O3 O2 O3 1_5545 . 94.9(15) 92.1(10) 100.8(16)
O3 O2 O3 1_5545 1_6545 84.8(7) 80.4(6) 88.9(8)
O3 O2 O3 1_5545 1_6555 179.3(14) 178.9(16) 179.9(7)
O3 O2 O3 . 1_6545 176.7(15) 174.7(19) 179.9(18)
O3 O2 O3 . 1_6555 84.9(7) 80.4(7) 88.9(7)
O3 O2 O3 1_6545 1_6555 95.0(15) 92.1(11) 100.8(16)
Fe1 O3 Fe1 . 1_5565 177.9(6) 170.4(6) 180.0(5)
Fe1 O3 Pb1 . 1_4555 76.5(6) 74.8(6) 79.1(6)
Fe1 O3 Pb1 . 1_6565 109.7(6) 108.4(7) 110.5(6)
Fe1 O3 Pb1 . 5_4455 91.5(8) 72.8(6) 109.8(7)
Fe1 O3 Pb1 . 5_4555 91.5(8) 72.8(6) 109.8(7)
Fe1 O3 Pb1 . 5_5455 88.8(8) 76.0(7) 101.4(7)
Fe1 O3 Pb1 . 5_5555 88.8(8) 76.0(7) 101.4(7)
Fe1 O3 Bi1 . 1_4555 75.8(6) 74.0(7) 78.8(6)
Fe1 O3 Bi1 . . 13.3(16) 13.3(16) 13.3(16)
Fe1 O3 Bi1 . 1_6565 110.1(6) 109.0(7) 110.8(6)
Fe1 O3 Bi1 . 5_4455 91.6(8) 72.5(6) 110.6(7)
Fe1 O3 Bi1 . 5_4555 91.6(8) 72.5(6) 110.6(7)
Fe1 O3 Bi1 . 5_5455 88.8(8) 75.4(7) 101.6(7)
Fe1 O3 Bi1 . 5_5555 88.8(8) 75.4(7) 101.6(7)
Fe1 O3 O1 . 1_5455 41.4(5) 38.1(4) 43.8(6)
Fe1 O3 O1 . 1_5465 138.5(5) 136.1(6) 141.4(5)
Fe1 O3 O1 . . 41.4(5) 38.1(4) 43.8(6)
Fe1 O3 O1 . 1_5565 138.5(5) 136.1(6) 141.4(5)
Fe1 O3 O1 . 5_4445 36.4(9) 35.2(9) 38.3(9)
Fe1 O3 O1 . 5_4465 140.6(9) 138.7(8) 142.4(9)
Fe1 O3 O1 . 5_5445 33.3(8) 32.9(8) 33.5(8)
Fe1 O3 O1 . 5_5465 147.3(9) 142.0(9) 151.0(10)
Fe1 O3 O2 . 1_4555 41.9(13) 38.7(13) 44.5(13)
Fe1 O3 O2 . 1_4565 138.3(13) 133.8(13) 149.6(13)
Fe1 O3 O2 . . 42.7(13) 39.0(12) 45.1(13)
Fe1 O3 O2 . 1_5565 137.2(13) 131.1(13) 140.7(13)
Fe1 O3 O3 . 1_4555 88.9(8) 85.5(7) 90.4(7)
Fe1 O3 O3 . 1_5455 90.0(7) 90.0(6) 90.0(6)
Fe1 O3 O3 . 1_5655 90.0(7) 90.0(6) 90.0(6)
Fe1 O3 O3 . 1_6555 90.3(8) 85.6(7) 93.7(9)
Fe1 O3 Pb1 1_5565 1_4555 110.1(6) 109.2(6) 110.5(6)
Fe1 O3 Pb1 1_5565 1_6565 75.8(6) 74.6(7) 77.7(6)
Fe1 O3 Pb1 1_5565 5_4455 88.5(8) 75.8(7) 101.4(7)
Fe1 O3 Pb1 1_5565 5_4555 88.5(8) 75.8(7) 101.4(7)
Fe1 O3 Pb1 1_5565 5_5455 91.0(8) 72.0(6) 109.0(8)
Fe1 O3 Pb1 1_5565 5_5555 91.0(8) 72.0(6) 109.0(8)
Fe1 O3 Bi1 1_5565 1_4555 110.2(6) 108.9(7) 110.8(6)
Fe1 O3 Bi1 1_5565 . 176.3(18) 176.3(18) 176.3(18)
Fe1 O3 Bi1 1_5565 1_6565 75.3(6) 74.0(7) 77.4(6)
Fe1 O3 Bi1 1_5565 5_4455 88.5(8) 75.1(7) 101.6(7)
Fe1 O3 Bi1 1_5565 5_4555 88.5(8) 75.1(7) 101.6(7)
Fe1 O3 Bi1 1_5565 5_5455 91.0(8) 71.7(6) 109.6(7)
Fe1 O3 Bi1 1_5565 5_5555 91.0(8) 71.7(6) 109.6(7)
Fe1 O3 O1 1_5565 1_5455 138.5(5) 136.1(6) 141.4(5)
Fe1 O3 O1 1_5565 1_5465 41.4(5) 38.1(4) 43.8(6)
Fe1 O3 O1 1_5565 . 138.5(5) 136.1(6) 141.4(5)
Fe1 O3 O1 1_5565 1_5565 41.4(5) 38.1(4) 43.8(6)
Fe1 O3 O1 1_5565 5_4445 147.5(9) 141.7(9) 151.3(10)
Fe1 O3 O1 1_5565 5_4465 33.4(8) 33.1(8) 33.5(9)
Fe1 O3 O1 1_5565 5_5445 140.1(9) 137.5(8) 142.6(9)
Fe1 O3 O1 1_5565 5_5465 36.2(9) 35.1(9) 38.0(9)
Fe1 O3 O2 1_5565 1_4555 137.3(13) 131.7(13) 140.7(13)
Fe1 O3 O2 1_5565 1_4565 42.6(13) 38.9(12) 45.1(13)
Fe1 O3 O2 1_5565 . 137.9(13) 133.8(13) 147.4(13)
Fe1 O3 O2 1_5565 1_5565 41.7(13) 38.7(13) 44.5(13)
Fe1 O3 O3 1_5565 1_4555 90.5(8) 86.3(7) 94.2(8)
Fe1 O3 O3 1_5565 1_5455 90.0(7) 90.0(6) 90.0(6)
Fe1 O3 O3 1_5565 1_5655 90.0(7) 90.0(6) 90.0(6)
Fe1 O3 O3 1_5565 1_6555 88.7(8) 84.8(7) 90.4(7)
Pb1 O3 Pb1 1_4555 5_4455 59.9(6) 57.1(6) 62.7(6)
Pb1 O3 Pb1 1_4555 5_4555 59.9(6) 57.1(6) 62.7(6)
Pb1 O3 Pb1 1_4555 5_5455 138.2(4) 136.8(4) 139.6(4)
Pb1 O3 Pb1 1_4555 5_5555 138.2(4) 136.8(4) 139.6(4)
Pb1 O3 Bi1 1_4555 1_4555 0.4(4) 0.3(5) 0.5(4)
Pb1 O3 Bi1 1_4555 . 65.8(17) 65.8(17) 65.8(17)
Pb1 O3 Bi1 1_4555 5_4455 59.8(6) 57.1(6) 62.6(6)
Pb1 O3 Bi1 1_4555 5_4555 59.8(6) 57.1(6) 62.6(6)
Pb1 O3 Bi1 1_4555 5_5455 138.1(4) 136.8(4) 139.5(4)
Pb1 O3 Bi1 1_4555 5_5555 138.1(4) 136.8(4) 139.5(4)
Pb1 O3 O1 1_4555 1_5455 80.0(10) 77.8(10) 82.9(9)
Pb1 O3 O1 1_4555 1_5465 103.1(10) 101.9(10) 104.1(10)
Pb1 O3 O1 1_4555 . 80.0(10) 77.8(10) 82.9(9)
Pb1 O3 O1 1_4555 1_5565 103.1(10) 101.9(10) 104.1(10)
Pb1 O3 O1 1_4555 5_4445 40.1(9) 39.6(8) 40.8(9)
Pb1 O3 O1 1_4555 5_5445 109.8(10) 108.2(11) 112.0(9)
Pb1 O3 O2 1_4555 1_4565 68.4(12) 66.1(12) 70.5(13)
Pb1 O3 O2 1_4555 1_5565 151.1(14) 149.8(13) 151.7(14)
Pb1 O3 O3 1_4555 1_5455 90.0(3) 90.0(3) 90.0(3)
Pb1 O3 O3 1_4555 1_5655 90.0(3) 90.0(3) 90.0(3)
Pb1 O3 O3 1_4555 1_6555 163.7(9) 163.1(10) 164.7(8)
Pb1 O3 Pb1 1_6565 5_4455 137.6(4) 136.3(5) 139.0(4)
Pb1 O3 Pb1 1_6565 5_4555 137.6(4) 136.3(5) 139.0(4)
Pb1 O3 Pb1 1_6565 5_5455 58.7(6) 56.0(6) 61.5(6)
Pb1 O3 Pb1 1_6565 5_5555 58.7(6) 56.0(6) 61.5(6)
Pb1 O3 Bi1 1_6565 1_6565 0.4(4) 0.3(5) 0.6(4)
Pb1 O3 Bi1 1_6565 5_4455 137.6(4) 136.3(5) 138.9(4)
Pb1 O3 Bi1 1_6565 5_4555 137.6(4) 136.3(5) 138.9(4)
Pb1 O3 Bi1 1_6565 5_5455 58.7(6) 55.9(6) 61.4(6)
Pb1 O3 Bi1 1_6565 5_5555 58.7(6) 55.9(6) 61.4(6)
Pb1 O3 O1 1_6565 1_5455 102.6(10) 101.3(10) 103.7(10)
Pb1 O3 O1 1_6565 1_5465 79.1(10) 77.4(10) 81.4(9)
Pb1 O3 O1 1_6565 . 102.6(10) 101.3(10) 103.7(10)
Pb1 O3 O1 1_6565 1_5565 79.1(10) 77.4(10) 81.4(9)
Pb1 O3 O1 1_6565 5_4465 109.4(10) 108.3(11) 110.8(9)
Pb1 O3 O1 1_6565 5_5465 39.9(8) 39.5(8) 40.5(9)
Pb1 O3 O2 1_6565 1_4555 151.4(14) 150.7(13) 151.7(15)
Pb1 O3 O2 1_6565 1_4565 113.5(14) 113.5(14) 113.5(14)
Pb1 O3 O2 1_6565 . 67.5(12) 64.9(12) 69.8(12)
Pb1 O3 O3 1_6565 1_4555 163.5(9) 163.2(9) 164.0(8)
Pb1 O3 O3 1_6565 1_5455 90.0(3) 90.0(3) 90.0(3)
Pb1 O3 O3 1_6565 1_5655 90.0(3) 90.0(3) 90.0(3)
Pb1 O3 Pb1 5_4455 5_4555 89.1(6) 81.9(5) 101.7(7)
Pb1 O3 Pb1 5_4455 5_5455 88.0(6) 80.1(5) 91.8(4)
Pb1 O3 Pb1 5_4455 5_5555 163.0(11) 146.2(8) 179.3(6)
Pb1 O3 Bi1 5_4455 1_4555 59.4(4) 56.1(4) 62.8(3)
Pb1 O3 Bi1 5_4455 . 102.0(11) 102.0(11) 102.0(11)
Pb1 O3 Bi1 5_4455 1_6565 137.6(3) 136.3(4) 139.0(3)
Pb1 O3 Bi1 5_4455 5_4455 0.1(5) 0.0(5) 0.9(6)
Pb1 O3 Bi1 5_4455 5_4555 89.0(6) 82.0(5) 101.0(7)
Pb1 O3 Bi1 5_4455 5_5455 88.0(6) 79.9(5) 91.8(4)
Pb1 O3 Bi1 5_4455 5_5555 162.9(11) 145.9(8) 179.3(6)
Pb1 O3 O1 5_4455 1_5455 63.6(9) 50.7(10) 78.7(7)
Pb1 O3 O1 5_4455 1_5465 60.9(9) 45.2(8) 74.7(8)
Pb1 O3 O1 5_4455 . 119.4(11) 103.1(9) 139.3(9)
Pb1 O3 O1 5_4455 1_5565 116.8(11) 107.1(11) 126.4(13)
Pb1 O3 O1 5_4455 5_4445 80.6(7) 73.6(8) 86.4(6)
Pb1 O3 O1 5_4455 5_4465 76.7(7) 76.3(7) 77.0(8)
Pb1 O3 O1 5_4455 5_5445 125.3(6) 125.0(4) 125.5(6)
Pb1 O3 O1 5_4455 5_5465 124.4(9) 123.2(10) 126.6(7)
Pb1 O3 O2 5_4455 1_4555 59.8(8) 47.6(6) 72.2(10)
Pb1 O3 O2 5_4455 1_4565 59.6(8) 51.0(7) 73.2(10)
Pb1 O3 O2 5_4455 . 118.3(10) 103.3(11) 127.5(9)
Pb1 O3 O2 5_4455 1_5565 113.9(10) 100.3(9) 123.0(11)
Pb1 O3 O3 5_4455 1_4555 45.5(3) 43.8(2) 49.7(4)
Pb1 O3 O3 5_4455 1_5455 45.5(3) 39.1(3) 49.1(4)
Pb1 O3 O3 5_4455 1_5655 134.5(4) 130.9(5) 140.9(5)
Pb1 O3 O3 5_4455 1_6555 133.8(3) 123.8(4) 136.3(2)
Pb1 O3 Pb1 5_4555 5_5455 163.0(11) 146.2(8) 179.3(6)
Pb1 O3 Pb1 5_4555 5_5555 88.0(6) 80.1(5) 91.8(4)
Pb1 O3 Bi1 5_4555 1_4555 59.4(4) 56.1(4) 62.8(3)
Pb1 O3 Bi1 5_4555 . 102.0(11) 102.0(11) 102.0(11)
Pb1 O3 Bi1 5_4555 1_6565 137.6(3) 136.3(4) 139.0(3)
Pb1 O3 Bi1 5_4555 5_4455 89.0(6) 82.0(5) 101.0(7)
Pb1 O3 Bi1 5_4555 5_4555 0.1(5) 0.0(5) 0.9(6)
Pb1 O3 Bi1 5_4555 5_5455 162.9(11) 145.9(8) 179.3(6)
Pb1 O3 Bi1 5_4555 5_5555 88.0(6) 79.9(5) 91.8(4)
Pb1 O3 O1 5_4555 1_5455 119.4(11) 103.1(9) 139.3(9)
Pb1 O3 O1 5_4555 1_5465 116.8(11) 107.1(11) 126.4(13)
Pb1 O3 O1 5_4555 . 63.6(9) 50.7(10) 78.7(7)
Pb1 O3 O1 5_4555 1_5565 60.9(9) 45.2(8) 74.7(8)
Pb1 O3 O1 5_4555 5_4445 80.6(7) 73.6(8) 86.4(6)
Pb1 O3 O1 5_4555 5_4465 76.7(7) 76.3(7) 77.0(8)
Pb1 O3 O1 5_4555 5_5445 125.3(6) 125.0(4) 125.5(6)
Pb1 O3 O1 5_4555 5_5465 124.4(9) 123.2(10) 126.6(7)
Pb1 O3 O2 5_4555 1_4555 59.8(8) 47.6(6) 72.2(10)
Pb1 O3 O2 5_4555 1_4565 59.6(8) 51.0(7) 73.2(10)
Pb1 O3 O2 5_4555 . 118.3(10) 103.3(11) 127.5(9)
Pb1 O3 O2 5_4555 1_5565 113.9(10) 100.3(9) 123.0(11)
Pb1 O3 O3 5_4555 1_4555 45.5(3) 43.8(2) 49.7(4)
Pb1 O3 O3 5_4555 1_5455 134.5(4) 130.9(5) 140.9(5)
Pb1 O3 O3 5_4555 1_5655 45.5(3) 39.1(3) 49.1(4)
Pb1 O3 O3 5_4555 1_6555 133.8(3) 123.8(4) 136.3(2)
Pb1 O3 Pb1 5_5455 5_5555 88.6(6) 80.5(5) 99.3(7)
Pb1 O3 Bi1 5_5455 1_4555 137.9(3) 136.3(4) 139.7(2)
Pb1 O3 Bi1 5_5455 . 110.7(13) 110.7(13) 110.7(13)
Pb1 O3 Bi1 5_5455 1_6565 59.0(4) 56.3(4) 61.6(3)
Pb1 O3 Bi1 5_5455 5_4455 88.0(6) 80.5(6) 91.8(4)
Pb1 O3 Bi1 5_5455 5_4555 162.9(11) 145.7(9) 179.3(5)
Pb1 O3 Bi1 5_5455 5_5455 0.1(5) 0.0(5) 0.8(5)
Pb1 O3 Bi1 5_5455 5_5555 88.5(6) 80.6(5) 98.6(6)
Pb1 O3 O1 5_5455 1_5455 61.3(9) 45.6(9) 74.7(8)
Pb1 O3 O1 5_5455 1_5465 63.2(9) 50.4(10) 78.2(7)
Pb1 O3 O1 5_5455 . 116.9(11) 107.1(11) 126.4(13)
Pb1 O3 O1 5_5455 1_5565 118.7(11) 101.6(9) 137.5(9)
Pb1 O3 O1 5_5455 5_4445 124.6(9) 123.2(10) 127.3(7)
Pb1 O3 O1 5_5455 5_4465 125.4(6) 125.3(8) 125.5(6)
Pb1 O3 O1 5_5455 5_5445 76.6(7) 76.0(7) 77.1(8)
Pb1 O3 O1 5_5455 5_5465 80.2(7) 73.9(8) 85.5(7)
Pb1 O3 O2 5_5455 1_4555 114.1(10) 101.6(9) 122.9(11)
Pb1 O3 O2 5_5455 1_4565 118.1(10) 102.2(10) 127.5(9)
Pb1 O3 O2 5_5455 . 59.4(8) 51.0(7) 73.2(10)
Pb1 O3 O2 5_5455 1_5565 59.7(8) 47.0(6) 72.3(10)
Pb1 O3 O3 5_5455 1_4555 134.0(3) 125.4(4) 136.3(2)
Pb1 O3 O3 5_5455 1_5455 45.7(3) 40.4(3) 49.8(3)
Pb1 O3 O3 5_5455 1_5655 134.3(4) 130.2(4) 139.6(5)
Pb1 O3 O3 5_5455 1_6555 45.3(3) 43.7(4) 48.8(4)
Pb1 O3 Bi1 5_5555 1_4555 137.9(3) 136.3(4) 139.7(2)
Pb1 O3 Bi1 5_5555 . 110.7(13) 110.7(13) 110.7(13)
Pb1 O3 Bi1 5_5555 1_6565 59.0(4) 56.3(4) 61.6(3)
Pb1 O3 Bi1 5_5555 5_4455 162.9(11) 145.7(9) 179.3(5)
Pb1 O3 Bi1 5_5555 5_4555 88.0(6) 80.5(6) 91.8(4)
Pb1 O3 Bi1 5_5555 5_5455 88.5(6) 80.6(5) 98.6(6)
Pb1 O3 Bi1 5_5555 5_5555 0.1(5) 0.0(5) 0.8(5)
Pb1 O3 O1 5_5555 1_5455 116.9(11) 107.1(11) 126.4(13)
Pb1 O3 O1 5_5555 1_5465 118.7(11) 101.6(9) 137.5(9)
Pb1 O3 O1 5_5555 . 61.3(9) 45.6(9) 74.7(8)
Pb1 O3 O1 5_5555 1_5565 63.2(9) 50.4(10) 78.2(7)
Pb1 O3 O1 5_5555 5_4445 124.6(9) 123.2(10) 127.3(7)
Pb1 O3 O1 5_5555 5_4465 125.4(6) 125.3(8) 125.5(6)
Pb1 O3 O1 5_5555 5_5445 76.6(7) 76.0(7) 77.1(8)
Pb1 O3 O1 5_5555 5_5465 80.2(7) 73.9(8) 85.5(7)
Pb1 O3 O2 5_5555 1_4555 114.1(10) 101.6(9) 122.9(11)
Pb1 O3 O2 5_5555 1_4565 118.1(10) 102.2(10) 127.5(9)
Pb1 O3 O2 5_5555 . 59.4(8) 51.0(7) 73.2(10)
Pb1 O3 O2 5_5555 1_5565 59.7(8) 47.0(6) 72.3(10)
Pb1 O3 O3 5_5555 1_4555 134.0(3) 125.4(4) 136.3(2)
Pb1 O3 O3 5_5555 1_5455 134.3(4) 130.2(4) 139.6(5)
Pb1 O3 O3 5_5555 1_5655 45.7(3) 40.4(3) 49.8(3)
Pb1 O3 O3 5_5555 1_6555 45.3(3) 43.7(4) 48.8(4)
Bi1 O3 Bi1 1_4555 . 65.6(17) 65.6(17) 65.6(17)
Bi1 O3 Bi1 1_4555 5_4455 59.4(6) 56.0(6) 62.7(6)
Bi1 O3 Bi1 1_4555 5_4555 59.4(6) 56.0(6) 62.7(6)
Bi1 O3 Bi1 1_4555 5_5455 137.8(4) 136.2(5) 139.5(4)
Bi1 O3 Bi1 1_4555 5_5555 137.8(4) 136.2(5) 139.5(4)
Bi1 O3 O1 1_4555 1_5455 79.2(10) 76.9(10) 82.7(9)
Bi1 O3 O1 1_4555 1_5465 103.1(10) 101.6(10) 104.2(10)
Bi1 O3 O1 1_4555 . 79.2(10) 76.9(10) 82.7(9)
Bi1 O3 O1 1_4555 1_5565 103.1(10) 101.6(10) 104.2(10)
Bi1 O3 O1 1_4555 5_4445 39.6(9) 38.8(8) 40.6(9)
Bi1 O3 O1 1_4555 5_5445 109.4(10) 107.7(11) 111.7(9)
Bi1 O3 O2 1_4555 1_4565 68.2(12) 65.3(12) 70.7(13)
Bi1 O3 O2 1_4555 . 113.0(14) 113.0(14) 113.0(14)
Bi1 O3 O2 1_4555 1_5565 151.6(14) 150.1(13) 152.2(15)
Bi1 O3 O3 1_4555 1_4555 14.6(6) 14.6(6) 14.6(6)
Bi1 O3 O3 1_4555 1_5455 90.0(3) 90.0(3) 90.0(3)
Bi1 O3 O3 1_4555 1_5655 90.0(3) 90.0(3) 90.0(3)
Bi1 O3 O3 1_4555 1_6555 163.2(9) 162.7(10) 164.5(8)
Bi1 O3 Bi1 . 5_4455 102.6(8) 102.6(8) 102.6(8)
Bi1 O3 Bi1 . 5_4555 102.6(8) 102.6(8) 102.6(8)
Bi1 O3 Bi1 . 5_5455 111.0(8) 111.0(8) 111.0(8)
Bi1 O3 Bi1 . 5_5555 111.0(8) 111.0(8) 111.0(8)
Bi1 O3 O1 . 1_5455 40.5(5) 40.5(5) 40.5(5)
Bi1 O3 O1 . 1_5465 139.2(4) 139.2(4) 139.2(4)
Bi1 O3 O1 . . 40.5(5) 40.5(5) 40.5(5)
Bi1 O3 O1 . 1_5565 139.2(4) 139.2(4) 139.2(4)
Bi1 O3 O1 . 5_4445 25.0(10) 25.0(10) 25.0(10)
Bi1 O3 O1 . 5_5445 46.1(10) 46.1(10) 46.1(10)
Bi1 O3 O2 . 1_4565 136.3(14) 136.3(14) 136.3(14)
Bi1 O3 O2 . 1_5565 144.3(15) 144.3(15) 144.3(15)
Bi1 O3 O3 . 1_5455 90.0(7) 90.0(7) 90.0(7)
Bi1 O3 O3 . 1_5655 90.0(7) 90.0(7) 90.0(7)
Bi1 O3 O3 . 1_6555 98.9(10) 98.9(10) 98.9(10)
Bi1 O3 Bi1 1_6565 5_4455 137.6(4) 136.3(5) 138.9(4)
Bi1 O3 Bi1 1_6565 5_4555 137.6(4) 136.3(5) 138.9(4)
Bi1 O3 Bi1 1_6565 5_5455 58.9(6) 56.2(6) 61.5(6)
Bi1 O3 Bi1 1_6565 5_5555 58.9(6) 56.2(6) 61.5(6)
Bi1 O3 O1 1_6565 1_5455 102.9(10) 101.7(10) 104.0(10)
Bi1 O3 O1 1_6565 1_5465 78.7(10) 77.0(10) 81.1(9)
Bi1 O3 O1 1_6565 . 102.9(10) 101.7(10) 104.0(10)
Bi1 O3 O1 1_6565 1_5565 78.7(10) 77.0(10) 81.1(9)
Bi1 O3 O1 1_6565 5_4465 109.0(10) 107.8(11) 110.5(9)
Bi1 O3 O1 1_6565 5_5465 39.5(8) 38.9(8) 40.2(9)
Bi1 O3 O2 1_6565 1_4555 151.8(14) 151.0(13) 152.2(15)
Bi1 O3 O2 1_6565 1_4565 112.9(14) 112.9(14) 112.9(14)
Bi1 O3 O2 1_6565 . 67.9(12) 65.5(12) 70.1(12)
Bi1 O3 O3 1_6565 1_4555 163.0(9) 162.7(10) 163.7(8)
Bi1 O3 O3 1_6565 1_5455 90.0(3) 90.0(3) 90.0(3)
Bi1 O3 O3 1_6565 1_5655 90.0(3) 90.0(3) 90.0(3)
Bi1 O3 Bi1 5_4455 5_4555 89.0(6) 82.0(5) 100.2(7)
Bi1 O3 Bi1 5_4455 5_5455 88.0(6) 80.3(5) 91.8(4)
Bi1 O3 Bi1 5_4455 5_5555 162.9(11) 145.5(8) 179.3(6)
Bi1 O3 O1 5_4455 1_5455 63.6(9) 50.4(10) 79.5(7)
Bi1 O3 O1 5_4455 1_5465 60.9(9) 44.9(8) 74.8(8)
Bi1 O3 O1 5_4455 . 119.4(11) 102.9(9) 139.7(9)
Bi1 O3 O1 5_4455 1_5565 116.8(11) 106.6(10) 126.4(13)
Bi1 O3 O1 5_4455 5_4445 80.7(7) 73.6(8) 86.8(6)
Bi1 O3 O1 5_4455 5_4465 76.9(7) 76.6(7) 77.2(8)
Bi1 O3 O1 5_4455 5_5445 126.0(6) 125.7(8) 126.1(6)
Bi1 O3 O1 5_4455 5_5465 124.4(9) 123.2(10) 126.7(7)
Bi1 O3 O2 5_4455 1_4555 59.8(8) 47.5(6) 72.2(10)
Bi1 O3 O2 5_4455 1_4565 59.5(8) 50.9(7) 73.3(10)
Bi1 O3 O2 5_4455 . 118.3(10) 103.0(11) 127.8(9)
Bi1 O3 O2 5_4455 1_5565 113.9(10) 100.0(9) 123.0(11)
Bi1 O3 O3 5_4455 1_4555 45.5(3) 43.8(2) 49.5(4)
Bi1 O3 O3 5_4455 1_5455 45.5(3) 39.9(3) 49.0(4)
Bi1 O3 O3 5_4455 1_5655 134.5(4) 131.0(5) 140.1(5)
Bi1 O3 O3 5_4455 1_6555 133.8(3) 124.2(4) 136.3(2)
Bi1 O3 Bi1 5_4555 5_5455 162.9(11) 145.5(8) 179.3(6)
Bi1 O3 Bi1 5_4555 5_5555 88.0(6) 80.3(5) 91.8(4)
Bi1 O3 O1 5_4555 1_5455 119.4(11) 102.9(9) 139.7(9)
Bi1 O3 O1 5_4555 1_5465 116.8(11) 106.6(10) 126.4(13)
Bi1 O3 O1 5_4555 . 63.6(9) 50.4(10) 79.5(7)
Bi1 O3 O1 5_4555 1_5565 60.9(9) 44.9(8) 74.8(8)
Bi1 O3 O1 5_4555 5_4445 80.7(7) 73.6(8) 86.8(6)
Bi1 O3 O1 5_4555 5_4465 76.9(7) 76.6(7) 77.2(8)
Bi1 O3 O1 5_4555 5_5445 126.0(6) 125.7(8) 126.1(6)
Bi1 O3 O1 5_4555 5_5465 124.4(9) 123.2(10) 126.7(7)
Bi1 O3 O2 5_4555 1_4555 59.8(8) 47.5(6) 72.2(10)
Bi1 O3 O2 5_4555 1_4565 59.5(8) 50.9(7) 73.3(10)
Bi1 O3 O2 5_4555 . 118.3(10) 103.0(11) 127.8(9)
Bi1 O3 O2 5_4555 1_5565 113.9(10) 100.0(9) 123.0(11)
Bi1 O3 O3 5_4555 1_4555 45.5(3) 43.8(2) 49.5(4)
Bi1 O3 O3 5_4555 1_5455 134.5(4) 131.0(5) 140.1(5)
Bi1 O3 O3 5_4555 1_5655 45.5(3) 39.9(3) 49.0(4)
Bi1 O3 O3 5_4555 1_6555 133.8(3) 124.2(4) 136.3(2)
Bi1 O3 Bi1 5_5455 5_5555 88.5(5) 80.7(5) 98.0(6)
Bi1 O3 O1 5_5455 1_5455 61.3(9) 45.4(9) 74.8(8)
Bi1 O3 O1 5_5455 1_5465 63.2(9) 50.0(10) 79.0(7)
Bi1 O3 O1 5_5455 . 116.9(11) 106.7(10) 126.4(13)
Bi1 O3 O1 5_5455 1_5565 118.7(11) 101.5(9) 137.8(9)
Bi1 O3 O1 5_5455 5_4445 124.7(9) 123.2(10) 127.5(7)
Bi1 O3 O1 5_5455 5_4465 126.0(6) 125.7(8) 126.2(6)
Bi1 O3 O1 5_5455 5_5445 76.8(7) 76.3(7) 77.2(8)
Bi1 O3 O1 5_5455 5_5465 80.3(8) 73.9(8) 85.8(7)
Bi1 O3 O2 5_5455 1_4555 114.1(10) 101.4(9) 122.9(11)
Bi1 O3 O2 5_5455 1_4565 118.1(10) 101.9(10) 127.8(9)
Bi1 O3 O2 5_5455 . 59.3(8) 50.9(7) 73.3(10)
Bi1 O3 O2 5_5455 1_5565 59.7(8) 46.9(6) 72.3(10)
Bi1 O3 O3 5_5455 1_4555 134.1(3) 125.7(4) 136.3(2)
Bi1 O3 O3 5_5455 1_5455 45.8(3) 41.0(3) 49.7(3)
Bi1 O3 O3 5_5455 1_5655 134.2(4) 130.3(4) 139.0(5)
Bi1 O3 O3 5_5455 1_6555 45.3(3) 43.81(18) 48.7(4)
Bi1 O3 O1 5_5555 1_5455 116.9(11) 106.7(10) 126.4(13)
Bi1 O3 O1 5_5555 1_5465 118.7(11) 101.5(9) 137.8(9)
Bi1 O3 O1 5_5555 . 61.3(9) 45.4(9) 74.8(8)
Bi1 O3 O1 5_5555 1_5565 63.2(9) 50.0(10) 79.0(7)
Bi1 O3 O1 5_5555 5_4445 124.7(9) 123.2(10) 127.5(7)
Bi1 O3 O1 5_5555 5_4465 126.0(6) 125.7(8) 126.2(6)
Bi1 O3 O1 5_5555 5_5445 76.8(7) 76.3(7) 77.2(8)
Bi1 O3 O1 5_5555 5_5465 80.3(8) 73.9(8) 85.8(7)
Bi1 O3 O2 5_5555 1_4555 114.1(10) 101.4(9) 122.9(11)
Bi1 O3 O2 5_5555 1_4565 118.1(10) 101.9(10) 127.8(9)
Bi1 O3 O2 5_5555 . 59.3(8) 50.9(7) 73.3(10)
Bi1 O3 O2 5_5555 1_5565 59.7(8) 46.9(6) 72.3(10)
Bi1 O3 O3 5_5555 1_4555 134.1(3) 125.7(4) 136.3(2)
Bi1 O3 O3 5_5555 1_5455 134.2(4) 130.3(4) 139.0(5)
Bi1 O3 O3 5_5555 1_5655 45.8(3) 41.0(3) 49.7(3)
Bi1 O3 O3 5_5555 1_6555 45.3(3) 43.81(18) 48.7(4)
O1 O3 O1 1_5455 1_5465 97.1(4) 95.4(4) 101.0(4)
O1 O3 O1 1_5455 . 82.8(7) 76.0(5) 87.6(10)
O1 O3 O1 1_5455 1_5565 175.7(10) 172.1(10) 179.7(8)
O1 O3 O1 1_5455 5_4445 50.8(7) 49.8(7) 53.0(6)
O1 O3 O1 1_5455 5_4465 126.7(8) 125.8(8) 127.4(8)
O1 O3 O1 1_5455 5_5445 48.6(6) 47.5(5) 49.5(7)
O1 O3 O1 1_5455 5_5465 126.9(7) 123.4(7) 130.2(7)
O1 O3 O2 1_5455 1_4555 56.6(9) 51.7(11) 60.4(11)
O1 O3 O2 1_5455 1_4565 123.8(8) 120.2(10) 133.8(7)
O1 O3 O2 1_5455 . 56.8(9) 53.1(9) 58.8(7)
O1 O3 O2 1_5455 1_5565 123.9(8) 119.8(9) 125.5(10)
O1 O3 O3 1_5455 1_4555 89.1(8) 86.5(10) 91.7(8)
O1 O3 O3 1_5455 1_5455 48.6(7) 46.2(6) 52.0(6)
O1 O3 O3 1_5455 1_5655 131.4(9) 128.0(7) 133.8(11)
O1 O3 O3 1_5455 1_6555 90.5(7) 85.1(6) 92.5(10)
O1 O3 O1 1_5465 . 175.7(10) 172.1(12) 179.7(8)
O1 O3 O1 1_5465 1_5565 82.8(8) 76.3(5) 87.6(10)
O1 O3 O1 1_5465 5_4445 127.2(7) 123.2(6) 130.9(7)
O1 O3 O1 1_5465 5_4465 48.8(6) 48.0(5) 49.4(7)
O1 O3 O1 1_5465 5_5445 126.5(8) 125.3(8) 127.5(8)
O1 O3 O1 1_5465 5_5465 50.6(7) 49.8(7) 52.0(6)
O1 O3 O2 1_5465 1_4555 124.0(8) 120.6(9) 125.5(10)
O1 O3 O2 1_5465 1_4565 56.7(9) 53.0(9) 58.8(7)
O1 O3 O2 1_5465 . 123.5(8) 120.2(10) 132.3(7)
O1 O3 O2 1_5465 1_5565 56.4(9) 51.7(11) 60.4(11)
O1 O3 O3 1_5465 1_4555 90.7(7) 86.1(6) 92.5(10)
O1 O3 O3 1_5465 1_5455 48.6(7) 46.2(6) 51.9(6)
O1 O3 O3 1_5465 1_5655 131.4(9) 128.1(8) 133.8(11)
O1 O3 O3 1_5465 1_6555 89.0(8) 86.5(10) 91.7(8)
O1 O3 O1 . 1_5565 97.1(4) 95.4(4) 101.0(4)
O1 O3 O1 . 5_4445 50.8(7) 49.8(7) 53.0(6)
O1 O3 O1 . 5_4465 126.7(8) 125.8(8) 127.4(8)
O1 O3 O1 . 5_5445 48.6(6) 47.5(5) 49.5(7)
O1 O3 O1 . 5_5465 126.9(7) 123.4(7) 130.2(7)
O1 O3 O2 . 1_4555 56.6(9) 51.7(11) 60.4(11)
O1 O3 O2 . 1_4565 123.8(8) 120.2(10) 133.8(7)
O1 O3 O2 . . 56.8(9) 53.1(9) 58.8(7)
O1 O3 O2 . 1_5565 123.9(8) 119.8(9) 125.5(10)
O1 O3 O3 . 1_4555 89.1(8) 86.5(10) 91.7(8)
O1 O3 O3 . 1_5455 131.4(9) 128.0(7) 133.8(11)
O1 O3 O3 . 1_5655 48.6(7) 46.2(6) 52.0(6)
O1 O3 O3 . 1_6555 90.5(7) 85.1(6) 92.5(10)
O1 O3 O1 1_5565 5_4445 127.2(7) 123.2(6) 130.9(7)
O1 O3 O1 1_5565 5_4465 48.8(6) 48.0(5) 49.4(7)
O1 O3 O1 1_5565 5_5445 126.5(8) 125.3(8) 127.5(8)
O1 O3 O1 1_5565 5_5465 50.6(7) 49.8(7) 52.0(6)
O1 O3 O2 1_5565 1_4555 124.0(8) 120.6(9) 125.5(10)
O1 O3 O2 1_5565 1_4565 56.7(9) 53.0(9) 58.8(7)
O1 O3 O2 1_5565 . 123.5(8) 120.2(10) 132.3(7)
O1 O3 O2 1_5565 1_5565 56.4(9) 51.7(11) 60.4(11)
O1 O3 O3 1_5565 1_4555 90.7(7) 86.1(6) 92.5(10)
O1 O3 O3 1_5565 1_5455 131.4(9) 128.1(8) 133.8(11)
O1 O3 O3 1_5565 1_5655 48.6(7) 46.2(6) 51.9(6)
O1 O3 O3 1_5565 1_6555 89.0(8) 86.5(10) 91.7(8)
O1 O3 O1 5_4445 5_5445 69.7(10) 68.6(11) 71.1(10)
O1 O3 O2 5_4445 1_4565 104.6(13) 96.9(12) 111.3(14)
O1 O3 O2 5_4445 . 75.8(14) 74.1(14) 78.0(15)
O1 O3 O2 5_4445 1_5565 170.0(15) 168.5(14) 173.9(16)
O1 O3 O3 5_4445 1_4555 51.8(7) 49.7(7) 53.4(7)
O1 O3 O3 5_4445 1_5455 90.0(6) 90.0(6) 90.0(6)
O1 O3 O3 5_4445 1_5655 90.0(6) 90.0(6) 90.0(6)
O1 O3 O3 5_4445 1_6555 124.8(10) 123.3(10) 128.5(12)
O1 O3 O1 5_4465 5_5465 69.4(10) 68.7(10) 70.3(10)
O1 O3 O2 5_4465 1_4555 99.2(13) 98.5(13) 100.0(13)
O1 O3 O2 5_4465 . 177.3(14) 174.6(14) 179.5(13)
O1 O3 O3 5_4465 1_4555 54.0(7) 53.2(7) 54.9(7)
O1 O3 O3 5_4465 1_5455 90.0(6) 90.0(6) 90.0(6)
O1 O3 O3 5_4465 1_5655 90.0(6) 90.0(6) 90.0(6)
O1 O3 O2 5_5445 1_4565 177.2(14) 174.4(14) 179.8(13)
O1 O3 O2 5_5445 1_5565 99.1(13) 98.2(13) 100.1(13)
O1 O3 O3 5_5445 1_5455 90.0(6) 90.0(5) 90.0(5)
O1 O3 O3 5_5445 1_5655 90.0(6) 90.0(5) 90.0(5)
O1 O3 O3 5_5445 1_6555 53.8(7) 52.8(7) 55.0(7)
O1 O3 O2 5_5465 1_4555 170.0(15) 168.5(14) 173.6(16)
O1 O3 O2 5_5465 1_4565 75.6(14) 74.1(14) 77.8(15)
O1 O3 O2 5_5465 . 104.1(13) 97.2(12) 110.2(14)
O1 O3 O3 5_5465 1_4555 124.8(10) 123.3(10) 128.2(12)
O1 O3 O3 5_5465 1_5455 90.0(6) 90.0(7) 90.0(7)
O1 O3 O3 5_5465 1_5655 90.0(6) 90.0(7) 90.0(7)
O1 O3 O3 5_5465 1_6555 51.6(7) 49.9(7) 53.0(7)
O2 O3 O2 1_4555 1_4565 95.4(14) 94.8(16) 95.9(12)
O2 O3 O2 1_4555 . 85.1(15) 78.9(16) 89.5(15)
O2 O3 O2 1_4555 1_5565 177.0(15) 174.8(16) 179.8(14)
O2 O3 O3 1_4555 1_4555 47.1(9) 45.1(11) 49.2(12)
O2 O3 O3 1_4555 1_5455 90.0(5) 90.0(5) 90.0(5)
O2 O3 O3 1_4555 1_5655 90.0(5) 90.0(5) 90.0(5)
O2 O3 O3 1_4555 1_6555 132.9(11) 129.3(14) 137.2(14)
O2 O3 O2 1_4565 . 176.3(15) 174.5(17) 179.7(12)
O2 O3 O2 1_4565 1_5565 84.7(15) 78.9(18) 89.5(17)
O2 O3 O3 1_4565 1_4555 48.2(9) 45.7(7) 50.7(12)
O2 O3 O3 1_4565 1_5455 90.0(6) 90.0(5) 90.0(5)
O2 O3 O3 1_4565 1_5655 90.0(6) 90.0(5) 90.0(5)
O2 O3 O3 1_4565 1_6555 131.4(11) 124.8(10) 135.4(11)
O2 O3 O2 . 1_5565 95.4(14) 94.8(12) 95.9(16)
O2 O3 O3 . 1_4555 131.6(11) 126.2(11) 135.4(11)
O2 O3 O3 . 1_5455 90.0(6) 90.0(5) 90.0(5)
O2 O3 O3 . 1_5655 90.0(6) 90.0(5) 90.0(5)
O2 O3 O3 . 1_6555 48.0(9) 45.7(7) 50.4(11)
O2 O3 O3 1_5565 1_4555 132.9(11) 129.3(14) 137.3(14)
O2 O3 O3 1_5565 1_5455 90.0(5) 90.0(5) 90.0(5)
O2 O3 O3 1_5565 1_5655 90.0(5) 90.0(5) 90.0(5)
O2 O3 O3 1_5565 1_6555 47.1(9) 45.1(11) 49.2(12)
O3 O3 O3 1_4555 1_5455 90.00(15) 90.00(14) 90.00(14)
O3 O3 O3 1_4555 1_5655 90.00(15) 90.00(14) 90.00(14)
O3 O3 O3 1_4555 1_6555 178.8(10) 177.6(11) 180.0(5)
O3 O3 O3 1_5455 1_5655 180.0(5) 180.0(5) 180.0(5)
O3 O3 O3 1_5455 1_6555 90.00(7) 90.000(16) 90.000(16)
O3 O3 O3 1_5655 1_6555 90.00(7) 90.000(16) 90.000(16)
loop_
_geom_bond_atom_site_label_1
_geom_bond_atom_site_label_2
_geom_bond_site_ssg_symmetry_2
_geom_bond_distance_av
_geom_bond_distance_min
_geom_bond_distance_max
Fe1 Fe1 1_4555 3.922(12) 3.789(17) 3.996(17)
Fe1 Fe1 1_5455 3.9195 3.9195 3.9195
Fe1 Fe1 1_5545 4.187(11) 3.953(13) 4.671(13)
Fe1 Fe1 1_5565 4.187(11) 3.953(13) 4.671(13)
Fe1 Fe1 1_5655 3.9195 3.9195 3.9195
Fe1 Fe1 1_6555 3.922(12) 3.789(17) 3.996(17)
Fe1 Fe1 5_4445 3.103(8) 3.084(9) 3.116(9)
Fe1 Fe1 5_4455 3.067(6) 3.055(6) 3.079(6)
Fe1 Fe1 5_4545 3.103(8) 3.084(9) 3.116(9)
Fe1 Fe1 5_4555 3.067(6) 3.055(6) 3.079(6)
Fe1 Fe1 5_5445 3.067(6) 3.055(6) 3.079(6)
Fe1 Fe1 5_5455 3.103(8) 3.084(9) 3.116(9)
Fe1 Fe1 5_5545 3.067(6) 3.055(6) 3.079(6)
Fe1 Fe1 5_5555 3.103(8) 3.084(9) 3.116(9)
Fe1 Pb1 1_5545 3.964(17) 3.82(2) 4.03(2)
Fe1 Pb1 1_5565 3.964(17) 3.82(2) 4.03(2)
Fe1 Pb1 5_4445 3.446(14) 3.30(2) 3.83(2)
Fe1 Pb1 5_4455 3.507(14) 3.33(2) 3.68(2)
Fe1 Pb1 5_4545 3.446(14) 3.30(2) 3.83(2)
Fe1 Pb1 5_4555 3.507(14) 3.33(2) 3.68(2)
Fe1 Pb1 5_5445 3.507(14) 3.33(2) 3.68(2)
Fe1 Pb1 5_5455 3.446(14) 3.30(2) 3.83(2)
Fe1 Pb1 5_5545 3.507(14) 3.33(2) 3.68(2)
Fe1 Pb1 5_5555 3.446(14) 3.30(2) 3.83(2)
Fe1 Bi1 1_5545 3.981(17) 3.82(2) 4.05(2)
Fe1 Bi1 . 0.816(9) 0.816(9) 0.816(9)
Fe1 Bi1 1_5565 3.981(17) 3.82(2) 4.05(2)
Fe1 Bi1 5_4445 3.443(14) 3.30(2) 3.84(2)
Fe1 Bi1 5_4455 3.511(14) 3.33(2) 3.69(2)
Fe1 Bi1 5_4545 3.443(14) 3.30(2) 3.84(2)
Fe1 Bi1 5_4555 3.511(14) 3.33(2) 3.69(2)
Fe1 Bi1 5_5445 3.511(14) 3.33(2) 3.69(2)
Fe1 Bi1 5_5455 3.443(14) 3.30(2) 3.84(2)
Fe1 Bi1 5_5545 3.511(14) 3.33(2) 3.69(2)
Fe1 Bi1 5_5555 3.443(14) 3.30(2) 3.84(2)
Fe1 O1 1_5455 2.014(4) 1.960(7) 2.071(7)
Fe1 O1 . 2.014(4) 1.960(7) 2.071(7)
Fe1 O1 5_4445 2.09(2) 2.02(3) 2.22(3)
Fe1 O1 5_4455 1.980(16) 1.890(19) 2.039(19)
Fe1 O1 5_5445 1.980(16) 1.890(19) 2.039(19)
Fe1 O1 5_5455 2.09(2) 2.02(3) 2.22(3)
Fe1 O2 1_4555 2.01(4) 1.98(7) 2.02(7)
Fe1 O2 . 2.01(4) 1.98(7) 2.02(7)
Fe1 O3 1_5545 2.09(2) 1.83(4) 2.79(4)
Fe1 O3 . 2.09(2) 1.83(4) 2.79(4)
Pb1 Pb1 1_4555 3.90(2) 3.63(3) 4.05(3)
Pb1 Pb1 1_5455 3.9195 3.9195 3.9195
Pb1 Pb1 1_5545 4.03(2) 3.77(3) 4.54(3)
Pb1 Pb1 1_5565 4.03(2) 3.77(3) 4.54(3)
Pb1 Pb1 1_5655 3.9195 3.9195 3.9195
Pb1 Pb1 1_6555 3.90(2) 3.63(3) 4.05(3)
Pb1 Pb1 5_4445 3.572(15) 3.570(16) 3.573(16)
Pb1 Pb1 5_4545 3.572(15) 3.570(16) 3.573(16)
Pb1 Pb1 5_5455 3.572(15) 3.570(16) 3.573(16)
Pb1 Pb1 5_5555 3.572(15) 3.570(16) 3.573(16)
Pb1 Bi1 1_4555 3.90(2) 3.62(3) 4.05(3)
Pb1 Bi1 1_5455 3.91954(5) 3.91951(14) 3.91973(14)
Pb1 Bi1 1_5545 4.04(2) 3.78(3) 4.59(3)
Pb1 Bi1 . 0.01(2) 0.00(4) 0.04(4)
Pb1 Bi1 1_5565 4.04(2) 3.78(3) 4.59(3)
Pb1 Bi1 1_5655 3.91954(5) 3.91951(14) 3.91973(14)
Pb1 Bi1 1_6555 3.90(2) 3.62(3) 4.05(3)
Pb1 Bi1 5_4445 3.572(15) 3.570(16) 3.573(16)
Pb1 Bi1 5_4545 3.572(15) 3.570(16) 3.573(16)
Pb1 Bi1 5_5455 3.572(15) 3.570(16) 3.573(16)
Pb1 Bi1 5_5555 3.572(15) 3.570(16) 3.573(16)
Pb1 O1 1_5445 3.881(19) 3.74(2) 3.94(2)
Pb1 O1 1_5465 3.881(19) 3.74(2) 3.94(2)
Pb1 O1 1_5545 3.881(19) 3.74(2) 3.94(2)
Pb1 O1 1_5565 3.881(19) 3.74(2) 3.94(2)
Pb1 O1 5_4445 2.94(3) 2.19(4) 3.74(4)
Pb1 O1 5_4455 2.99(3) 2.53(5) 3.65(5)
Pb1 O1 5_5445 2.99(3) 2.53(5) 3.65(5)
Pb1 O1 5_5455 2.94(3) 2.19(4) 3.74(4)
Pb1 O2 5_4445 2.837(10) 2.43(2) 3.50(2)
Pb1 O2 5_4455 2.837(10) 2.43(2) 3.50(2)
Pb1 O2 5_4545 2.837(10) 2.43(2) 3.50(2)
Pb1 O2 5_4555 2.837(10) 2.43(2) 3.50(2)
Pb1 O3 1_4545 4.076(17) 3.93(2) 4.22(2)
Pb1 O3 1_6555 4.076(17) 3.93(2) 4.22(2)
Pb1 O3 5_4445 2.804(13) 2.58(2) 2.99(2)
Pb1 O3 5_4545 2.804(13) 2.58(2) 2.99(2)
Pb1 O3 5_5445 2.804(13) 2.58(2) 2.99(2)
Pb1 O3 5_5545 2.804(13) 2.58(2) 2.99(2)
Bi1 Bi1 1_4555 3.89(2) 3.61(3) 4.05(3)
Bi1 Bi1 1_5455 3.9195 3.9195 3.9195
Bi1 Bi1 1_5545 4.05(2) 3.78(3) 4.59(3)
Bi1 Bi1 1_5565 4.05(2) 3.78(3) 4.59(3)
Bi1 Bi1 1_5655 3.9195 3.9195 3.9195
Bi1 Bi1 1_6555 3.89(2) 3.61(3) 4.05(3)
Bi1 Bi1 5_4445 3.571(15) 3.569(16) 3.573(16)
Bi1 Bi1 5_4455 2.990(9) 2.990(9) 2.990(9)
Bi1 Bi1 5_4545 3.571(15) 3.569(16) 3.573(16)
Bi1 Bi1 5_4555 2.990(9) 2.990(9) 2.990(9)
Bi1 Bi1 5_5445 2.990(9) 2.990(9) 2.990(9)
Bi1 Bi1 5_5455 3.571(15) 3.569(16) 3.573(16)
Bi1 Bi1 5_5545 2.990(9) 2.990(9) 2.990(9)
Bi1 Bi1 5_5555 3.571(15) 3.569(16) 3.573(16)
Bi1 O1 1_5445 3.896(19) 3.74(2) 3.96(2)
Bi1 O1 1_5455 2.456(9) 2.456(9) 2.456(9)
Bi1 O1 1_5465 3.896(19) 3.74(2) 3.96(2)
Bi1 O1 1_5545 3.896(19) 3.74(2) 3.96(2)
Bi1 O1 . 2.456(9) 2.456(9) 2.456(9)
Bi1 O1 1_5565 3.896(19) 3.74(2) 3.96(2)
Bi1 O1 5_4445 2.92(3) 2.17(4) 3.74(4)
Bi1 O1 5_4455 2.98(3) 2.53(5) 3.70(5)
Bi1 O1 5_5445 2.98(3) 2.53(5) 3.70(5)
Bi1 O1 5_5455 2.92(3) 2.17(4) 3.74(4)
Bi1 O2 1_4565 3.84(2) 3.84(2) 3.84(2)
Bi1 O2 1_5545 3.84(2) 3.84(2) 3.84(2)
Bi1 O2 5_4445 2.834(10) 2.43(2) 3.50(2)
Bi1 O2 5_4455 2.834(10) 2.43(2) 3.50(2)
Bi1 O2 5_4545 2.834(10) 2.43(2) 3.50(2)
Bi1 O2 5_4555 2.834(10) 2.43(2) 3.50(2)
Bi1 O3 1_4545 4.101(17) 3.93(2) 4.28(2)
Bi1 O3 1_5545 1.093(17) 1.093(17) 1.093(17)
Bi1 O3 . 1.093(17) 1.093(17) 1.093(17)
Bi1 O3 1_6555 4.101(17) 3.93(2) 4.28(2)
Bi1 O3 5_4445 2.807(13) 2.60(2) 2.98(2)
Bi1 O3 5_4545 2.807(13) 2.60(2) 2.98(2)
Bi1 O3 5_5445 2.807(13) 2.60(2) 2.98(2)
Bi1 O3 5_5545 2.807(13) 2.60(2) 2.98(2)
O1 O1 1_4555 3.90(4) 3.61(6) 4.06(6)
O1 O1 1_5455 3.9195 3.9195 3.9195
O1 O1 1_5655 3.9195 3.9195 3.9195
O1 O1 1_6555 3.90(4) 3.61(6) 4.06(6)
O1 O1 5_4445 2.75(2) 2.71(3) 2.81(3)
O1 O1 5_4455 2.635(15) 2.624(16) 2.646(16)
O1 O1 5_4545 2.75(2) 2.71(3) 2.81(3)
O1 O1 5_4555 2.635(15) 2.624(16) 2.646(16)
O1 O1 5_5445 2.635(15) 2.624(16) 2.646(16)
O1 O1 5_5455 2.75(2) 2.71(3) 2.81(3)
O1 O1 5_5545 2.635(15) 2.624(16) 2.646(16)
O1 O1 5_5555 2.75(2) 2.71(3) 2.81(3)
O1 O2 1_4555 2.79(4) 2.69(6) 2.86(6)
O1 O2 1_4655 2.79(4) 2.69(6) 2.86(6)
O1 O2 . 2.79(4) 2.69(6) 2.86(6)
O1 O2 1_5655 2.79(4) 2.69(6) 2.86(6)
O1 O2 5_3545 3.92(6) 3.82(7) 4.04(7)
O1 O2 5_5555 3.92(6) 3.82(7) 4.04(7)
O1 O3 1_5545 2.97(2) 2.83(3) 3.18(3)
O1 O3 . 2.97(2) 2.83(3) 3.18(3)
O1 O3 1_5645 2.97(2) 2.83(3) 3.18(3)
O1 O3 1_5655 2.97(2) 2.83(3) 3.18(3)
O1 O3 5_4535 3.27(3) 3.11(3) 3.36(3)
O1 O3 5_4555 3.23(2) 3.12(3) 3.32(3)
O1 O3 5_5535 3.23(2) 3.12(3) 3.32(3)
O1 O3 5_5555 3.27(3) 3.11(3) 3.36(3)
O2 O2 1_4555 3.96(6) 3.89(10) 3.99(10)
O2 O2 1_5455 3.9195 3.9195 3.9195
O2 O2 1_5655 3.9195 3.9195 3.9195
O2 O2 1_6555 3.96(6) 3.89(10) 3.99(10)
O2 O3 1_5545 2.96(3) 2.84(5) 3.10(5)
O2 O3 . 2.91(4) 2.81(6) 3.04(6)
O2 O3 1_6545 2.92(4) 2.81(6) 3.04(6)
O2 O3 1_6555 2.96(3) 2.84(5) 3.10(5)
O3 O3 1_4555 3.966(5) 3.964(12) 3.973(12)
O3 O3 1_5455 3.9195 3.9195 3.9195
O3 O3 1_5655 3.9195 3.9195 3.9195
O3 O3 1_6555 3.966(5) 3.964(12) 3.973(12)
loop_
_pd_proc_point_id
_pd_proc_2theta_corrected
_pd_proc_intensity_net
_pd_calc_intensity_net
_pd_proc_ls_weight
1 7.0800 1191.00 1197.09 33.70
2 7.1300 1194.00 1196.45 33.70
3 7.1800 1126.00 1195.84 32.70
4 7.2300 1186.00 1195.27 33.70
5 7.2800 1155.00 1194.72 33.20
6 7.3300 1158.00 1194.19 33.10
7 7.3800 1196.00 1193.68 34.00
8 7.4300 1165.00 1193.19 33.30
9 7.4800 1115.00 1192.72 32.70
10 7.5300 1106.00 1192.27 32.70
11 7.5800 1132.00 1191.83 33.00
12 7.6300 1145.00 1191.40 33.10
13 7.6800 1223.00 1190.98 34.40
14 7.7300 1178.00 1190.57 33.60
15 7.7800 1176.00 1190.17 33.70
16 7.8300 1219.00 1189.78 34.30
17 7.8800 1164.00 1189.40 33.60
18 7.9300 1228.00 1189.02 34.40
19 7.9800 1204.00 1188.65 34.30
20 8.0300 1151.00 1188.29 33.40
21 8.0800 1217.00 1187.93 34.10
22 8.1300 1155.00 1187.58 33.50
23 8.1800 1170.00 1187.24 33.70
24 8.2300 1176.00 1186.89 33.50
25 8.2800 1150.00 1186.55 33.50
26 8.3300 1124.00 1186.22 33.00
27 8.3800 1176.00 1185.89 33.70
28 8.4300 1202.00 1185.56 34.20
29 8.4800 1110.00 1185.24 32.90
30 8.5300 1175.00 1184.92 33.70
31 8.5800 1151.00 1184.60 33.40
32 8.6300 1135.00 1184.28 33.20
33 8.6800 1164.00 1183.97 33.40
34 8.7300 1193.00 1183.66 34.00
35 8.7800 1110.00 1183.35 32.70
36 8.8300 1194.00 1183.04 33.80
37 8.8800 1143.00 1182.74 33.20
38 8.9300 1108.00 1182.44 32.70
39 8.9800 1182.00 1182.14 33.70
40 9.0300 1132.00 1181.84 33.10
41 9.0800 1160.00 1181.54 33.40
42 9.1300 1153.00 1181.25 33.30
43 9.1800 1184.00 1180.95 33.60
44 9.2300 1196.00 1180.66 33.90
45 9.2800 1142.00 1180.37 33.20
46 9.3300 1161.00 1180.08 33.30
47 9.3800 1130.00 1179.80 33.00
48 9.4300 1228.00 1179.51 34.50
49 9.4800 1181.00 1179.23 33.60
50 9.5300 1136.00 1178.94 33.10
51 9.5800 1106.00 1178.66 32.60
52 9.6300 1117.00 1178.38 32.60
53 9.6800 1132.00 1178.10 33.00
54 9.7300 1135.00 1177.83 33.00
55 9.7800 1075.00 1177.55 32.10
56 9.8300 1105.00 1177.28 32.70
57 9.8800 1104.00 1177.01 32.80
58 9.9300 1060.00 1176.74 31.90
59 9.9800 1183.00 1176.48 34.00
60 10.0300 1140.00 1176.22 33.30
61 10.0800 1146.00 1175.96 33.50
62 10.1300 1161.00 1175.71 33.60
63 10.1800 1212.00 1175.47 34.70
64 10.2300 1106.00 1175.23 32.90
65 10.2800 1125.00 1175.00 33.50
66 10.3300 1154.00 1174.79 33.80
67 10.3800 1092.00 1174.58 33.10
68 10.4300 1129.00 1174.40 33.50
69 10.4800 1148.00 1174.23 34.20
70 10.5300 1123.00 1174.08 33.60
71 10.5800 1128.00 1173.95 34.00
72 10.6300 1147.00 1173.84 34.20
73 10.6800 1150.00 1173.75 34.40
74 10.7300 1146.00 1173.69 34.20
75 10.7800 1159.00 1173.64 34.70
76 10.8300 1115.00 1173.62 33.90
77 10.8800 1178.00 1173.60 35.00
78 10.9300 1107.00 1173.59 33.90
79 10.9800 1152.00 1173.58 34.80
80 11.0300 1196.00 1173.57 35.30
81 11.0800 1153.00 1173.54 34.80
82 11.1300 1165.00 1173.48 35.00
83 11.1800 1138.00 1173.39 34.60
84 11.2300 1132.00 1173.25 34.50
85 11.2800 1159.00 1173.06 35.00
86 11.3300 1170.00 1172.81 35.10
87 11.3800 1132.00 1172.50 34.40
88 11.4300 1146.00 1172.14 34.80
89 11.4800 1126.00 1171.74 34.30
90 11.5300 1085.00 1171.30 33.70
91 11.5800 1106.00 1170.84 33.90
92 11.6300 1186.00 1170.36 35.10
93 11.6800 1114.00 1169.86 33.70
94 11.7300 1152.00 1169.37 34.60
95 11.7800 1097.00 1168.88 33.30
96 11.8300 1161.00 1168.40 34.50
97 11.8800 1104.00 1167.94 33.50
98 11.9300 1126.00 1167.50 33.80
99 11.9800 1157.00 1167.08 34.10
100 12.0300 1185.00 1166.69 34.60
101 12.0800 1209.00 1166.31 34.50
102 12.1300 1107.00 1165.96 33.40
103 12.1800 1158.00 1165.62 33.80
104 12.2300 1191.00 1165.30 34.30
105 12.2800 1155.00 1165.00 33.60
106 12.3300 1192.00 1164.71 34.30
107 12.3800 1176.00 1164.44 33.70
108 12.4300 1184.00 1164.17 34.00
109 12.4800 1123.00 1163.91 32.90
110 12.5300 1193.00 1163.66 34.00
111 12.5800 1169.00 1163.41 33.50
112 12.6300 1132.00 1163.17 33.00
113 12.6800 1153.00 1162.94 33.10
114 12.7300 1127.00 1162.70 32.90
115 12.7800 1154.00 1162.47 33.20
116 12.8300 1093.00 1162.24 32.20
117 12.8800 1229.00 1162.01 34.20
118 12.9300 1201.00 1161.79 33.90
119 12.9800 1169.00 1161.56 33.30
120 13.0300 1231.00 1161.34 34.20
121 13.0800 1224.00 1161.12 34.00
122 13.1300 1221.00 1160.90 34.00
123 13.1800 1101.00 1160.68 32.20
124 13.2300 1190.00 1160.46 33.50
125 13.2800 1177.00 1160.25 33.40
126 13.3300 1179.00 1160.04 33.30
127 13.3800 1140.00 1159.82 32.80
128 13.4300 1226.00 1159.61 34.00
129 13.4800 1191.00 1159.40 33.50
130 13.5300 1183.00 1159.19 33.40
131 13.5800 1199.00 1158.98 33.70
132 13.6300 1178.00 1158.78 33.40
133 13.6800 1203.00 1158.57 33.60
134 13.7300 1197.00 1158.37 33.70
135 13.7800 1119.00 1158.16 32.50
136 13.8300 1178.00 1157.96 33.30
137 13.8800 1201.00 1157.76 33.80
138 13.9300 1193.00 1157.56 33.60
139 13.9800 1202.00 1157.37 33.70
140 14.0300 1136.00 1157.17 32.90
141 14.0800 1218.00 1156.97 33.90
142 14.1300 1131.00 1156.78 32.70
143 14.1800 1193.00 1156.59 33.50
144 14.2300 1121.00 1156.40 32.50
145 14.2800 1152.00 1156.20 33.00
146 14.3300 1221.00 1155.84 33.90
147 14.3800 1252.00 1155.66 34.50
148 14.4300 1197.00 1155.47 33.70
149 14.4800 1185.00 1155.29 33.40
150 14.5300 1202.00 1155.11 33.80
151 14.5800 1202.00 1154.93 33.70
152 14.6300 1150.00 1154.75 32.90
153 14.6800 1210.00 1154.57 33.80
154 14.7300 1112.00 1154.39 32.40
155 14.7800 1157.00 1154.22 33.00
156 14.8300 1180.00 1154.04 33.40
157 14.8800 1164.00 1153.87 33.40
158 14.9300 1189.00 1153.70 33.40
159 14.9800 1160.00 1153.53 33.20
160 15.0300 1194.00 1153.36 33.80
161 15.0800 1201.00 1153.19 33.70
162 15.1300 1130.00 1153.03 32.80
163 15.1800 1151.00 1152.86 33.20
164 15.2300 1166.00 1152.70 33.20
165 15.2800 1191.00 1152.54 33.70
166 15.3300 1185.00 1152.38 33.70
167 15.3800 1177.00 1152.22 33.50
168 15.4300 1185.00 1152.06 33.60
169 15.4800 1225.00 1151.90 34.30
170 15.5300 1238.00 1151.75 34.30
171 15.5800 1212.00 1151.59 33.90
172 15.6300 1197.00 1151.44 34.00
173 15.6800 1227.00 1151.29 34.30
174 15.7300 1213.00 1151.14 34.00
175 15.7800 1222.00 1150.99 34.30
176 15.8300 1203.00 1150.85 33.90
177 15.8800 1254.00 1150.70 34.60
178 15.9300 1222.00 1150.56 34.30
179 15.9800 1194.00 1150.42 34.00
180 16.0300 1199.00 1150.28 33.80
181 16.0800 1244.00 1150.14 34.60
182 16.1300 1131.00 1150.00 33.00
183 16.1800 1207.00 1149.87 34.10
184 16.2300 1234.00 1149.73 34.50
185 16.2800 1134.00 1149.60 33.40
186 16.3300 1192.00 1149.47 33.90
187 16.3800 1120.00 1149.34 33.20
188 16.4300 1220.00 1149.21 34.60
189 16.4800 1161.00 1149.08 33.60
190 16.5300 1120.00 1148.96 33.20
191 16.5800 1209.00 1148.84 34.80
192 16.6300 1206.00 1148.72 34.30
193 16.6800 1207.00 1148.60 34.70
194 16.7300 1179.00 1148.48 34.30
195 16.7800 1157.00 1148.36 34.20
196 16.8300 1148.00 1148.25 33.90
197 16.8800 1180.00 1148.13 34.80
198 16.9300 1147.00 1148.02 34.00
199 16.9800 1148.00 1147.92 34.40
200 17.0300 1144.00 1147.81 34.20
201 17.0800 1170.00 1147.70 34.80
202 17.1300 1214.00 1147.60 35.30
203 17.1800 1131.00 1147.50 34.40
204 17.2300 1112.00 1147.40 33.90
205 17.2800 1135.00 1147.30 34.50
206 17.3300 1223.00 1147.21 35.80
207 17.3800 1160.00 1147.12 34.90
208 17.4300 1221.00 1147.03 35.80
209 17.4800 1163.00 1146.94 35.00
210 17.5300 1187.00 1146.85 35.30
211 17.5800 1214.00 1146.77 35.80
212 17.6300 1186.00 1147.26 35.30
213 17.6800 1179.00 1147.19 35.30
214 17.7300 1197.00 1147.13 35.60
215 17.7800 1169.00 1147.06 35.10
216 17.8300 1140.00 1147.01 34.70
217 17.8800 1173.00 1146.95 35.20
218 17.9300 1214.00 1146.90 35.80
219 17.9800 1147.00 1146.85 34.60
220 18.0300 1194.00 1146.81 35.50
221 18.0800 1226.00 1146.77 35.80
222 18.1300 1188.00 1146.74 35.20
223 18.1800 1136.00 1146.71 34.30
224 18.2300 1192.00 1146.69 35.30
225 18.2800 1198.00 1146.68 35.00
226 18.3300 1212.00 1146.67 35.40
227 18.3800 1170.00 1146.68 34.60
228 18.4300 1201.00 1146.70 35.00
229 18.4800 1187.00 1146.74 34.80
230 18.5300 1209.00 1146.80 35.20
231 18.5800 1212.00 1146.91 34.70
232 18.6300 1161.00 1147.08 34.40
233 18.6800 1168.00 1147.34 34.10
234 18.7300 1180.00 1147.73 34.20
235 18.7800 1211.00 1148.31 34.80
236 18.8300 1213.00 1149.16 34.80
237 18.8800 1233.00 1150.36 34.80
238 18.9300 1169.00 1152.02 34.20
239 18.9800 1230.00 1154.24 34.70
240 19.0300 1212.00 1157.11 34.50
241 19.0800 1192.00 1160.70 34.20
242 19.1300 1247.00 1165.04 35.00
243 19.1800 1302.00 1170.08 35.50
244 19.2300 1217.00 1175.69 34.60
245 19.2800 1346.00 1181.65 36.10
246 19.3300 1222.00 1187.64 34.40
247 19.3800 1312.00 1193.27 35.80
248 19.4300 1255.00 1198.09 34.90
249 19.4800 1257.00 1201.62 34.80
250 19.5300 1325.00 1203.73 35.90
251 19.5800 1371.00 1203.67 36.30
252 19.6300 1322.00 1201.70 35.70
253 19.6800 1313.00 1198.07 35.50
254 19.7300 1263.00 1193.18 34.80
255 19.7800 1233.00 1187.51 34.60
256 19.8300 1244.00 1181.49 34.60
257 19.8800 1222.00 1175.54 34.40
258 19.9300 1237.00 1169.95 34.60
259 19.9800 1239.00 1164.94 34.50
260 20.0300 1168.00 1160.64 33.60
261 20.0800 1185.00 1157.08 33.70
262 20.1300 1222.00 1154.24 34.20
263 20.1800 1214.00 1152.05 34.30
264 20.2300 1236.00 1150.42 34.40
265 20.2800 1172.00 1149.24 33.60
266 20.3300 1163.00 1148.41 33.60
267 20.3800 1125.00 1147.85 32.90
268 20.4300 1205.00 1147.46 34.00
269 20.4800 1197.00 1147.21 34.00
270 20.5300 1174.00 1147.05 33.60
271 20.5800 1145.00 1146.96 33.20
272 20.6300 1230.00 1146.90 34.40
273 20.6800 1188.00 1146.88 33.80
274 20.7300 1191.00 1146.87 33.90
275 20.7800 1216.00 1146.88 34.30
276 20.8300 1207.00 1146.91 34.00
277 20.8800 1181.00 1146.94 33.80
278 20.9300 1201.00 1146.99 34.10
279 20.9800 1226.00 1147.05 34.30
280 21.0300 1135.00 1147.11 33.10
281 21.0800 1172.00 1147.19 33.50
282 21.1300 1199.00 1147.27 33.90
283 21.1800 1208.00 1147.36 34.00
284 21.2300 1165.00 1147.46 33.40
285 21.2800 1233.00 1147.57 34.50
286 21.3300 1178.00 1147.69 33.60
287 21.3800 1166.00 1147.82 33.40
288 21.4300 1248.00 1147.95 34.70
289 21.4800 1226.00 1148.10 34.20
290 21.5300 1200.00 1148.47 33.90
291 21.5800 1220.00 1148.64 34.20
292 21.6300 1098.00 1148.82 32.40
293 21.6800 1176.00 1149.02 33.50
294 21.7300 1165.00 1149.22 33.50
295 21.7800 1179.00 1149.44 33.60
296 21.8300 1210.00 1149.67 34.00
297 21.8800 1225.00 1149.93 34.50
298 21.9300 1233.00 1150.19 34.40
299 21.9800 1186.00 1150.50 33.90
300 22.0300 1249.00 1150.79 34.80
301 22.0800 1191.00 1151.11 34.00
302 22.1300 1209.00 1151.44 34.20
303 22.1800 1158.00 1151.80 33.60
304 22.2300 1195.00 1152.19 34.10
305 22.2800 1234.00 1152.60 34.60
306 22.3300 1195.00 1153.04 34.20
307 22.3800 1204.00 1153.51 34.50
308 22.4300 1192.00 1154.01 34.00
309 22.4800 1213.00 1154.56 34.60
310 22.5300 1216.00 1155.15 34.70
311 22.5800 1138.00 1155.79 33.30
312 22.6300 1237.00 1156.48 35.00
313 22.6800 1209.00 1157.24 34.80
314 22.7300 1213.00 1158.06 34.40
315 22.7800 1192.00 1158.96 34.60
316 22.8300 1139.00 1159.95 33.80
317 22.8800 1208.00 1161.08 34.70
318 22.9300 1223.00 1162.29 35.10
319 22.9800 1256.00 1163.64 35.80
320 23.0300 1219.00 1165.16 34.80
321 23.0800 1217.00 1166.88 35.10
322 23.1300 1287.00 1168.90 36.30
323 23.1800 1223.00 1171.34 35.10
324 23.2300 1211.00 1174.48 35.10
325 23.2800 1253.00 1178.84 36.00
326 23.3300 1294.00 1185.42 36.10
327 23.3800 1328.00 1195.95 37.00
328 23.4300 1335.00 1213.43 37.10
329 23.4800 1416.00 1242.66 38.20
330 23.5300 1429.00 1290.76 38.30
331 23.5800 1492.00 1367.64 39.40
332 23.6300 1582.00 1485.79 40.30
333 23.6800 1775.00 1659.27 43.00
334 23.7300 2057.00 1901.59 46.30
335 23.7800 2338.00 2222.31 49.40
336 23.8300 2680.00 2622.97 52.80
337 23.8800 3127.00 3093.18 57.20
338 23.9300 3531.00 3608.03 60.80
339 23.9800 3836.00 4128.10 63.10
340 24.0300 4260.00 4602.69 66.70
341 24.0800 4633.00 4976.35 69.60
342 24.1300 4675.00 5198.71 69.70
343 24.1800 4691.00 5236.69 69.70
344 24.2300 4781.00 5084.89 70.70
345 24.2800 4555.00 4767.46 68.60
346 24.3300 4058.00 4329.88 64.80
347 24.3800 3714.00 3826.72 62.00
348 24.4300 3027.00 3310.82 55.90
349 24.4800 2604.00 2825.66 51.60
350 24.5300 2262.00 2401.22 48.40
351 24.5800 1901.00 2052.74 43.90
352 24.6300 1731.00 1782.64 42.10
353 24.6800 1604.00 1584.07 40.30
354 24.7300 1457.00 1444.84 38.40
355 24.7800 1448.00 1351.20 38.10
356 24.8300 1326.00 1290.28 36.60
357 24.8800 1284.00 1251.53 35.70
358 24.9300 1259.00 1227.10 35.60
359 24.9800 1290.00 1211.57 35.80
360 25.0300 1268.00 1201.47 35.50
361 25.0800 1296.00 1194.69 35.60
362 25.1300 1204.00 1189.97 34.60
363 25.1800 1195.00 1186.62 34.00
364 25.2300 1208.00 1184.22 34.40
365 25.2800 1146.00 1182.53 33.40
366 25.3300 1185.00 1181.41 33.90
367 25.3800 1216.00 1180.77 34.30
368 25.4300 1265.00 1180.57 35.10
369 25.4800 1146.00 1180.84 33.10
370 25.5300 1181.00 1181.67 33.80
371 25.5800 1214.00 1183.27 34.00
372 25.6300 1193.00 1186.05 33.80
373 25.6800 1239.00 1190.70 34.30
374 25.7300 1204.00 1198.27 33.90
375 25.7800 1207.00 1210.33 33.80
376 25.8300 1217.00 1229.00 34.00
377 25.8800 1266.00 1256.96 34.60
378 25.9300 1242.00 1297.27 34.30
379 25.9800 1379.00 1352.98 36.00
380 26.0300 1458.00 1426.52 37.10
381 26.0800 1469.00 1518.96 37.00
382 26.1300 1626.00 1629.19 39.10
383 26.1800 1697.00 1753.22 39.90
384 26.2300 1786.00 1883.98 40.80
385 26.2800 1932.00 2011.40 42.80
386 26.3300 2023.00 2123.21 43.50
387 26.3800 2074.00 2206.39 44.30
388 26.4300 2160.00 2249.50 45.20
389 26.4800 2012.00 2245.95 43.40
390 26.5300 2025.00 2196.34 43.70
391 26.5800 1983.00 2108.25 43.20
392 26.6300 1790.00 1993.61 40.90
393 26.6800 1753.00 1865.38 40.50
394 26.7300 1643.00 1735.60 39.30
395 26.7800 1503.00 1613.88 37.60
396 26.8300 1363.00 1506.85 35.70
397 26.8800 1348.00 1417.98 35.70
398 26.9300 1325.00 1348.01 35.30
399 26.9800 1271.00 1295.64 34.60
400 27.0300 1305.00 1258.31 35.20
401 27.0800 1279.00 1233.05 34.60
402 27.1300 1192.00 1217.02 33.50
403 27.1800 1190.00 1207.96 33.50
404 27.2300 1172.00 1204.45 33.10
405 27.2800 1206.00 1206.02 33.70
406 27.3300 1212.00 1213.27 33.80
407 27.3800 1204.00 1227.86 33.60
408 27.4300 1213.00 1252.54 33.80
409 27.4800 1332.00 1290.82 35.30
410 27.5300 1389.00 1346.55 36.10
411 27.5800 1480.00 1423.06 37.10
412 27.6300 1542.00 1522.10 37.90
413 27.6800 1551.00 1642.51 38.20
414 27.7300 1693.00 1779.37 39.70
415 27.7800 1754.00 1923.47 40.50
416 27.8300 1920.00 2061.86 42.50
417 27.8800 1987.00 2179.18 43.20
418 27.9300 2066.00 2260.08 44.00
419 27.9800 2074.00 2292.64 44.10
420 28.0300 2096.00 2271.96 44.40
421 28.0800 2031.00 2201.96 43.60
422 28.1300 1851.00 2093.86 41.70
423 28.1800 1780.00 1962.70 40.80
424 28.2300 1676.00 1823.78 39.60
425 28.2800 1547.00 1690.25 38.20
426 28.3300 1465.00 1571.59 37.00
427 28.3800 1316.00 1473.10 35.20
428 28.4300 1319.00 1396.26 35.20
429 28.4800 1332.00 1339.73 35.40
430 28.5300 1270.00 1300.53 34.60
431 28.5800 1202.00 1275.14 33.60
432 28.6300 1231.00 1260.29 34.00
433 28.6800 1254.00 1253.39 34.40
434 28.7300 1239.00 1252.67 34.10
435 28.7800 1227.00 1257.06 34.10
436 28.8300 1214.00 1265.97 33.90
437 28.8800 1231.00 1279.13 34.10
438 28.9300 1262.00 1296.31 34.60
439 28.9800 1300.00 1317.16 35.30
440 29.0300 1272.00 1341.24 34.70
441 29.0800 1285.00 1367.12 35.00
442 29.1300 1364.00 1393.50 36.10
443 29.1800 1364.00 1418.49 36.10
444 29.2300 1374.00 1440.10 36.20
445 29.2800 1406.00 1456.40 36.80
446 29.3300 1369.00 1465.72 36.20
447 29.3800 1374.00 1466.71 36.70
448 29.4300 1286.00 1458.54 35.20
449 29.4800 1370.00 1441.31 36.70
450 29.5300 1334.00 1416.30 36.10
451 29.5800 1242.00 1385.90 34.90
452 29.6300 1231.00 1352.93 34.70
453 29.6800 1212.00 1320.10 34.80
454 29.7300 1225.00 1289.62 34.60
455 29.7800 1216.00 1263.01 34.90
456 29.8300 1147.00 1241.05 33.80
457 29.8800 1151.00 1223.87 34.00
458 29.9300 1232.00 1211.08 35.10
459 29.9800 1122.00 1202.01 33.70
460 30.0300 1151.00 1195.87 34.00
461 30.0800 1189.00 1191.87 34.70
462 30.1300 1156.00 1189.38 34.30
463 30.1800 1112.00 1187.87 33.40
464 30.2300 1148.00 1186.99 34.10
465 30.2800 1083.00 1186.49 33.30
466 30.3300 1135.00 1186.23 33.80
467 30.3800 1092.00 1186.10 33.30
468 30.4300 1212.00 1186.07 35.20
469 30.4800 1139.00 1186.09 34.00
470 30.5300 1102.00 1186.16 33.50
471 30.5800 1130.00 1186.26 33.90
472 30.6300 1150.00 1186.39 34.20
473 30.6800 1091.00 1186.54 33.20
474 30.7300 1161.00 1186.72 34.40
475 30.7800 1061.00 1186.39 32.70
476 30.8300 1158.00 1186.61 34.20
477 30.8800 1164.00 1186.85 34.40
478 30.9300 1166.00 1187.10 34.20
479 30.9800 1124.00 1187.36 33.40
480 31.0300 1162.00 1187.64 34.30
481 31.0800 1177.00 1188.11 34.00
482 31.1300 1157.00 1188.41 33.90
483 31.1800 1223.00 1188.73 34.90
484 31.2300 1098.00 1189.05 32.90
485 31.2800 1144.00 1189.38 33.60
486 31.3300 1184.00 1189.72 34.30
487 31.3800 1171.00 1190.07 33.80
488 31.4300 1136.00 1190.43 33.50
489 31.4800 1149.00 1190.80 33.60
490 31.5300 1149.00 1191.18 33.50
491 31.5800 1103.00 1191.56 32.70
492 31.6300 1184.00 1191.95 34.10
493 31.6800 1114.00 1192.35 32.60
494 31.7300 1179.00 1192.77 33.80
495 31.7800 1206.00 1193.18 34.10
496 31.8300 1127.00 1193.61 32.80
497 31.8800 1160.00 1194.05 33.20
498 31.9300 1119.00 1194.51 32.90
499 31.9800 1128.00 1194.97 32.70
500 32.0300 1182.00 1195.45 33.60
501 32.0800 1149.00 1195.95 33.10
502 32.1300 1108.00 1196.48 32.40
503 32.1800 1136.00 1197.70 32.70
504 32.2300 1105.00 1198.32 32.40
505 32.2800 1232.00 1199.02 34.00
506 32.3300 1149.00 1199.83 32.90
507 32.3800 1118.00 1200.78 32.60
508 32.4300 1149.00 1201.92 32.90
509 32.4800 1200.00 1203.31 33.60
510 32.5300 1186.00 1205.01 33.50
511 32.5800 1181.00 1207.08 33.20
512 32.6300 1158.00 1209.56 33.00
513 32.6800 1153.00 1212.46 32.90
514 32.7300 1197.00 1215.77 33.40
515 32.7800 1128.00 1221.04 32.50
516 32.8300 1198.00 1224.93 33.50
517 32.8800 1208.00 1228.86 33.40
518 32.9300 1228.00 1232.63 33.90
519 32.9800 1233.00 1236.00 33.90
520 33.0300 1206.00 1238.73 33.40
521 33.0800 1196.00 1240.72 33.30
522 33.1300 1251.00 1241.95 34.10
523 33.1800 1271.00 1242.64 34.00
524 33.2300 1227.00 1243.16 33.80
525 33.2800 1265.00 1244.02 34.30
526 33.3300 1167.00 1246.84 32.60
527 33.3800 1247.00 1249.83 34.00
528 33.4300 1240.00 1255.07 33.90
529 33.4800 1260.00 1262.67 33.90
530 33.5300 1311.00 1272.82 34.90
531 33.5800 1276.00 1285.37 34.30
532 33.6300 1349.00 1299.86 35.00
533 33.6800 1362.00 1315.48 35.40
534 33.7300 1438.00 1331.05 36.40
535 33.7800 1379.00 1345.13 35.30
536 33.8300 1425.00 1356.12 36.20
537 33.8800 1410.00 1363.77 36.00
538 33.9300 1467.00 1364.69 36.40
539 33.9800 1422.00 1359.97 36.10
540 34.0300 1427.00 1350.39 36.20
541 34.0800 1413.00 1337.31 35.70
542 34.1300 1375.00 1322.27 35.50
543 34.1800 1379.00 1306.69 35.50
544 34.2300 1259.00 1291.75 33.70
545 34.2800 1324.00 1278.32 34.80
546 34.3300 1371.00 1266.91 35.30
547 34.3800 1293.00 1257.75 34.30
548 34.4300 1161.00 1250.79 32.60
549 34.4800 1209.00 1245.69 33.10
550 34.5300 1233.00 1242.46 33.50
551 34.5800 1276.00 1240.61 34.00
552 34.6300 1299.00 1239.85 34.30
553 34.6800 1168.00 1239.96 32.50
554 34.7300 1265.00 1240.80 33.90
555 34.7800 1264.00 1242.38 34.00
556 34.8300 1221.00 1244.87 33.30
557 34.8800 1301.00 1248.66 34.50
558 34.9300 1298.00 1254.47 34.40
559 34.9800 1245.00 1263.37 33.70
560 35.0300 1255.00 1276.89 33.90
561 35.0800 1311.00 1296.99 34.70
562 35.1300 1371.00 1325.90 35.40
563 35.1800 1379.00 1365.86 35.70
564 35.2300 1429.00 1418.58 36.20
565 35.2800 1537.00 1484.63 37.70
566 35.3300 1582.00 1562.84 38.20
567 35.3800 1708.00 1649.78 40.10
568 35.4300 1849.00 1739.58 41.40
569 35.4800 1812.00 1824.21 41.40
570 35.5300 1950.00 1894.30 42.90
571 35.5800 2011.00 1939.95 43.50
572 35.6300 2059.00 1954.05 44.10
573 35.6800 2033.00 1934.29 44.30
574 35.7300 1970.00 1884.32 43.10
575 35.7800 1964.00 1812.19 43.70
576 35.8300 1818.00 1727.66 41.90
577 35.8800 1712.00 1640.01 41.00
578 35.9300 1627.00 1556.81 39.80
579 35.9800 1527.00 1483.39 38.90
580 36.0300 1456.00 1422.63 37.80
581 36.0800 1376.00 1375.22 37.00
582 36.1300 1374.00 1340.35 36.90
583 36.1800 1322.00 1316.11 36.60
584 36.2300 1354.00 1300.45 36.70
585 36.2800 1330.00 1290.83 36.90
586 36.3300 1304.00 1285.60 36.30
587 36.3800 1343.00 1283.41 37.10
588 36.4300 1325.00 1283.37 36.90
589 36.4800 1333.00 1285.03 37.30
590 36.5300 1317.00 1288.36 36.80
591 36.5800 1318.00 1293.85 37.10
592 36.6300 1357.00 1302.43 37.60
593 36.6800 1355.00 1315.70 37.60
594 36.7300 1468.00 1335.95 39.10
595 36.7800 1407.00 1366.11 38.60
596 36.8300 1402.00 1409.45 38.30
597 36.8800 1445.00 1468.93 39.00
598 36.9300 1548.00 1546.34 40.50
599 36.9800 1647.00 1641.13 41.60
600 37.0300 1756.00 1749.53 43.00
601 37.0800 1830.00 1864.15 43.80
602 37.1300 1903.00 1974.16 44.70
603 37.1800 1990.00 2066.56 45.50
604 37.2300 2136.00 2128.29 47.30
605 37.2800 2123.00 2149.61 47.00
606 37.3300 2125.00 2127.68 47.00
607 37.3800 2091.00 2068.06 46.50
608 37.4300 2032.00 1982.81 46.00
609 37.4800 1912.00 1887.00 44.10
610 37.5300 1871.00 1796.08 44.00
611 37.5800 1720.00 1724.58 41.60
612 37.6300 1800.00 1685.91 42.70
613 37.6800 1704.00 1692.91 41.30
614 37.7300 1860.00 1758.68 43.30
615 37.7800 1988.00 1896.78 44.30
616 37.8300 2143.00 2119.90 46.30
617 37.8800 2526.00 2436.73 49.70
618 37.9300 2867.00 2847.08 53.30
619 37.9800 3368.00 3336.77 57.50
620 38.0300 3715.00 3874.59 60.30
621 38.0800 4208.00 4412.24 63.80
622 38.1300 4705.00 4889.17 67.90
623 38.1800 5053.00 5242.75 69.40
624 38.2300 5446.00 5423.92 72.60
625 38.2800 5426.00 5417.22 72.20
626 38.3300 5306.00 5253.51 71.10
627 38.3800 5253.00 5005.47 70.70
628 38.4300 4827.00 4769.79 68.10
629 38.4800 4713.00 4647.03 66.40
630 38.5300 4696.00 4723.28 66.90
631 38.5800 5034.00 5053.89 68.80
632 38.6300 5752.00 5650.56 73.40
633 38.6800 6543.00 6474.01 78.20
634 38.7300 7385.00 7434.51 83.40
635 38.7800 8184.00 8401.68 87.10
636 38.8300 8803.00 9222.71 90.70
637 38.8800 9574.00 9749.87 94.90
638 38.9300 9827.00 9879.62 95.50
639 38.9800 9889.00 9590.78 95.80
640 39.0300 9338.00 8955.57 93.70
641 39.0800 8276.00 8112.87 87.20
642 39.1300 7447.00 7227.96 83.10
643 39.1800 6570.00 6460.72 77.90
644 39.2300 5802.00 5944.21 73.00
645 39.2800 5555.00 5771.09 71.50
646 39.3300 5834.00 5987.48 73.40
647 39.3800 6655.00 6591.19 78.00
648 39.4300 7534.00 7532.89 83.20
649 39.4800 8565.00 8717.36 88.90
650 39.5300 9868.00 10008.40 95.00
651 39.5800 10830.00 11241.70 99.60
652 39.6300 11741.00 12249.20 104.00
653 39.6800 12357.00 12886.90 106.10
654 39.7300 12472.00 13052.60 106.80
655 39.7800 12260.00 12701.30 106.70
656 39.8300 11446.00 11862.80 102.10
657 39.8800 10427.00 10643.10 98.50
658 39.9300 9072.00 9197.47 91.80
659 39.9800 7257.00 7689.95 81.50
660 40.0300 5995.00 6260.43 74.70
661 40.0800 4750.00 5006.69 66.30
662 40.1300 3769.00 3979.64 58.70
663 40.1800 3058.00 3187.95 53.30
664 40.2300 2618.00 2609.59 49.20
665 40.2800 2389.00 2205.72 47.10
666 40.3300 2101.00 1933.12 44.20
667 40.3800 1941.00 1752.73 42.80
668 40.4300 1788.00 1633.84 40.70
669 40.4800 1630.00 1554.58 39.30
670 40.5300 1513.00 1500.53 37.80
671 40.5800 1538.00 1462.67 38.00
672 40.6300 1485.00 1435.47 37.50
673 40.6800 1483.00 1415.50 37.50
674 40.7300 1482.00 1400.56 37.30
675 40.7800 1453.00 1389.19 37.10
676 40.8300 1465.00 1381.52 37.30
677 40.8800 1405.00 1374.52 36.70
678 40.9300 1387.00 1368.84 36.30
679 40.9800 1398.00 1364.13 36.60
680 41.0300 1416.00 1360.16 36.80
681 41.0800 1378.00 1356.77 36.20
682 41.1300 1391.00 1353.86 36.50
683 41.1800 1390.00 1351.34 36.70
684 41.2300 1382.00 1349.13 36.20
685 41.2800 1364.00 1347.28 36.30
686 41.3300 1399.00 1345.72 36.90
687 41.3800 1398.00 1344.44 36.80
688 41.4300 1440.00 1343.43 37.30
689 41.4800 1499.00 1342.71 38.40
690 41.5300 1428.00 1342.29 37.20
691 41.5800 1430.00 1342.20 37.20
692 41.6300 1452.00 1342.50 37.80
693 41.6800 1419.00 1343.24 37.10
694 41.7300 1394.00 1344.50 36.70
695 41.7800 1381.00 1346.96 37.00
696 41.8300 1420.00 1349.52 37.10
697 41.8800 1385.00 1352.88 36.90
698 41.9300 1454.00 1357.14 37.90
699 41.9800 1371.00 1362.41 36.60
700 42.0300 1424.00 1368.84 37.40
701 42.0800 1469.00 1376.57 38.00
702 42.1300 1371.00 1385.79 36.60
703 42.1800 1374.00 1396.73 36.90
704 42.2300 1388.00 1409.62 36.90
705 42.2800 1381.00 1424.60 37.10
706 42.3300 1355.00 1442.34 36.60
707 42.3800 1435.00 1463.20 37.80
708 42.4300 1442.00 1486.55 37.90
709 42.4800 1420.00 1512.34 37.70
710 42.5300 1467.00 1539.71 38.30
711 42.5800 1492.00 1567.29 38.80
712 42.6300 1526.00 1593.24 39.10
713 42.6800 1469.00 1615.36 38.30
714 42.7300 1555.00 1631.26 39.60
715 42.7800 1609.00 1638.79 40.50
716 42.8300 1571.00 1636.55 39.60
717 42.8800 1598.00 1624.46 40.50
718 42.9300 1589.00 1603.92 40.20
719 42.9800 1477.00 1577.29 38.50
720 43.0300 1563.00 1547.24 40.00
721 43.0800 1487.00 1516.27 38.90
722 43.1300 1479.00 1486.40 38.60
723 43.1800 1397.00 1459.14 38.10
724 43.2300 1422.00 1435.47 38.10
725 43.2800 1400.00 1415.86 37.90
726 43.3300 1390.00 1400.39 38.00
727 43.3800 1346.00 1388.82 37.10
728 43.4300 1394.00 1381.14 37.80
729 43.4800 1322.00 1376.02 36.90
730 43.5300 1435.00 1373.74 38.30
731 43.5800 1425.00 1373.90 37.80
732 43.6300 1360.00 1376.43 37.40
733 43.6800 1401.00 1381.45 37.70
734 43.7300 1347.00 1389.25 36.80
735 43.7800 1354.00 1400.27 37.00
736 43.8300 1343.00 1415.05 36.90
737 43.8800 1457.00 1434.10 38.00
738 43.9300 1415.00 1457.83 37.90
739 43.9800 1433.00 1486.40 37.80
740 44.0300 1502.00 1519.63 38.60
741 44.0800 1451.00 1556.88 38.00
742 44.1300 1546.00 1596.96 39.30
743 44.1800 1634.00 1638.10 40.00
744 44.2300 1688.00 1677.94 41.00
745 44.2800 1691.00 1713.59 40.80
746 44.3300 1772.00 1741.20 41.60
747 44.3800 1804.00 1759.00 42.10
748 44.4300 1806.00 1764.13 42.20
749 44.4800 1753.00 1756.02 41.10
750 44.5300 1753.00 1735.90 41.50
751 44.5800 1775.00 1706.37 41.40
752 44.6300 1642.00 1670.64 39.80
753 44.6800 1654.00 1631.84 40.10
754 44.7300 1584.00 1592.72 39.20
755 44.7800 1479.00 1555.51 37.70
756 44.8300 1495.00 1521.59 38.10
757 44.8800 1426.00 1492.04 37.10
758 44.9300 1397.00 1467.34 36.70
759 44.9800 1395.00 1447.52 36.60
760 45.0300 1401.00 1432.28 36.70
761 45.0800 1423.00 1419.45 36.90
762 45.1300 1402.00 1411.71 36.70
763 45.1800 1394.00 1406.74 36.50
764 45.2300 1394.00 1403.92 36.50
765 45.2800 1452.00 1402.69 37.30
766 45.3300 1376.00 1402.61 36.30
767 45.3800 1341.00 1403.32 35.80
768 45.4300 1411.00 1404.55 36.80
769 45.4800 1460.00 1406.14 37.40
770 45.5300 1435.00 1407.97 37.10
771 45.5800 1419.00 1410.03 36.90
772 45.6300 1427.00 1412.36 37.00
773 45.6800 1453.00 1415.03 37.40
774 45.7300 1388.00 1417.15 36.50
775 45.7800 1361.00 1420.96 36.30
776 45.8300 1340.00 1425.72 35.80
777 45.8800 1445.00 1430.91 37.40
778 45.9300 1379.00 1439.66 36.50
779 45.9800 1452.00 1452.78 37.40
780 46.0300 1469.00 1473.73 37.80
781 46.0800 1446.00 1508.41 37.40
782 46.1300 1572.00 1566.20 38.90
783 46.1800 1522.00 1660.76 38.50
784 46.2300 1760.00 1809.93 41.30
785 46.2800 1892.00 2034.13 42.90
786 46.3300 2248.00 2352.43 46.70
787 46.3800 2675.00 2776.64 51.20
788 46.4300 3210.00 3304.05 55.90
789 46.4800 3724.00 3911.10 60.30
790 46.5300 4400.00 4550.81 65.70
791 46.5800 4910.00 5154.45 69.20
792 46.6300 5362.00 5639.87 72.30
793 46.6800 5756.00 5928.02 74.60
794 46.7300 5894.00 5968.36 75.80
795 46.7800 5709.00 5762.62 74.60
796 46.8300 5285.00 5364.70 71.50
797 46.8800 4753.00 4858.09 68.10
798 46.9300 4238.00 4331.36 64.30
799 46.9800 3773.00 3863.21 60.60
800 47.0300 3495.00 3514.82 58.40
801 47.0800 3368.00 3325.97 57.00
802 47.1300 3385.00 3315.69 57.40
803 47.1800 3672.00 3479.61 59.60
804 47.2300 3967.00 3788.43 61.90
805 47.2800 4233.00 4188.81 64.10
806 47.3300 4594.00 4606.86 66.70
807 47.3800 4950.00 4957.51 69.30
808 47.4300 5098.00 5159.44 70.40
809 47.4800 5348.00 5156.33 71.60
810 47.5300 5204.00 4937.32 71.00
811 47.5800 4898.00 4539.81 68.70
812 47.6300 4193.00 4031.28 63.40
813 47.6800 3593.00 3486.18 58.60
814 47.7300 2984.00 2968.86 53.60
815 47.7800 2496.00 2523.60 48.70
816 47.8300 2152.00 2171.99 45.30
817 47.8800 1937.00 1915.81 43.30
818 47.9300 1832.00 1743.57 41.70
819 47.9800 1728.00 1638.04 40.70
820 48.0300 1733.00 1582.15 41.00
821 48.0800 1598.00 1562.59 38.80
822 48.1300 1593.00 1570.98 39.10
823 48.1800 1664.00 1603.32 40.00
824 48.2300 1664.00 1658.43 39.60
825 48.2800 1703.00 1736.01 40.60
826 48.3300 1806.00 1834.72 41.70
827 48.3800 2035.00 1950.55 44.20
828 48.4300 2158.00 2075.89 45.70
829 48.4800 2315.00 2199.26 47.20
830 48.5300 2453.00 2305.90 48.50
831 48.5800 2556.00 2379.76 50.00
832 48.6300 2638.00 2407.38 50.30
833 48.6800 2512.00 2383.38 49.50
834 48.7300 2597.00 2315.38 50.40
835 48.7800 2331.00 2213.36 47.80
836 48.8300 2185.00 2096.50 46.20
837 48.8800 2018.00 1981.32 45.00
838 48.9300 1890.00 1881.99 43.00
839 48.9800 1756.00 1809.68 41.90
840 49.0300 1651.00 1772.43 40.70
841 49.0800 1773.00 1775.27 42.00
842 49.1300 1780.00 1820.17 42.10
843 49.1800 1938.00 1905.68 44.40
844 49.2300 2079.00 2026.25 45.40
845 49.2800 2203.00 2171.56 47.30
846 49.3300 2342.00 2326.25 48.80
847 49.3800 2382.00 2470.55 48.90
848 49.4300 2628.00 2581.95 51.60
849 49.4800 2774.00 2639.38 53.20
850 49.5300 2787.00 2630.09 53.00
851 49.5800 2715.00 2555.54 52.50
852 49.6300 2621.00 2430.39 51.70
853 49.6800 2440.00 2275.62 49.60
854 49.7300 2178.00 2112.00 47.00
855 49.7800 1962.00 1956.42 44.60
856 49.8300 1869.00 1820.35 43.40
857 49.8800 1770.00 1709.65 42.30
858 49.9300 1500.00 1625.27 39.00
859 49.9800 1549.00 1564.67 39.30
860 50.0300 1540.00 1523.44 39.50
861 50.0800 1459.00 1496.66 38.10
862 50.1300 1432.00 1479.92 37.80
863 50.1800 1475.00 1469.70 38.30
864 50.2300 1450.00 1463.51 38.00
865 50.2800 1420.00 1459.73 37.30
866 50.3300 1412.00 1457.36 37.50
867 50.3800 1433.00 1455.84 37.50
868 50.4300 1356.00 1454.75 36.40
869 50.4800 1365.00 1454.13 36.40
870 50.5300 1387.00 1453.81 36.90
871 50.5800 1382.00 1453.74 36.30
872 50.6300 1357.00 1453.91 36.30
873 50.6800 1439.00 1454.33 37.00
874 50.7300 1375.00 1455.06 36.20
875 50.7800 1379.00 1456.19 36.20
876 50.8300 1341.00 1457.90 35.70
877 50.8800 1379.00 1460.38 36.00
878 50.9300 1399.00 1464.00 36.50
879 50.9800 1357.00 1469.22 35.60
880 51.0300 1346.00 1476.59 35.60
881 51.0800 1425.00 1486.72 36.50
882 51.1300 1434.00 1500.15 36.60
883 51.1800 1519.00 1517.27 37.50
884 51.2300 1481.00 1538.09 37.20
885 51.2800 1515.00 1562.19 37.40
886 51.3300 1546.00 1588.52 37.90
887 51.3800 1653.00 1615.39 39.10
888 51.4300 1613.00 1640.49 38.60
889 51.4800 1665.00 1661.00 39.20
890 51.5300 1766.00 1674.05 40.40
891 51.5800 1719.00 1677.53 39.70
892 51.6300 1806.00 1671.01 40.90
893 51.6800 1839.00 1655.88 41.20
894 51.7300 1795.00 1634.76 40.60
895 51.7800 1628.00 1610.54 38.80
896 51.8300 1692.00 1585.77 39.60
897 51.8800 1679.00 1562.42 39.40
898 51.9300 1629.00 1541.82 38.80
899 51.9800 1528.00 1524.66 37.50
900 52.0300 1538.00 1511.10 37.70
901 52.0800 1538.00 1500.91 37.70
902 52.1300 1579.00 1493.60 38.10
903 52.1800 1532.00 1494.04 37.60
904 52.2300 1473.00 1490.91 36.90
905 52.2800 1490.00 1489.05 37.10
906 52.3300 1464.00 1488.09 36.80
907 52.3800 1408.00 1487.74 36.20
908 52.4300 1401.00 1487.82 35.90
909 52.4800 1401.00 1488.21 35.90
910 52.5300 1413.00 1488.84 36.20
911 52.5800 1368.00 1489.67 35.50
912 52.6300 1425.00 1489.67 36.20
913 52.6800 1407.00 1490.67 36.20
914 52.7300 1398.00 1492.02 35.90
915 52.7800 1481.00 1493.52 36.90
916 52.8300 1383.00 1495.18 35.90
917 52.8800 1480.00 1496.98 36.90
918 52.9300 1402.00 1498.95 35.90
919 52.9800 1413.00 1501.07 36.20
920 53.0300 1457.00 1503.36 36.60
921 53.0800 1462.00 1505.83 36.60
922 53.1300 1493.00 1508.50 37.20
923 53.1800 1467.00 1510.80 36.60
924 53.2300 1429.00 1513.95 36.20
925 53.2800 1398.00 1517.37 36.00
926 53.3300 1444.00 1521.11 36.30
927 53.3800 1401.00 1525.24 35.70
928 53.4300 1402.00 1529.83 36.00
929 53.4800 1470.00 1534.88 36.60
930 53.5300 1485.00 1540.80 36.80
931 53.5800 1420.00 1547.71 36.10
932 53.6300 1482.00 1555.96 36.80
933 53.6800 1526.00 1566.08 37.20
934 53.7300 1453.00 1578.77 36.50
935 53.7800 1509.00 1595.00 37.10
936 53.8300 1486.00 1615.95 36.70
937 53.8800 1527.00 1643.06 37.30
938 53.9300 1525.00 1677.94 37.30
939 53.9800 1615.00 1722.20 38.30
940 54.0300 1635.00 1777.38 38.60
941 54.0800 1667.00 1844.78 39.00
942 54.1300 1766.00 1925.52 40.00
943 54.1800 1919.00 2020.82 42.00
944 54.2300 2026.00 2132.46 43.00
945 54.2800 2094.00 2263.72 43.90
946 54.3300 2293.00 2420.07 45.90
947 54.3800 2404.00 2609.90 47.20
948 54.4300 2686.00 2844.96 49.70
949 54.4800 2869.00 3139.70 51.50
950 54.5300 3333.00 3509.22 55.60
951 54.5800 3845.00 3963.95 60.00
952 54.6300 4296.00 4501.98 63.00
953 54.6800 4972.00 5101.96 68.40
954 54.7300 5542.00 5719.34 72.00
955 54.7800 6133.00 6285.69 75.80
956 54.8300 6736.00 6716.47 79.60
957 54.8800 7090.00 6925.32 82.30
958 54.9300 7102.00 6857.72 81.60
959 54.9800 6731.00 6519.00 80.30
960 55.0300 6229.00 5970.47 77.20
961 55.0800 5281.00 5301.33 71.30
962 55.1300 4507.00 4596.31 65.80
963 55.1800 3738.00 3925.01 60.60
964 55.2300 3267.00 3334.44 56.10
965 55.2800 2759.00 2848.96 52.20
966 55.3300 2381.00 2473.50 48.30
967 55.3800 2244.00 2198.71 47.10
968 55.4300 2042.00 2007.21 45.00
969 55.4800 1914.00 1879.14 43.70
970 55.5300 1793.00 1796.02 42.10
971 55.5800 1694.00 1742.94 41.20
972 55.6300 1639.00 1708.64 40.50
973 55.6800 1603.00 1686.54 40.30
974 55.7300 1599.00 1671.70 40.00
975 55.7800 1593.00 1661.44 40.30
976 55.8300 1611.00 1654.27 40.40
977 55.8800 1572.00 1649.33 40.00
978 55.9300 1549.00 1646.20 39.70
979 55.9800 1568.00 1644.59 40.10
980 56.0300 1551.00 1644.37 39.70
981 56.0800 1578.00 1645.44 40.20
982 56.1300 1574.00 1647.78 40.20
983 56.1800 1582.00 1651.39 40.10
984 56.2300 1587.00 1656.31 40.30
985 56.2800 1592.00 1662.66 40.30
986 56.3300 1550.00 1670.60 39.70
987 56.3800 1585.00 1680.38 40.20
988 56.4300 1661.00 1692.30 41.20
989 56.4800 1679.00 1706.79 41.20
990 56.5300 1695.00 1724.31 41.60
991 56.5800 1726.00 1745.41 41.60
992 56.6300 1728.00 1770.68 41.70
993 56.6800 1832.00 1800.97 42.90
994 56.7300 1820.00 1837.85 42.70
995 56.7800 1806.00 1884.83 42.40
996 56.8300 1892.00 1949.84 43.60
997 56.8800 2063.00 2049.74 45.10
998 56.9300 2188.00 2217.47 46.70
999 56.9800 2405.00 2511.23 48.70
1000 57.0300 2965.00 3023.08 54.10
1001 57.0800 3630.00 3880.92 59.80
1002 57.1300 5001.00 5235.54 70.20
1003 57.1800 7162.00 7227.17 83.60
1004 57.2300 9996.00 9929.65 99.20
1005 57.2800 13281.00 13287.60 114.00
1006 57.3300 16883.00 17063.90 128.30
1007 57.3800 20372.00 20828.40 141.20
1008 57.4300 23798.00 24002.30 152.60
1009 57.4800 25999.00 25968.30 158.90
1010 57.5300 27175.00 26270.40 163.10
1011 57.5800 25856.00 24832.10 158.40
1012 57.6300 22567.00 22000.40 148.10
1013 57.6800 18691.00 18362.40 134.40
1014 57.7300 14063.00 14527.70 116.80
1015 57.7800 10346.00 10983.70 100.20
1016 57.8300 7291.00 8035.40 84.00
1017 57.8800 5657.00 5795.79 73.90
1018 57.9300 4388.00 4229.43 65.20
1019 57.9800 3680.00 3211.21 59.40
1020 58.0300 3252.00 2591.44 56.00
1021 58.0800 2739.00 2233.19 51.40
1022 58.1300 2409.00 2032.44 48.10
1023 58.1800 2173.00 1919.96 45.70
1024 58.2300 1947.00 1854.37 43.40
1025 58.2800 1784.00 1813.10 41.40
1026 58.3300 1819.00 1784.76 41.80
1027 58.3800 1695.00 1763.88 40.30
1028 58.4300 1661.00 1747.76 39.90
1029 58.4800 1746.00 1735.25 40.70
1030 58.5300 1672.00 1725.47 40.10
1031 58.5800 1696.00 1717.86 40.10
1032 58.6300 1723.00 1711.96 40.40
1033 58.6800 1596.00 1707.32 38.80
1034 58.7300 1641.00 1703.50 39.40
1035 58.7800 1594.00 1700.48 38.60
1036 58.8300 1560.00 1697.11 38.40
1037 58.8800 1592.00 1693.50 38.70
1038 58.9300 1587.00 1689.51 38.50
1039 58.9800 1537.00 1685.52 37.90
1040 59.0300 1599.00 1681.05 38.80
1041 59.0800 1573.00 1676.69 38.00
1042 59.1300 1595.00 1672.71 38.70
1043 59.1800 1578.00 1669.39 38.40
1044 59.2300 1567.00 1667.03 38.00
1045 59.2800 1568.00 1666.07 38.10
1046 59.3300 1571.00 1667.15 38.30
1047 59.3800 1622.00 1671.50 38.60
1048 59.4300 1621.00 1681.35 38.80
1049 59.4800 1580.00 1700.43 38.20
1050 59.5300 1639.00 1734.87 38.80
1051 59.5800 1720.00 1793.55 39.70
1052 59.6300 1793.00 1888.04 40.70
1053 59.6800 1899.00 2031.61 41.70
1054 59.7300 2121.00 2236.85 44.10
1055 59.7800 2401.00 2512.36 47.10
1056 59.8300 2792.00 2858.77 50.60
1057 59.8800 3158.00 3264.67 53.90
1058 59.9300 3680.00 3704.65 58.30
1059 59.9800 4064.00 4140.69 61.00
1060 60.0300 4479.00 4529.72 64.20
1061 60.0800 4920.00 4830.29 67.20
1062 60.1300 4962.00 5005.77 67.40
1063 60.1800 5161.00 5031.21 68.80
1064 60.2300 4927.00 4904.84 67.30
1065 60.2800 4552.00 4647.47 64.90
1066 60.3300 4330.00 4291.66 63.00
1067 60.3800 3946.00 3877.36 60.40
1068 60.4300 3477.00 3449.82 56.80
1069 60.4800 3067.00 3050.40 53.20
1070 60.5300 2882.00 2708.29 51.60
1071 60.5800 2467.00 2437.88 47.70
1072 60.6300 2266.00 2241.50 45.70
1073 60.6800 2096.00 2111.31 43.90
1074 60.7300 1990.00 2036.18 42.80
1075 60.7800 2069.00 2003.11 44.00
1076 60.8300 1979.00 1999.96 42.70
1077 60.8800 2001.00 2015.87 43.20
1078 60.9300 2003.00 2041.86 43.30
1079 60.9800 2078.00 2069.82 43.80
1080 61.0300 2109.00 2092.22 44.40
1081 61.0800 2093.00 2102.44 44.40
1082 61.1300 2102.00 2094.24 44.10
1083 61.1800 2101.00 2071.06 44.50
1084 61.2300 1963.00 2034.00 43.00
1085 61.2800 2017.00 1987.80 43.40
1086 61.3300 1967.00 1937.12 43.10
1087 61.3800 1849.00 1885.85 42.20
1088 61.4300 1774.00 1837.12 40.70
1089 61.4800 1861.00 1793.31 42.10
1090 61.5300 1678.00 1755.88 40.20
1091 61.5800 1728.00 1725.35 40.40
1092 61.6300 1638.00 1701.59 39.50
1093 61.6800 1704.00 1683.73 40.80
1094 61.7300 1583.00 1670.83 38.60
1095 61.7800 1602.00 1661.96 39.50
1096 61.8300 1569.00 1656.24 39.10
1097 61.8800 1522.00 1652.94 38.40
1098 61.9300 1553.00 1651.56 38.90
1099 61.9800 1586.00 1651.53 39.60
1100 62.0300 1631.00 1653.61 39.70
1101 62.0800 1649.00 1658.15 40.40
1102 62.1300 1600.00 1666.60 39.80
1103 62.1800 1615.00 1681.59 39.90
1104 62.2300 1683.00 1707.09 40.70
1105 62.2800 1714.00 1748.28 41.60
1106 62.3300 1813.00 1810.60 42.30
1107 62.3800 1987.00 1898.03 44.50
1108 62.4300 2096.00 2010.72 45.90
1109 62.4800 2156.00 2142.53 46.40
1110 62.5300 2314.00 2280.22 48.10
1111 62.5800 2587.00 2404.21 50.90
1112 62.6300 2703.00 2492.33 52.00
1113 62.6800 2726.00 2527.26 52.00
1114 62.7300 2681.00 2506.59 51.90
1115 62.7800 2617.00 2447.22 51.00
1116 62.8300 2370.00 2379.17 48.50
1117 62.8800 2370.00 2336.11 48.50
1118 62.9300 2379.00 2342.92 48.70
1119 62.9800 2372.00 2431.14 48.00
1120 63.0300 2519.00 2602.78 50.00
1121 63.0800 2755.00 2848.71 51.80
1122 63.1300 3064.00 3142.56 54.50
1123 63.1800 3282.00 3443.09 56.20
1124 63.2300 3617.00 3698.93 59.30
1125 63.2800 3800.00 3860.44 60.00
1126 63.3300 4022.00 3899.48 62.30
1127 63.3800 3719.00 3824.15 59.30
1128 63.4300 3549.00 3670.15 57.90
1129 63.4800 3460.00 3479.01 56.80
1130 63.5300 3213.00 3283.00 55.20
1131 63.5800 3019.00 3100.78 52.70
1132 63.6300 2888.00 2941.41 51.90
1133 63.6800 2771.00 2805.52 50.50
1134 63.7300 2770.00 2695.29 50.50
1135 63.7800 2617.00 2608.17 48.80
1136 63.8300 2602.00 2537.59 48.90
1137 63.8800 2489.00 2475.01 47.30
1138 63.9300 2454.00 2414.19 47.30
1139 63.9800 2369.00 2355.93 46.30
1140 64.0300 2367.00 2308.63 46.10
1141 64.0800 2211.00 2283.54 44.40
1142 64.1300 2165.00 2289.49 44.20
1143 64.1800 2343.00 2329.71 45.70
1144 64.2300 2342.00 2400.49 45.70
1145 64.2800 2385.00 2491.36 46.20
1146 64.3300 2477.00 2586.65 47.00
1147 64.3800 2587.00 2669.95 47.90
1148 64.4300 2681.00 2730.97 49.00
1149 64.4800 2735.00 2768.55 49.30
1150 64.5300 2715.00 2786.00 49.10
1151 64.5800 2653.00 2783.91 48.50
1152 64.6300 2711.00 2757.37 49.00
1153 64.6800 2685.00 2698.93 48.80
1154 64.7300 2576.00 2606.22 47.80
1155 64.7800 2442.00 2486.77 46.60
1156 64.8300 2369.00 2354.86 45.80
1157 64.8800 2201.00 2224.97 44.40
1158 64.9300 2024.00 2107.94 42.40
1159 64.9800 2042.00 2010.24 42.60
1160 65.0300 1860.00 1933.94 40.80
1161 65.0800 1811.00 1877.58 40.20
1162 65.1300 1783.00 1837.53 39.80
1163 65.1800 1847.00 1809.77 40.80
1164 65.2300 1825.00 1791.31 40.40
1165 65.2800 1849.00 1780.60 40.70
1166 65.3300 1766.00 1778.73 39.90
1167 65.3800 1813.00 1788.46 40.50
1168 65.4300 1771.00 1815.50 39.80
1169 65.4800 1821.00 1867.79 40.70
1170 65.5300 1973.00 1956.67 42.30
1171 65.5800 2101.00 2090.97 43.50
1172 65.6300 2242.00 2275.67 45.10
1173 65.6800 2523.00 2507.43 47.90
1174 65.7300 2602.00 2769.18 48.40
1175 65.7800 2914.00 3029.86 51.90
1176 65.8300 3163.00 3249.78 53.70
1177 65.8800 3385.00 3374.64 55.50
1178 65.9300 3386.00 3374.49 55.90
1179 65.9800 3367.00 3249.30 55.60
1180 66.0300 3203.00 3032.45 54.00
1181 66.0800 2888.00 2771.14 51.60
1182 66.1300 2537.00 2509.95 48.20
1183 66.1800 2324.00 2277.97 46.10
1184 66.2300 2050.00 2093.81 43.50
1185 66.2800 1944.00 1962.18 42.40
1186 66.3300 1921.00 1878.94 42.00
1187 66.3800 1861.00 1835.40 41.50
1188 66.4300 1791.00 1821.70 40.70
1189 66.4800 1790.00 1828.59 40.60
1190 66.5300 1836.00 1847.71 41.20
1191 66.5800 1825.00 1871.30 41.00
1192 66.6300 1840.00 1891.95 41.10
1193 66.6800 1843.00 1903.15 41.30
1194 66.7300 1848.00 1901.09 41.30
1195 66.7800 1840.00 1885.91 41.30
1196 66.8300 1801.00 1861.66 40.80
1197 66.8800 1858.00 1833.46 41.40
1198 66.9300 1780.00 1805.76 40.60
1199 66.9800 1751.00 1781.57 40.10
1200 67.0300 1770.00 1762.29 40.40
1201 67.0800 1694.00 1748.04 39.60
1202 67.1300 1738.00 1738.10 39.90
1203 67.1800 1736.00 1732.74 40.20
1204 67.2300 1655.00 1728.34 39.20
1205 67.2800 1688.00 1725.38 39.60
1206 67.3300 1689.00 1723.30 39.70
1207 67.3800 1714.00 1721.69 40.10
1208 67.4300 1677.00 1720.35 39.50
1209 67.4800 1694.00 1719.28 40.10
1210 67.5300 1649.00 1718.62 39.40
1211 67.5800 1758.00 1718.52 40.80
1212 67.6300 1662.00 1719.54 39.60
1213 67.6800 1742.00 1723.70 40.70
1214 67.7300 1695.00 1727.85 40.10
1215 67.7800 1741.00 1733.99 40.90
1216 67.8300 1746.00 1742.34 40.70
1217 67.8800 1787.00 1752.82 41.80
1218 67.9300 1772.00 1765.78 41.30
1219 67.9800 1834.00 1780.71 42.20
1220 68.0300 1916.00 1797.10 43.20
1221 68.0800 1840.00 1814.18 42.50
1222 68.1300 1864.00 1831.05 42.60
1223 68.1800 1868.00 1846.65 43.30
1224 68.2300 1944.00 1860.01 43.70
1225 68.2800 1971.00 1870.71 44.40
1226 68.3300 1976.00 1879.83 44.60
1227 68.3800 1990.00 1889.66 44.60
1228 68.4300 1989.00 1905.15 44.70
1229 68.4800 2027.00 1933.61 45.50
1230 68.5300 2015.00 1985.59 44.90
1231 68.5800 2214.00 2074.81 47.40
1232 68.6300 2174.00 2216.46 47.10
1233 68.6800 2457.00 2423.16 49.70
1234 68.7300 2623.00 2701.88 51.50
1235 68.7800 3052.00 3044.88 56.10
1236 68.8300 3465.00 3427.33 59.00
1237 68.8800 3646.00 3804.87 61.10
1238 68.9300 4046.00 4115.82 64.60
1239 68.9800 4108.00 4291.97 64.30
1240 69.0300 4273.00 4285.57 66.10
1241 69.0800 3917.00 4098.30 63.20
1242 69.1300 3800.00 3780.73 61.90
1243 69.1800 3280.00 3401.09 57.60
1244 69.2300 2998.00 3019.66 55.30
1245 69.2800 2626.00 2678.73 51.20
1246 69.3300 2398.00 2401.58 49.30
1247 69.3800 2229.00 2194.37 47.10
1248 69.4300 2128.00 2050.84 46.10
1249 69.4800 2034.00 1958.37 44.90
1250 69.5300 2144.00 1902.51 46.20
1251 69.5800 2074.00 1871.51 44.90
1252 69.6300 2030.00 1856.11 44.90
1253 69.6800 1937.00 1850.26 43.30
1254 69.7300 1967.00 1850.74 43.70
1255 69.7800 1970.00 1855.90 43.80
1256 69.8300 1934.00 1865.26 43.30
1257 69.8800 1970.00 1879.13 43.30
1258 69.9300 2087.00 1898.39 45.00
1259 69.9800 2080.00 1924.55 44.20
1260 70.0300 2096.00 1959.78 44.60
1261 70.0800 2119.00 2008.49 44.80
1262 70.1300 2193.00 2076.46 45.40
1263 70.1800 2319.00 2173.03 46.50
1264 70.2300 2507.00 2311.73 48.80
1265 70.2800 2661.00 2510.90 49.70
1266 70.3300 2948.00 2792.68 52.40
1267 70.3800 3374.00 3180.07 56.20
1268 70.4300 3807.00 3690.75 59.40
1269 70.4800 4495.00 4329.28 64.30
1270 70.5300 5163.00 5076.95 69.50
1271 70.5800 5992.00 5886.94 74.40
1272 70.6300 6859.00 6685.95 79.50
1273 70.6800 7749.00 7378.66 84.60
1274 70.7300 8174.00 7859.47 86.90
1275 70.7800 8615.00 8049.73 89.10
1276 70.8300 8782.00 7943.82 90.10
1277 70.8800 8092.00 7619.68 86.50
1278 70.9300 7607.00 7200.74 83.70
1279 70.9800 6971.00 6800.45 79.90
1280 71.0300 6692.00 6480.96 78.60
1281 71.0800 6345.00 6240.43 76.10
1282 71.1300 6481.00 6022.08 77.00
1283 71.1800 6280.00 5745.07 76.10
1284 71.2300 5810.00 5356.27 72.80
1285 71.2800 5385.00 4868.98 70.40
1286 71.3300 4838.00 4342.76 66.80
1287 71.3800 4342.00 3844.02 63.00
1288 71.4300 3703.00 3421.08 58.40
1289 71.4800 3395.00 3097.60 55.90
1290 71.5300 3119.00 2874.06 53.40
1291 71.5800 3031.00 2737.55 52.60
1292 71.6300 3027.00 2676.06 52.80
1293 71.6800 2947.00 2691.89 51.80
1294 71.7300 3142.00 2803.56 53.60
1295 71.7800 3442.00 3035.46 56.40
1296 71.8300 3791.00 3402.55 58.80
1297 71.8800 4135.00 3894.10 61.60
1298 71.9300 4828.00 4463.29 66.80
1299 71.9800 5259.00 5025.71 69.10
1300 72.0300 5879.00 5472.69 73.50
1301 72.0800 6126.00 5706.70 75.00
1302 72.1300 6140.00 5701.81 74.60
1303 72.1800 5949.00 5535.06 73.90
1304 72.2300 5884.00 5341.92 73.50
1305 72.2800 5493.00 5246.33 70.70
1306 72.3300 5576.00 5315.47 71.50
1307 72.3800 5724.00 5539.85 72.60
1308 72.4300 6224.00 5835.57 75.20
1309 72.4800 6464.00 6066.78 76.70
1310 72.5300 6497.00 6093.66 77.30
1311 72.5800 6340.00 5842.95 75.90
1312 72.6300 5865.00 5348.19 73.00
1313 72.6800 4996.00 4712.57 68.00
1314 72.7300 4279.00 4049.38 62.40
1315 72.7800 3614.00 3446.31 57.50
1316 72.8300 3117.00 2953.84 53.70
1317 72.8800 2875.00 2586.09 51.40
1318 72.9300 2515.00 2328.90 48.00
1319 72.9800 2411.00 2157.69 47.20
1320 73.0300 2181.00 2046.09 44.80
1321 73.0800 2079.00 1972.84 43.60
1322 73.1300 2080.00 1923.36 43.80
1323 73.1800 2119.00 1888.61 44.40
1324 73.2300 1928.00 1863.38 42.00
1325 73.2800 1943.00 1844.61 42.50
1326 73.3300 2009.00 1830.45 43.20
1327 73.3800 1894.00 1819.70 41.80
1328 73.4300 1912.00 1811.48 42.10
1329 73.4800 1870.00 1805.25 41.90
1330 73.5300 1850.00 1800.57 41.40
1331 73.5800 1927.00 1797.17 42.20
1332 73.6300 1856.00 1794.88 41.70
1333 73.6800 1850.00 1793.55 41.60
1334 73.7300 1937.00 1793.08 42.40
1335 73.7800 1867.00 1793.36 42.00
1336 73.8300 1895.00 1794.29 42.10
1337 73.8800 1874.00 1795.72 41.90
1338 73.9300 1878.00 1797.46 42.10
1339 73.9800 1892.00 1799.83 42.00
1340 74.0300 1852.00 1801.46 41.60
1341 74.0800 1910.00 1802.57 42.50
1342 74.1300 1771.00 1803.00 40.70
1343 74.1800 1812.00 1802.22 41.60
1344 74.2300 1851.00 1800.33 41.80
1345 74.2800 1831.00 1797.45 41.90
1346 74.3300 1843.00 1793.85 41.90
1347 74.3800 1764.00 1789.89 41.30
1348 74.4300 1834.00 1784.79 41.90
1349 74.4800 1773.00 1781.02 41.50
1350 74.5300 1770.00 1777.70 41.30
1351 74.5800 1823.00 1775.10 42.10
1352 74.6300 1798.00 1773.40 41.80
1353 74.6800 1775.00 1772.86 41.60
1354 74.7300 1847.00 1773.79 42.30
1355 74.7800 1838.00 1776.57 42.80
1356 74.8300 1833.00 1781.71 42.30
1357 74.8800 1875.00 1789.76 42.90
1358 74.9300 1875.00 1801.47 43.20
1359 74.9800 1844.00 1817.43 42.60
1360 75.0300 1939.00 1838.10 43.60
1361 75.0800 1914.00 1863.65 43.70
1362 75.1300 2022.00 1893.76 44.60
1363 75.1800 1993.00 1927.48 44.50
1364 75.2300 2008.00 1963.14 44.80
1365 75.2800 2081.00 1998.22 45.50
1366 75.3300 2077.00 2029.29 45.40
1367 75.3800 2198.00 2052.34 46.80
1368 75.4300 2203.00 2063.63 46.80
1369 75.4800 2186.00 2061.04 46.40
1370 75.5300 2239.00 2045.16 47.20
1371 75.5800 2099.00 2018.95 45.40
1372 75.6300 2055.00 1986.27 44.90
1373 75.6800 2155.00 1950.61 46.10
1374 75.7300 1981.00 1916.22 44.10
1375 75.7800 1985.00 1884.69 43.90
1376 75.8300 1910.00 1857.31 43.40
1377 75.8800 2041.00 1834.83 44.60
1378 75.9300 1942.00 1817.33 43.40
1379 75.9800 1948.00 1804.52 43.40
1380 76.0300 1948.00 1795.84 43.60
1381 76.0800 1902.00 1790.64 42.60
1382 76.1300 1870.00 1788.23 42.50
1383 76.1800 2028.00 1788.04 44.10
1384 76.2300 1900.00 1789.59 42.60
1385 76.2800 1884.00 1792.51 42.30
1386 76.3300 1895.00 1795.50 42.60
1387 76.3800 1879.00 1800.48 42.10
1388 76.4300 1883.00 1806.23 42.30
1389 76.4800 1961.00 1812.61 43.10
1390 76.5300 1896.00 1819.36 42.30
1391 76.5800 1896.00 1826.53 42.10
1392 76.6300 1833.00 1833.82 41.60
1393 76.6800 1991.00 1841.05 43.10
1394 76.7300 1798.00 1848.04 41.00
1395 76.7800 1868.00 1854.69 41.90
1396 76.8300 1868.00 1860.97 41.80
1397 76.8800 1829.00 1866.92 41.20
1398 76.9300 1888.00 1872.57 42.20
1399 76.9800 1903.00 1878.09 42.10
1400 77.0300 2003.00 1882.21 43.10
1401 77.0800 1905.00 1887.13 42.10
1402 77.1300 1956.00 1891.48 42.60
1403 77.1800 1972.00 1895.02 42.80
1404 77.2300 1971.00 1897.51 42.80
1405 77.2800 1947.00 1898.84 42.70
1406 77.3300 1952.00 1899.14 42.60
1407 77.3800 1918.00 1898.83 42.20
1408 77.4300 1929.00 1897.59 42.50
1409 77.4800 1951.00 1898.86 42.70
1410 77.5300 1980.00 1903.22 42.90
1411 77.5800 1952.00 1913.13 42.70
1412 77.6300 1897.00 1932.04 42.10
1413 77.6800 2003.00 1965.05 43.10
1414 77.7300 2082.00 2017.93 44.10
1415 77.7800 2138.00 2096.75 44.80
1416 77.8300 2300.00 2206.00 46.20
1417 77.8800 2495.00 2346.23 48.40
1418 77.9300 2597.00 2511.35 49.40
1419 77.9800 2798.00 2686.07 50.90
1420 78.0300 3012.00 2844.81 53.20
1421 78.0800 2973.00 2953.56 52.70
1422 78.1300 3095.00 2980.60 53.60
1423 78.1800 2987.00 2915.54 53.00
1424 78.2300 2909.00 2777.54 52.20
1425 78.2800 2628.00 2601.06 49.40
1426 78.3300 2575.00 2421.51 49.20
1427 78.3800 2419.00 2255.76 47.70
1428 78.4300 2173.00 2119.60 45.00
1429 78.4800 2233.00 2017.20 45.60
1430 78.5300 2214.00 1946.41 45.60
1431 78.5800 2170.00 1901.78 44.80
1432 78.6300 2176.00 1877.26 45.00
1433 78.6800 2218.00 1868.08 45.50
1434 78.7300 2217.00 1872.35 45.30
1435 78.7800 2203.00 1890.70 45.30
1436 78.8300 2276.00 1926.56 46.10
1437 78.8800 2413.00 1985.13 47.30
1438 78.9300 2429.00 2071.87 47.60
1439 78.9800 2553.00 2190.07 48.80
1440 79.0300 2658.00 2338.34 49.70
1441 79.0800 2760.00 2508.15 50.80
1442 79.1300 3021.00 2681.97 53.10
1443 79.1800 3127.00 2833.07 53.80
1444 79.2300 3088.00 2929.49 53.70
1445 79.2800 3306.00 2948.29 55.60
1446 79.3300 3163.00 2889.59 54.10
1447 79.3800 2912.00 2775.28 52.30
1448 79.4300 2843.00 2631.09 51.60
1449 79.4800 2534.00 2477.45 48.50
1450 79.5300 2497.00 2329.54 48.50
1451 79.5800 2422.00 2198.69 47.60
1452 79.6300 2334.00 2091.34 46.50
1453 79.6800 2119.00 2008.71 44.80
1454 79.7300 2027.00 1948.48 43.50
1455 79.7800 1959.00 1906.58 42.80
1456 79.8300 1937.00 1878.64 42.90
1457 79.8800 1973.00 1860.67 43.00
1458 79.9300 1990.00 1850.60 43.10
1459 79.9800 1886.00 1843.47 42.40
1460 80.0300 1877.00 1838.57 42.00
1461 80.0800 1829.00 1835.31 41.40
1462 80.1300 1799.00 1833.06 41.40
1463 80.1800 1862.00 1831.59 42.00
1464 80.2300 1813.00 1830.75 41.20
1465 80.2800 1812.00 1830.20 41.80
1466 80.3300 1879.00 1829.44 42.20
1467 80.3800 1788.00 1827.88 41.30
1468 80.4300 1957.00 1825.28 43.40
1469 80.4800 1879.00 1821.96 42.40
1470 80.5300 1792.00 1818.58 41.40
1471 80.5800 1811.00 1815.79 42.00
1472 80.6300 1774.00 1814.00 41.20
1473 80.6800 1787.00 1813.39 41.80
1474 80.7300 1844.00 1813.95 42.30
1475 80.7800 1779.00 1815.58 41.80
1476 80.8300 1799.00 1818.14 41.90
1477 80.8800 1760.00 1821.52 41.80
1478 80.9300 1804.00 1825.71 42.10
1479 80.9800 1824.00 1830.74 42.70
1480 81.0300 1856.00 1836.72 42.90
1481 81.0800 1898.00 1843.81 43.50
1482 81.1300 1892.00 1852.34 43.50
1483 81.1800 1850.00 1862.84 43.20
1484 81.2300 1879.00 1876.42 43.30
1485 81.2800 1976.00 1895.29 44.80
1486 81.3300 1828.00 1928.62 42.90
1487 81.3800 2021.00 1974.03 45.20
1488 81.4300 2044.00 2048.03 45.50
1489 81.4800 2267.00 2166.57 47.80
1490 81.5300 2411.00 2347.71 49.40
1491 81.5800 2660.00 2606.44 51.80
1492 81.6300 2994.00 2946.53 55.00
1493 81.6800 3301.00 3352.23 57.90
1494 81.7300 3882.00 3781.23 62.60
1495 81.7800 4397.00 4162.25 66.60
1496 81.8300 4628.00 4402.45 68.60
1497 81.8800 4678.00 4423.82 68.30
1498 81.9300 4370.00 4218.90 66.40
1499 81.9800 4047.00 3857.32 63.50
1500 82.0300 3476.00 3433.04 58.80
1501 82.0800 2991.00 3022.46 54.40
1502 82.1300 2674.00 2673.07 51.70
1503 82.1800 2281.00 2404.94 47.10
1504 82.2300 2198.00 2217.20 46.60
1505 82.2800 2079.00 2096.26 45.10
1506 82.3300 2027.00 2024.24 44.40
1507 82.3800 1948.00 1984.69 43.40
1508 82.4300 1941.00 1965.39 43.60
1509 82.4800 1981.00 1958.66 43.40
1510 82.5300 1937.00 1960.49 43.30
1511 82.5800 1958.00 1969.33 43.20
1512 82.6300 1928.00 1985.01 42.80
1513 82.6800 1986.00 2008.82 43.30
1514 82.7300 2045.00 2042.02 44.20
1515 82.7800 2089.00 2086.31 44.30
1516 82.8300 2118.00 2143.44 44.70
1517 82.8800 2219.00 2215.11 45.70
1518 82.9300 2282.00 2303.21 46.30
1519 82.9800 2425.00 2410.38 47.40
1520 83.0300 2645.00 2541.22 49.80
1521 83.0800 2861.00 2703.57 51.50
1522 83.1300 3062.00 2909.67 53.30
1523 83.1800 3265.00 3176.03 55.10
1524 83.2300 3715.00 3523.32 58.60
1525 83.2800 4107.00 3970.80 61.60
1526 83.3300 4657.00 4525.51 65.80
1527 83.3800 5309.00 5168.89 69.90
1528 83.4300 6006.00 5841.34 74.50
1529 83.4800 6717.00 6442.44 78.80
1530 83.5300 7131.00 6830.85 81.00
1531 83.5800 7156.00 6882.10 81.20
1532 83.6300 6771.00 6570.21 79.10
1533 83.6800 6196.00 5990.84 75.60
1534 83.7300 5480.00 5290.30 71.00
1535 83.7800 4632.00 4594.70 65.30
1536 83.8300 4143.00 3985.68 61.80
1537 83.8800 3498.00 3505.71 56.90
1538 83.9300 3271.00 3162.49 54.90
1539 83.9800 3040.00 2941.02 52.80
1540 84.0300 2792.00 2808.04 50.80
1541 84.0800 2771.00 2728.02 50.30
1542 84.1300 2552.00 2664.77 48.30
1543 84.1800 2506.00 2591.89 48.10
1544 84.2300 2414.00 2501.43 46.90
1545 84.2800 2336.00 2401.05 46.30
1546 84.3300 2287.00 2302.96 45.90
1547 84.3800 2142.00 2216.89 44.20
1548 84.4300 2129.00 2148.32 44.20
1549 84.4800 2077.00 2098.95 43.60
1550 84.5300 2124.00 2067.13 44.00
1551 84.5800 2000.00 2051.72 42.70
1552 84.6300 2067.00 2050.20 43.50
1553 84.6800 2095.00 2061.96 43.60
1554 84.7300 2116.00 2088.34 43.90
1555 84.7800 2175.00 2132.74 44.50
1556 84.8300 2217.00 2200.10 44.90
1557 84.8800 2311.00 2295.98 45.80
1558 84.9300 2373.00 2425.63 46.50
1559 84.9800 2445.00 2591.41 47.10
1560 85.0300 2777.00 2791.43 50.10
1561 85.0800 2945.00 3017.88 51.70
1562 85.1300 3256.00 3255.88 54.30
1563 85.1800 3662.00 3484.46 57.80
1564 85.2300 3824.00 3681.81 58.90
1565 85.2800 3922.00 3841.85 59.70
1566 85.3300 4188.00 3999.50 61.80
1567 85.3800 4359.00 4245.80 63.00
1568 85.4300 5108.00 4713.43 68.10
1569 85.4800 5889.00 5535.93 73.00
1570 85.5300 7177.00 6791.09 80.80
1571 85.5800 8578.00 8437.11 88.00
1572 85.6300 10716.00 10263.20 98.50
1573 85.6800 12273.00 11878.10 105.50
1574 85.7300 13377.00 12769.80 109.90
1575 85.7800 12919.00 12554.40 108.50
1576 85.8300 11832.00 11292.00 103.60
1577 85.8800 9561.00 9428.09 93.30
1578 85.9300 7113.00 7445.47 80.50
1579 85.9800 5468.00 5693.44 70.50
1580 86.0300 4086.00 4341.52 61.00
1581 86.0800 3405.00 3411.68 55.90
1582 86.1300 2834.00 2832.12 50.70
1583 86.1800 2631.00 2498.16 49.10
1584 86.2300 2451.00 2315.34 47.40
1585 86.2800 2296.00 2216.64 45.90
1586 86.3300 2163.00 2161.92 44.50
1587 86.3800 2125.00 2129.68 44.20
1588 86.4300 2030.00 2108.59 43.20
1589 86.4800 2038.00 2091.97 43.40
1590 86.5300 2000.00 2075.28 42.90
1591 86.5800 1973.00 2056.15 42.70
1592 86.6300 1947.00 2034.96 42.40
1593 86.6800 1975.00 2013.69 43.00
1594 86.7300 2039.00 1994.36 43.40
1595 86.7800 1865.00 1978.26 41.90
1596 86.8300 1936.00 1964.65 42.60
1597 86.8800 1903.00 1956.29 42.50
1598 86.9300 1882.00 1951.63 42.10
1599 86.9800 1819.00 1950.67 41.50
1600 87.0300 1954.00 1953.96 43.00
1601 87.0800 1944.00 1963.97 43.20
1602 87.1300 2033.00 1981.67 43.90
1603 87.1800 2027.00 2012.94 44.30
1604 87.2300 2181.00 2065.15 45.70
1605 87.2800 2255.00 2148.30 46.60
1606 87.3300 2563.00 2274.58 49.80
1607 87.3800 2808.00 2456.43 52.40
1608 87.4300 3055.00 2703.36 54.30
1609 87.4800 3438.00 3017.58 58.00
1610 87.5300 3757.00 3389.54 60.60
1611 87.5800 4243.00 3792.43 64.30
1612 87.6300 4696.00 4182.33 67.80
1613 87.6800 4924.00 4506.27 69.50
1614 87.7300 5183.00 4709.80 71.10
1615 87.7800 5217.00 4766.95 72.00
1616 87.8300 5204.00 4696.13 71.50
1617 87.8800 4968.00 4539.77 69.80
1618 87.9300 4844.00 4365.33 69.40
1619 87.9800 4850.00 4258.28 69.00
1620 88.0300 4668.00 4269.65 67.70
1621 88.0800 4918.00 4392.61 69.60
1622 88.1300 4969.00 4557.74 69.80
1623 88.1800 4920.00 4668.72 69.30
1624 88.2300 4976.00 4659.44 70.00
1625 88.2800 4798.00 4505.86 68.30
1626 88.3300 4346.00 4208.13 65.10
1627 88.3800 3941.00 3808.15 61.90
1628 88.4300 3405.00 3384.18 57.50
1629 88.4800 3002.00 3006.92 53.70
1630 88.5300 2780.00 2715.89 52.00
1631 88.5800 2541.00 2521.85 49.10
1632 88.6300 2419.00 2414.64 48.20
1633 88.6800 2437.00 2372.14 48.20
1634 88.7300 2442.00 2367.64 48.20
1635 88.7800 2427.00 2374.15 47.80
1636 88.8300 2473.00 2365.35 48.50
1637 88.8800 2341.00 2333.36 46.80
1638 88.9300 2249.00 2276.98 46.00
1639 88.9800 2263.00 2207.86 45.80
1640 89.0300 2179.00 2138.45 45.20
1641 89.0800 2015.00 2077.39 43.10
1642 89.1300 1947.00 2029.94 42.50
1643 89.1800 2003.00 1997.23 42.90
1644 89.2300 1915.00 1978.12 42.00
1645 89.2800 1973.00 1969.84 42.50
1646 89.3300 1920.00 1968.93 42.00
1647 89.3800 1940.00 1971.80 42.10
1648 89.4300 2001.00 1975.26 42.80
1649 89.4800 1848.00 1977.18 40.90
1650 89.5300 1917.00 1977.22 41.90
1651 89.5800 1888.00 1976.76 41.40
1652 89.6300 1966.00 1978.37 42.20
1653 89.6800 1863.00 1985.47 41.20
1654 89.7300 1836.00 2002.94 40.80
1655 89.7800 1983.00 2038.39 42.30
1656 89.8300 2034.00 2103.50 43.00
1657 89.8800 2119.00 2214.78 43.70
1658 89.9300 2422.00 2391.87 46.80
1659 89.9800 2567.00 2651.59 48.20
1660 90.0300 2956.00 3000.46 51.60
1661 90.0800 3445.00 3421.91 55.60
1662 90.1300 3894.00 3870.09 59.40
1663 90.1800 4307.00 4267.24 62.20
1664 90.2300 4574.00 4516.40 64.00
1665 90.2800 4593.00 4569.59 64.40
1666 90.3300 4335.00 4428.83 62.40
1667 90.3800 4124.00 4144.64 60.80
1668 90.4300 3699.00 3782.64 57.80
1669 90.4800 3256.00 3410.89 54.00
1670 90.5300 2806.00 3076.35 50.20
1671 90.5800 2681.00 2801.24 49.10
1672 90.6300 2424.00 2589.48 46.60
1673 90.6800 2253.00 2434.54 44.80
1674 90.7300 2113.00 2325.07 43.60
1675 90.7800 2132.00 2247.95 43.80
1676 90.8300 2046.00 2191.96 42.70
1677 90.8800 2042.00 2150.61 42.70
1678 90.9300 2038.00 2122.68 42.80
1679 90.9800 2080.00 2110.95 43.00
1680 91.0300 1990.00 2120.91 42.20
1681 91.0800 2113.00 2158.69 43.60
1682 91.1300 2172.00 2227.33 44.00
1683 91.1800 2299.00 2322.01 45.20
1684 91.2300 2407.00 2426.08 46.50
1685 91.2800 2531.00 2510.15 47.50
1686 91.3300 2631.00 2538.81 48.40
1687 91.3800 2526.00 2496.86 47.70
1688 91.4300 2466.00 2401.53 46.90
1689 91.4800 2332.00 2288.78 45.40
1690 91.5300 2266.00 2189.89 45.10
1691 91.5800 2050.00 2124.53 42.60
1692 91.6300 1998.00 2101.98 42.00
1693 91.6800 2088.00 2123.29 43.10
1694 91.7300 2050.00 2184.22 42.60
1695 91.7800 2185.00 2276.92 43.90
1696 91.8300 2362.00 2389.86 45.90
1697 91.8800 2451.00 2506.34 46.60
1698 91.9300 2500.00 2603.50 46.90
1699 91.9800 2487.00 2655.08 46.80
1700 92.0300 2656.00 2644.83 48.50
1701 92.0800 2480.00 2579.66 46.70
1702 92.1300 2397.00 2485.11 46.00
1703 92.1800 2316.00 2389.66 45.20
1704 92.2300 2249.00 2311.80 44.40
1705 92.2800 2078.00 2259.80 43.00
1706 92.3300 2144.00 2233.78 43.50
1707 92.3800 2051.00 2223.43 42.80
1708 92.4300 2073.00 2214.22 42.90
1709 92.4800 2106.00 2196.02 43.20
1710 92.5300 2008.00 2170.79 42.30
1711 92.5800 2064.00 2147.42 42.80
1712 92.6300 1956.00 2135.75 41.70
1713 92.6800 1942.00 2137.58 41.80
1714 92.7300 1896.00 2151.75 41.00
1715 92.7800 1995.00 2169.87 42.30
1716 92.8300 1979.00 2180.89 42.10
1717 92.8800 1961.00 2175.00 42.10
1718 92.9300 1941.00 2149.29 41.70
1719 92.9800 1870.00 2108.63 41.20
1720 93.0300 1859.00 2061.11 41.00
1721 93.0800 1811.00 2013.83 40.60
1722 93.1300 1778.00 1972.39 40.10
1723 93.1800 1773.00 1937.88 40.50
1724 93.2300 1774.00 1911.99 40.10
1725 93.2800 1801.00 1894.37 41.00
1726 93.3300 1765.00 1884.06 40.40
1727 93.3800 1803.00 1879.95 41.00
1728 93.4300 1697.00 1881.27 39.80
1729 93.4800 1759.00 1887.76 40.70
1730 93.5300 1860.00 1899.93 41.60
1731 93.5800 1761.00 1918.99 40.80
1732 93.6300 1775.00 1946.79 40.80
1733 93.6800 1851.00 1985.54 42.10
1734 93.7300 1867.00 2037.42 42.00
1735 93.7800 1849.00 2103.96 42.30
1736 93.8300 2065.00 2185.39 44.50
1737 93.8800 2040.00 2279.93 44.30
1738 93.9300 2228.00 2383.18 46.40
1739 93.9800 2278.00 2487.30 47.20
1740 94.0300 2351.00 2580.36 47.50
1741 94.0800 2415.00 2647.97 48.60
1742 94.1300 2435.00 2675.73 48.80
1743 94.1800 2374.00 2657.06 48.10
1744 94.2300 2374.00 2597.02 48.20
1745 94.2800 2291.00 2509.17 47.80
1746 94.3300 2247.00 2410.06 46.80
1747 94.3800 2104.00 2309.28 45.40
1748 94.4300 2050.00 2216.60 45.20
1749 94.4800 1990.00 2137.03 43.90
1750 94.5300 1913.00 2072.78 43.20
1751 94.5800 1884.00 2023.43 43.20
1752 94.6300 1871.00 1989.33 42.60
1753 94.6800 1803.00 1968.26 41.90
1754 94.7300 1860.00 1958.60 43.00
1755 94.7800 1832.00 1958.97 42.00
1756 94.8300 1844.00 1968.37 42.40
1757 94.8800 1849.00 1986.19 42.50
1758 94.9300 1800.00 2012.04 41.60
1759 94.9800 1843.00 2047.22 42.00
1760 95.0300 1996.00 2087.55 44.10
1761 95.0800 1964.00 2133.55 43.10
1762 95.1300 2061.00 2183.49 44.40
1763 95.1800 2055.00 2234.94 44.40
1764 95.2300 2216.00 2284.34 45.80
1765 95.2800 2260.00 2326.81 46.10
1766 95.3300 2250.00 2356.86 46.40
1767 95.3800 2276.00 2370.24 46.20
1768 95.4300 2252.00 2364.75 46.10
1769 95.4800 2186.00 2341.44 45.10
1770 95.5300 2129.00 2303.51 44.60
1771 95.5800 2102.00 2255.25 44.10
1772 95.6300 2067.00 2201.41 43.80
1773 95.6800 1932.00 2146.48 42.10
1774 95.7300 1897.00 2093.93 41.90
1775 95.7800 1899.00 2044.82 41.70
1776 95.8300 1900.00 2001.17 41.80
1777 95.8800 1788.00 1963.73 40.30
1778 95.9300 1769.00 1932.77 40.20
1779 95.9800 1706.00 1908.28 39.30
1780 96.0300 1795.00 1890.61 40.40
1781 96.0800 1775.00 1878.86 40.00
1782 96.1300 1791.00 1873.58 40.30
1783 96.1800 1794.00 1874.00 40.10
1784 96.2300 1818.00 1881.92 40.50
1785 96.2800 1892.00 1895.80 41.20
1786 96.3300 1791.00 1914.12 40.10
1787 96.3800 1891.00 1933.95 40.90
1788 96.4300 1884.00 1950.83 41.10
1789 96.4800 1890.00 1959.52 41.00
1790 96.5300 1972.00 1957.05 41.80
1791 96.5800 1956.00 1945.82 41.50
1792 96.6300 1838.00 1931.08 40.50
1793 96.6800 1923.00 1918.07 41.20
1794 96.7300 1886.00 1910.03 40.80
1795 96.7800 1899.00 1908.82 41.00
1796 96.8300 1817.00 1915.39 40.00
1797 96.8800 1858.00 1931.03 40.30
1798 96.9300 1882.00 1958.60 40.80
1799 96.9800 1927.00 2002.29 41.10
1800 97.0300 2049.00 2064.70 42.40
1801 97.0800 2102.00 2142.84 43.00
1802 97.1300 2172.00 2225.58 43.60
1803 97.1800 2142.00 2292.30 43.30
1804 97.2300 2289.00 2317.87 44.90
1805 97.2800 2197.00 2290.57 43.80
1806 97.3300 2127.00 2225.91 43.10
1807 97.3800 2036.00 2147.57 42.30
1808 97.4300 1964.00 2073.94 41.40
1809 97.4800 1925.00 2014.65 41.00
1810 97.5300 1780.00 1972.16 39.60
1811 97.5800 1892.00 1944.55 40.70
1812 97.6300 1832.00 1928.29 40.00
1813 97.6800 1792.00 1920.27 39.80
1814 97.7300 1793.00 1918.50 39.60
1815 97.7800 1794.00 1921.94 39.80
1816 97.8300 1764.00 1929.95 39.40
1817 97.8800 1833.00 1941.90 40.10
1818 97.9300 1872.00 1957.03 40.70
1819 97.9800 1805.00 1974.69 39.90
1820 98.0300 1810.00 1995.55 39.90
1821 98.0800 1983.00 2023.85 41.90
1822 98.1300 1977.00 2069.14 41.80
1823 98.1800 2120.00 2145.91 43.30
1824 98.2300 2225.00 2270.60 44.40
1825 98.2800 2374.00 2455.80 45.90
1826 98.3300 2673.00 2700.89 48.70
1827 98.3800 2848.00 2982.31 50.30
1828 98.4300 3165.00 3245.77 53.00
1829 98.4800 3261.00 3407.92 53.90
1830 98.5300 3238.00 3400.94 53.70
1831 98.5800 3117.00 3241.18 52.70
1832 98.6300 2894.00 3017.19 50.80
1833 98.6800 2801.00 2821.30 50.10
1834 98.7300 2712.00 2723.79 49.10
1835 98.7800 2718.00 2773.30 49.50
1836 98.8300 2954.00 2995.02 51.40
1837 98.8800 3260.00 3381.30 54.20
1838 98.9300 3471.00 3878.52 55.90
1839 98.9800 3900.00 4372.72 59.20
1840 99.0300 4154.00 4690.60 61.10
1841 99.0800 4109.00 4673.59 61.00
1842 99.1300 3993.00 4326.13 59.90
1843 99.1800 3424.00 3809.80 55.60
1844 99.2300 3072.00 3292.92 52.80
1845 99.2800 2784.00 2877.08 50.20
1846 99.3300 2469.00 2597.90 47.20
1847 99.3800 2249.00 2442.61 45.60
1848 99.4300 2302.00 2371.82 45.70
1849 99.4800 2307.00 2345.11 45.90
1850 99.5300 2326.00 2341.75 46.30
1851 99.5800 2301.00 2369.33 45.70
1852 99.6300 2351.00 2437.93 46.30
1853 99.6800 2444.00 2541.84 47.70
1854 99.7300 2455.00 2651.21 47.20
1855 99.7800 2554.00 2713.15 48.80
1856 99.8300 2541.00 2679.29 48.60
1857 99.8800 2385.00 2553.04 47.10
1858 99.9300 2254.00 2382.54 45.90
1859 99.9800 2151.00 2214.73 45.20
1860 100.0300 1945.00 2076.66 42.60
1861 100.0800 1863.00 1977.36 42.20
1862 100.1300 1839.00 1913.45 41.70
1863 100.1800 1835.00 1875.73 41.80
1864 100.2300 1788.00 1854.71 41.30
1865 100.2800 1721.00 1843.31 40.90
1866 100.3300 1708.00 1837.24 40.40
1867 100.3800 1767.00 1834.31 41.60
1868 100.4300 1750.00 1835.62 41.20
1869 100.4800 1714.00 1836.46 40.90
1870 100.5300 1696.00 1838.68 40.80
1871 100.5800 1696.00 1842.10 40.70
1872 100.6300 1802.00 1845.99 41.90
1873 100.6800 1746.00 1851.44 41.60
1874 100.7300 1773.00 1857.79 41.60
1875 100.7800 1755.00 1865.02 41.80
1876 100.8300 1752.00 1873.09 41.70
1877 100.8800 1780.00 1881.99 42.00
1878 100.9300 1818.00 1891.30 42.50
1879 100.9800 1877.00 1900.30 43.00
1880 101.0300 1879.00 1908.34 43.20
1881 101.0800 1825.00 1913.57 42.30
1882 101.1300 1867.00 1915.58 42.90
1883 101.1800 1895.00 1914.37 43.10
1884 101.2300 1819.00 1910.52 42.20
1885 101.2800 1752.00 1904.74 41.20
1886 101.3300 1832.00 1897.83 42.30
1887 101.3800 1897.00 1889.58 42.60
1888 101.4300 1877.00 1881.03 42.70
1889 101.4800 1777.00 1872.21 41.10
1890 101.5300 1788.00 1863.26 41.40
1891 101.5800 1737.00 1854.56 40.40
1892 101.6300 1788.00 1846.13 41.30
1893 101.6800 1791.00 1838.08 40.90
1894 101.7300 1800.00 1830.49 41.10
1895 101.7800 1755.00 1823.43 40.40
1896 101.8300 1782.00 1816.99 40.80
1897 101.8800 1654.00 1811.21 38.90
1898 101.9300 1727.00 1806.14 40.10
1899 101.9800 1750.00 1801.80 39.90
1900 102.0300 1721.00 1798.21 39.70
1901 102.0800 1792.00 1795.33 40.30
1902 102.1300 1730.00 1793.14 39.60
1903 102.1800 1680.00 1791.59 38.90
1904 102.2300 1747.00 1790.62 39.80
1905 102.2800 1721.00 1790.34 39.40
1906 102.3300 1870.00 1790.45 41.10
1907 102.3800 1784.00 1791.19 40.10
1908 102.4300 1815.00 1792.74 40.40
1909 102.4800 1747.00 1795.37 39.40
1910 102.5300 1791.00 1799.39 40.10
1911 102.5800 1780.00 1805.14 39.70
1912 102.6300 1766.00 1812.88 39.60
1913 102.6800 1837.00 1822.73 40.40
1914 102.7300 1854.00 1833.71 40.50
1915 102.7800 1896.00 1847.21 41.00
1916 102.8300 1796.00 1861.61 39.90
1917 102.8800 1979.00 1876.12 41.80
1918 102.9300 1965.00 1890.47 41.70
1919 102.9800 2023.00 1904.97 42.20
1920 103.0300 1964.00 1920.50 41.70
1921 103.0800 1981.00 1939.66 41.70
1922 103.1300 2058.00 1964.48 42.60
1923 103.1800 2036.00 1994.30 42.30
1924 103.2300 2052.00 2029.98 42.40
1925 103.2800 2078.00 2061.78 42.60
1926 103.3300 2057.00 2077.75 42.50
1927 103.3800 2096.00 2072.26 42.70
1928 103.4300 2071.00 2055.04 42.50
1929 103.4800 2012.00 2042.67 41.80
1930 103.5300 1924.00 2048.40 41.00
1931 103.5800 1949.00 2079.68 40.90
1932 103.6300 1960.00 2139.25 41.30
1933 103.6800 2096.00 2225.72 42.70
1934 103.7300 2143.00 2335.70 42.90
1935 103.7800 2134.00 2458.64 43.00
1936 103.8300 2330.00 2569.29 45.00
1937 103.8800 2278.00 2631.67 44.20
1938 103.9300 2365.00 2611.69 45.30
1939 103.9800 2178.00 2525.99 43.40
1940 104.0300 2215.00 2413.76 43.60
1941 104.0800 2070.00 2310.48 42.20
1942 104.1300 2083.00 2238.54 42.50
1943 104.1800 2102.00 2211.12 42.50
1944 104.2300 2045.00 2235.47 41.90
1945 104.2800 2124.00 2312.23 43.00
1946 104.3300 2272.00 2432.05 44.20
1947 104.3800 2275.00 2571.72 44.30
1948 104.4300 2375.00 2691.96 45.40
1949 104.4800 2445.00 2750.97 45.90
1950 104.5300 2473.00 2745.54 46.20
1951 104.5800 2553.00 2720.35 47.10
1952 104.6300 2591.00 2725.22 47.30
1953 104.6800 2775.00 2788.59 48.80
1954 104.7300 2753.00 2914.25 48.90
1955 104.7800 3013.00 3082.15 51.20
1956 104.8300 3181.00 3249.29 52.30
1957 104.8800 3267.00 3357.66 53.20
1958 104.9300 3247.00 3361.34 53.10
1959 104.9800 3059.00 3257.30 51.20
1960 105.0300 2994.00 3078.12 50.90
1961 105.0800 2767.00 2862.33 49.00
1962 105.1300 2539.00 2644.28 46.60
1963 105.1800 2431.00 2450.93 45.90
1964 105.2300 2242.00 2296.25 44.10
1965 105.2800 2049.00 2181.47 42.00
1966 105.3300 2063.00 2099.59 42.30
1967 105.3800 1998.00 2040.31 41.70
1968 105.4300 1969.00 1994.75 41.20
1969 105.4800 1920.00 1957.73 40.80
1970 105.5300 2002.00 1926.85 41.70
1971 105.5800 1934.00 1901.11 40.90
1972 105.6300 1933.00 1880.07 41.00
1973 105.6800 2018.00 1863.52 41.80
1974 105.7300 1933.00 1851.42 40.90
1975 105.7800 1977.00 1843.88 41.70
1976 105.8300 1950.00 1841.37 41.10
1977 105.8800 2025.00 1845.59 42.20
1978 105.9300 2033.00 1856.05 42.30
1979 105.9800 2067.00 1874.76 42.50
1980 106.0300 2125.00 1902.32 43.20
1981 106.0800 2157.00 1937.95 43.60
1982 106.1300 2122.00 1978.55 43.00
1983 106.1800 2261.00 2017.72 44.90
1984 106.2300 2289.00 2045.34 44.90
1985 106.2800 2276.00 2051.77 45.10
1986 106.3300 2162.00 2033.53 43.90
1987 106.3800 2182.00 1998.83 44.40
1988 106.4300 2174.00 1958.53 44.10
1989 106.4800 2050.00 1920.66 43.10
1990 106.5300 2041.00 1889.41 43.00
1991 106.5800 2008.00 1867.72 42.70
1992 106.6300 1955.00 1851.94 42.10
1993 106.6800 1958.00 1842.04 42.50
1994 106.7300 1931.00 1836.09 41.90
1995 106.7800 1860.00 1832.27 41.40
1996 106.8300 1996.00 1829.53 42.90
1997 106.8800 1967.00 1827.18 42.70
1998 106.9300 1873.00 1825.19 41.60
1999 106.9800 1848.00 1823.84 41.50
2000 107.0300 1885.00 1823.46 41.80
2001 107.0800 1850.00 1824.05 41.40
2002 107.1300 1814.00 1825.43 41.10
2003 107.1800 1816.00 1825.61 41.20
2004 107.2300 1838.00 1823.73 41.20
2005 107.2800 1845.00 1820.06 41.90
2006 107.3300 1880.00 1816.69 41.90
2007 107.3800 1821.00 1815.94 41.10
2008 107.4300 1893.00 1819.18 42.40
2009 107.4800 1917.00 1827.14 42.10
2010 107.5300 1927.00 1838.71 42.30
2011 107.5800 1911.00 1851.24 42.30
2012 107.6300 1931.00 1860.41 42.30
2013 107.6800 1977.00 1862.46 42.60
2014 107.7300 1905.00 1858.01 42.30
2015 107.7800 1996.00 1851.15 42.70
2016 107.8300 2014.00 1845.61 43.00
2017 107.8800 1784.00 1843.48 40.50
2018 107.9300 1867.00 1845.67 41.40
2019 107.9800 1869.00 1852.19 41.00
2020 108.0300 1908.00 1862.92 41.90
2021 108.0800 1880.00 1878.09 41.10
2022 108.1300 1855.00 1898.76 40.90
2023 108.1800 1869.00 1927.43 41.00
2024 108.2300 2036.00 1969.01 42.70
2025 108.2800 2012.00 2031.84 42.30
2026 108.3300 2173.00 2128.16 44.20
2027 108.3800 2274.00 2276.10 44.80
2028 108.4300 2464.00 2494.50 46.80
2029 108.4800 2927.00 2799.01 50.70
2030 108.5300 3279.00 3193.77 53.80
2031 108.5800 3787.00 3663.11 57.50
2032 108.6300 4190.00 4156.90 60.70
2033 108.6800 4634.00 4580.25 63.60
2034 108.7300 4891.00 4802.51 65.40
2035 108.7800 4749.00 4731.33 64.30
2036 108.8300 4363.00 4398.94 61.70
2037 108.8800 3808.00 3929.31 57.60
2038 108.9300 3373.00 3440.61 54.20
2039 108.9800 2912.00 3005.19 50.20
2040 109.0300 2565.00 2655.03 47.30
2041 109.0800 2243.00 2395.47 43.90
2042 109.1300 2164.00 2215.38 43.30
2043 109.1800 2117.00 2096.70 42.80
2044 109.2300 1946.00 2020.69 40.90
2045 109.2800 1933.00 1972.23 40.90
2046 109.3300 1997.00 1940.71 41.60
2047 109.3800 2003.00 1919.55 41.50
2048 109.4300 1962.00 1905.25 41.20
2049 109.4800 1850.00 1896.09 39.90
2050 109.5300 1894.00 1891.77 40.40
2051 109.5800 1809.00 1893.19 39.50
2052 109.6300 1848.00 1902.38 39.90
2053 109.6800 1888.00 1922.11 40.20
2054 109.7300 1922.00 1954.80 40.70
2055 109.7800 1966.00 2000.65 41.10
2056 109.8300 2014.00 2055.38 41.50
2057 109.8800 2034.00 2107.87 41.90
2058 109.9300 1975.00 2139.59 41.20
2059 109.9800 2073.00 2134.38 42.20
2060 110.0300 2069.00 2095.57 42.20
2061 110.0800 1967.00 2040.48 40.90
2062 110.1300 1988.00 1987.75 41.30
2063 110.1800 2006.00 1945.12 41.60
2064 110.2300 1924.00 1915.70 40.40
2065 110.2800 1857.00 1898.93 40.00
2066 110.3300 1944.00 1892.58 40.90
2067 110.3800 1876.00 1894.43 39.90
2068 110.4300 1873.00 1902.62 40.10
2069 110.4800 1914.00 1916.25 40.50
2070 110.5300 1927.00 1934.86 40.50
2071 110.5800 1986.00 1958.28 41.20
2072 110.6300 1897.00 1986.90 40.30
2073 110.6800 2079.00 2020.10 42.10
2074 110.7300 2037.00 2058.93 41.70
2075 110.7800 2203.00 2104.29 43.50
2076 110.8300 2243.00 2157.46 43.80
2077 110.8800 2284.00 2219.72 44.30
2078 110.9300 2247.00 2292.45 43.90
2079 110.9800 2380.00 2371.87 44.90
2080 111.0300 2288.00 2453.11 44.30
2081 111.0800 2408.00 2523.05 45.40
2082 111.1300 2395.00 2560.13 45.10
2083 111.1800 2310.00 2543.24 44.40
2084 111.2300 2340.00 2470.54 44.80
2085 111.2800 2228.00 2363.76 43.60
2086 111.3300 2208.00 2248.93 43.40
2087 111.3800 2047.00 2144.10 41.90
2088 111.4300 2032.00 2058.23 41.60
2089 111.4800 1937.00 1994.02 40.50
2090 111.5300 1925.00 1950.16 40.70
2091 111.5800 1867.00 1923.87 39.90
2092 111.6300 1919.00 1910.75 40.30
2093 111.6800 1803.00 1908.48 39.30
2094 111.7300 1817.00 1915.78 39.40
2095 111.7800 1849.00 1933.37 39.70
2096 111.8300 1907.00 1963.82 40.50
2097 111.8800 1987.00 2011.75 41.30
2098 111.9300 2035.00 2083.48 41.70
2099 111.9800 2085.00 2186.27 42.40
2100 112.0300 2274.00 2327.07 44.20
2101 112.0800 2511.00 2510.36 46.50
2102 112.1300 2658.00 2735.58 47.90
2103 112.1800 3045.00 2994.75 51.60
2104 112.2300 3243.00 3266.73 52.80
2105 112.2800 3437.00 3515.81 54.90
2106 112.3300 3576.00 3690.56 55.90
2107 112.3800 3649.00 3740.81 56.70
2108 112.4300 3599.00 3649.02 56.10
2109 112.4800 3285.00 3444.52 54.10
2110 112.5300 3099.00 3180.88 52.20
2111 112.5800 2804.00 2906.46 50.00
2112 112.6300 2504.00 2652.84 47.30
2113 112.6800 2402.00 2436.44 46.70
2114 112.7300 2103.00 2263.16 43.30
2115 112.7800 1990.00 2131.47 42.80
2116 112.8300 1983.00 2035.75 42.40
2117 112.8800 1902.00 1968.49 41.90
2118 112.9300 1818.00 1922.20 40.90
2119 112.9800 1897.00 1890.52 42.00
2120 113.0300 1812.00 1868.66 40.80
2121 113.0800 1756.00 1853.27 40.50
2122 113.1300 1770.00 1842.20 40.50
2123 113.1800 1810.00 1834.10 41.30
2124 113.2300 1811.00 1828.07 41.10
2125 113.2800 1854.00 1823.73 42.00
2126 113.3300 1832.00 1821.16 41.50
2127 113.3800 1855.00 1819.07 42.00
2128 113.4300 1840.00 1817.76 41.90
2129 113.4800 1780.00 1817.00 41.10
2130 113.5300 1893.00 1816.61 42.40
2131 113.5800 1782.00 1816.42 41.30
2132 113.6300 1834.00 1813.72 41.70
2133 113.6800 1902.00 1813.58 42.60
2134 113.7300 1876.00 1813.34 42.40
2135 113.7800 1941.00 1813.32 43.00
2136 113.8300 1833.00 1813.04 41.80
2137 113.8800 1855.00 1812.94 42.00
2138 113.9300 1855.00 1813.15 42.00
2139 113.9800 1760.00 1813.77 40.70
2140 114.0300 1864.00 1815.26 42.10
2141 114.0800 1877.00 1816.62 41.90
2142 114.1300 1847.00 1818.68 41.70
2143 114.1800 1887.00 1821.23 42.10
2144 114.2300 1862.00 1824.46 41.80
2145 114.2800 1820.00 1828.82 41.20
2146 114.3300 1857.00 1835.17 41.70
2147 114.3800 1938.00 1844.74 42.20
2148 114.4300 2011.00 1859.01 43.30
2149 114.4800 1967.00 1879.31 42.20
2150 114.5300 2029.00 1906.52 43.10
2151 114.5800 2134.00 1940.64 43.90
2152 114.6300 2157.00 1981.59 44.20
2153 114.6800 2285.00 2030.80 45.30
2154 114.7300 2240.00 2090.75 45.00
2155 114.7800 2419.00 2162.69 46.20
2156 114.8300 2485.00 2246.06 47.20
2157 114.8800 2438.00 2337.91 46.40
2158 114.9300 2565.00 2436.00 47.60
2159 114.9800 2636.00 2539.77 48.10
2160 115.0300 2755.00 2641.57 49.40
2161 115.0800 2714.00 2727.84 48.60
2162 115.1300 2855.00 2788.27 50.10
2163 115.1800 2870.00 2813.66 50.20
2164 115.2300 2831.00 2799.46 49.60
2165 115.2800 2877.00 2751.90 50.10
2166 115.3300 2796.00 2674.63 49.50
2167 115.3800 2573.00 2565.56 47.20
2168 115.4300 2508.00 2435.17 46.70
2169 115.4800 2308.00 2307.66 44.90
2170 115.5300 2332.00 2204.40 44.90
2171 115.5800 2188.00 2137.46 43.40
2172 115.6300 2162.00 2110.78 43.40
2173 115.6800 2162.00 2121.66 43.30
2174 115.7300 2076.00 2160.07 42.30
2175 115.7800 2171.00 2207.12 43.60
2176 115.8300 2176.00 2234.85 43.50
2177 115.8800 2121.00 2218.44 42.70
2178 115.9300 2119.00 2158.04 43.00
2179 115.9800 2070.00 2076.07 42.40
2180 116.0300 2019.00 1994.96 41.70
2181 116.0800 1924.00 1925.44 40.90
2182 116.1300 1900.00 1873.27 40.60
2183 116.1800 1903.00 1836.97 40.50
2184 116.2300 1874.00 1813.01 40.30
2185 116.2800 1906.00 1797.32 40.80
2186 116.3300 1918.00 1786.62 40.60
2187 116.3800 1920.00 1778.73 40.90
2188 116.4300 1875.00 1772.43 40.50
2189 116.4800 1906.00 1767.13 40.40
2190 116.5300 1904.00 1762.56 40.80
2191 116.5800 1963.00 1758.59 41.30
2192 116.6300 1856.00 1755.16 39.80
2193 116.6800 1911.00 1752.23 40.70
2194 116.7300 1887.00 1749.79 40.50
2195 116.7800 1862.00 1747.80 40.20
2196 116.8300 1882.00 1746.24 40.40
2197 116.8800 1899.00 1745.11 40.70
2198 116.9300 1940.00 1744.39 41.10
2199 116.9800 1910.00 1744.06 40.90
2200 117.0300 1933.00 1744.14 41.10
2201 117.0800 1900.00 1744.63 40.60
2202 117.1300 1881.00 1745.54 40.50
2203 117.1800 1812.00 1746.97 39.90
2204 117.2300 1875.00 1749.08 40.30
2205 117.2800 1904.00 1751.91 47.30
2206 117.3300 1870.00 1755.87 40.60
2207 117.3800 1942.00 1761.45 41.20
2208 117.4300 1919.00 1769.44 47.50
2209 117.4800 1862.00 1780.91 40.40
2210 117.5300 1897.00 1797.22 40.70
2211 117.5800 1846.00 1819.97 46.20
2212 117.6300 1867.00 1850.60 40.40
2213 117.6800 2037.00 1891.23 42.30
2214 117.7300 2094.00 1939.36 49.30
2215 117.7800 2103.00 1994.91 43.00
2216 117.8300 2067.00 2053.66 42.60
2217 117.8800 2134.00 2108.33 50.00
2218 117.9300 2206.00 2148.37 44.00
2219 117.9800 2093.00 2163.03 42.80
2220 118.0300 2180.00 2148.06 50.60
2221 118.0800 2119.00 2109.16 43.10
2222 118.1300 2100.00 2057.64 42.90
2223 118.1800 2102.00 2002.55 49.60
2224 118.2300 1983.00 1956.85 41.70
2225 118.2800 1993.00 1918.23 42.00
2226 118.3300 1967.00 1891.31 48.00
2227 118.3800 2025.00 1878.69 42.20
2228 118.4300 1960.00 1876.10 41.60
2229 118.4800 2064.00 1884.33 42.70
2230 118.5300 2079.00 1901.61 42.70
2231 118.5800 2053.00 1925.49 42.60
2232 118.6300 2118.00 1952.56 43.20
2233 118.6800 2166.00 1978.13 44.00
2234 118.7300 2037.00 1996.30 42.50
2235 118.7800 2133.00 2002.17 43.80
2236 118.8300 2097.00 1994.90 43.30
2237 118.8800 2058.00 1978.77 42.90
2238 118.9300 2053.00 1960.49 43.00
2239 118.9800 1993.00 1945.98 42.50
2240 119.0300 2004.00 1939.29 42.30
2241 119.0800 1927.00 1942.61 41.90
2242 119.1300 1931.00 1956.49 41.80
2243 119.1800 2013.00 1979.72 42.70
2244 119.2300 1972.00 2009.79 42.40
2245 119.2800 2120.00 2041.65 44.30
2246 119.3300 2045.00 2069.18 43.10
2247 119.3800 2024.00 2085.77 43.40
2248 119.4300 2060.00 2088.34 43.60
2249 119.4800 2110.00 2079.38 44.20
2250 119.5300 2130.00 2066.75 44.50
2251 119.5800 2075.00 2056.71 44.00
2252 119.6300 2069.00 2053.72 43.80
2253 119.6800 2128.00 2059.30 44.90
2254 119.7300 2096.00 2072.02 44.20
2255 119.7800 2136.00 2087.47 44.70
2256 119.8300 2160.00 2098.64 45.20
2257 119.8800 2207.00 2098.10 45.60
2258 119.9300 2107.00 2082.04 44.40
2259 119.9800 2096.00 2052.65 44.40
2260 120.0300 2052.00 2015.56 44.00
2261 120.0800 2076.00 1978.00 44.00
2262 120.1300 1971.00 1944.16 43.10
2263 120.1800 1854.00 1916.61 41.50
2264 120.2300 1891.00 1897.70 42.00
2265 120.2800 1957.00 1887.93 42.70
2266 120.3300 1841.00 1887.63 41.40
2267 120.3800 1839.00 1896.84 41.10
2268 120.4300 1877.00 1915.41 41.80
2269 120.4800 1955.00 1943.08 42.20
2270 120.5300 1965.00 1979.49 42.50
2271 120.5800 2000.00 2024.03 42.60
2272 120.6300 2038.00 2075.71 43.10
2273 120.6800 2136.00 2132.86 43.70
2274 120.7300 2122.00 2192.75 43.90
2275 120.7800 2225.00 2252.27 44.70
2276 120.8300 2271.00 2306.10 45.10
2277 120.8800 2273.00 2352.88 44.80
2278 120.9300 2240.00 2394.16 44.90
2279 120.9800 2398.00 2433.53 45.70
2280 121.0300 2349.00 2472.23 45.50
2281 121.0800 2467.00 2504.43 46.40
2282 121.1300 2525.00 2515.39 46.80
2283 121.1800 2425.00 2488.07 45.90
2284 121.2300 2408.00 2420.52 45.80
2285 121.2800 2300.00 2322.45 44.40
2286 121.3300 2325.00 2216.82 45.00
2287 121.3800 2137.00 2119.14 43.10
2288 121.4300 2117.00 2037.45 42.60
2289 121.4800 2035.00 1974.39 41.80
2290 121.5300 1983.00 1929.26 41.50
2291 121.5800 1911.00 1899.54 40.40
2292 121.6300 1913.00 1882.19 40.50
2293 121.6800 1949.00 1874.51 41.00
2294 121.7300 1849.00 1874.59 39.70
2295 121.7800 1846.00 1881.22 39.80
2296 121.8300 1965.00 1893.53 41.20
2297 121.8800 1940.00 1910.53 40.60
2298 121.9300 1949.00 1930.69 40.90
2299 121.9800 1944.00 1951.87 40.90
2300 122.0300 1987.00 1972.52 41.10
2301 122.0800 2030.00 1996.21 41.60
2302 122.1300 2056.00 2027.47 42.00
2303 122.1800 2150.00 2077.15 42.70
2304 122.2300 2328.00 2153.21 44.60
2305 122.2800 2425.00 2259.58 45.80
2306 122.3300 2383.00 2393.88 45.00
2307 122.3800 2668.00 2544.79 47.60
2308 122.4300 2750.00 2689.16 48.70
2309 122.4800 2794.00 2793.11 48.50
2310 122.5300 2852.00 2825.64 49.20
2311 122.5800 2770.00 2779.07 48.70
2312 122.6300 2759.00 2673.70 48.20
2313 122.6800 2639.00 2542.70 47.40
2314 122.7300 2603.00 2414.91 47.20
2315 122.7800 2466.00 2307.88 45.50
2316 122.8300 2479.00 2229.07 45.90
2317 122.8800 2436.00 2178.97 45.60
2318 122.9300 2447.00 2154.12 45.30
2319 122.9800 2426.00 2148.86 45.20
2320 123.0300 2450.00 2159.38 45.80
2321 123.0800 2398.00 2171.95 44.80
2322 123.1300 2315.00 2182.69 44.20
2323 123.1800 2464.00 2187.89 45.70
2324 123.2300 2424.00 2189.57 45.00
2325 123.2800 2380.00 2191.67 44.70
2326 123.3300 2368.00 2197.49 44.80
2327 123.3800 2333.00 2209.07 44.20
2328 123.4300 2319.00 2227.37 44.10
2329 123.4800 2255.00 2253.64 43.60
2330 123.5300 2312.00 2285.35 44.00
2331 123.5800 2333.00 2321.63 44.20
2332 123.6300 2273.00 2361.16 43.70
2333 123.6800 2459.00 2401.73 45.40
2334 123.7300 2348.00 2440.56 44.30
2335 123.7800 2534.00 2474.56 46.00
2336 123.8300 2430.00 2500.48 45.10
2337 123.8800 2421.00 2517.11 45.10
2338 123.9300 2474.00 2523.86 45.50
2339 123.9800 2419.00 2522.52 44.80
2340 124.0300 2449.00 2516.59 45.30
2341 124.0800 2451.00 2510.61 45.10
2342 124.1300 2407.00 2509.44 44.70
2343 124.1800 2543.00 2517.65 46.20
2344 124.2300 2532.00 2538.92 45.80
2345 124.2800 2660.00 2575.46 47.20
2346 124.3300 2597.00 2627.37 46.70
2347 124.3800 2680.00 2691.87 47.30
2348 124.4300 2840.00 2762.43 48.80
2349 124.4800 2827.00 2827.78 48.90
2350 124.5300 2923.00 2872.34 49.40
2351 124.5800 2871.00 2880.89 49.00
2352 124.6300 2823.00 2847.22 48.90
2353 124.6800 2725.00 2778.52 47.80
2354 124.7300 2698.00 2691.11 47.50
2355 124.7800 2597.00 2600.66 47.00
2356 124.8300 2470.00 2518.59 45.50
2357 124.8800 2485.00 2451.55 45.80
2358 124.9300 2327.00 2402.51 44.50
2359 124.9800 2292.00 2371.84 44.20
2360 125.0300 2314.00 2358.02 44.20
2361 125.0800 2312.00 2358.34 44.40
2362 125.1300 2379.00 2369.38 45.00
2363 125.1800 2486.00 2387.44 46.20
2364 125.2300 2516.00 2408.76 46.30
2365 125.2800 2483.00 2429.75 46.40
2366 125.3300 2581.00 2447.12 47.10
2367 125.3800 2509.00 2458.31 46.70
2368 125.4300 2534.00 2461.86 46.90
2369 125.4800 2517.00 2457.79 47.00
2370 125.5300 2440.00 2447.54 46.10
2371 125.5800 2435.00 2434.93 46.30
2372 125.6300 2399.00 2424.16 45.90
2373 125.6800 2409.00 2420.43 46.20
2374 125.7300 2450.00 2428.89 46.40
2375 125.7800 2401.00 2453.71 46.50
2376 125.8300 2486.00 2497.05 46.90
2377 125.8800 2556.00 2557.84 48.10
2378 125.9300 2662.00 2630.72 49.00
2379 125.9800 2701.00 2704.59 49.60
2380 126.0300 2705.00 2763.08 49.50
2381 126.0800 2747.00 2792.67 50.20
2382 126.1300 2823.00 2793.76 50.70
2383 126.1800 2775.00 2784.93 50.60
2384 126.2300 2861.00 2791.25 51.30
2385 126.2800 2891.00 2833.02 51.80
2386 126.3300 3029.00 2921.18 52.80
2387 126.3800 3202.00 3058.38 54.70
2388 126.4300 3280.00 3235.35 55.20
2389 126.4800 3495.00 3431.30 57.10
2390 126.5300 3655.00 3612.69 58.50
2391 126.5800 3657.00 3737.93 58.30
2392 126.6300 3655.00 3772.80 58.40
2393 126.6800 3800.00 3707.38 59.40
2394 126.7300 3589.00 3557.60 57.80
2395 126.7800 3375.00 3354.18 56.00
2396 126.8300 3208.00 3129.81 54.60
2397 126.8800 2977.00 2911.00 52.50
2398 126.9300 2755.00 2714.40 50.60
2399 126.9800 2495.00 2548.39 47.80
2400 127.0300 2404.00 2415.43 47.20
2401 127.0800 2232.00 2314.44 45.10
2402 127.1300 2185.00 2242.38 44.80
2403 127.1800 2117.00 2195.57 43.80
2404 127.2300 2114.00 2170.32 43.90
2405 127.2800 2143.00 2163.26 43.80
2406 127.3300 2276.00 2171.36 45.40
2407 127.3800 2118.00 2191.39 43.60
2408 127.4300 2247.00 2221.13 44.90
2409 127.4800 2232.00 2257.28 44.50
2410 127.5300 2246.00 2294.54 44.90
2411 127.5800 2284.00 2328.52 44.70
2412 127.6300 2265.00 2355.20 44.80
2413 127.6800 2323.00 2373.33 45.10
2414 127.7300 2276.00 2383.85 44.60
2415 127.7800 2386.00 2389.44 45.50
2416 127.8300 2332.00 2390.46 45.20
2417 127.8800 2315.00 2388.36 44.60
2418 127.9300 2246.00 2383.17 44.20
2419 127.9800 2321.00 2375.92 44.60
2420 128.0300 2148.00 2368.60 43.00
2421 128.0800 2331.00 2364.22 44.60
2422 128.1300 2317.00 2367.16 44.60
2423 128.1800 2313.00 2382.74 44.30
2424 128.2300 2261.00 2417.63 43.90
2425 128.2800 2425.00 2479.62 45.50
2426 128.3300 2532.00 2577.23 46.40
2427 128.3800 2691.00 2718.48 47.80
2428 128.4300 2938.00 2909.33 50.10
2429 128.4800 3217.00 3151.75 52.10
2430 128.5300 3508.00 3440.66 54.50
2431 128.5800 3877.00 3761.86 57.00
2432 128.6300 4120.00 4088.41 59.00
2433 128.6800 4392.00 4380.09 60.80
2434 128.7300 4500.00 4590.69 61.50
2435 128.7800 4591.00 4685.27 62.20
2436 128.8300 4557.00 4656.25 61.90
2437 128.8800 4541.00 4523.16 61.80
2438 128.9300 4339.00 4323.68 60.40
2439 128.9800 4245.00 4101.70 59.50
2440 129.0300 4022.00 3894.41 58.10
2441 129.0800 3870.00 3724.12 56.90
2442 129.1300 3724.00 3596.37 55.70
2443 129.1800 3486.00 3500.67 54.10
2444 129.2300 3446.00 3413.71 53.70
2445 129.2800 3212.00 3307.83 51.70
2446 129.3300 3123.00 3166.17 51.20
2447 129.3800 2907.00 2992.32 49.20
2448 129.4300 2825.00 2804.01 48.50
2449 129.4800 2578.00 2619.97 46.40
2450 129.5300 2398.00 2453.28 44.70
2451 129.5800 2363.00 2311.05 44.20
2452 129.6300 2226.00 2195.55 43.10
2453 129.6800 2100.00 2105.82 41.80
2454 129.7300 1991.00 2038.56 40.60
2455 129.7800 1975.00 1989.58 40.50
2456 129.8300 1930.00 1954.57 40.10
2457 129.8800 1922.00 1929.73 39.80
2458 129.9300 2010.00 1912.18 40.90
2459 129.9800 1912.00 1899.81 39.70
2460 130.0300 1868.00 1891.27 39.30
2461 130.0800 1990.00 1885.73 40.50
2462 130.1300 1877.00 1883.49 39.30
2463 130.1800 1935.00 1882.72 40.00
2464 130.2300 1876.00 1884.03 39.30
2465 130.2800 1976.00 1887.28 40.30
2466 130.3300 1886.00 1892.31 39.50
2467 130.3800 1936.00 1898.95 39.90
2468 130.4300 1909.00 1906.91 39.70
2469 130.4800 1910.00 1915.84 39.70
2470 130.5300 1969.00 1925.22 40.20
2471 130.5800 1977.00 1934.40 40.40
2472 130.6300 1962.00 1942.55 40.20
2473 130.6800 1965.00 1948.72 40.30
2474 130.7300 1877.00 1951.94 39.30
2475 130.7800 1982.00 1951.47 40.50
2476 130.8300 1936.00 1946.32 40.00
2477 130.8800 1882.00 1938.07 39.40
2478 130.9300 1943.00 1926.72 40.10
2479 130.9800 1895.00 1913.21 39.50
2480 131.0300 1921.00 1898.47 39.80
2481 131.0800 2029.00 1883.34 41.10
2482 131.1300 1914.00 1868.46 39.70
2483 131.1800 1820.00 1854.30 39.00
2484 131.2300 1846.00 1841.16 39.20
2485 131.2800 1880.00 1829.26 39.50
2486 131.3300 1856.00 1818.67 39.30
2487 131.3800 1802.00 1808.96 39.00
2488 131.4300 1885.00 1801.00 39.60
2489 131.4800 1864.00 1794.24 39.60
2490 131.5300 1861.00 1788.56 39.60
2491 131.5800 1851.00 1783.83 39.50
2492 131.6300 1815.00 1779.90 39.00
2493 131.6800 1825.00 1776.67 39.50
2494 131.7300 1875.00 1774.01 39.70
2495 131.7800 1818.00 1771.82 39.60
2496 131.8300 1786.00 1770.17 39.10
2497 131.8800 1755.00 1768.70 38.90
2498 131.9300 1904.00 1767.50 40.60
2499 131.9800 1796.00 1766.00 39.60
2500 132.0300 1788.00 1765.25 39.20
2501 132.0800 1800.00 1764.68 39.90
2502 132.1300 1869.00 1764.26 40.40
2503 132.1800 1801.00 1763.99 40.00
2504 132.2300 1793.00 1763.86 39.80
2505 132.2800 1770.00 1763.86 39.90
2506 132.3300 1799.00 1763.99 40.00
2507 132.3800 1807.00 1764.24 40.50
2508 132.4300 1784.00 1764.62 40.00
2509 132.4800 1903.00 1765.12 41.70
2510 132.5300 1736.00 1765.79 39.70
2511 132.5800 1817.00 1766.64 40.70
2512 132.6300 1762.00 1767.69 40.10
2513 132.6800 1850.00 1768.98 41.40
2514 132.7300 1775.00 1770.54 40.20
2515 132.7800 1818.00 1772.42 41.10
2516 132.8300 1779.00 1774.62 40.60
2517 132.8800 1744.00 1777.16 40.10
2518 132.9300 1831.00 1780.04 41.20
2519 132.9800 1876.00 1783.23 41.60
2520 133.0300 1923.00 1786.69 42.10
2521 133.0800 1859.00 1790.36 41.40
2522 133.1300 1853.00 1794.15 41.30
2523 133.1800 1837.00 1797.46 41.00
2524 133.2300 1927.00 1801.15 42.10
2525 133.2800 1849.00 1804.66 41.10
2526 133.3300 1810.00 1807.98 40.70
2527 133.3800 1808.00 1811.18 40.40
2528 133.4300 1852.00 1814.42 41.10
2529 133.4800 1863.00 1816.80 40.70
2530 133.5300 1838.00 1820.69 40.80
2531 133.5800 1869.00 1825.38 40.60
2532 133.6300 1809.00 1830.58 40.10
2533 133.6800 1952.00 1836.60 41.40
2534 133.7300 1928.00 1843.50 41.20
2535 133.7800 1823.00 1851.29 39.80
2536 133.8300 1885.00 1859.95 40.70
2537 133.8800 1857.00 1869.42 40.00
2538 133.9300 1970.00 1879.61 41.40
2539 133.9800 1884.00 1890.37 40.00
2540 134.0300 1905.00 1901.53 40.50
2541 134.0800 1898.00 1912.89 40.10
2542 134.1300 1893.00 1924.17 40.10
2543 134.1800 2000.00 1935.08 40.90
2544 134.2300 2013.00 1945.50 41.20
2545 134.2800 2069.00 1954.71 41.40
2546 134.3300 1950.00 1962.55 40.40
2547 134.3800 2051.00 1968.74 41.20
2548 134.4300 2049.00 1973.04 41.20
2549 134.4800 2021.00 1974.45 40.60
2550 134.5300 1999.00 1974.72 40.60
2551 134.5800 2026.00 1973.06 40.50
2552 134.6300 1952.00 1969.43 39.90
2553 134.6800 1964.00 1964.42 40.00
2554 134.7300 2017.00 1958.29 40.40
2555 134.7800 1910.00 1951.17 39.50
2556 134.8300 1954.00 1943.32 39.80
2557 134.8800 1925.00 1934.95 39.30
2558 134.9300 1940.00 1926.25 39.80
2559 134.9800 1916.00 1917.42 39.10
2560 135.0300 1918.00 1908.51 39.30
2561 135.0800 1921.00 1899.92 39.30
2562 135.1300 1872.00 1890.93 38.70
2563 135.1800 1953.00 1883.28 39.60
2564 135.2300 1955.00 1876.33 39.70
2565 135.2800 1895.00 1870.27 38.90
2566 135.3300 1935.00 1865.27 39.50
2567 135.3800 1845.00 1861.53 38.50
2568 135.4300 1924.00 1859.24 39.20
2569 135.4800 1941.00 1858.58 39.50
2570 135.5300 1877.00 1859.72 38.90
2571 135.5800 1868.00 1862.80 38.80
2572 135.6300 1925.00 1867.89 39.30
2573 135.6800 1918.00 1874.98 39.40
2574 135.7300 1897.00 1883.96 39.10
2575 135.7800 1961.00 1894.55 39.90
2576 135.8300 1972.00 1906.30 40.00
2577 135.8800 2001.00 1918.56 40.30
2578 135.9300 1941.00 1930.37 39.70
2579 135.9800 1971.00 1940.59 40.10
2580 136.0300 1937.00 1949.55 39.70
2581 136.0800 2028.00 1951.54 40.80
2582 136.1300 1936.00 1950.01 39.70
2583 136.1800 1984.00 1943.72 40.50
2584 136.2300 1961.00 1933.75 40.10
2585 136.2800 1966.00 1920.78 40.30
2586 136.3300 1970.00 1907.05 40.40
2587 136.3800 2005.00 1893.45 40.90
2588 136.4300 1892.00 1880.49 39.50
2589 136.4800 1933.00 1869.04 40.20
2590 136.5300 1907.00 1859.59 39.90
2591 136.5800 1909.00 1852.48 39.80
2592 136.6300 1897.00 1848.05 39.80
2593 136.6800 1850.00 1846.27 39.50
2594 136.7300 1777.00 1847.36 38.40
2595 136.7800 1974.00 1851.37 40.90
2596 136.8300 1927.00 1858.35 40.30
2597 136.8800 1938.00 1868.33 40.20
2598 136.9300 1915.00 1881.30 40.20
2599 136.9800 1866.00 1897.23 39.90
2600 137.0300 2010.00 1916.02 41.00
2601 137.0800 2004.00 1937.46 41.30
2602 137.1300 2037.00 1961.25 41.70
2603 137.1800 2067.00 1986.93 41.70
2604 137.2300 2083.00 2013.87 42.10
2605 137.2800 2064.00 2041.39 42.00
2606 137.3300 2112.00 2068.10 42.20
2607 137.3800 2146.00 2092.75 42.60
2608 137.4300 2143.00 2113.49 42.80
2609 137.4800 2190.00 2128.99 42.90
2610 137.5300 2262.00 2137.77 43.70
2611 137.5800 2235.00 2139.42 43.60
2612 137.6300 2111.00 2134.75 42.20
2613 137.6800 2073.00 2128.38 42.00
2614 137.7300 2107.00 2111.25 42.40
2615 137.7800 2159.00 2090.86 43.10
2616 137.8300 2105.00 2068.52 42.30
2617 137.8800 2018.00 2046.08 41.90
2618 137.9300 2062.00 2024.37 42.10
2619 137.9800 2001.00 2004.11 41.30
2620 138.0300 1901.00 1985.87 40.70
2621 138.0800 1975.00 1970.04 41.40
2622 138.1300 1973.00 1956.90 41.00
2623 138.1800 1970.00 1946.67 41.70
2624 138.2300 1953.00 1939.51 41.20
2625 138.2800 1904.00 1935.48 40.70
2626 138.3300 1937.00 1934.55 41.40
2627 138.3800 1941.00 1936.60 41.60
2628 138.4300 1921.00 1941.42 40.90
2629 138.4800 1911.00 1948.79 41.60
2630 138.5300 2045.00 1958.36 42.60
2631 138.5800 2014.00 1969.87 42.40
2632 138.6300 2064.00 1982.92 43.20
2633 138.6800 2081.00 1997.10 43.40
2634 138.7300 2009.00 2012.01 42.30
2635 138.7800 2106.00 2027.17 44.10
2636 138.8300 2081.00 2042.09 43.40
2637 138.8800 1978.00 2056.21 42.40
2638 138.9300 2101.00 2068.98 44.10
2639 138.9800 2107.00 2079.85 43.70
2640 139.0300 2080.00 2088.35 43.50
2641 139.0800 2222.00 2094.12 45.40
2642 139.1300 2147.00 2096.95 44.10
2643 139.1800 2146.00 2096.82 44.50
2644 139.2300 2241.00 2093.81 45.60
2645 139.2800 2143.00 2088.12 44.30
2646 139.3300 2128.00 2080.00 44.30
2647 139.3800 2142.00 2069.75 44.50
2648 139.4300 2054.00 2057.70 43.40
2649 139.4800 2130.00 2044.12 44.10
2650 139.5300 2105.00 2029.55 44.20
2651 139.5800 2059.00 2014.31 43.20
2652 139.6300 1968.00 1998.80 42.40
2653 139.6800 1969.00 1983.39 42.40
2654 139.7300 1934.00 1968.43 41.80
2655 139.7800 1932.00 1954.26 41.70
2656 139.8300 1912.00 1941.18 41.70
2657 139.8800 1955.00 1929.44 41.80
2658 139.9300 1941.00 1919.30 41.90
2659 139.9800 1991.00 1910.96 42.00
2660 140.0300 1902.00 1904.59 41.20
2661 140.0800 1861.00 1900.31 40.50
2662 140.1300 1845.00 1898.17 40.50
2663 140.1800 1885.00 1898.16 40.60
2664 140.2300 1916.00 1900.14 41.10
2665 140.2800 1897.00 1903.88 40.60
2666 140.3300 1927.00 1908.87 41.10
2667 140.3800 1830.00 1914.86 39.80
2668 140.4300 1931.00 1921.02 40.90
2669 140.4800 1945.00 1926.53 40.70
2670 140.5300 1926.00 1930.49 40.90
2671 140.5800 1891.00 1932.03 40.10
2672 140.6300 1916.00 1930.61 40.40
2673 140.6800 1921.00 1926.14 40.40
2674 140.7300 1920.00 1918.98 40.40
2675 140.7800 1886.00 1909.83 39.90
2676 140.8300 1931.00 1899.47 40.60
2677 140.8800 1942.00 1888.63 40.50
2678 140.9300 1863.00 1877.88 39.70
2679 140.9800 1868.00 1867.63 39.80
2680 141.0300 1858.00 1858.19 39.60
2681 141.0800 1878.00 1849.72 39.70
2682 141.1300 1865.00 1842.18 39.70
2683 141.1800 1850.00 1835.78 39.40
2684 141.2300 1846.00 1830.34 39.30
2685 141.2800 1822.00 1825.72 39.10
2686 141.3300 1795.00 1821.83 38.80
2687 141.3800 1798.00 1818.48 38.80
2688 141.4300 1844.00 1815.50 39.40
2689 141.4800 1814.00 1812.74 39.00
2690 141.5300 1868.00 1810.06 39.60
2691 141.5800 1825.00 1807.39 39.00
2692 141.6300 1797.00 1804.68 38.80
2693 141.6800 1779.00 1801.96 38.70
2694 141.7300 1709.00 1799.27 37.80
2695 141.7800 1858.00 1796.65 39.50
2696 141.8300 1836.00 1794.18 39.30
2697 141.8800 1799.00 1791.89 38.80
2698 141.9300 1767.00 1789.83 38.50
2699 141.9800 1743.00 1788.02 38.20
2700 142.0300 1712.00 1786.47 37.80
2701 142.0800 1766.00 1785.19 38.40
2702 142.1300 1786.00 1784.20 38.60
2703 142.1800 1815.00 1783.48 38.90
2704 142.2300 1812.00 1783.05 38.90
2705 142.2800 1848.00 1782.92 39.40
2706 142.3300 1789.00 1783.09 38.60
2707 142.3800 1754.00 1783.61 38.30
2708 142.4300 1782.00 1784.51 38.70
2709 142.4800 1844.00 1785.88 39.20
2710 142.5300 1791.00 1787.81 38.70
2711 142.5800 1823.00 1790.43 39.10
2712 142.6300 1756.00 1793.90 38.20
2713 142.6800 1776.00 1798.40 38.50
2714 142.7300 1837.00 1804.15 39.30
2715 142.7800 1737.00 1811.36 38.10
2716 142.8300 1860.00 1820.26 39.40
2717 142.8800 1741.00 1831.04 38.30
2718 142.9300 1853.00 1843.85 39.30
2719 142.9800 1864.00 1858.79 39.30
2720 143.0300 1857.00 1875.82 39.50
2721 143.0800 1895.00 1894.81 39.80
2722 143.1300 1911.00 1915.49 39.80
2723 143.1800 1871.00 1937.38 39.70
2724 143.2300 2038.00 1959.83 41.30
2725 143.2800 1988.00 1981.98 40.80
2726 143.3300 2020.00 2002.73 41.20
2727 143.3800 2021.00 2020.81 41.20
2728 143.4300 2010.00 2034.85 41.00
2729 143.4800 1984.00 2043.60 40.80
2730 143.5300 2032.00 2046.17 41.30
2731 143.5800 2098.00 2042.32 41.80
2732 143.6300 1989.00 2032.46 40.80
2733 143.6800 2099.00 2017.60 42.10
2734 143.7300 2020.00 1999.05 41.00
2735 143.7800 2049.00 1978.16 41.50
2736 143.8300 2006.00 1956.18 41.20
2737 143.8800 1952.00 1934.13 40.50
2738 143.9300 1967.00 1912.82 40.70
2739 143.9800 1971.00 1892.87 40.80
2740 144.0300 1917.00 1874.68 40.10
2741 144.0800 1905.00 1858.50 40.00
2742 144.1300 1853.00 1844.45 39.60
2743 144.1800 1946.00 1832.52 40.70
2744 144.2300 1817.00 1822.58 39.10
2745 144.2800 1824.00 1814.48 39.60
2746 144.3300 1758.00 1808.02 38.70
2747 144.3800 1781.00 1802.96 39.00
2748 144.4300 1753.00 1799.09 38.80
2749 144.4800 1801.00 1796.19 39.30
2750 144.5300 1822.00 1794.07 39.50
2751 144.5800 1837.00 1792.59 40.00
2752 144.6300 1818.00 1791.60 39.50
2753 144.6800 1763.00 1791.01 39.40
2754 144.7300 1786.00 1790.72 39.50
2755 144.7800 1764.00 1790.56 39.50
2756 144.8300 1776.00 1790.74 39.50
2757 144.8800 1822.00 1791.09 40.30
2758 144.9300 1871.00 1791.59 40.60
2759 144.9800 1761.00 1792.21 39.80
2760 145.0300 1799.00 1792.95 40.10
2761 145.0800 1808.00 1793.80 40.40
2762 145.1300 1773.00 1794.75 39.90
2763 145.1800 1822.00 1795.79 40.80
2764 145.2300 1811.00 1796.91 40.40
2765 145.2800 1820.00 1798.10 40.80
2766 145.3300 1860.00 1799.37 41.20
2767 145.3800 1777.00 1800.70 40.30
2768 145.4300 1888.00 1802.08 41.50
2769 145.4800 1852.00 1803.50 41.30
2770 145.5300 1728.00 1804.97 39.70
2771 145.5800 1812.00 1806.46 40.90
2772 145.6300 1799.00 1807.98 40.80
2773 145.6800 1901.00 1809.52 41.80
2774 145.7300 1910.00 1811.08 42.00
2775 145.7800 1846.00 1812.68 41.40
2776 145.8300 1814.00 1814.31 40.90
2777 145.8800 1853.00 1816.01 41.10
2778 145.9300 1829.00 1817.79 41.20
2779 145.9800 1830.00 1819.70 40.70
2780 146.0300 1848.00 1821.75 41.10
2781 146.0800 1852.00 1824.01 41.10
2782 146.1300 1872.00 1826.53 41.20
2783 146.1800 1874.00 1829.36 41.10
2784 146.2300 1901.00 1832.57 41.70
2785 146.2800 1822.00 1836.22 40.40
2786 146.3300 1883.00 1840.41 41.20
2787 146.3800 1847.00 1845.21 40.70
2788 146.4300 1945.00 1850.73 41.80
2789 146.4800 1901.00 1857.08 41.10
2790 146.5300 1861.00 1864.38 40.90
2791 146.5800 1897.00 1872.73 40.90
2792 146.6300 1854.00 1882.29 40.50
2793 146.6800 1901.00 1893.17 40.90
2794 146.7300 1909.00 1905.53 41.00
2795 146.7800 1934.00 1919.51 41.20
2796 146.8300 1966.00 1935.28 41.60
2797 146.8800 1958.00 1952.99 41.20
2798 146.9300 2012.00 1972.83 42.00
2799 146.9800 1962.00 1995.00 41.20
2800 147.0300 1947.00 2019.75 41.10
2801 147.0800 2013.00 2047.32 41.70
2802 147.1300 2018.00 2078.04 41.80
2803 147.1800 2077.00 2112.23 42.30
2804 147.2300 2106.00 2150.33 42.70
2805 147.2800 2053.00 2192.74 42.10
2806 147.3300 2098.00 2239.96 42.50
2807 147.3800 2247.00 2292.52 44.00
2808 147.4300 2192.00 2350.96 43.50
2809 147.4800 2203.00 2415.94 43.30
2810 147.5300 2218.00 2488.14 43.70
2811 147.5800 2235.00 2568.33 43.80
2812 147.6300 2302.00 2657.26 44.20
2813 147.6800 2320.00 2755.67 44.50
2814 147.7300 2426.00 2864.24 45.60
2815 147.7800 2694.00 2983.14 47.90
2816 147.8300 2758.00 3112.28 48.50
2817 147.8800 2963.00 3250.83 50.40
2818 147.9300 3013.00 3397.34 50.60
2819 147.9800 3300.00 3549.71 52.60
2820 148.0300 3486.00 3704.77 54.60
2821 148.0800 3640.00 3858.40 55.30
2822 148.1300 3797.00 4006.30 56.50
2823 148.1800 3968.00 4142.47 57.90
2824 148.2300 3977.00 4261.06 57.80
2825 148.2800 4096.00 4355.46 58.40
2826 148.3300 4357.00 4419.84 60.70
2827 148.3800 4188.00 4449.56 59.00
2828 148.4300 4203.00 4442.13 59.20
2829 148.4800 4184.00 4397.55 59.20
2830 148.5300 4208.00 4318.40 59.20
2831 148.5800 3985.00 4209.24 57.20
2832 148.6300 3897.00 4076.04 57.10
2833 148.6800 3817.00 3925.13 56.30
2834 148.7300 3771.00 3762.71 55.70
2835 148.7800 3512.00 3594.42 54.10
2836 148.8300 3420.00 3425.25 53.30
2837 148.8800 3246.00 3259.29 51.70
2838 148.9300 3024.00 3099.84 50.20
2839 148.9800 2896.00 2949.49 48.90
2840 149.0300 2665.00 2810.05 46.90
2841 149.0800 2510.00 2682.84 45.50
2842 149.1300 2428.00 2568.44 44.80
2843 149.1800 2268.00 2467.10 43.20
2844 149.2300 2126.00 2378.47 41.90
2845 149.2800 2100.00 2301.96 41.70
2846 149.3300 2038.00 2236.75 41.00
2847 149.3800 1922.00 2181.81 39.80
2848 149.4300 1974.00 2136.04 40.50
2849 149.4800 1926.00 2098.18 39.90
2850 149.5300 1943.00 2067.26 40.10
2851 149.5800 1973.00 2042.14 40.40
2852 149.6300 1876.00 2021.80 39.40
2853 149.6800 1855.00 2005.37 39.00
2854 149.7300 1953.00 1992.02 40.20
2855 149.7800 1836.00 1981.08 39.00
2856 149.8300 1861.00 1971.99 39.10
2857 149.8800 1920.00 1964.26 39.80
2858 149.9300 1913.00 1957.53 39.80
2859 149.9800 1862.00 1951.48 39.10
2860 150.0300 1780.00 1945.98 38.40
2861 150.0800 1805.00 1940.87 38.80
2862 150.1300 1881.00 1936.10 39.30
2863 150.1800 1916.00 1931.64 39.90
2864 150.2300 1748.00 1927.50 38.20
2865 150.2800 1870.00 1923.69 39.40
2866 150.3300 1764.00 1920.26 38.30
2867 150.3800 1860.00 1917.24 39.70
2868 150.4300 1774.00 1914.66 38.30
2869 150.4800 1809.00 1912.57 38.90
2870 150.5300 1767.00 1910.99 38.70
2871 150.5800 1860.00 1909.99 39.60
2872 150.6300 1854.00 1909.59 39.40
2873 150.6800 1785.00 1909.85 39.10
2874 150.7300 1767.00 1910.81 38.60
2875 150.7800 1790.00 1912.54 39.00
2876 150.8300 1832.00 1915.11 39.60
2877 150.8800 1806.00 1918.59 39.10
2878 150.9300 1831.00 1923.08 39.40
2879 150.9800 1770.00 1928.67 39.20
2880 151.0300 1826.00 1935.48 39.40
2881 151.0800 1861.00 1943.62 40.00
2882 151.1300 1825.00 1953.21 39.80
2883 151.1800 1833.00 1964.39 39.90
2884 151.2300 1814.00 1977.26 39.50
2885 151.2800 1910.00 1991.94 41.10
2886 151.3300 1928.00 2008.50 40.90
2887 151.3800 1950.00 2026.91 41.40
2888 151.4300 1949.00 2047.40 41.50
2889 151.4800 1910.00 2069.89 41.00
2890 151.5300 1928.00 2094.31 41.20
2891 151.5800 1993.00 2120.55 42.10
2892 151.6300 2079.00 2148.49 42.80
2893 151.6800 2033.00 2177.89 42.60
2894 151.7300 2159.00 2208.48 43.80
2895 151.7800 2162.00 2239.93 43.90
2896 151.8300 2270.00 2271.82 45.00
2897 151.8800 2283.00 2303.69 45.30
2898 151.9300 2255.00 2335.03 44.80
2899 151.9800 2350.00 2365.34 46.10
2900 152.0300 2345.00 2394.12 45.90
2901 152.0800 2392.00 2420.90 46.50
2902 152.1300 2376.00 2445.29 46.30
2903 152.1800 2434.00 2466.99 46.80
2904 152.2300 2458.00 2485.83 47.20
2905 152.2800 2545.00 2501.70 48.00
2906 152.3300 2469.00 2514.62 47.20
2907 152.3800 2444.00 2524.70 46.70
2908 152.4300 2516.00 2532.16 47.80
2909 152.4800 2485.00 2537.29 46.90
2910 152.5300 2501.00 2540.47 47.30
2911 152.5800 2576.00 2542.15 47.90
2912 152.6300 2474.00 2542.82 46.80
2913 152.6800 2504.00 2543.00 47.00
2914 152.7300 2525.00 2543.18 47.40
2915 152.7800 2552.00 2543.86 47.20
2916 152.8300 2439.00 2545.47 46.30
2917 152.8800 2511.00 2548.40 46.90
2918 152.9300 2408.00 2552.98 45.90
2919 152.9800 2458.00 2559.51 46.20
2920 153.0300 2407.00 2568.20 45.90
2921 153.0800 2464.00 2579.23 45.90
2922 153.1300 2533.00 2592.74 46.90
2923 153.1800 2487.00 2608.78 46.20
2924 153.2300 2585.00 2627.31 47.00
2925 153.2800 2638.00 2648.19 47.40
2926 153.3300 2618.00 2671.18 47.40
2927 153.3800 2592.00 2695.93 46.60
2928 153.4300 2685.00 2721.99 47.80
2929 153.4800 2720.00 2748.81 47.80
2930 153.5300 2738.00 2775.60 47.90
2931 153.5800 2729.00 2802.06 47.90
2932 153.6300 2790.00 2827.33 48.40
2933 153.6800 2846.00 2850.78 48.70
2934 153.7300 2837.00 2871.79 48.90
2935 153.7800 2876.00 2889.85 49.00
2936 153.8300 2871.00 2904.48 48.90
2937 153.8800 2945.00 2915.32 49.40
2938 153.9300 2888.00 2922.08 49.10
2939 153.9800 2966.00 2924.55 49.20
2940 154.0300 2991.00 2922.64 49.80
2941 154.0800 3004.00 2916.33 49.80
2942 154.1300 2926.00 2905.71 48.90
2943 154.1800 2922.00 2890.96 49.00
2944 154.2300 2841.00 2872.32 48.40
2945 154.2800 2913.00 2850.07 48.60
2946 154.3300 2871.00 2824.57 48.50
2947 154.3800 2916.00 2796.12 48.90
2948 154.4300 2878.00 2765.12 48.30
2949 154.4800 2818.00 2731.88 48.00
2950 154.5300 2707.00 2696.78 47.20
2951 154.5800 2688.00 2660.18 46.50
2952 154.6300 2709.00 2622.45 47.00
2953 154.6800 2633.00 2584.00 46.30
2954 154.7300 2560.00 2545.14 45.40
2955 154.7800 2569.00 2506.28 45.80
2956 154.8300 2493.00 2467.75 45.10
2957 154.8800 2441.00 2429.74 44.30
2958 154.9300 2423.00 2392.82 44.50
2959 154.9800 2333.00 2357.08 43.40
2960 155.0300 2311.00 2322.76 43.10
2961 155.0800 2314.00 2290.03 43.40
2962 155.1300 2309.00 2259.04 43.20
2963 155.1800 2327.00 2229.92 43.40
2964 155.2300 2243.00 2202.72 42.80
2965 155.2800 2212.00 2177.56 42.50
2966 155.3300 2188.00 2154.45 42.10
2967 155.3800 2093.00 2133.46 41.40
2968 155.4300 2217.00 2114.61 42.60
2969 155.4800 2134.00 2097.92 41.70
2970 155.5300 2130.00 2083.41 41.70
2971 155.5800 2093.00 2071.09 41.40
2972 155.6300 2050.00 2060.97 40.80
2973 155.6800 2079.00 2053.04 41.30
2974 155.7300 2019.00 2047.28 40.60
2975 155.7800 2022.00 2043.70 40.80
2976 155.8300 2149.00 2042.25 42.00
2977 155.8800 2067.00 2042.89 41.50
2978 155.9300 2110.00 2045.51 41.70
2979 155.9800 2067.00 2050.12 41.20
2980 156.0300 2120.00 2056.56 42.00
2981 156.0800 2087.00 2064.75 41.60
2982 156.1300 2109.00 2074.53 41.60
2983 156.1800 2206.00 2085.76 43.00
2984 156.2300 2171.00 2098.26 42.40
2985 156.2800 2229.00 2111.84 43.10
2986 156.3300 2286.00 2126.28 43.70
2987 156.3800 2267.00 2141.36 43.40
2988 156.4300 2278.00 2156.81 43.50
2989 156.4800 2246.00 2172.38 43.40
2990 156.5300 2229.00 2187.79 43.10
2991 156.5800 2355.00 2202.74 44.40
2992 156.6300 2300.00 2216.92 43.90
2993 156.6800 2310.00 2230.02 44.20
2994 156.7300 2340.00 2241.76 44.30
2995 156.7800 2361.00 2251.86 44.70
2996 156.8300 2356.00 2260.09 44.60
2997 156.8800 2368.00 2266.28 44.80
2998 156.9300 2398.00 2270.29 45.10
2999 156.9800 2434.00 2272.09 45.60
3000 157.0300 2281.00 2271.72 44.00
3001 157.0800 2313.00 2269.28 44.50
3002 157.1300 2400.00 2264.96 45.30
3003 157.1800 2344.00 2259.00 45.20
3004 157.2300 2398.00 2251.66 45.30
3005 157.2800 2357.00 2243.24 45.60
3006 157.3300 2299.00 2234.04 44.80
3007 157.3800 2377.00 2224.38 45.80
3008 157.4300 2314.00 2214.54 45.20
3009 157.4800 2273.00 2204.78 44.90
3010 157.5300 2322.00 2195.36 45.30
3011 157.5800 2369.00 2186.50 46.20
3012 157.6300 2323.00 2178.39 45.40
3013 157.6800 2253.00 2171.20 45.10
3014 157.7300 2184.00 2165.07 44.40
3015 157.7800 2273.00 2160.11 45.40
3016 157.8300 2285.00 2156.41 45.40
3017 157.8800 2179.00 2154.02 44.80
3018 157.9300 2271.00 2152.97 45.40
3019 157.9800 2263.00 2153.29 45.50
3020 158.0300 2192.00 2154.93 44.90
3021 158.0800 2226.00 2157.88 45.20
3022 158.1300 2283.00 2162.07 45.70
3023 158.1800 2251.00 2167.40 45.90
3024 158.2300 2269.00 2173.79 45.60
3025 158.2800 2211.00 2181.13 45.30
3026 158.3300 2245.00 2189.28 45.80
3027 158.3800 2205.00 2198.11 45.00
3028 158.4300 2247.00 2207.48 45.60
3029 158.4800 2271.00 2217.25 45.80
3030 158.5300 2304.00 2227.30 46.00
3031 158.5800 2263.00 2237.49 45.50
3032 158.6300 2264.00 2247.71 45.80
3033 158.6800 2319.00 2257.85 46.00
3034 158.7300 2296.00 2267.85 45.80
3035 158.7800 2260.00 2277.62 45.40
3036 158.8300 2398.00 2287.13 46.80
3037 158.8800 2263.00 2296.34 45.10
3038 158.9300 2295.00 2305.23 45.80
3039 158.9800 2386.00 2313.77 46.30
3040 159.0300 2413.00 2321.98 46.60
3041 159.0800 2423.00 2329.82 46.50
3042 159.1300 2384.00 2337.30 46.30
3043 159.1800 2417.00 2344.37 46.20
3044 159.2300 2455.00 2351.02 46.80
3045 159.2800 2436.00 2357.18 46.30
3046 159.3300 2428.00 2362.80 46.30
3047 159.3800 2404.00 2367.80 45.80
3048 159.4300 2462.00 2372.06 46.60
3049 159.4800 2501.00 2375.49 46.60
3050 159.5300 2399.00 2377.94 45.70
3051 159.5800 2492.00 2379.28 46.40
3052 159.6300 2501.00 2379.37 46.60
3053 159.6800 2461.00 2378.05 46.00
3054 159.7300 2426.00 2375.18 45.70
3055 159.7800 2435.00 2370.64 45.70
3056 159.8300 2426.00 2364.33 45.60
3057 159.8800 2377.00 2356.17 45.10
3058 159.9300 2397.00 2346.13 45.40
3059 159.9800 2437.00 2334.19 45.50
loop_
_pd_proc_info_excluded_regions
'from 3.646 to 7.000'
'from 160 to 164.765'
loop_
_refln_index_h
_refln_index_k
_refln_index_l
_refln_index_m_1
_refln_F_squared_calc
_refln_F_squared_meas
_refln_observed_status
_refln_d_spacing
0 0 0 4 0.02 0.00 < 9.566382
0 0 1 -3 0.76 1.89 o 5.551109
0 0 1 -1 62.19 56.99 o 4.503805
1 0 0 -3 1.21 1.10 o 4.446213
1 0 0 -1 21.47 18.27 o 4.120435
0 1 0 1 11.00 8.87 o 3.899110
1 0 1 -4 1.66 1.33 o 3.840717
0 1 0 3 0.56 0.35 o 3.746612
0 0 1 1 2.38 1.51 o 3.736909
1 0 0 1 4.26 2.69 o 3.709345
0 1 1 -4 0.44 0.43 o 3.311869
1 0 0 3 0.24 0.29 o 3.298326
1 0 1 -2 4.94 6.62 o 3.232781
0 0 1 3 0.01 0.00 < 3.172051
0 1 1 -2 11.82 13.35 o 3.081873
1 1 0 -4 0.33 0.33 o 2.967355
-1 0 1 -4 0.05 0.05 o 2.954304
-1 0 1 -2 27.38 27.49 o 2.949969
1 1 0 -2 1.56 1.56 o 2.896998
-1 0 1 0 132.59 132.45 o 2.878220
0 1 1 0 148.92 148.73 o 2.829954
1 0 1 0 169.77 164.43 o 2.783761
1 1 0 0 141.14 136.03 o 2.771376
-1 0 1 2 17.01 16.36 o 2.752654
1 1 1 -3 0.60 0.45 o 2.615785
1 1 0 2 0.08 0.06 o 2.610780
-1 0 1 4 3.45 2.63 o 2.593215
0 1 1 2 6.99 5.29 o 2.582783
0 0 2 -4 26.38 24.95 o 2.494001
1 0 1 2 0.50 0.36 o 2.440732
1 1 0 4 0.14 0.11 o 2.434800
1 1 1 -1 105.78 101.94 o 2.378426
-1 1 1 -3 9.50 9.40 o 2.362582
0 1 1 4 0.16 0.16 o 2.354316
-1 1 1 -1 84.69 87.51 o 2.342604
-1 1 1 1 26.82 29.82 o 2.289614
0 0 2 -2 66.54 70.38 o 2.251902
-1 1 1 3 0.00 0.00 < 2.209975
1 0 1 4 0.21 0.23 o 2.171095
1 1 1 1 7.42 8.35 o 2.167446
2 0 0 -4 0.59 0.67 o 2.150477
1 0 2 -3 0.23 0.19 o 2.080309
2 0 0 -2 56.41 55.19 o 2.060218
0 0 2 0 354.24 349.14 o 2.045134
0 1 2 -3 0.34 0.35 o 2.026958
1 1 1 3 1.07 1.07 o 1.982560
-1 0 2 -3 4.85 4.77 o 1.977412
2 0 1 -3 0.00 0.00 < 1.961645
0 2 0 0 847.01 846.14 o 1.959756
2 0 0 0 657.81 657.13 o 1.959562
0 2 0 2 0.22 0.22 o 1.949555
0 2 0 4 0.01 0.00 < 1.919884
1 1 2 -4 2.16 1.46 o 1.918316
-1 0 2 -1 63.30 62.63 o 1.886042
0 1 2 -1 63.87 63.67 o 1.881267
1 0 2 -1 74.29 74.67 o 1.876443
0 0 2 2 15.25 15.29 o 1.868454
2 1 0 -3 4.08 4.14 o 1.855902
2 0 0 2 28.16 27.78 o 1.854673
0 2 1 -3 2.07 2.00 o 1.847974
2 0 1 -1 56.26 59.33 o 1.812867
2 1 1 -4 0.44 0.44 o 1.811275
0 2 1 -1 68.01 65.55 o 1.797002
-2 0 1 1 5.65 5.49 o 1.796270
-2 0 1 3 0.18 0.17 o 1.795641
-1 1 2 -4 0.05 0.05 o 1.795485
1 2 0 -3 1.08 1.05 o 1.793285
-1 0 2 1 1.08 1.05 o 1.790382
2 1 0 -1 28.83 28.12 o 1.789077
-2 0 1 -1 29.21 28.45 o 1.781257
1 2 0 -1 27.73 26.26 o 1.769779
1 1 2 -2 32.13 30.04 o 1.762408
-2 0 1 -3 4.09 3.93 o 1.751742
2 0 0 4 0.14 0.13 o 1.750173
0 1 2 1 0.04 0.04 o 1.748277
1 2 1 -4 0.82 0.80 o 1.745638
0 2 1 1 0.10 0.10 o 1.735569
-1 1 2 -2 56.62 56.50 o 1.733323
1 2 0 1 7.68 7.68 o 1.732783
0 0 2 4 3.48 3.44 o 1.716860
2 1 0 1 6.43 5.46 o 1.715038
1 0 2 1 3.71 3.12 o 1.708946
2 1 1 -2 0.60 0.49 o 1.698862
-1 0 2 3 0.05 0.05 o 1.694492
1 2 0 3 0.85 1.07 o 1.684797
2 0 1 1 9.49 9.75 o 1.680389
1 2 1 -2 1.40 1.39 o 1.675865
0 2 1 3 0.00 0.00 < 1.667227
-1 1 2 0 108.54 104.94 o 1.664459
2 1 0 3 0.00 0.00 < 1.637365
-2 1 1 2 13.45 14.36 o 1.634205
-1 2 1 -4 0.00 0.00 < 1.633106
-1 2 1 -2 16.69 17.88 o 1.632373
-2 1 1 0 83.09 88.36 o 1.628745
0 1 2 3 0.05 0.06 o 1.628095
-2 1 1 4 3.51 3.80 o 1.627807
1 1 2 0 179.00 191.91 o 1.627323
-1 2 1 0 115.62 126.87 o 1.619902
2 0 2 -4 2.82 3.08 o 1.616391
-2 1 1 -2 13.75 16.00 o 1.611778
1 2 1 0 139.49 154.04 o 1.602480
-1 2 1 2 11.37 12.52 o 1.596479
2 1 1 0 140.55 154.49 o 1.593899
-1 1 2 2 25.51 28.14 o 1.592061
-2 1 1 -4 0.02 0.02 o 1.584353
1 0 2 3 1.70 2.02 o 1.568887
-1 2 1 4 2.48 3.47 o 1.563498
2 0 1 3 0.89 1.31 o 1.562736
0 2 2 -4 20.69 28.56 o 1.540936
1 2 1 2 0.06 0.09 o 1.528120
-1 1 2 4 5.83 7.05 o 1.518696
1 1 2 2 10.05 11.17 o 1.509703
0 0 3 -3 4.08 4.48 o 1.501268
2 1 1 2 0.01 0.02 o 1.497011
2 0 2 -2 116.97 130.02 o 1.496163
0 2 2 -2 52.96 66.83 o 1.478329
-2 0 2 -4 20.83 25.99 o 1.474985
1 0 3 -4 4.29 5.14 o 1.466387
-2 0 2 -2 1.42 1.25 o 1.460957
1 2 1 4 0.33 0.34 o 1.454751
2 2 0 -4 0.57 0.61 o 1.448499
2 1 2 -3 0.42 0.44 o 1.444663
0 1 3 -4 0.67 0.70 o 1.443223
-2 0 2 0 252.52 266.11 o 1.439110
1 2 2 -3 0.37 0.39 o 1.426472
-1 0 3 -4 1.90 2.00 o 1.421087
2 2 0 -2 39.29 41.29 o 1.419944
0 2 2 0 253.32 266.29 o 1.414977
-2 0 2 2 33.64 35.02 o 1.410486
2 1 1 4 0.46 0.48 o 1.408193
0 0 3 -1 41.54 41.78 o 1.406968
1 1 2 4 0.80 0.84 o 1.406713
-1 2 2 -3 5.66 5.95 o 1.391957
2 0 2 0 182.08 190.72 o 1.391880
2 2 1 -3 0.02 0.02 o 1.386424
2 2 0 0 479.93 495.02 o 1.385688
-2 0 2 4 8.80 9.01 o 1.376327
-2 1 2 -3 2.20 2.13 o 1.375563
3 0 0 -3 0.23 0.23 o 1.373478
1 0 3 -2 11.12 13.33 o 1.363900
0 1 3 -2 25.07 29.81 o 1.362293
-2 1 2 -1 49.05 58.32 o 1.360710
-1 0 3 -2 33.55 39.89 o 1.360659
-1 2 2 -1 57.34 67.03 o 1.358945
3 0 1 -4 3.58 4.10 o 1.358493
1 2 2 -1 69.72 78.64 o 1.355342
2 1 2 -1 61.57 68.40 o 1.353502
0 2 2 2 10.45 11.77 o 1.352322
2 2 0 2 22.75 23.33 o 1.347069
-2 1 2 1 5.16 4.45 o 1.339710
2 2 1 -1 60.62 59.01 o 1.330793
1 1 3 -3 87.05 83.24 o 1.329531
3 0 0 -1 29.41 28.25 o 1.329239
-2 2 1 1 9.27 8.40 o 1.324186
-2 2 1 3 0.00 0.00 < 1.323934
0 0 3 1 0.24 0.22 o 1.322104
-1 2 2 1 2.74 2.37 o 1.321822
-2 2 1 -1 29.58 28.94 o 1.318137
3 1 0 -4 1.01 0.85 o 1.313853
-2 1 2 3 0.26 0.23 o 1.313419
-1 1 3 -3 47.67 40.24 o 1.310734
-2 2 1 -3 6.31 4.83 o 1.306041
0 3 0 1 6.90 4.96 o 1.305743
2 2 0 4 0.34 0.26 o 1.305390
-1 0 3 0 42.03 21.60 o 1.301276
2 0 2 2 0.95 0.66 o 1.300694
0 3 0 3 0.39 0.18 o 1.299703
3 0 1 -2 0.41 0.25 o 1.293899
0 2 2 4 2.23 1.36 o 1.291391
1 2 2 1 1.11 0.74 o 1.288013
0 1 3 0 62.25 41.68 o 1.287737
-3 0 1 4 7.56 5.15 o 1.284473
3 0 0 1 0.21 0.13 o 1.283205
-1 2 2 3 0.20 0.14 o 1.281791
0 3 1 -4 0.45 0.31 o 1.278362
3 1 0 -2 6.10 4.04 o 1.277811
2 2 1 1 4.55 3.13 o 1.275654
1 0 3 0 66.08 43.95 o 1.274584
-3 0 1 2 21.08 14.04 o 1.273149
2 1 2 1 0.82 0.55 o 1.272014
0 3 1 -2 8.09 5.29 o 1.263868
-1 1 3 -1 0.98 0.78 o 1.260126
-3 0 1 0 37.27 29.06 o 1.256664
3 1 1 -3 13.43 9.58 o 1.255907
1 3 0 -4 0.12 0.08 o 1.255588
1 3 0 -2 0.49 0.39 o 1.250099
1 1 3 -1 2.78 2.38 o 1.249054
2 2 2 -4 2.32 1.99 o 1.246968
0 0 3 3 0.14 0.12 o 1.245636
0 3 1 0 68.53 63.62 o 1.244556
-1 0 3 2 29.79 25.59 o 1.243756
1 3 0 0 55.93 47.20 o 1.239446
3 1 0 0 77.92 65.76 o 1.239348
3 0 0 3 0.03 0.02 o 1.236449
-3 0 1 -2 26.32 22.44 o 1.235616
3 0 1 0 80.75 67.46 o 1.232574
1 2 2 3 1.39 1.11 o 1.224765
1 3 1 -3 0.99 0.45 o 1.224535
1 3 0 2 0.00 0.00 < 1.224020
2 2 1 3 0.49 0.23 o 1.221832
0 3 1 2 3.17 1.57 o 1.221098
2 0 2 4 0.18 0.14 o 1.220366
0 1 3 2 14.06 6.37 o 1.219236
-3 1 1 3 0.18 0.09 o 1.216321
-3 0 1 -4 0.24 0.16 o 1.210714
-1 1 3 1 0.36 0.31 o 1.210092
2 0 3 -3 3.74 4.04 o 1.205804
1 3 0 4 0.07 0.06 o 1.204356
-3 1 1 1 6.08 5.72 o 1.204300
3 1 1 -1 9.94 8.42 o 1.201964
3 1 0 2 3.64 2.44 o 1.199420
2 1 2 3 0.27 0.22 o 1.198932
1 3 1 -1 39.64 25.64 o 1.197350
1 0 3 2 16.38 13.34 o 1.196090
-1 3 1 -3 2.69 1.84 o 1.195314
0 3 1 4 0.13 0.11 o 1.194239
-1 3 1 -1 33.63 26.59 o 1.192702
0 2 3 -3 2.35 1.99 o 1.191772
2 2 2 -2 89.84 78.88 o 1.189213
-1 0 3 4 3.56 2.92 o 1.188632
-3 1 1 -1 7.86 7.20 o 1.188021
2 1 3 -4 5.53 4.88 o 1.186444
-1 3 1 1 4.44 4.04 o 1.185529
-2 2 2 -4 16.10 28.13 o 1.178494
-2 0 3 -3 0.49 0.85 o 1.178134
1 1 3 1 0.15 0.23 o 1.177138
3 0 1 2 3.25 5.32 o 1.174762
1 2 3 -4 3.45 5.57 o 1.174095
-1 3 1 3 0.00 0.00 < 1.174038
3 0 2 -3 0.04 0.07 o 1.172626
-2 2 2 -2 1.23 1.60 o 1.171302
-3 1 1 -3 3.05 4.03 o 1.168008
1 3 1 1 0.10 0.12 o 1.167527
-1 1 3 3 0.04 0.04 o 1.161279
-2 2 2 0 185.80 185.52 o 1.159953
3 1 0 4 0.08 0.08 o 1.158843
0 1 3 4 3.33 3.30 o 1.156373
3 1 2 -4 4.63 4.37 o 1.151526
-2 0 3 -1 28.49 23.64 o 1.151349
-1 2 3 -4 2.16 1.85 o 1.150453
3 1 1 1 0.12 0.10 o 1.150244
-2 2 2 2 24.52 21.33 o 1.144807
0 3 2 -3 2.89 2.49 o 1.143967
0 2 3 -1 37.05 31.76 o 1.142923
-2 1 3 -4 0.11 0.10 o 1.139127
1 3 1 3 0.12 0.11 o 1.135803
2 2 2 0 129.15 121.07 o 1.134791
2 0 3 -1 29.33 27.50 o 1.134605
1 0 3 4 0.37 0.36 o 1.126587
-2 2 2 4 5.81 5.26 o 1.126315
0 0 4 -4 0.81 0.77 o 1.125951
3 2 0 -3 0.03 0.03 o 1.124752
1 3 2 -4 0.83 1.04 o 1.123319
-2 0 3 1 4.84 6.10 o 1.122428
3 0 1 4 0.06 0.06 o 1.120527
2 1 3 -2 2.45 3.10 o 1.120348
1 2 3 -2 3.58 4.09 o 1.119474
-3 0 2 -1 18.09 20.04 o 1.118671
-1 2 3 -2 17.15 18.84 o 1.117680
-3 0 2 -3 10.94 11.88 o 1.117150
-2 1 3 -2 19.28 20.88 o 1.116759
3 2 1 -4 2.46 2.65 o 1.116479
-3 0 2 1 13.44 14.40 o 1.116378
0 3 2 -1 28.82 30.65 o 1.115736
3 0 2 -1 45.00 44.00 o 1.112664
1 1 3 3 0.02 0.02 o 1.112584
2 3 0 -3 2.11 2.12 o 1.110375
-3 0 2 3 0.51 0.53 o 1.110340
3 1 1 3 0.22 0.26 o 1.101008
2 3 1 -4 0.10 0.11 o 1.100592
3 2 0 -1 30.81 34.30 o 1.100068
-1 3 2 -4 0.33 0.38 o 1.097020
3 1 2 -2 0.10 0.13 o 1.096386
0 2 3 1 0.07 0.08 o 1.096014
2 3 0 -1 16.56 20.42 o 1.095553
-2 1 3 0 22.06 23.69 o 1.092084
-2 0 3 3 0.00 0.00 < 1.092008
1 3 2 -2 22.90 23.83 o 1.089343
0 3 2 1 1.09 1.02 o 1.085981
-1 2 3 0 35.58 33.41 o 1.084060
2 2 2 2 0.56 0.54 o 1.083723
-1 3 2 -2 34.83 32.87 o 1.082369
3 2 1 -2 1.25 1.26 o 1.079784
2 3 0 1 5.08 5.61 o 1.077873
-3 1 2 -2 27.61 30.29 o 1.075462
-3 1 2 0 32.92 36.82 o 1.075118
-3 2 1 4 5.27 5.61 o 1.074287
2 3 1 -2 0.99 1.13 o 1.073823
3 2 0 1 0.57 0.65 o 1.073545
-3 1 2 -4 0.64 0.81 o 1.072422
0 0 4 -2 11.79 15.08 o 1.072213
-3 1 2 2 20.04 20.99 o 1.071398
2 0 3 1 2.58 2.68 o 1.071317
1 2 3 0 50.28 50.52 o 1.068482
-3 2 1 2 16.39 16.30 o 1.067636
-2 1 3 2 17.80 17.66 o 1.065653
-1 3 2 0 56.16 55.09 o 1.064974
-3 1 2 4 6.53 6.51 o 1.064407
2 1 3 0 70.75 71.67 o 1.060918
1 0 4 -3 0.06 0.06 o 1.060158
-3 2 1 0 35.54 36.24 o 1.057858
3 0 2 1 2.86 2.90 o 1.057803
0 1 4 -3 1.38 1.39 o 1.057787
2 3 0 3 0.05 0.05 o 1.057774
-2 3 1 2 5.61 5.67 o 1.056920
-2 3 1 0 41.67 42.46 o 1.055439
-1 0 4 -3 3.34 3.38 o 1.055417
0 3 2 3 0.01 0.00 < 1.055262
-2 3 1 4 1.74 1.74 o 1.055184
1 3 2 0 96.13 97.08 o 1.055052
0 2 3 3 0.01 0.00 < 1.051255
-2 3 1 -2 7.67 6.85 o 1.050780
-1 2 3 2 21.44 21.02 o 1.050124
1 1 4 -4 33.90 32.81 o 1.049385
2 3 1 0 72.51 73.07 o 1.045778
3 2 0 3 0.35 0.35 o 1.045714
3 1 2 0 111.07 111.21 o 1.045343
-1 3 2 2 11.09 11.02 o 1.045259
-3 2 1 -2 19.58 19.74 o 1.045211
3 2 1 0 64.92 65.11 o 1.043368
-2 3 1 -4 0.17 0.17 o 1.043068
-2 1 3 4 5.33 5.41 o 1.037985
-1 1 4 -4 16.36 17.17 o 1.037017
2 2 2 4 0.15 0.15 o 1.035932
4 0 0 -4 2.55 2.77 o 1.030109
-3 2 1 -4 0.16 0.22 o 1.030008
2 2 3 -3 2.84 3.08 o 1.026979
-1 3 2 4 2.84 3.15 o 1.023656
3 0 3 -4 4.80 5.32 o 1.022871
0 0 4 0 40.82 45.04 o 1.022567
1 2 3 2 11.41 12.79 o 1.020958
1 3 2 2 3.66 4.06 o 1.020889
2 3 1 2 0.00 0.00 < 1.016937
-1 0 4 -1 28.66 33.92 o 1.016529
-1 2 3 4 2.39 2.62 o 1.016308
2 0 3 3 0.23 0.26 o 1.014695
0 1 4 -1 38.33 40.62 o 1.011442
-2 2 3 -3 0.96 1.01 o 1.009723
3 2 1 2 3.34 3.56 o 1.007598
3 0 2 3 2.46 2.63 o 1.007524
2 1 3 2 2.75 2.92 o 1.007238
1 0 4 -1 34.97 36.97 o 1.006417
3 2 2 -3 0.02 0.02 o 1.006248
4 0 0 -2 53.32 55.36 o 1.005385
-1 1 4 -2 9.81 9.45 o 1.001426
2 3 2 -3 2.82 2.67 o 1.000054
0 3 3 -4 1.23 1.18 o 0.999576
1 1 4 -2 0.93 0.93 o 0.998543
3 1 2 2 0.03 0.03 o 0.998096
4 0 1 -3 0.11 0.11 o 0.995954
-2 2 3 -1 24.22 24.46 o 0.992707
2 3 1 4 0.13 0.10 o 0.987715
1 3 2 4 0.61 0.51 o 0.987204
2 0 4 -4 2.75 2.61 o 0.986564
4 1 0 -3 0.37 0.32 o 0.985202
2 2 3 -1 26.89 23.58 o 0.981915
4 1 1 -4 0.29 0.25 o 0.980910
0 4 0 0 361.18 316.84 o 0.979878
4 0 0 0 135.52 118.84 o 0.979781
-4 0 1 3 0.64 0.55 o 0.979757
-1 0 4 1 10.55 9.15 o 0.979071
0 4 0 2 0.03 0.02 o 0.978595
-3 0 3 -4 0.06 0.06 o 0.977696
1 2 3 4 0.25 0.22 o 0.976704
0 0 4 2 20.25 17.67 o 0.976680
0 2 4 -4 0.35 0.31 o 0.976290
-2 3 2 -3 3.41 2.74 o 0.976254
0 4 0 4 0.21 0.18 o 0.974778
-2 2 3 1 5.94 4.85 o 0.973990
3 0 3 -2 0.04 0.04 o 0.973191
3 2 1 4 0.20 0.19 o 0.972747
-3 2 2 -1 15.49 13.98 o 0.971532
0 3 3 -2 14.66 13.27 o 0.971476
-2 3 2 -1 21.09 19.39 o 0.970901
-3 2 2 -3 10.73 10.01 o 0.970535
-3 2 2 1 13.65 13.16 o 0.970029
-3 0 3 -2 25.72 24.78 o 0.969665
2 3 2 -1 35.33 34.83 o 0.968273
0 1 4 1 2.53 2.48 o 0.968209
3 2 2 -1 41.83 41.48 o 0.967590
-4 0 1 1 15.77 15.68 o 0.967148
-1 1 4 0 23.85 23.87 o 0.966788
3 1 3 -3 48.47 48.54 o 0.966633
-2 0 4 -4 0.82 0.83 o 0.966283
-3 2 2 3 0.87 0.89 o 0.966060
0 4 1 -3 4.97 5.21 o 0.964959
-2 3 2 1 5.35 5.84 o 0.963185
4 1 0 -1 37.83 42.24 o 0.962287
4 0 1 -1 32.37 36.20 o 0.962205
-3 0 3 0 9.78 10.70 o 0.959407
1 3 3 -3 60.86 66.80 o 0.959382
2 1 3 4 0.57 0.59 o 0.958546
1 0 4 1 3.13 3.43 o 0.957689
0 4 1 -1 68.02 72.88 o 0.957479
loop_
_jana_atom_site_displace_legendre_atom_site_label
_jana_atom_site_displace_legendre_axis
_jana_atom_site_displace_legendre_param_order
_jana_atom_site_displace_legendre_param_coeff
Fe1 x 1 0.0275(13)
Fe1 y 1 0
Fe1 z 1 0.0416(10)
Fe1 x 2 0
Fe1 y 2 0
Fe1 z 2 0
Fe1 x 3 -0.046(3)
Fe1 y 3 0
Fe1 z 3 0.097(2)
Fe1 x 4 0
Fe1 y 4 0
Fe1 z 4 0
Pb1 x 1 0.010(2)
Pb1 y 1 0
Pb1 z 1 -0.0570(19)
Pb1 x 2 0
Pb1 y 2 0
Pb1 z 2 0
Pb1 x 3 -0.091(6)
Pb1 y 3 0
Pb1 z 3 0.104(5)
Pb1 x 4 0
Pb1 y 4 0
Pb1 z 4 0
Bi1 x 1 0.010(2)
Bi1 y 1 0
Bi1 z 1 -0.0570(19)
Bi1 x 2 0
Bi1 y 2 0
Bi1 z 2 0
Bi1 x 3 -0.091(6)
Bi1 y 3 0
Bi1 z 3 0.104(5)
Bi1 x 4 0
Bi1 y 4 0
Bi1 z 4 0
O1 x 1 0.037(4)
O1 y 1 0
O1 z 1 0.235(3)
O1 x 2 0
O1 y 2 0
O1 z 2 0
O1 x 3 -0.101(9)
O1 y 3 0
O1 z 3 0.060(5)
O1 x 4 0
O1 y 4 0
O1 z 4 0
O2 x 1 0.044(5)
O2 y 1 0
O2 z 1 0.142(2)
O2 x 2 0
O2 y 2 0
O2 z 2 0
O2 x 3 -0.021(16)
O2 y 3 0
O2 z 3 0
O2 x 4 0
O2 y 4 0
O2 z 4 0
O3 x 1 0.049(2)
O3 y 1 0
O3 z 1 0.129(2)
O3 x 2 0
O3 y 2 0
O3 z 2 0
O3 x 3 0
O3 y 3 0
O3 z 3 0.066(8)
O3 x 4 0
O3 y 4 0
O3 z 4 0
