#------------------------------------------------------------------------------
#$Date: 2017-09-28 11:46:15 +0300 (Thu, 28 Sep 2017) $
#$Revision: 201406 $
#$URL: file:///home/coder/svn-repositories/cod/cif/2/31/01/2310163.cif $
#------------------------------------------------------------------------------
#
# This file is available in the Crystallography Open Database (COD),
# http://www.crystallography.net/. The original data for this entry
# were provided by IUCr Journals, http://journals.iucr.org/.
#
# The file may be used within the scientific community so long as
# proper attribution is given to the journal article from which the
# data were obtained.
#
data_2310163
loop_
_publ_author_name
'Ventruti, Gennaro'
'Scordari, Fernando'
'Bellatreccia, Fabio'
'Della Ventura, Giancarlo'
'Sodo, Armida'
_publ_section_title
;
 Calcium tartrate esahydrate, CaC4H4O6&#x00B7;6H2O: a structural and
 spectroscopic study.
;
_journal_coden_ASTM              ACSBDA
_journal_coeditor_code           BP5075
_journal_issue                   1
_journal_name_full
;
 Acta Crystallographica, Section B: Structural Science, Crystal
 Engineering and Materials
;
_journal_page_first              68
_journal_page_last               73
_journal_paper_doi               10.1107/S2052520614027516
_journal_volume                  71
_journal_year                    2015
_chemical_formula_sum            'C4 H16 Ca O12'
_chemical_formula_weight         296.25
_space_group_crystal_system      orthorhombic
_space_group_IT_number           18
_space_group_name_Hall           'P 2 2ab'
_space_group_name_H-M_alt        'P 21 21 2'
_symmetry_space_group_name_Hall  'P 2 2ab'
_symmetry_space_group_name_H-M   'P 21 21 2'
_atom_sites_solution_hydrogens   difmap
_audit_creation_method           SHELXL-2013
_cell_angle_alpha                90
_cell_angle_beta                 90
_cell_angle_gamma                90
_cell_formula_units_Z            2
_cell_length_a                   7.73900(10)
_cell_length_b                   12.8030(2)
_cell_length_c                   5.82900(10)
_cell_measurement_temperature    293(2)
_cell_volume                     577.551(15)
_computing_structure_refinement  'SHELXL-2013 (Sheldrick, 2013)'
_diffrn_ambient_temperature      293(2)
_diffrn_measured_fraction_theta_full 1.000
_diffrn_measured_fraction_theta_max 0.998
_diffrn_measurement_device_type  'Bruker APEXII'
_diffrn_radiation_type           MoK\a
_diffrn_radiation_wavelength     0.71073
_diffrn_reflns_av_R_equivalents  0.0245
_diffrn_reflns_limit_h_max       11
_diffrn_reflns_limit_h_min       -10
_diffrn_reflns_limit_k_max       18
_diffrn_reflns_limit_k_min       -17
_diffrn_reflns_limit_l_max       6
_diffrn_reflns_limit_l_min       -8
_diffrn_reflns_number            8303
_diffrn_reflns_theta_full        25.242
_diffrn_reflns_theta_max         30.529
_diffrn_reflns_theta_min         3.076
_exptl_absorpt_coefficient_mu    0.601
_exptl_crystal_density_diffrn    1.704
_exptl_crystal_F_000             312
_exptl_crystal_size_max          0.220
_exptl_crystal_size_mid          0.200
_exptl_crystal_size_min          0.070
_refine_diff_density_max         0.293
_refine_diff_density_min         -0.188
_refine_ls_abs_structure_details
;
 Flack x determined using 679 quotients [(I+)-(I-)]/[(I+)+(I-)]
 (Parsons and Flack (2004), Acta Cryst. A60, s61).
;
_refine_ls_abs_structure_Flack   -0.173(15)
_refine_ls_extinction_method     none
_refine_ls_goodness_of_fit_ref   0.680
_refine_ls_hydrogen_treatment    refxyz
_refine_ls_matrix_type           full
_refine_ls_number_parameters     102
_refine_ls_number_reflns         1759
_refine_ls_number_restraints     8
_refine_ls_restrained_S_all      0.679
_refine_ls_R_factor_all          0.0228
_refine_ls_R_factor_gt           0.0214
_refine_ls_shift/su_max          0.000
_refine_ls_shift/su_mean         0.000
_refine_ls_structure_factor_coef Fsqd
_refine_ls_weighting_details
'w=1/[\s^2^(Fo^2^)+(0.1000P)^2^] where P=(Fo^2^+2Fc^2^)/3'
_refine_ls_weighting_scheme      calc
_refine_ls_wR_factor_gt          0.0709
_refine_ls_wR_factor_ref         0.0748
_reflns_number_gt                1700
_reflns_number_total             1759
_reflns_threshold_expression     'I > 2\s(I)'
_cod_data_source_file            bp5075sup1.cf
_cod_data_source_block           I
_cod_database_code               2310163
_cod_database_fobs_code          2310163
#BEGIN Tags that were not found in dictionaries:
_shelx_space_group_comment
;
The symmetry employed for this shelxl refinement is uniquely defined
by the following loop, which should always be used as a source of
symmetry information in preference to the above space-group names.
They are only intended as comments.
;
_shelx_hkl_file
;
   1   1   0   33.72    0.94
   1   1   0   32.80    0.94
   2   2   0  113.57    3.10
   2   2   0  119.02    3.10
   3   3   0   46.33    1.48
   3   3   0   44.66    1.48
   3   3   0   45.10    1.16
   4   4   0   59.40    1.95
   4   4   0   59.19    1.53
   4   4   0   61.15    2.01
   5   5   0    2.38    0.38
   5   5   0    3.00    0.21
   5   5   0    3.06    0.21
   5   5   0    2.48    0.40
   6   6   0   27.75    0.86
   6   6   0   28.05    0.85
   6   6   0   26.60    1.31
   6   6   0   28.98    1.38
   7   7   0    7.91    0.80
   7   7   0    7.48    0.76
   7   7   0    7.87    0.40
   8   8   0   26.75    0.93
   8   8   0   28.72    1.63
   8   8   0   28.64    1.59
   9   9   0    0.48    0.18
   9   9   0    0.50    0.41
   0   0   1   97.58    2.51
   1   1  -1    9.70    0.34
  -1  -1  -1    9.35    0.31
  -1  -1   1   10.56    0.34
   1   1   1   10.06    0.40
   2   2  -1    8.44    0.39
   2   2   1    7.75    0.30
   2   2   1    8.41    0.44
  -3  -3  -1   49.83    1.29
   3   3  -1   48.79    1.22
   3   3  -1   52.35    1.56
   3   3  -1   49.45    1.62
   3   3   1   50.54    1.62
   3   3   1   49.40    1.63
   3   3   1   48.16    1.29
   4   4  -1   43.35    1.49
   4   4  -1   41.68    1.17
   4   4  -1   42.48    1.09
   4   4  -1   43.47    1.57
  -4  -4  -1   42.85    1.16
   4   4  -1   42.41    1.16
   4   4   1   43.78    1.57
   4   4   1   43.19    1.18
   4   4   1   41.45    1.54
   5   5  -1   43.04    1.61
   5   5  -1   42.72    1.14
  -5  -5  -1   43.43    1.22
   5   5  -1   42.86    1.23
   5   5  -1   43.70    1.22
   5   5  -1   42.32    1.69
   5   5   1   45.16    1.72
   5   5   1   43.22    1.68
   5   5   1   43.69    1.23
   6   6  -1   26.23    0.77
   6   6  -1   23.59    1.28
   6   6  -1   25.61    0.90
   6   6  -1   26.77    1.26
   6   6  -1   25.91    0.84
   6   6   1   25.82    1.31
   6   6   1   24.70    1.30
   6   6   1   25.77    0.85
   7   7  -1    4.21    0.32
   7   7  -1    3.55    0.55
   7   7  -1    4.57    0.65
   7   7  -1    3.61    0.25
   7   7   1    4.56    0.65
   7   7   1    3.99    0.31
   7   7   1    4.44    0.63
   8   8  -1    2.21    0.22
   8   8  -1    1.74    0.50
   8   8  -1    2.25    0.52
   8   8   1    2.25    0.27
   8   8   1    2.83    0.59
   8   8   1    1.40    0.50
   9   9  -1    0.43    0.15
   9   9  -1    0.63    0.40
   9   9   1   -0.21    0.35
   9   9   1    0.23    0.17
   0   0  -2  140.54    3.29
   0   0   2  136.54    3.63
   1   1  -2  201.65    4.58
  -1  -1  -2  197.39    4.84
  -1  -1   2  208.31    5.09
   1   1   2  205.47    5.14
   1   1   2  208.24    5.21
   2   2  -2   49.23    1.23
  -2  -2  -2   48.45    1.30
   2   2  -2   49.34    1.41
   2   2   2   51.05    1.31
   2   2   2   54.27    1.59
   3   3  -2  110.58    2.97
   3   3  -2  111.90    2.57
  -3  -3  -2  108.02    2.70
   3   3  -2  106.70    2.68
   3   3  -2  109.42    2.63
   3   3   2  105.78    3.12
   3   3   2  109.06    2.72
   4   4  -2   89.36    2.22
   4   4  -2   90.87    2.16
   4   4  -2   87.60    2.11
  -4  -4  -2   87.18    2.27
   4   4  -2   87.31    2.25
   4   4  -2   90.41    2.60
   4   4  -2   90.71    2.80
   4   4   2   83.91    2.74
   4   4   2   89.38    2.29
   5   5  -2   26.19    0.70
   5   5  -2   27.71    0.87
   5   5  -2   27.59    1.30
   5   5  -2   27.41    1.14
  -5  -5  -2   26.69    0.85
   5   5  -2   26.79    0.87
   5   5  -2   27.07    0.81
   5   5   2   24.55    1.23
   5   5   2   24.71    1.26
   5   5   2   23.37    0.84
   6   6  -2   29.97    1.34
   6   6  -2   30.46    1.03
   6   6  -2   30.23    0.83
   6   6  -2   28.75    1.47
   6   6  -2   30.55    1.00
   6   6  -2   30.31    0.95
   6   6   2   30.86    1.49
   6   6   2   29.66    1.48
   6   6   2   31.55    1.02
   7   7  -2    3.68    0.33
   7   7  -2    3.48    0.60
   7   7  -2    3.86    0.31
   7   7  -2    3.32    0.51
   7   7  -2    3.33    0.37
   7   7   2    4.60    0.66
   7   7   2    4.19    0.64
   7   7   2    4.10    0.33
   8   8  -2    3.10    0.64
   8   8  -2    1.77    0.48
   8   8  -2    2.15    0.28
   8   8  -2    2.56    0.39
   8   8  -2    2.90    0.32
   8   8   2    1.35    0.50
   8   8   2    1.89    0.54
   8   8   2    2.21    0.29
   9   9  -2    3.73    0.39
   9   9  -2    3.54    0.35
   9   9   2    2.22    0.31
   0   0  -3   78.24    1.92
   0   0   3   77.51    2.30
  -1  -1  -3  199.45    4.94
   1   1  -3  208.50    4.88
   1   1  -3  202.34    4.82
   1   1   3  209.31    5.34
  -1  -1   3  209.91    5.53
   1   1   3  213.19    5.34
   1   1   3  206.05    4.94
   2   2  -3   38.82    1.12
  -2  -2  -3   40.29    1.14
   2   2  -3   39.98    1.00
   2   2  -3   40.26    1.13
   2   2   3   44.12    1.16
   2   2   3   42.12    1.39
  -2  -2   3   45.10    1.57
   3   3  -3   40.25    1.06
   3   3  -3   40.51    1.14
   3   3  -3   41.47    1.14
   3   3  -3   41.48    1.24
  -3  -3  -3   39.51    1.14
   3   3   3   37.39    1.14
   3   3   3   37.05    1.43
   4   4  -3   16.23    0.72
   4   4  -3   15.23    0.61
   4   4  -3   14.97    0.61
  -4  -4  -3   15.48    0.60
   4   4  -3   16.05    0.56
   4   4   3   17.71    0.63
   4   4   3   19.41    0.97
   5   5  -3   62.81    1.65
   5   5  -3   61.97    1.73
   5   5  -3   63.93    2.05
   5   5  -3   63.74    1.76
  -5  -5  -3   65.41    1.77
   5   5   3   60.87    1.76
   5   5   3   58.56    2.25
   6   6  -3    4.55    0.35
   6   6  -3    3.96    0.35
   6   6  -3    5.08    0.32
  -6  -6  -3    3.88    0.33
   6   6   3    5.03    0.64
   6   6   3    5.27    0.37
   6   6   3    5.10    0.65
   7   7  -3   26.59    1.02
   7   7  -3   26.44    1.00
   7   7  -3   27.47    0.94
   7   7   3   27.03    1.55
   7   7   3   26.80    1.52
   7   7   3   27.51    1.01
   8   8  -3   13.89    0.75
   8   8  -3   13.88    0.71
   8   8  -3   12.18    0.62
   8   8   3   12.11    1.13
   8   8   3   12.84    0.68
   8   8   3   14.76    1.18
   0   0  -4   10.17    0.38
   0   0   4    9.17    0.61
   1   1  -4    3.90    0.25
  -1  -1  -4    4.04    0.26
   1   1  -4    3.98    0.28
   1   1  -4    4.08    0.21
   1   1   4    4.40    0.40
   1   1   4    3.61    0.31
   1   1   4    4.21    0.25
   2   2  -4    1.89    0.19
   2   2  -4    1.74    0.20
   2   2  -4    1.91    0.13
  -2  -2  -4    1.65    0.18
   2   2  -4    1.50    0.18
   2   2   4    1.72    0.28
   2   2   4    1.49    0.18
  -3  -3  -4    1.54    0.20
   3   3  -4    1.77    0.20
   3   3  -4    1.46    0.21
   3   3   4    1.49    0.19
   3   3   4    1.48    0.30
   4   4  -4    5.76    0.32
   4   4  -4    5.21    0.38
   4   4  -4    5.47    0.36
  -4  -4  -4    6.97    0.41
   4   4   4    6.27    0.59
   4   4   4    5.59    0.36
   5   5  -4    8.70    0.48
  -5  -5  -4    7.65    0.45
   5   5  -4    7.66    0.40
   5   5  -4    7.89    0.47
   5   5   4    8.59    0.47
   5   5   4    8.50    0.76
   6   6  -4    4.51    0.32
   6   6  -4    5.41    0.42
   6   6  -4    4.82    0.41
  -6  -6  -4    4.87    0.39
   6   6   4    3.88    0.62
   6   6   4    4.87    0.38
   6   6   4    4.05    0.67
   7   7  -4    2.33    0.33
   7   7  -4    2.19    0.26
   7   7  -4    2.19    0.34
   7   7   4    2.28    0.56
   7   7   4    2.25    0.32
   7   7   4    2.46    0.60
   8   8  -4   -0.40    0.21
   8   8  -4    0.04    0.15
   8   8  -4   -0.08    0.19
   8   8   4    0.24    0.20
   8   8   4   -0.25    0.35
   0   0  -5  113.68    2.80
   0   0  -5  109.62    2.77
   1   1  -5   49.84    1.39
   1   1  -5   49.08    1.43
   1   1  -5   49.68    1.32
  -1  -1  -5   49.99    1.39
   1   1   5   46.75    1.74
   2   2  -5   26.32    0.73
  -2  -2  -5   26.03    0.87
   2   2  -5   24.85    0.86
   2   2  -5   25.53    0.90
   2   2   5   27.19    1.08
   3   3  -5   25.33    0.90
   3   3  -5   27.01    0.92
  -3  -3  -5   25.63    0.89
   3   3   5   25.62    1.17
   3   3   5   23.96    0.87
  -4  -4  -5   22.32    0.84
   4   4  -5   19.11    0.80
   4   4  -5   20.84    0.83
   4   4   5   21.56    1.14
   4   4   5   21.68    0.82
  -5  -5  -5   45.90    1.43
   5   5  -5   43.74    1.40
   5   5  -5   40.09    1.40
   5   5   5   43.74    1.41
   5   5   5   45.85    1.91
   6   6  -5    6.87    0.50
   6   6  -5    7.83    0.53
  -6  -6  -5    8.33    0.53
   6   6   5    7.90    0.53
   6   6   5    7.82    0.86
  -7  -7  -5    8.37    0.58
   7   7  -5    9.45    0.63
   7   7  -5   10.27    0.55
   7   7  -5   10.79    0.65
   7   7   5   11.51    0.66
   7   7   5    9.74    1.06
   0   0  -6    5.61    0.33
   1   1  -6   26.47    0.91
   1   1  -6   27.87    0.85
  -1  -1  -6   26.27    0.91
   1   1  -6   28.20    1.00
  -2  -2  -6   12.29    0.56
   2   2  -6   13.19    0.45
   2   2  -6   10.45    0.54
   2   2  -6   11.32    0.60
   3   3  -6    0.74    0.21
  -3  -3  -6    0.26    0.17
   3   3  -6    0.75    0.22
   4   4  -6    1.43    0.27
   4   4  -6    1.72    0.28
  -4  -4  -6    1.65    0.27
   5   5  -6    5.83    0.47
   5   5  -6    5.36    0.45
  -5  -5  -6    5.04    0.43
   5   5   6    5.33    0.44
  -6  -6  -6    7.09    0.52
   6   6  -6    6.74    0.54
   6   6  -6    6.28    0.53
   6   6   6    7.24    0.52
   0   0  -7    0.88    0.19
   0   0  -7    0.94    0.25
   1   1  -7   21.32    0.93
   1   1  -7   22.89    0.77
  -1  -1  -7   21.85    0.84
  -2  -2  -7   12.76    0.63
   2   2  -7   12.20    0.62
   2   2  -7   13.99    0.71
   3   3  -7    0.86    0.24
  -3  -3  -7    0.31    0.20
   3   3  -7    0.42    0.23
  -4  -4  -7    1.63    0.29
   4   4  -7    1.12    0.28
   4   4  -7    1.18    0.28
   5   5  -7    2.48    0.38
   5   5  -7    2.92    0.41
  -5  -5  -7    2.55    0.36
   0   0  -8    0.01    0.22
   0   0  -8   -0.11    0.14
   1   1  -8    6.83    0.56
   1   1  -8    6.43    0.39
  -1  -1  -8    5.80    0.43
  -2  -2  -8   14.23    0.71
   2   2  -8   14.71    0.83
   9  10   0    1.46    0.24
   8   9   0    1.79    0.50
   8   9   0    0.81    0.37
   8   9   0    2.01    0.24
   7   8   0   10.82    0.91
   7   8   0   10.15    0.47
   7   8   0   10.32    0.87
   6   7   0    0.22    0.25
   6   7   0    0.33    0.12
   6   7   0    0.23    0.23
   5   6   0   40.99    1.65
   5   6   0   44.06    1.16
   5   6   0   40.71    1.17
   4   5   0    4.20    0.23
   4   5   0    4.17    0.43
   4   5   0    4.28    0.45
   3   4   0   16.97    0.51
   3   4   0   17.51    0.79
   3   4   0   16.90    0.76
   2   3   0  172.89    4.10
   2   3   0  169.27    4.51
   2   3   0  177.06    4.52
   1   2   0   61.96    1.70
   1   2   0   64.02    1.72
   0  -1   0   -0.96    0.03
   1   0   0   -0.06    0.04
  -1   0   0   -0.03    0.04
   1   0   0   -0.06    0.05
   2   1   0  127.12    3.39
  -2  -1   0  131.70    3.30
   2   1   0  128.84    3.38
   3   2   0   65.82    1.96
   3   2   0   66.12    1.99
  -3  -2   0   66.71    1.85
   3   2   0   66.90    1.64
   4   3   0    0.05    0.07
   4   3   0    0.02    0.14
   4   3   0    0.05    0.12
  -4  -3   0    0.17    0.11
   5   4   0    1.37    0.33
   5   4   0    1.55    0.15
   5   4   0    1.23    0.29
  -5  -4   0    1.61    0.25
   5   4   0    1.40    0.15
   6   5   0    5.49    0.31
   6   5   0    5.41    0.58
   6   5   0    5.59    0.61
   6   5   0    5.49    0.30
   7   6   0   24.76    0.82
   7   6   0   25.32    1.34
   7   6   0   25.16    1.37
   8   7   0    8.33    0.88
   8   7   0    7.55    0.41
   8   7   0    6.55    0.77
   9   8   0    2.93    0.29
   9   8   0    3.39    0.72
   9   8   0    2.51    0.61
   9  10  -1    4.59    0.42
   9  10  -1    5.44    0.35
   9  10   1    6.69    0.45
   8   9  -1   14.60    1.09
   8   9  -1   16.68    1.25
   8   9  -1   14.16    0.57
   8   9   1   14.95    1.17
   8   9   1   14.70    0.66
   8   9   1   14.33    1.15
   7   8  -1    7.23    0.74
   7   8  -1    7.11    0.42
   7   8  -1    5.85    0.73
   7   8  -1    6.96    0.35
   7   8   1    7.13    0.79
   7   8   1    5.63    0.71
   7   8   1    6.09    0.38
   6   7  -1   22.35    1.22
   6   7  -1   22.22    0.75
   6   7  -1   22.08    0.83
   6   7  -1   22.04    0.68
   6   7  -1   20.26    1.12
   6   7   1   18.68    1.14
   6   7   1   19.23    1.18
   6   7   1   20.69    0.74
   5   6  -1   23.18    1.17
   5   6  -1   24.31    0.70
   5   6  -1   24.50    0.78
   5   6  -1   25.54    0.84
   5   6  -1   23.43    1.13
   5   6   1   24.29    0.79
   5   6   1   22.51    1.14
   5   6   1   22.14    1.15
   4   5  -1    4.56    0.31
   4   5  -1    4.42    0.22
   4   5  -1    5.01    0.48
  -4  -5  -1    4.43    0.26
   4   5  -1    4.84    0.45
   4   5  -1    4.56    0.26
   4   5   1    6.21    0.52
   4   5   1    5.81    0.29
   4   5   1    7.09    0.54
   3   4  -1  190.33    5.02
  -3  -4  -1  190.93    4.46
   3   4  -1  189.98    4.40
   3   4  -1  187.10    4.95
   3   4   1  180.48    4.99
   3   4   1  182.43    4.97
   3   4   1  181.54    4.47
   2   3  -1   53.71    1.65
   2   3  -1   55.47    1.59
  -2  -3  -1   53.59    1.36
   2   3   1   53.80    1.64
   2   3   1   53.07    1.37
   1   2  -1    3.54    0.14
   1   2  -1    3.09    0.20
   1   2   1    2.38    0.21
   0  -1  -1   28.91    0.87
   0  -1  -1   31.18    0.82
   0   1   1   28.68    0.87
   0   1   1   30.02    0.82
   1   0  -1  221.91    5.61
   1   0  -1  232.47    5.74
  -1   0   1  214.60    5.60
   2   1  -1  178.19    4.94
   2   1  -1  191.77    4.86
   2   1   1  199.99    4.56
  -2  -1   1  198.95    4.96
  -3  -2  -1  418.45   10.27
   3   2  -1  420.13   10.42
  -3  -2  -1  409.09    9.76
   3   2  -1  408.33    9.87
   3   2  -1  412.71   10.52
   3   2   1  419.26   10.53
  -3  -2   1  419.95   10.41
   3   2   1  417.50    9.77
   4   3  -1  119.72    3.00
   4   3  -1  124.14    2.97
   4   3  -1  122.19    3.56
  -4  -3  -1  124.26    3.18
   4   3  -1  120.23    3.45
  -4  -3  -1  123.81    3.04
   4   3   1  120.29    3.56
   4   3   1  129.04    3.58
   4   3   1  125.02    3.05
  -4  -3   1  130.44    3.49
   5   4  -1   48.41    1.35
  -5  -4  -1   51.50    1.48
   5   4  -1   48.07    1.29
   5   4  -1   48.52    1.73
   5   4  -1   49.53    1.85
  -5  -4  -1   48.64    1.36
   5   4  -1   51.76    1.37
   5   4   1   52.02    1.86
   5   4   1   50.50    1.86
   5   4   1   48.82    1.37
  -5  -4   1   53.61    1.78
   6   5  -1   13.00    0.46
   6   5  -1   12.97    0.89
   6   5  -1   12.66    0.81
   6   5  -1   13.18    0.53
   6   5  -1   14.07    0.60
   6   5   1   12.76    0.86
   6   5   1   12.60    0.89
   6   5   1   12.69    0.53
   7   6  -1   32.40    1.04
   7   6  -1   34.47    1.55
   7   6  -1   35.12    1.66
   7   6  -1   33.48    0.96
   7   6   1   31.22    1.04
   7   6   1   30.50    1.57
   7   6   1   31.47    1.61
   8   7  -1   14.01    1.10
   8   7  -1   14.83    1.07
   8   7  -1   14.51    0.63
   8   7  -1   14.96    0.56
   8   7   1   14.14    0.63
   8   7   1   12.89    1.04
   8   7   1   12.83    1.08
   9   8  -1    4.27    0.79
   9   8  -1    4.85    0.32
   9   8  -1    3.57    0.65
   9   8   1    5.21    0.84
   9   8   1    4.70    0.38
   8   9  -2    4.08    0.36
   8   9  -2    4.92    0.76
   8   9  -2    3.35    0.61
   8   9  -2    4.74    0.40
   8   9   2    2.96    0.64
   8   9   2    4.29    0.75
   8   9   2    4.47    0.38
   7   8  -2    0.52    0.18
   7   8  -2    0.63    0.32
   7   8  -2    0.31    0.31
   7   8  -2    0.62    0.27
   7   8  -2    0.84    0.21
   7   8   2    0.73    0.36
   7   8   2    0.96    0.38
   7   8   2    1.30    0.22
   6   7  -2   36.94    1.14
   6   7  -2   34.40    1.08
   6   7  -2   34.49    1.52
   6   7  -2   35.99    1.69
   6   7  -2   35.34    1.17
   6   7  -2   35.69    0.96
   6   7   2   35.21    1.66
   6   7   2   35.29    1.14
   6   7   2   35.78    1.64
  -5  -6  -2    4.21    0.30
   5   6  -2    3.90    0.33
   5   6  -2    4.05    0.30
   5   6  -2    3.34    0.48
   5   6  -2    4.30    0.46
   5   6  -2    4.02    0.19
   5   6  -2    3.69    0.26
   5   6   2    3.45    0.27
   5   6   2    2.41    0.45
   5   6   2    2.41    0.44
   4   5  -2   28.95    0.90
   4   5  -2   29.34    0.76
   4   5  -2   28.62    0.85
   4   5  -2   29.91    0.92
   4   5  -2   29.53    1.16
   4   5  -2   29.12    1.28
  -4  -5  -2   28.53    0.90
   4   5   2   32.30    0.93
   4   5   2   31.00    1.29
   4   5   2   29.96    1.27
   3   4  -2   74.98    1.80
   3   4  -2   73.70    1.87
  -3  -4  -2   73.31    1.89
   3   4  -2   75.37    2.17
   3   4  -2   72.21    1.75
   3   4   2   74.78    2.30
   3   4   2   72.00    1.91
   2   3  -2  268.09    6.10
  -2  -3  -2  272.10    6.69
  -2  -3  -2  270.94    6.40
   2   3  -2  270.69    6.82
   2   3   2  262.26    6.40
   2   3   2  273.12    6.96
   1   2  -2   23.31    0.64
   1   2  -2   23.67    0.71
  -1  -2  -2   23.42    0.68
  -1  -2  -2   23.86    0.79
   1   2   2   24.99    0.69
   1   2   2   27.99    0.85
   0   1  -2   29.32    0.76
   0  -1  -2   29.54    0.77
   0  -1  -2   28.07    0.97
   0   1   2   30.67    0.85
   0   1   2   29.33    0.98
  -1   0  -2   22.16    0.62
   1   0  -2   23.07    0.58
   1   0   2   21.56    0.73
  -1   0   2   22.44    0.86
   2   1  -2  370.47    9.07
  -2  -1  -2  363.93    8.61
   2   1  -2  370.84    8.21
   2   1   2  366.40    9.04
   2   1   2  363.79    8.61
  -2  -1   2  359.12    9.27
   3   2  -2   26.20    0.67
   3   2  -2   27.83    0.92
  -3  -2  -2   27.20    0.80
   3   2  -2   25.95    0.73
   3   2   2   28.78    0.81
   3   2   2   29.28    1.09
  -3  -2   2   27.48    1.11
   4   3  -2   43.55    1.62
   4   3  -2   44.10    1.20
   4   3  -2   44.99    1.15
  -4  -3  -2   43.35    1.23
   4   3  -2   44.50    1.08
   4   3  -2   43.12    1.21
   4   3  -2   45.55    1.45
  -4  -3   2   41.96    1.61
   4   3   2   45.24    1.63
   4   3   2   43.42    1.23
   5   4  -2    1.71    0.13
   5   4  -2    1.86    0.18
   5   4  -2    1.85    0.20
  -5  -4  -2    2.00    0.21
   5   4  -2    2.29    0.23
   5   4  -2    1.94    0.30
   5   4  -2    2.68    0.42
   5   4   2    2.72    0.45
   5   4   2    1.86    0.20
   5   4   2    1.94    0.38
   6   5  -2    5.60    0.54
  -6  -5  -2    6.45    0.38
   6   5  -2    5.95    0.25
   6   5  -2    6.23    0.67
   6   5  -2    6.29    0.42
   6   5  -2    5.45    0.36
   6   5  -2    5.81    0.33
   6   5   2    6.15    0.37
   6   5   2    6.14    0.68
   6   5   2    6.56    0.67
   7   6  -2   10.41    0.89
   7   6  -2   10.75    0.57
   7   6  -2   10.90    0.51
   7   6  -2   11.77    0.41
   7   6  -2   10.78    0.80
   7   6  -2   11.24    0.56
   7   6   2   13.26    0.58
   7   6   2   13.01    0.96
   7   6   2   14.18    1.02
   8   7  -2    9.23    0.50
   8   7  -2   10.10    0.63
   8   7  -2   10.06    0.98
   8   7  -2    9.52    0.54
   8   7  -2    7.60    0.78
   8   7   2    8.35    0.91
   8   7   2    9.37    0.53
   8   7   2   11.55    1.04
   9   8  -2    3.83    0.37
   9   8  -2    4.59    0.41
   9   8   2    4.65    0.40
   9   8   2    4.97    0.83
   8   9  -3    4.02    0.36
   8   9  -3    3.73    0.40
   8   9  -3    4.15    0.48
   8   9   3    3.45    0.38
   8   9   3    3.36    0.71
   7   8  -3    5.97    0.50
   7   8  -3    5.37    0.38
   7   8  -3    6.46    0.46
   7   8   3    5.84    0.78
   7   8   3    6.25    0.44
   7   8   3    3.95    0.68
  -6  -7  -3    0.60    0.18
   6   7  -3    0.01    0.15
   6   7  -3    0.05    0.18
   6   7  -3    0.04    0.11
   6   7   3   -0.55    0.19
   6   7   3    0.03    0.23
   6   7   3    0.11    0.14
   5   6  -3   16.98    0.70
  -5  -6  -3   17.89    0.69
   5   6  -3   18.19    0.70
   5   6  -3   17.73    0.64
   5   6  -3   18.30    0.90
   5   6   3   17.21    0.70
   5   6   3   17.66    1.08
   5   6   3   15.81    1.01
   4   5  -3   21.24    0.77
   4   5  -3   21.66    0.92
   4   5  -3   20.96    0.75
  -4  -5  -3   21.90    0.76
   4   5  -3   21.48    0.70
   4   5   3   22.40    1.10
   4   5   3   23.18    0.78
  -3  -4  -3    4.97    0.29
   3   4  -3    5.01    0.29
  -3  -4  -3    4.68    0.25
   3   4  -3    4.64    0.34
   3   4  -3    4.59    0.25
   3   4  -3    4.94    0.31
   3   4   3    4.09    0.27
   3   4   3    3.75    0.42
  -2  -3  -3   21.00    0.77
   2   3  -3   23.35    0.57
   2   3  -3   22.08    0.71
   2   3  -3   23.23    0.72
  -2  -3  -3   23.42    0.72
   2   3  -3   23.88    0.67
   2   3   3   21.25    0.90
   2   3   3   21.35    0.71
   1   2  -3   65.75    1.60
   1   2  -3   64.99    1.68
   1   2  -3   65.86    1.67
  -1  -2  -3   65.87    1.68
   1   2   3   64.69    1.68
   1   2   3   67.87    1.94
   1   2   3   63.14    1.88
   0   1  -3   31.52    0.86
   0  -1  -3   31.47    0.87
   0   1   3   33.23    0.96
   0   1   3   33.34    1.17
   1   0  -3   46.75    1.17
  -1   0  -3   46.01    1.21
   1   0   3   45.97    1.45
  -1   0   3   45.61    1.58
   2   1  -3   41.80    1.14
  -2  -1  -3   40.17    1.14
   2   1  -3   42.25    1.14
   2   1  -3   43.32    1.04
   2   1  -3   40.66    1.04
  -2  -1   3   43.20    1.55
   2   1   3   41.52    1.14
   2   1   3   41.81    1.25
  -3  -2  -3   24.90    0.79
   3   2  -3   25.14    0.77
   3   2  -3   25.29    0.61
   3   2  -3   25.11    0.78
   3   2  -3   23.73    0.70
   3   2  -3   25.21    0.80
   3   2   3   25.75    1.06
  -3  -2   3   24.77    1.15
   3   2   3   24.47    0.78
   4   3  -3    3.15    0.29
   4   3  -3    2.90    0.25
  -4  -3  -3    2.67    0.23
   4   3  -3    2.84    0.24
   4   3  -3    2.90    0.22
   4   3   3    3.34    0.26
   4   3   3    4.08    0.46
   5   4  -3   11.91    0.46
   5   4  -3   11.24    0.63
   5   4  -3   10.34    0.50
   5   4  -3   11.53    0.53
  -5  -4  -3   11.22    0.51
   5   4   3   12.42    0.82
   5   4   3   12.06    0.53
   6   5  -3    0.83    0.17
   6   5  -3    0.68    0.18
  -6  -5  -3    0.78    0.18
   6   5  -3    0.64    0.20
   6   5   3    0.47    0.36
   6   5   3    0.49    0.28
   6   5   3    0.91    0.20
   7   6  -3    8.42    0.52
   7   6  -3    8.93    0.52
   7   6  -3    8.42    0.45
   7   6   3    9.66    0.90
   7   6   3    8.83    0.90
   7   6   3    8.42    0.50
   8   7  -3    0.73    0.29
   8   7  -3    0.55    0.18
   8   7  -3    0.68    0.22
   8   7   3    0.40    0.20
   8   7   3    0.29    0.38
   8   7   3    0.89    0.41
   9   8  -3    2.75    0.33
   9   8  -3    3.56    0.41
   9   8  -3    2.98    0.45
   9   8   3    3.00    0.36
   8   9  -4    3.25    0.45
   8   9  -4    3.64    0.37
   8   9  -4    3.74    0.44
   8   9   4    3.46    0.40
   7   8  -4   11.52    0.66
   7   8  -4   12.45    0.67
   7   8  -4   10.07    0.55
   7   8   4   10.30    0.61
   7   8   4   11.49    1.08
   7   8   4    9.70    1.01
   6   7  -4   16.68    0.69
   6   7  -4   17.56    0.78
   6   7  -4   18.64    0.80
  -6  -7  -4   19.50    0.79
   6   7   4   16.60    0.75
   6   7   4   18.12    1.23
   6   7   4   14.74    1.08
   5   6  -4   21.55    0.87
   5   6  -4   21.71    0.86
  -5  -6  -4   23.09    0.86
   5   6  -4   22.91    0.78
   5   6   4   22.75    0.86
   5   6   4   21.36    1.23
  -4  -5  -4   66.61    1.87
   4   5  -4   64.65    1.84
   4   5  -4   65.33    1.75
   4   5  -4   66.90    1.88
   4   5   4   69.76    2.37
   4   5   4   68.32    1.89
   3   4  -4   26.81    0.88
  -3  -4  -4   25.36    0.86
   3   4  -4   25.60    0.88
   3   4   4   26.07    1.15
   3   4   4   25.47    0.86
  -2  -3  -4   81.04    2.09
   2   3  -4   79.54    1.92
   2   3  -4   79.23    2.08
   2   3  -4   79.91    2.07
   2   3   4   79.24    2.09
   2   3   4   76.64    2.39
   1   2  -4   79.18    2.03
   1   2  -4   79.07    2.06
  -1  -2  -4   76.91    2.03
   1   2  -4   78.52    2.03
   1   2  -4   78.98    1.94
   1   2   4   78.41    2.26
   1   2   4   77.22    2.02
  -1  -2   4   80.32    2.57
   1   2   4   79.48    2.37
   0  -1  -4   12.45    0.45
   0   1  -4   12.31    0.43
   0   1  -4   12.07    0.45
   0  -1   4   12.23    0.71
   0   1   4   12.71    0.71
   0   1   4   12.17    0.48
   1   0  -4    5.07    0.27
   1   0  -4    5.06    0.24
  -1   0  -4    5.02    0.28
   1   0   4    5.63    0.44
   1   0   4    5.06    0.27
  -1   0   4    4.84    0.49
  -2  -1  -4   49.50    1.38
   2   1  -4   50.61    1.37
   2   1  -4   49.39    1.29
   2   1  -4   48.95    1.37
   2   1  -4   49.48    1.25
   2   1   4   48.88    1.64
   2   1   4   49.61    1.57
   2   1   4   50.97    1.37
   3   2  -4   10.66    0.48
   3   2  -4   10.19    0.30
  -3  -2  -4    9.15    0.44
   3   2  -4   10.11    0.46
   3   2   4   10.70    0.47
   3   2   4   10.43    0.66
  -4  -3  -4   12.65    0.57
   4   3  -4   13.19    0.57
   4   3  -4   12.13    0.55
   4   3  -4   13.29    0.50
   4   3   4   13.81    0.57
   4   3   4   13.80    0.83
   5   4  -4   10.10    0.53
   5   4  -4   10.50    0.46
  -5  -4  -4   11.73    0.55
   5   4  -4    9.70    0.52
   5   4   4   11.15    0.53
   5   4   4   11.46    0.82
   6   5  -4   23.56    0.89
   6   5  -4   23.32    0.80
   6   5  -4   22.29    0.89
  -6  -5  -4   22.49    0.88
   6   5   4   22.91    0.89
   6   5   4   21.09    1.28
   7   6  -4   12.86    0.67
   7   6  -4   13.77    0.69
   7   6  -4   13.25    0.58
  -7  -6  -4   13.08    0.66
   7   6   4   11.88    0.64
   7   6   4    9.89    1.01
   7   6   4   12.18    1.01
   8   7  -4    7.39    0.54
   8   7  -4    7.67    0.57
   8   7  -4    6.86    0.46
   8   7   4    6.60    0.51
   8   7   4    6.54    0.91
   7   8  -5    5.81    0.42
  -7  -8  -5    5.75    0.47
   7   8  -5    5.84    0.52
   7   8  -5    6.29    0.53
   7   8   5    5.25    0.82
   7   8   5    5.16    0.48
   6   7  -5    2.23    0.35
   6   7  -5    2.25    0.33
  -6  -7  -5    2.73    0.33
   6   7   5    3.53    0.62
   6   7   5    2.35    0.63
   6   7   5    2.92    0.34
   5   6  -5    4.12    0.40
   5   6  -5    3.79    0.36
  -5  -6  -5    3.11    0.33
   5   6   5    4.15    0.36
   5   6   5    3.86    0.60
   4   5  -5    0.76    0.20
   4   5  -5    0.32    0.19
  -4  -5  -5    0.87    0.21
   4   5   5    0.47    0.28
   4   5   5    0.55    0.18
   3   4  -5    6.28    0.41
   3   4  -5    5.37    0.37
  -3  -4  -5    6.13    0.38
   3   4   5    5.79    0.38
   3   4   5    5.74    0.55
   2   3  -5   17.69    0.53
   2   3  -5   17.12    0.68
   2   3  -5   18.67    0.73
  -2  -3  -5   16.51    0.66
   2   3   5   18.02    0.86
   2   3   5   18.44    0.67
   1   2  -5   11.69    0.50
  -1  -2  -5   11.55    0.49
   1   2  -5   12.00    0.55
   1   2  -5   11.72    0.43
   1   2   5   11.75    0.73
   0  -1  -5    4.39    0.27
   0   1  -5    4.24    0.26
   0   1  -5    4.16    0.29
   0  -1  -5    4.55    0.27
   1   0  -5    1.05    0.14
   1   0  -5    1.25    0.17
  -1   0  -5    1.22    0.17
   1   0   5    0.98    0.27
  -2  -1  -5   40.89    1.24
   2   1  -5   40.05    1.23
   2   1  -5   43.93    1.12
   2   1  -5   42.10    1.27
   2   1   5   42.24    1.49
  -3  -2  -5   10.50    0.50
   3   2  -5    9.54    0.50
   3   2  -5   10.83    0.50
   3   2   5    9.63    0.48
   3   2   5   10.47    0.69
  -4  -3  -5    2.16    0.26
   4   3  -5    2.56    0.28
   4   3  -5    2.70    0.29
   4   3   5    2.74    0.44
   4   3   5    2.83    0.28
  -5  -4  -5    0.37    0.18
   5   4  -5   -0.03    0.13
   5   4  -5   -0.06    0.16
   5   4   5    0.40    0.26
   5   4   5    0.21    0.16
   6   5  -5    6.87    0.49
   6   5  -5    8.03    0.54
  -6  -5  -5    6.67    0.49
   6   5   5    7.27    0.50
   6   5   5    7.57    0.82
   7   6  -5    8.07    0.55
   7   6  -5    7.88    0.55
  -7  -6  -5    7.06    0.51
   7   6  -5    6.81    0.44
   7   6   5    7.19    0.90
   7   6   5    6.64    0.50
   7   6   5    6.65    0.91
   6   7  -6    0.53    0.26
  -6  -7  -6    1.19    0.28
   6   7  -6    0.65    0.26
   6   7   6    1.22    0.29
   5   6  -6    7.21    0.54
  -5  -6  -6    6.83    0.50
   5   6  -6    7.58    0.53
   5   6   6    8.34    0.54
  -4  -5  -6    9.75    0.55
   4   5  -6    9.75    0.58
   4   5  -6    8.76    0.56
  -3  -4  -6    3.78    0.34
   3   4  -6    3.83    0.36
   3   4  -6    3.41    0.35
   2   3  -6    3.27    0.31
  -2  -3  -6    3.68    0.32
   2   3  -6    2.80    0.33
   1   2  -6   18.10    0.78
   1   2  -6   19.24    0.64
   1   2  -6   19.66    0.73
  -1  -2  -6   18.05    0.71
   0   1  -6   27.79    0.91
   0   1  -6   29.29    0.91
   0  -1  -6   28.62    0.92
   0   1  -6   28.17    1.02
  -1   0  -6   17.56    0.67
   1   0  -6   17.88    0.62
   1   0  -6   18.02    0.76
   1   0  -6   16.72    0.65
   2   1  -6   16.20    0.67
   2   1  -6   16.76    0.56
  -2  -1  -6   16.56    0.67
   2   1  -6   15.53    0.70
   3   2  -6    2.27    0.30
   3   2  -6    2.24    0.27
  -3  -2  -6    1.49    0.24
   4   3  -6    7.50    0.51
  -4  -3  -6    7.27    0.47
   4   3  -6    7.91    0.50
  -5  -4  -6    6.80    0.48
   5   4  -6    7.35    0.50
   5   4  -6    6.73    0.49
   5   4   6    7.28    0.49
   6   5  -6    7.94    0.56
  -6  -5  -6    6.53    0.51
   6   5  -6    7.83    0.57
   6   5   6    7.29    0.52
   4   5  -7    9.56    0.63
  -4  -5  -7   10.06    0.61
   4   5  -7    9.55    0.62
   3   4  -7    7.89    0.52
  -3  -4  -7    7.14    0.50
   3   4  -7    7.92    0.57
   2   3  -7    5.75    0.43
  -2  -3  -7    6.15    0.43
   2   3  -7    6.03    0.49
   1   2  -7   25.78    0.83
   1   2  -7   24.99    0.92
   1   2  -7   25.64    1.04
  -1  -2  -7   24.39    0.92
   0   1  -7    6.14    0.39
   0   1  -7    6.65    0.49
   0  -1  -7    6.88    0.41
   1   0  -7   12.38    0.54
  -1   0  -7   13.98    0.61
   1   0  -7   11.58    0.66
  -2  -1  -7    0.78    0.21
   2   1  -7    1.55    0.25
   2   1  -7    1.65    0.31
   2   1  -7    1.30    0.18
   3   2  -7   11.12    0.60
   3   2  -7   11.97    0.68
  -3  -2  -7   11.88    0.63
   4   3  -7    6.01    0.48
  -4  -3  -7    5.97    0.48
   4   3  -7    6.80    0.53
   5   4  -7   10.54    0.66
   5   4  -7   10.59    0.66
  -5  -4  -7   10.38    0.65
  -2  -3  -8    1.22    0.27
   2   3  -8    1.54    0.34
  -1  -2  -8    2.05    0.29
   1   2  -8    1.80    0.35
   0   1  -8    0.32    0.17
   0  -1  -8    0.23    0.17
   0   1  -8    0.20    0.22
   0  -1  -8    0.17    0.24
  -1   0  -8    1.52    0.26
   1   0  -8    1.45    0.33
   1   0  -8    1.48    0.23
  -1   0  -8    0.85    0.29
  -2  -1  -8    3.09    0.35
   2   1  -8    3.20    0.43
   8  10   0   25.04    1.54
   8  10   0   24.70    1.54
   8  10   0   24.31    0.88
   7   9   0   35.39    1.74
   7   9   0   31.73    1.65
   7   9   0   32.49    1.04
   6   8   0   13.76    0.94
   6   8   0   13.73    0.53
   6   8   0   11.96    0.90
   5   7   0   66.33    2.27
   5   7   0   58.95    2.22
   5   7   0   63.69    1.64
   5   7   0   61.95    1.66
   4   6   0   22.71    1.05
   4   6   0   22.76    0.70
   4   6   0   24.48    1.08
   3   5   0   11.62    0.62
   3   5   0   10.71    0.44
   3   5   0   11.05    0.38
   3   5   0   11.04    0.62
   2   4   0  103.48    2.91
   2   4   0  107.10    2.96
   2   4   0  108.72    2.58
   1   3   0    5.32    0.28
   0  -2   0  702.53   18.00
   0   2   0  732.16   18.18
  -2   0   0   61.26    1.66
   2   0   0   61.68    1.67
   3   1   0  250.94    6.42
   3   1   0  246.61    5.88
  -3  -1   0  250.45    6.26
   4   2   0   25.16    1.00
  -4  -2   0   24.72    0.88
   4   2   0   23.08    1.00
   4   2   0   24.53    0.70
   5   3   0   66.35    1.74
   5   3   0   65.30    2.19
  -5  -3   0   71.73    2.05
   5   3   0   67.98    2.26
   5   3   0   67.06    1.72
   6   4   0   51.01    1.36
   6   4   0   48.94    1.95
   6   4   0   48.81    1.37
   6   4   0   51.45    1.91
   7   5   0   16.08    0.60
   7   5   0   14.87    0.98
   7   5   0   16.24    1.06
   7   5   0   15.93    0.60
   8   6   0   18.36    1.19
   8   6   0   16.16    1.18
   8   6   0   19.82    0.71
   9   7   0    7.55    0.43
   9   7   0    6.71    0.83
   9   7   0    6.46    0.88
   8  10  -1    4.12    0.30
   8  10  -1    6.00    0.82
   8  10  -1    3.84    0.36
   8  10  -1    4.21    0.69
   8  10   1    3.94    0.72
   8  10   1    5.23    0.80
   8  10   1    4.10    0.35
   7   9  -1    0.52    0.34
   7   9  -1    1.10    0.40
   7   9  -1    0.93    0.16
   7   9   1    0.47    0.34
   7   9   1    1.33    0.21
   7   9   1    0.76    0.35
   6   8  -1    1.67    0.17
   6   8  -1    1.27    0.27
   6   8  -1    1.47    0.39
   6   8  -1    1.40    0.20
   6   8  -1    1.62    0.40
   6   8   1    1.47    0.20
   6   8   1    1.06    0.36
   6   8   1    1.01    0.36
   5   7  -1    7.40    0.62
   5   7  -1    7.94    0.33
   5   7  -1    7.86    0.48
   5   7  -1    6.81    0.65
   5   7  -1    7.99    0.39
   5   7   1    8.71    0.69
   5   7   1    8.90    0.41
   5   7   1    9.68    0.72
   4   6  -1   10.39    0.48
   4   6  -1    9.66    0.64
   4   6  -1   10.52    0.37
   4   6  -1   10.19    0.42
  -4  -6  -1   10.41    0.42
   4   6  -1   10.59    0.70
   4   6   1   11.70    0.45
   4   6   1   13.52    0.76
   4   6   1   11.05    0.71
   3   5  -1    3.12    0.35
   3   5  -1    3.18    0.34
   3   5  -1    3.36    0.25
   3   5  -1    3.11    0.16
  -3  -5  -1    3.20    0.21
   3   5   1    4.03    0.37
   3   5   1    3.76    0.22
   3   5   1    3.58    0.38
   2   4  -1  127.38    3.49
   2   4  -1  123.15    3.43
   2   4  -1  127.71    2.95
   2   4  -1  126.19    3.02
  -2  -4  -1  129.50    3.08
   2   4   1  127.93    3.09
   2   4   1  129.78    3.44
   2   4   1  128.22    3.49
   1   3  -1   90.36    2.08
   1   3  -1   92.19    2.42
   1   3   1   88.21    2.44
   1   3   1   88.41    2.19
   0   2  -1  184.85    4.24
   0   2   1  189.01    4.71
  -1   1   1   10.46    0.45
   2   0  -1    2.08    0.22
   2   0  -1    1.92    0.20
  -2   0   1    1.95    0.22
   2   0   1    2.03    0.14
   3   1  -1  197.57    4.88
   3   1  -1  182.56    4.96
   3   1  -1  189.74    4.44
  -3  -1  -1  188.85    4.50
   3   1   1  190.00    4.50
  -3  -1   1  180.54    4.92
   4   2  -1   75.95    2.24
   4   2  -1   72.20    2.32
  -4  -2  -1   73.90    1.97
  -4  -2  -1   73.84    1.91
   4   2  -1   75.68    1.85
   4   2   1   77.63    1.93
   4   2   1   74.47    2.36
  -4  -2   1   78.35    2.29
   4   2   1   76.37    2.34
   5   3  -1   66.77    2.14
  -5  -3  -1   65.74    1.75
   5   3  -1   68.81    1.73
   5   3  -1   66.67    1.68
   5   3  -1   66.19    1.74
   5   3  -1   67.19    2.27
  -5  -3  -1   69.86    1.85
   5   3   1   66.28    1.77
   5   3   1   66.80    2.27
   5   3   1   62.98    2.22
  -5  -3   1   68.14    2.16
   6   4  -1   20.93    0.64
   6   4  -1   20.35    1.12
   6   4  -1   20.03    0.73
   6   4  -1   20.53    1.04
   6   4  -1   20.75    0.70
   6   4   1   19.68    1.09
   6   4   1   19.74    0.71
  -6  -4   1   21.94    1.04
   6   4   1   21.04    1.14
   7   5  -1    5.97    0.31
   7   5  -1    6.56    0.71
   7   5  -1    6.56    0.38
   7   5  -1    6.07    0.63
   7   5   1    6.46    0.38
   7   5   1    6.49    0.70
   7   5   1    4.84    0.65
   8   6  -1    8.41    0.81
   8   6  -1    9.00    0.90
   8   6  -1    9.39    0.49
   8   6  -1    8.98    0.42
   8   6   1    8.91    0.93
   8   6   1   10.17    0.94
   8   6   1   10.15    0.50
   9   7  -1    3.52    0.29
   9   7  -1    3.33    0.63
   9   7  -1    3.88    0.71
   9   7   1    3.27    0.67
   9   7   1    2.67    0.64
   9   7   1    3.38    0.33
   8  10  -2    3.67    0.65
   8  10  -2    4.30    0.39
   8  10  -2    3.13    0.34
   8  10   2    3.91    0.73
   8  10   2    4.19    0.37
   7   9  -2   10.15    0.52
   7   9  -2   10.44    0.98
   7   9  -2    9.64    0.83
   7   9  -2    9.88    0.62
   7   9  -2   11.93    0.58
   7   9   2   10.98    1.01
   7   9   2    9.64    0.95
   7   9   2   10.62    0.56
   6   8  -2    3.86    0.38
   6   8  -2    2.83    0.27
   6   8  -2    3.21    0.20
   6   8  -2    3.55    0.51
   6   8  -2    3.59    0.57
   6   8  -2    3.18    0.30
   6   8   2    4.16    0.60
   6   8   2    4.53    0.34
   6   8   2    3.50    0.55
   5   7  -2   25.87    0.88
   5   7  -2   24.57    0.80
  -5  -7  -2   25.49    0.83
   5   7  -2   23.90    1.14
   5   7  -2   27.38    1.31
   5   7  -2   24.00    0.67
   5   7  -2   24.85    0.84
   5   7   2   21.39    1.19
   5   7   2   21.89    0.81
   5   7   2   22.47    1.19
   4   6  -2   45.75    1.23
   4   6  -2   43.35    1.60
   4   6  -2   44.78    1.30
   4   6  -2   44.74    1.13
  -4  -6  -2   44.77    1.28
   4   6  -2   44.20    1.28
   4   6   2   46.37    1.31
   4   6   2   47.89    1.73
   4   6   2   45.60    1.73
   3   5  -2  161.89    3.82
   3   5  -2  165.74    3.97
   3   5  -2  171.01    4.46
  -3  -5  -2  166.46    4.01
   3   5  -2  163.61    3.92
   3   5  -2  164.70    3.87
   3   5   2  159.17    4.02
   3   5   2  160.52    4.56
   2   4  -2   29.84    1.01
  -2  -4  -2   30.63    0.85
   2   4  -2   28.64    0.72
   2   4  -2   29.53    0.84
   2   4  -2   29.38    0.80
   2   4   2   28.42    1.09
   1   3  -2  240.24    5.71
   1   3  -2  243.14    5.49
  -1  -3  -2  238.40    6.10
   1   3   2  245.99    6.20
   1   3   2  242.89    5.75
   0  -2  -2  165.52    4.28
   0   2  -2  163.68    3.88
   0   2  -2  160.02    3.81
   0  -2  -2  165.30    3.90
   0   2   2  165.23    4.17
   0   2   2  164.74    4.28
  -1   1  -2  210.16    4.88
   1  -1  -2  205.67    4.84
   1  -1  -2  206.66    5.34
  -1   1   2  200.19    5.32
   2   0  -2   33.01    0.82
  -2   0  -2   31.96    0.89
   2   0  -2   33.28    0.89
   2   0  -2   33.01    0.81
   2   0   2   31.62    0.89
  -2   0   2   34.11    1.20
   3   1  -2   67.80    1.84
   3   1  -2   68.66    1.59
   3   1  -2   67.10    1.59
  -3  -1   2   64.21    2.10
   3   1   2   63.75    1.71
  -4  -2  -2   26.66    0.84
   4   2  -2   26.85    0.98
   4   2  -2   26.66    1.15
   4   2  -2   26.82    0.70
   4   2  -2   26.59    0.76
   4   2  -2   27.18    0.83
   4   2  -2   27.46    0.81
   4   2   2   29.17    0.85
   4   2   2   29.67    1.19
  -4  -2   2   31.96    1.23
   5   3  -2   59.84    2.10
   5   3  -2   58.40    1.58
   5   3  -2   61.14    1.90
   5   3  -2   58.03    1.55
  -5  -3  -2   59.52    1.60
   5   3  -2   59.34    1.50
   5   3  -2   58.50    1.44
   5   3   2   55.39    1.60
   5   3   2   54.66    2.05
   6   4  -2   84.61    2.27
   6   4  -2   86.35    2.16
  -6  -4  -2   86.37    2.29
   6   4  -2   84.39    2.12
   6   4  -2   87.04    2.24
   6   4  -2   84.54    2.70
   6   4  -2   85.21    2.94
   6   4   2   90.04    2.32
   6   4   2   88.16    2.98
   6   4   2   84.93    2.91
   7   5  -2   17.99    1.17
   7   5  -2   19.75    0.60
   7   5  -2   19.79    0.78
   7   5  -2   19.50    0.76
   7   5  -2   18.52    1.04
   7   5  -2   18.95    0.70
   7   5   2   19.46    1.20
   7   5   2   21.18    0.78
   7   5   2   21.03    1.26
   8   6  -2    9.21    0.92
   8   6  -2    7.90    0.76
   8   6  -2    8.03    0.49
   8   6  -2    8.02    0.54
   8   6  -2    6.97    0.43
   8   6   2    8.49    0.89
   8   6   2    8.03    0.48
   8   6   2    8.09    0.89
   9   7  -2    6.92    0.90
   9   7  -2    6.30    0.47
   9   7  -2    6.48    0.44
   9   7   2    6.84    0.95
   9   7   2    5.63    0.44
   8  10  -3   11.80    0.75
   8  10  -3   12.61    0.69
   8  10  -3   10.81    0.60
   8  10   3   11.31    0.64
   8  10   3   12.04    1.17
   7   9  -3    6.59    0.53
   7   9  -3    5.66    0.42
   7   9  -3    6.54    0.46
   7   9   3    7.52    0.84
   7   9   3    6.37    0.81
   7   9   3    6.70    0.47
   6   8  -3   13.92    0.70
   6   8  -3   14.27    0.66
   6   8  -3   13.53    0.59
   6   8   3   13.57    0.64
   6   8   3   14.93    1.06
   6   8   3   12.76    0.99
   5   7  -3   27.07    1.18
   5   7  -3   27.15    0.92
   5   7  -3   24.20    0.82
   5   7  -3   24.38    0.90
  -5  -7  -3   25.68    0.89
   5   7   3   23.02    1.27
   5   7   3   22.44    1.25
   5   7   3   24.73    0.90
  -4  -6  -3   22.14    0.77
   4   6  -3   21.52    0.96
   4   6  -3   20.63    0.78
   4   6  -3   21.98    0.73
   4   6  -3   21.71    0.80
   4   6   3   22.50    1.13
   4   6   3   22.88    0.79
   3   5  -3   25.15    0.81
  -3  -5  -3   25.48    0.84
   3   5  -3   26.36    0.98
   3   5  -3   24.66    0.81
   3   5  -3   23.61    0.74
  -3  -5  -3   25.27    0.80
   3   5   3   21.97    0.79
   3   5   3   22.89    1.08
   2   4  -3   31.14    0.75
   2   4  -3   30.19    0.91
  -2  -4  -3   30.16    1.02
   2   4  -3   30.13    0.85
  -2  -4  -3   30.56    0.91
   2   4  -3   30.99    0.92
   2   4   3   29.36    1.14
   1   3  -3   23.53    0.80
  -1  -3  -3   23.66    0.90
   1   3  -3   24.03    0.64
   1   3  -3   23.86    0.74
   1   3  -3   23.75    0.74
  -1  -3  -3   23.50    0.73
   1   3   3   26.02    0.74
   1   3   3   27.22    0.92
   0   2  -3  201.10    4.71
   0  -2  -3  201.06    4.81
   0  -2  -3  199.75    5.30
   0   2  -3  201.87    4.78
   0   2   3  203.35    5.30
   0   2   3  202.21    5.10
  -1   1  -3  217.16    5.20
   1  -1  -3  219.57    5.17
  -1   1   3  218.40    5.78
   2   0  -3  181.80    4.40
   2   0  -3  183.48    4.34
   2   0  -3  189.24    4.38
   2   0  -3  185.42    4.14
  -2   0  -3  180.53    4.47
   2   0   3  190.41    4.76
   2   0   3  184.70    4.47
  -2   0   3  186.59    5.08
   3   1  -3   18.05    0.54
   3   1  -3   18.20    0.60
   3   1  -3   17.58    0.61
   3   1  -3   17.70    0.48
  -3  -1  -3   17.86    0.62
   3   1  -3   18.46    0.58
   3   1   3   18.05    0.62
  -3  -1   3   19.07    0.96
   4   2  -3   85.24    2.35
   4   2  -3   82.29    2.19
   4   2  -3   82.49    2.14
  -4  -2  -3   83.18    2.22
   4   2  -3   85.45    2.02
   4   2  -3   86.09    2.07
   4   2   3   87.35    2.23
   4   2   3   87.18    2.71
   5   3  -3   53.14    1.50
   5   3  -3   52.55    1.38
   5   3  -3   52.34    1.46
  -5  -3  -3   53.98    1.51
   5   3  -3   53.45    1.69
   5   3   3   51.47    1.98
   5   3   3   49.67    1.50
  -6  -4  -3    7.15    0.42
   6   4  -3    6.19    0.41
   6   4  -3    6.43    0.35
   6   4  -3    6.32    0.40
   6   4   3    7.03    0.75
   6   4   3    6.78    0.68
   6   4   3    7.81    0.44
   7   5  -3   10.41    0.56
   7   5  -3    9.45    0.47
   7   5  -3    9.75    0.53
   7   5   3   10.98    0.91
   7   5   3   10.33    0.54
   7   5   3   10.33    0.94
   8   6  -3    5.30    0.37
   8   6  -3    6.64    0.46
   8   6  -3    5.77    0.46
   8   6   3    5.10    0.75
   8   6   3    5.36    0.43
   8   6   3    5.65    0.82
   9   7  -3    5.04    0.49
   9   7  -3    5.10    0.40
   9   7  -3    4.55    0.44
   9   7   3    3.62    0.39
   7   9  -4    3.92    0.44
   7   9  -4    3.36    0.39
   7   9  -4    2.83    0.32
   7   9   4    3.02    0.66
   7   9   4    2.74    0.35
   6   8  -4    1.87    0.25
  -6  -8  -4    1.83    0.28
   6   8  -4    1.52    0.31
   6   8  -4    1.88    0.29
   6   8   4    1.51    0.50
   6   8   4    1.50    0.27
   6   8   4    1.46    0.48
   5   7  -4    0.74    0.21
   5   7  -4    0.94    0.18
   5   7  -4    0.71    0.23
  -5  -7  -4    1.07    0.22
   5   7   4    0.21    0.37
   5   7   4    0.48    0.30
   5   7   4    0.86    0.21
   4   6  -4   -0.01    0.15
   4   6  -4   -0.05    0.13
   4   6  -4    0.17    0.12
  -4  -6  -4    0.01    0.12
   4   6   4    0.22    0.14
   4   6   4    0.05    0.19
   3   5  -4    1.41    0.21
  -3  -5  -4    1.27    0.20
   3   5  -4    1.62    0.23
   3   5   4    1.58    0.21
   3   5   4    1.46    0.33
   2   4  -4   11.79    0.51
   2   4  -4   11.32    0.51
   2   4  -4   12.22    0.35
  -2  -4  -4   11.93    0.50
   2   4   4   12.31    0.68
   2   4   4   12.08    0.51
  -1  -3  -4    1.34    0.17
   1   3  -4    1.18    0.17
   1   3  -4    1.17    0.18
   1   3  -4    1.33    0.12
   1   3  -4    1.97    0.25
   1   3   4    1.34    0.16
   1   3   4    1.49    0.23
   0   2  -4    2.03    0.19
   0   2  -4    2.09    0.17
   0   2  -4    1.89    0.20
   0  -2  -4    1.94    0.17
   0   2   4    1.74    0.16
   0   2   4    2.17    0.20
   0   2   4    1.95    0.33
   1  -1  -4    4.03    0.24
   1  -1  -4    4.01    0.23
  -1   1  -4    4.28    0.25
   1  -1   4    3.92    0.23
   1  -1   4    3.94    0.40
  -1   1   4    4.63    0.49
   2   0  -4   41.52    1.06
   2   0  -4   40.73    1.15
  -2   0  -4   40.03    1.16
   2   0  -4   42.77    1.18
   2   0   4   40.94    1.37
   2   0   4   39.00    1.14
  -3  -1  -4   61.95    1.68
   3   1  -4   61.29    1.66
   3   1  -4   62.12    1.51
   3   1  -4   60.86    1.65
   3   1   4   59.55    1.67
   3   1   4   61.53    2.05
  -4  -2  -4    6.00    0.37
   4   2  -4    6.24    0.37
   4   2  -4    5.79    0.36
   4   2   4    5.62    0.56
   4   2   4    5.91    0.36
   5   3  -4   27.64    0.92
   5   3  -4   25.39    0.91
   5   3  -4   26.40    0.82
  -5  -3  -4   25.85    0.93
   5   3   4   25.20    1.29
   5   3   4   26.86    0.93
   6   4  -4    0.44    0.14
   6   4  -4    0.58    0.20
   6   4  -4    0.48    0.18
  -6  -4  -4    0.41    0.17
   6   4   4    0.07    0.22
   6   4   4    0.62    0.19
   7   5  -4    5.43    0.36
   7   5  -4    5.71    0.44
  -7  -5  -4    5.63    0.44
   7   5  -4    5.77    0.46
   7   5   4    5.64    0.43
   7   5   4    4.05    0.68
   7   5   4    5.38    0.77
   8   6  -4    1.33    0.28
   8   6  -4    0.70    0.20
   8   6  -4    0.92    0.29
   8   6   4    1.29    0.55
   8   6   4    1.24    0.27
   6   8  -5    8.94    0.62
  -6  -8  -5    9.18    0.57
   6   8  -5    8.55    0.50
   6   8  -5    8.87    0.58
   6   8   5    8.02    0.89
   6   8   5    9.08    0.57
   6   8   5    6.75    0.85
  -5  -7  -5    6.07    0.45
   5   7  -5    6.16    0.46
   5   7  -5    5.29    0.46
   5   7   5    5.97    0.72
   5   7   5    6.10    0.44
   4   6  -5   17.15    0.76
   4   6  -5   16.23    0.73
  -4  -6  -5   17.45    0.73
   4   6   5   16.50    0.72
   4   6   5   17.03    1.03
   3   5  -5   30.92    1.06
  -3  -5  -5   31.47    1.05
   3   5  -5   29.97    1.05
   3   5   5   31.54    1.05
   3   5   5   31.03    1.35
   2   4  -5   73.59    2.04
  -2  -4  -5   76.75    2.05
   2   4  -5   75.80    2.04
   2   4   5   72.28    2.03
   1   3  -5   74.84    1.88
   1   3  -5   73.66    1.99
  -1  -3  -5   75.70    2.00
   1   3  -5   73.15    2.02
   0  -2  -5    0.39    0.13
   0   2  -5    0.71    0.17
   0   2  -5    0.61    0.13
   0   2  -5    0.54    0.15
   1  -1  -5   51.38    1.39
  -1   1  -5   51.21    1.43
   1  -1  -5   50.30    1.41
   1  -1   5   54.71    1.90
   2   0  -5   14.00    0.47
   2   0  -5   12.10    0.56
   2   0  -5   13.47    0.54
  -2   0  -5   14.19    0.56
   2   0   5   13.52    0.72
   3   1  -5    6.72    0.41
  -3  -1  -5    6.04    0.39
   3   1  -5    6.85    0.26
   3   1  -5    5.70    0.36
   3   1   5    5.32    0.52
   3   1   5    6.10    0.37
  -4  -2  -5   18.06    0.74
   4   2  -5   19.33    0.76
   4   2  -5   18.62    0.74
   4   2   5   18.19    1.03
   4   2   5   19.52    0.74
   5   3  -5   21.49    0.84
   5   3  -5   22.08    0.87
  -5  -3  -5   21.01    0.85
   5   3   5   22.34    0.85
   5   3   5   20.58    1.18
  -6  -4  -5    7.44    0.51
   6   4  -5    7.86    0.51
   6   4  -5    6.51    0.47
   6   4   5    7.70    0.50
   6   4   5    8.01    0.83
   7   5  -5   14.59    0.73
   7   5  -5   14.28    0.63
  -7  -5  -5   14.49    0.73
   7   5  -5   15.03    0.77
   7   5   5   16.49    0.77
   7   5   5   15.76    1.17
   8   6  -5    2.91    0.39
   8   6  -5    4.26    0.36
   8   6  -5    3.58    0.43
   8   6   5    2.86    0.37
   5   7  -6   14.90    0.76
   5   7  -6   14.37    0.77
  -5  -7  -6   14.24    0.72
   5   7   6   12.15    0.68
   4   6  -6    7.34    0.50
   4   6  -6    6.83    0.52
  -4  -6  -6    7.30    0.50
   4   6   6    6.32    0.45
   3   5  -6    4.19    0.40
  -3  -5  -6    4.35    0.36
   3   5  -6    3.80    0.36
   2   4  -6    0.15    0.18
   2   4  -6    0.22    0.17
  -2  -4  -6    0.30    0.15
  -1  -3  -6   13.11    0.58
   1   3  -6   13.15    0.60
   1   3  -6   12.75    0.49
   1   3  -6   12.99    0.65
   0   2  -6    1.48    0.26
   0  -2  -6    1.56    0.20
   0   2  -6    1.41    0.18
  -1   1  -6   29.42    0.94
   1  -1  -6   28.56    0.92
   1  -1  -6   28.02    0.90
   2   0  -6    7.63    0.47
  -2   0  -6    7.12    0.41
   2   0  -6    7.55    0.35
   2   0  -6    7.15    0.41
  -3  -1  -6   13.36    0.63
   3   1  -6   12.97    0.61
   3   1  -6   15.27    0.69
   4   2  -6    5.54    0.43
   4   2  -6    5.18    0.40
  -4  -2  -6    4.87    0.40
  -5  -3  -6    4.47    0.41
   5   3  -6    3.92    0.39
   5   3  -6    4.38    0.40
   6   4  -6    4.07    0.41
  -6  -4  -6    4.01    0.41
   6   4  -6    4.21    0.42
   6   4   6    4.62    0.42
  -7  -5  -6    2.05    0.33
   7   5  -6    2.38    0.37
   7   5  -6    1.97    0.35
   7   5   6    2.19    0.34
  -4  -6  -7    1.75    0.31
   4   6  -7    1.64    0.32
   4   6  -7    1.49    0.33
  -3  -5  -7    2.11    0.32
   3   5  -7    2.13    0.36
   3   5  -7    2.07    0.32
  -2  -4  -7    3.79    0.35
   2   4  -7    2.95    0.37
   2   4  -7    3.38    0.36
  -1  -3  -7   -0.04    0.14
   1   3  -7   -0.03    0.11
   1   3  -7   -0.03    0.17
   0   2  -7    7.19    0.51
   0  -2  -7    7.33    0.43
   0   2  -7    7.55    0.41
   1  -1  -7   21.22    0.91
  -1   1  -7   20.08    0.90
  -1   1  -7   22.22    0.81
   1  -1  -7   20.29    0.75
   2   0  -7   18.52    0.76
   2   0  -7   20.13    0.88
  -2   0  -7   20.33    0.81
   2   0  -7   19.16    0.68
   3   1  -7    2.07    0.28
   3   1  -7    2.05    0.32
  -3  -1  -7    1.88    0.29
   4   2  -7    4.37    0.41
   4   2  -7    4.30    0.43
  -4  -2  -7    4.30    0.41
   5   3  -7    9.13    0.60
   5   3  -7    8.21    0.57
  -5  -3  -7    8.83    0.58
  -1  -3  -8   10.94    0.60
   1   3  -8   11.28    0.73
   0  -2  -8    0.40    0.23
   0   2  -8    0.14    0.22
   0  -2  -8    0.18    0.16
   0   2  -8    0.12    0.15
  -1   1  -8    5.90    0.43
   1  -1  -8    6.64    0.56
   1  -1  -8    6.49    0.42
  -1   1  -8    5.73    0.52
   2   0  -8    6.60    0.56
  -2   0  -8    6.47    0.47
   3   1  -8    5.46    0.46
  -3  -1  -8    5.84    0.47
   3   1  -8    5.37    0.51
   8  11   0    1.16    0.22
   8  11   0    1.78    0.55
   7  10   0    1.77    0.48
   7  10   0    1.97    0.23
   7  10   0    2.22    0.52
   6   9   0    0.78    0.34
   6   9   0    0.60    0.15
   6   9   0    0.95    0.35
   5   8   0    0.16    0.11
   5   8   0   -0.10    0.17
   5   8   0    0.21    0.22
   4   7   0    0.86    0.25
   4   7   0    0.84    0.13
   4   7   0    1.28    0.31
   3   6   0    1.92    0.21
   3   6   0    1.70    0.15
   3   6   0    1.64    0.28
   3   6   0    1.54    0.28
   2   5   0    2.67    0.17
   2   5   0    2.82    0.30
   2   5   0    2.53    0.27
   1   4   0  981.31   24.87
   1   4   0 1000.00   23.34
   1   4   0  983.18   24.89
   0   3   0   -0.07    0.07
  -1   2   0   63.87    1.56
   2  -1   0  124.97    3.24
  -3   0   0   -0.12    0.09
   3   0   0   -0.04    0.06
   3   0   0    0.11    0.15
   3   0   0   -0.19    0.07
   4   1   0   38.39    1.37
   4   1   0   37.90    1.02
  -4  -1   0   37.78    1.21
   4   1   0   39.71    1.36
   5   2   0    3.91    0.44
   5   2   0    4.06    0.24
   5   2   0    3.77    0.41
  -5  -2   0    4.13    0.33
  -6  -3   0    2.91    0.33
   6   3   0    3.58    0.24
   6   3   0    3.46    0.45
   6   3   0    2.78    0.45
   6   3   0    2.45    0.20
   7   4   0   13.10    0.89
   7   4   0   12.88    0.52
   7   4   0   13.15    0.52
   7   4   0   12.61    0.93
   8   5   0   11.38    0.93
   8   5   0   10.96    0.50
   8   5   0   11.51    0.97
   9   6   0    6.40    0.39
   9   6   0    6.08    0.84
   9   6   0    5.50    0.76
  10   7   0    0.59    0.20
   8  11  -1   16.23    1.26
   8  11  -1   15.70    0.62
   8  11  -1   15.30    0.72
   8  11  -1   14.51    1.17
   8  11   1   14.49    0.68
   8  11   1   17.70    1.31
   7  10  -1    1.83    0.20
   7  10  -1    2.20    0.27
   7  10  -1    1.54    0.44
   7  10  -1    2.49    0.56
   7  10   1    2.05    0.52
   7  10   1    2.05    0.25
   7  10   1    2.15    0.54
   6   9  -1   42.75    1.87
   6   9  -1   46.40    1.97
   6   9  -1   42.31    1.22
   6   9  -1   44.36    1.31
   6   9   1   43.24    1.88
   6   9   1   42.94    1.94
   6   9   1   45.07    1.33
   5   8  -1   10.07    0.55
   5   8  -1   10.19    0.39
   5   8  -1    8.60    0.70
   5   8  -1   10.75    0.79
   5   8  -1    9.49    0.44
   5   8   1    8.69    0.71
   5   8   1    9.39    0.45
   5   8   1    9.58    0.77
   4   7  -1   44.96    1.73
   4   7  -1   47.47    1.28
   4   7  -1   44.99    1.21
   4   7  -1   43.15    1.31
  -4  -7  -1   47.10    1.28
   4   7  -1   45.67    1.71
   4   7   1   46.80    1.29
   4   7   1   45.57    1.76
   4   7   1   50.07    1.74
   3   6  -1   62.90    1.66
   3   6  -1   65.61    2.06
   3   6  -1   63.33    1.59
   3   6  -1   64.12    1.64
   3   6  -1   65.97    2.09
  -3  -6  -1   62.68    1.65
   3   6   1   63.44    1.67
   3   6   1   63.70    2.09
   3   6   1   63.63    2.02
   2   5  -1  229.55    5.21
   2   5  -1  234.78    5.98
   2   5  -1  230.09    5.39
  -2  -5  -1  229.26    5.44
   2   5  -1  223.12    5.97
   2   5   1  227.33    5.45
   2   5   1  229.24    5.91
   2   5   1  226.05    6.01
   1   4  -1   49.55    1.16
   1   4  -1   50.91    1.45
   1   4  -1   49.95    1.17
  -1  -4  -1   48.86    1.21
   1   4   1   44.21    1.22
   1   4   1   43.11    1.35
   1   4   1   43.86    1.43
   0   3  -1  291.75    6.56
   0   3  -1  292.99    6.54
   0   3   1  290.03    7.30
   1  -2  -1    2.18    0.22
   2  -1  -1  191.21    4.97
   2  -1  -1  191.75    4.89
   2  -1  -1  196.50    4.52
  -2   1  -1  195.56    4.56
  -2   1   1  192.85    4.29
  -2   1   1  185.33    4.94
   2  -1   1  190.39    4.55
   3   0  -1  100.22    2.38
  -3   0  -1  100.97    2.44
   3   0  -1   95.28    2.77
   3   0  -1   97.32    2.75
   3   0   1   98.66    2.43
   3   0   1   99.59    2.54
  -3   0   1  101.21    2.78
   4   1  -1   74.30    2.28
   4   1  -1   72.14    1.81
   4   1  -1   74.07    2.17
  -4  -1  -1   73.84    1.88
  -4  -1   1   74.96    2.24
   4   1   1   75.06    1.89
   5   2  -1    3.10    0.35
   5   2  -1    3.08    0.24
   5   2  -1    3.20    0.24
  -5  -2  -1    3.57    0.25
   5   2  -1    2.97    0.40
   5   2  -1    3.35    0.20
   5   2   1    5.23    0.53
   5   2   1    4.89    0.48
  -5  -2   1    5.01    0.44
   5   2   1    4.09    0.25
  -6  -3  -1    7.36    0.38
   6   3  -1    7.09    0.58
   6   3  -1    7.79    0.42
   6   3  -1    7.96    0.38
   6   3  -1    7.97    0.33
   6   3  -1    8.01    0.68
   6   3   1    7.04    0.69
   6   3   1    7.26    0.63
  -6  -3   1    7.24    0.56
   6   3   1    7.67    0.38
   7   4  -1   35.72    1.57
   7   4  -1   37.85    1.71
   7   4  -1   36.71    1.12
   7   4  -1   36.73    1.04
   7   4   1   35.14    1.68
   7   4   1   36.66    1.13
   7   4   1   33.08    1.61
   8   5  -1    5.84    0.67
   8   5  -1    5.53    0.72
   8   5  -1    6.17    0.40
   8   5  -1    5.47    0.32
   8   5   1    5.11    0.72
   8   5   1    4.20    0.66
   8   5   1    5.17    0.35
   9   6  -1   13.43    0.55
   9   6  -1   12.96    1.11
   9   6  -1   13.19    1.04
   9   6  -1   14.39    0.65
   9   6   1   13.28    1.16
   9   6   1   13.42    0.63
   9   6   1   11.99    1.11
  10   7  -1    3.99    0.31
  10   7   1    3.76    0.36
   8  11  -2    3.00    0.64
   8  11  -2    3.76    0.37
   8  11   2    3.66    0.36
   8  11   2    2.70    0.64
   7  10  -2    2.16    0.29
   7  10  -2    1.68    0.47
   7  10  -2    2.32    0.28
   7  10  -2    1.85    0.36
   7  10   2    2.13    0.28
   7  10   2    2.57    0.58
   7  10   2    2.47    0.58
   6   9  -2   22.15    0.80
   6   9  -2   22.20    1.21
   6   9  -2   21.27    0.88
   6   9  -2   22.90    0.84
   6   9  -2   21.63    0.65
   6   9   2   18.50    1.23
   6   9   2   22.16    1.29
   6   9   2   21.85    0.83
   5   8  -2   17.72    0.52
   5   8  -2   17.04    0.67
   5   8  -2   16.26    0.71
   5   8  -2   18.05    0.99
   5   8  -2   17.27    0.64
   5   8   2   16.37    0.67
   5   8   2   17.02    1.02
   5   8   2   14.75    0.99
   4   7  -2   30.39    0.98
   4   7  -2   32.59    1.03
   4   7  -2   32.34    0.85
   4   7  -2   31.00    1.31
   4   7  -2   32.12    0.95
  -4  -7  -2   31.44    0.98
   4   7   2   33.35    1.43
   4   7   2   32.22    1.36
   4   7   2   35.23    1.03
   3   6  -2   31.31    0.94
  -3  -6  -2   31.03    0.93
   3   6  -2   31.31    0.89
   3   6  -2   30.57    1.20
   3   6  -2   31.74    0.95
   3   6  -2   30.84    0.80
   3   6   2   31.23    1.28
   3   6   2   33.10    1.26
   3   6   2   31.13    0.95
   2   5  -2   10.64    0.42
   2   5  -2   11.37    0.31
   2   5  -2   11.16    0.39
  -2  -5  -2   10.24    0.40
   2   5  -2   10.84    0.44
   2   5  -2   11.50    0.57
   2   5   2    9.69    0.58
   2   5   2    9.96    0.41
  -1  -4  -2   32.45    0.92
   1   4  -2   32.55    0.85
   1   4  -2   32.99    0.88
   1   4   2   35.40    0.94
   1   4   2   36.56    1.16
   0  -3  -2  160.62    4.20
   0   3  -2  159.59    3.77
   0  -3  -2  160.18    3.82
   0   3   2  159.96    4.10
   0   3   2  158.68    3.83
   1  -2  -2   30.58    0.80
  -1   2  -2   30.42    0.82
   1  -2  -2   31.37    1.11
   1  -2  -2   32.36    0.85
  -1   2   2   27.84    1.07
   2  -1  -2  361.89    9.18
   2  -1  -2  358.95    8.57
  -2   1  -2  362.35    8.51
   2  -1   2  363.04    8.50
   3   0  -2   16.40    0.45
   3   0  -2   16.26    0.56
   3   0  -2   15.88    0.44
  -3   0  -2   15.97    0.53
   3   0   2   16.18    0.53
  -3   0   2   15.68    0.78
   4   1  -2   54.07    1.58
   4   1  -2   51.22    1.39
   4   1  -2   52.05    1.28
   4   1  -2   51.49    1.77
   4   1  -2   50.85    1.28
   4   1   2   50.91    1.40
  -4  -1   2   52.86    1.82
   5   2  -2   46.87    1.33
   5   2  -2   47.32    1.29
   5   2  -2   46.41    1.20
   5   2  -2   48.08    1.23
   5   2  -2   47.55    1.78
   5   2  -2   47.94    1.58
  -5  -2  -2   48.16    1.34
   5   2   2   48.46    1.35
   5   2   2   46.16    1.77
   6   3  -2   11.59    0.82
   6   3  -2   11.48    0.50
  -6  -3  -2   10.89    0.49
   6   3  -2   11.27    0.44
   6   3  -2   10.98    0.38
   6   3  -2   10.91    0.68
   6   3  -2   11.07    0.49
   6   3   2    8.92    0.78
   6   3   2    9.11    0.74
   6   3   2   10.42    0.49
   7   4  -2   13.16    0.98
   7   4  -2   14.92    0.50
   7   4  -2   14.45    0.88
   7   4  -2   14.53    0.58
   7   4  -2   15.11    0.64
   7   4  -2   16.15    0.66
   7   4   2   16.67    0.67
   7   4   2   16.28    1.10
   7   4   2   14.28    1.01
   8   5  -2   17.97    0.69
   8   5  -2   17.29    0.75
   8   5  -2   16.86    1.05
   8   5  -2   17.35    0.58
   8   5  -2   17.83    0.75
   8   5  -2   15.94    1.16
   8   5   2   16.10    1.19
   8   5   2   15.99    1.16
   8   5   2   18.70    0.76
   9   6  -2    6.96    0.90
   9   6  -2    7.44    0.46
   9   6  -2    8.27    0.52
   9   6   2    8.43    0.51
   9   6   2    6.77    0.90
   9   6   2    7.99    0.95
   7  10  -3    4.34    0.38
   7  10  -3    5.04    0.48
   7  10  -3    5.30    0.44
   7  10   3    3.92    0.38
   7  10   3    3.04    0.65
   7  10   3    4.32    0.71
   6   9  -3    3.05    0.29
   6   9  -3    3.43    0.39
   6   9  -3    3.75    0.35
   6   9   3    2.81    0.32
   6   9   3    2.77    0.54
   6   9   3    2.39    0.54
   5   8  -3    1.97    0.26
   5   8  -3    1.96    0.23
   5   8  -3    2.01    0.39
   5   8  -3    2.25    0.31
  -5  -8  -3    2.08    0.24
   5   8   3    1.99    0.25
   5   8   3    1.76    0.42
   5   8   3    1.49    0.41
   4   7  -3   31.74    1.05
  -4  -7  -3   31.91    1.03
   4   7  -3   31.63    1.31
   4   7  -3   31.36    1.06
   4   7  -3   32.41    0.99
   4   7   3   36.02    1.48
   4   7   3   31.82    1.45
   4   7   3   34.91    1.08
   3   6  -3    6.24    0.32
  -3  -6  -3    5.57    0.33
   3   6  -3    6.62    0.48
   3   6  -3    5.50    0.35
   3   6  -3    5.41    0.36
   3   6   3    6.43    0.54
   3   6   3    5.96    0.35
   2   5  -3    3.52    0.14
   2   5  -3    3.84    0.23
  -2  -5  -3    4.26    0.32
   2   5  -3    4.27    0.29
   2   5  -3    4.01    0.27
  -2  -5  -3    3.51    0.25
   2   5   3    3.85    0.26
   2   5   3    4.14    0.39
  -1  -4  -3    3.73    0.23
   1   4  -3    3.33    0.24
   1   4  -3    4.07    0.32
   1   4  -3    3.62    0.17
   1   4  -3    3.69    0.26
  -1  -4  -3    3.49    0.32
   1   4   3    4.07    0.24
   1   4   3    5.02    0.36
   0   3  -3  174.24    4.14
   0   3  -3  175.39    4.12
   0  -3  -3  170.34    4.63
   0  -3  -3  172.54    4.16
   0   3  -3  170.65    4.07
   0   3   3  174.55    4.17
   0   3   3  171.54    4.44
   1  -2  -3   61.90    2.05
   1  -2  -3   66.14    1.63
  -1   2  -3   64.78    1.65
  -1   2   3   66.35    2.06
   2  -1  -3   40.55    1.05
  -2   1  -3   39.41    1.12
  -2   1   3   43.63    1.53
   2  -1   3   41.19    1.12
   3   0  -3   98.04    2.44
   3   0  -3   96.27    2.39
   3   0  -3   97.03    2.35
  -3   0  -3   98.21    2.48
   3   0   3   98.12    2.48
  -3   0   3  100.39    3.02
   3   0   3   96.95    2.55
   4   1  -3   26.69    0.83
   4   1  -3   26.28    0.68
  -4  -1  -3   26.61    0.85
   4   1  -3   27.85    0.75
   4   1  -3   25.90    0.86
   4   1  -3   26.14    0.81
   4   1   3   24.82    0.83
  -5  -2  -3    0.83    0.17
   5   2  -3    1.06    0.19
   5   2  -3    1.09    0.09
   5   2  -3    1.04    0.22
   5   2  -3    1.04    0.14
   5   2  -3    0.80    0.17
   5   2   3    0.67    0.16
   5   2   3    0.27    0.22
   6   3  -3   25.20    0.80
   6   3  -3   26.65    0.91
   6   3  -3   25.96    0.88
  -6  -3  -3   26.08    0.90
   6   3   3   25.31    0.90
   6   3   3   24.09    1.29
   7   4  -3    8.37    0.49
   7   4  -3    7.95    0.41
  -7  -4  -3    8.63    0.49
   7   4  -3    8.57    0.48
   7   4   3    6.88    0.77
   7   4   3    7.69    0.84
   7   4   3    7.50    0.47
   8   5  -3    0.77    0.22
   8   5  -3    0.85    0.26
   8   5  -3    0.87    0.19
   8   5   3    0.40    0.31
   8   5   3    0.54    0.19
   8   5   3    0.40    0.40
   9   6  -3    3.28    0.38
   9   6  -3    3.15    0.41
   9   6  -3    2.83    0.31
   9   6   3    3.32    0.74
   9   6   3    3.35    0.37
   7  10  -4   18.67    0.88
   7  10  -4   17.30    0.78
   7  10  -4   18.02    0.90
   7  10   4   19.13    0.87
   6   9  -4    1.28    0.31
   6   9  -4    1.40    0.24
   6   9  -4    1.34    0.28
   6   9   4    1.68    0.52
   6   9   4    1.80    0.29
   6   9   4    1.98    0.53
  -5  -8  -4   14.51    0.66
   5   8  -4   14.57    0.61
   5   8  -4   15.40    0.72
   5   8  -4   14.29    0.68
   5   8   4   13.82    1.00
   5   8   4   14.42    1.02
   5   8   4   13.29    0.66
   4   7  -4   25.45    0.87
   4   7  -4   25.24    0.95
  -4  -7  -4   26.70    0.95
   4   7  -4   26.30    0.97
   4   7   4   29.35    1.37
   4   7   4   29.64    0.98
   3   6  -4   42.39    1.31
  -3  -6  -4   43.85    1.30
   3   6  -4   45.21    1.32
   3   6   4   40.05    1.64
   3   6   4   41.61    1.30
   2   5  -4   14.21    0.40
   2   5  -4   14.41    0.58
  -2  -5  -4   14.04    0.56
   2   5  -4   12.76    0.57
  -2  -5  -4   15.10    0.70
   2   5   4   13.99    0.57
   2   5   4   13.63    0.75
   1   4  -4  121.39    3.05
  -1  -4  -4  121.64    3.46
   1   4  -4  122.70    3.03
   1   4  -4  123.16    3.09
   1   4  -4  125.84    2.95
  -1  -4  -4  124.77    3.07
   1   4   4  116.94    3.06
   1   4   4  118.92    3.36
   0   3  -4   13.91    0.54
   0   3  -4   13.85    0.52
   0   3  -4   13.87    0.46
   0  -3  -4   13.85    0.75
   0   3  -4   13.95    0.67
   0  -3  -4   13.59    0.50
   0   3   4   13.68    0.55
   0   3   4   12.94    0.49
   1  -2  -4   79.57    2.04
  -1   2  -4   80.85    2.06
  -1   2   4   82.42    2.59
   2  -1  -4   50.77    1.39
   2  -1  -4   50.11    1.37
   2  -1  -4   50.53    1.31
  -2   1  -4   51.17    1.40
   2  -1   4   50.62    1.38
   2  -1   4   51.47    1.65
   3   0  -4   29.23    0.91
   3   0  -4   28.82    0.90
  -3   0  -4   28.67    0.92
   3   0  -4   29.73    0.79
   3   0   4   29.00    0.91
  -4  -1  -4   24.87    0.85
   4   1  -4   23.12    0.82
   4   1  -4   24.94    0.66
   4   1  -4   25.27    0.82
   4   1   4   26.02    0.86
   4   1   4   24.65    1.17
  -5  -2  -4   41.78    1.31
   5   2  -4   42.21    1.30
   5   2  -4   42.87    1.17
   5   2  -4   42.45    1.26
   5   2   4   44.14    1.32
   5   2   4   40.68    1.73
   6   3  -4   14.58    0.56
   6   3  -4   14.81    0.65
   6   3  -4   15.37    0.67
  -6  -3  -4   15.53    0.67
   6   3   4   13.94    0.65
   6   3   4   13.71    0.97
   7   4  -4   11.92    0.61
   7   4  -4   12.90    0.55
   7   4  -4   12.69    0.64
  -7  -4  -4   12.59    0.64
   7   4   4   12.09    0.63
   7   4   4   13.01    1.01
   8   5  -4   19.07    0.87
   8   5  -4   18.42    0.82
   8   5  -4   18.16    0.73
   8   5   4   18.17    0.84
   8   5   4   18.90    1.33
   8   5   4   19.62    1.42
   6   9  -5    3.99    0.37
   6   9  -5    3.01    0.40
   6   9  -5    3.85    0.46
  -6  -9  -5    2.77    0.36
   6   9   5    3.63    0.71
   6   9   5    2.49    0.35
   5   8  -5    0.06    0.22
   5   8  -5    0.12    0.18
  -5  -8  -5    0.08    0.16
   5   8   5   -0.16    0.15
   5   8   5    0.27    0.32
   5   8   5   -0.08    0.36
   4   7  -5    2.71    0.34
   4   7  -5    1.85    0.28
  -4  -7  -5    2.09    0.28
   4   7   5    2.92    0.31
   4   7   5    3.20    0.51
   3   6  -5    6.86    0.45
   3   6  -5    7.54    0.47
  -3  -6  -5    6.61    0.42
   3   6   5    6.45    0.42
   3   6   5    7.30    0.62
  -2  -5  -5    6.36    0.39
   2   5  -5    6.23    0.41
   2   5  -5    6.21    0.41
   2   5   5    6.90    0.40
   1   4  -5   51.27    1.56
  -1  -4  -5   48.24    1.41
   1   4  -5   45.11    1.42
   1   4  -5   49.56    1.29
   1   4  -5   49.70    1.43
   0   3  -5    0.47    0.17
   0   3  -5   -0.19    0.12
   0  -3  -5    0.14    0.11
   0   3  -5    0.29    0.11
   1  -2  -5    9.29    0.40
  -1   2  -5    9.60    0.43
   1  -2  -5    9.13    0.39
   2  -1  -5   44.31    1.31
   2  -1  -5   43.80    1.27
   2  -1  -5   46.09    1.21
  -2   1  -5   42.61    1.29
   3   0  -5    0.21    0.12
   3   0  -5    0.24    0.15
   3   0  -5    0.43    0.10
  -3   0  -5    0.35    0.15
  -4  -1  -5    5.20    0.38
   4   1  -5    5.74    0.39
   4   1  -5    5.27    0.36
   4   1   5    5.07    0.36
   4   1   5    5.02    0.56
  -5  -2  -5    2.92    0.31
   5   2  -5    3.22    0.32
   5   2  -5    3.28    0.32
   5   2   5    3.60    0.33
   5   2   5    2.76    0.50
   6   3  -5    1.41    0.26
  -6  -3  -5    2.01    0.29
   6   3  -5    2.00    0.29
   6   3   5    1.32    0.44
   6   3   5    2.03    0.29
  -7  -4  -5    5.62    0.45
   7   4  -5    4.91    0.43
   7   4  -5    5.15    0.45
   7   4   5    6.48    0.80
   7   4   5    5.54    0.44
  -8  -5  -5    4.70    0.44
   8   5  -5    4.62    0.46
   8   5  -5    3.80    0.41
   8   5   5    4.02    0.42
  -5  -8  -6    8.67    0.58
   5   8  -6    9.11    0.64
   5   8  -6    8.84    0.60
   5   8   6    9.49    0.59
  -4  -7  -6   10.79    0.61
   4   7  -6    9.52    0.63
   4   7  -6   10.01    0.60
   4   7   6   10.53    0.59
   3   6  -6    1.95    0.30
  -3  -6  -6    1.37    0.25
   3   6  -6    1.14    0.25
   2   5  -6    3.88    0.38
  -2  -5  -6    4.35    0.36
   2   5  -6    4.39    0.38
   1   4  -6   22.47    0.90
   1   4  -6   23.70    0.73
  -1  -4  -6   22.82    0.84
   1   4  -6   22.30    0.85
   0   3  -6    2.92    0.32
   0   3  -6    2.93    0.24
   0  -3  -6    2.92    0.26
  -1   2  -6   19.17    0.69
  -1   2  -6   18.18    0.77
   1  -2  -6   18.50    0.67
   2  -1  -6   14.37    0.59
   2  -1  -6   14.12    0.53
   2  -1  -6   13.66    0.65
  -2   1  -6   13.73    0.60
   3   0  -6    5.12    0.28
   3   0  -6    5.90    0.42
   3   0  -6    4.76    0.36
  -3   0  -6    5.27    0.38
   4   1  -6    3.41    0.33
  -4  -1  -6    3.68    0.34
   4   1  -6    3.18    0.31
   5   2  -6   23.30    0.93
   5   2  -6   21.97    0.90
  -5  -2  -6   23.36    0.94
   6   3  -6   14.70    0.73
  -6  -3  -6   14.07    0.73
   6   3  -6   14.66    0.74
   6   3   6   14.54    0.72
   6   3   6   11.64    1.00
   7   4  -6    0.53    0.26
  -7  -4  -6   -0.03    0.17
   7   4  -6    0.26    0.21
   7   4   6    0.34    0.21
  -4  -7  -7   13.61    0.74
   4   7  -7   12.59    0.75
   4   7  -7   14.85    0.80
   3   6  -7    6.83    0.54
   3   6  -7    6.31    0.50
  -3  -6  -7    6.00    0.46
   2   5  -7   14.55    0.77
  -2  -5  -7   15.32    0.72
   2   5  -7   14.83    0.73
   1   4  -7   22.45    0.99
  -1  -4  -7   23.75    0.90
   0   3  -7   17.24    0.82
   0   3  -7   18.89    0.69
   0  -3  -7   16.82    0.71
  -1   2  -7   21.74    0.95
   1  -2  -7   21.69    0.94
  -1   2  -7   22.85    0.83
   1  -2  -7   24.04    0.83
   2  -1  -7    2.08    0.33
   2  -1  -7    2.57    0.24
  -2   1  -7    1.89    0.26
   3   0  -7    9.09    0.58
  -3   0  -7    8.73    0.52
   3   0  -7    9.43    0.53
   4   1  -7    3.14    0.35
  -4  -1  -7    3.03    0.35
   4   1  -7    3.33    0.39
  -5  -2  -7    5.25    0.46
   5   2  -7    4.59    0.44
   5   2  -7    4.96    0.46
   1   4  -8    4.19    0.48
  -1  -4  -8    3.87    0.39
   0   3  -8    0.16    0.23
   0   3  -8    0.25    0.16
   0  -3  -8   -0.08    0.16
   1  -2  -8    2.23    0.28
   1  -2  -8    2.07    0.36
  -1   2  -8    1.74    0.35
  -1   2  -8    2.43    0.29
  -2   1  -8    2.95    0.34
   2  -1  -8    2.92    0.40
   2  -1  -8    3.60    0.30
  -2   1  -8    3.75    0.43
   3   0  -8    7.86    0.62
  -3   0  -8    8.83    0.56
   8  12   0   16.39    1.29
   8  12   0   17.40    0.71
   7  11   0    4.73    0.34
   7  11   0    3.35    0.63
   7  11   0    5.29    0.75
   6  10   0    0.53    0.15
   6  10   0    0.13    0.23
   6  10   0    0.81    0.33
   5   9   0   49.19    2.00
   5   9   0   50.61    1.41
   5   9   0   50.72    1.98
   4   8   0   90.71    2.25
   4   8   0   87.26    2.90
   4   8   0   92.08    2.87
   4   8   0   90.69    2.30
   3   7   0   15.82    0.78
   3   7   0   15.53    0.82
   3   7   0   14.64    0.51
   2   6   0   17.79    0.81
   2   6   0   17.90    0.59
   2   6   0   18.31    0.76
   2   6   0   17.38    0.55
   1   5   0  175.94    4.23
   1   5   0  175.01    4.57
   1   5   0  182.66    4.71
   0   4   0   57.61    1.70
   0   4   0   60.72    1.48
   2  -2   0  117.08    2.81
  -2   2   0  117.49    2.77
   3  -1   0  239.13    6.15
   3  -1   0  244.55    5.75
   3  -1   0  245.54    6.25
   4   0   0   54.97    1.41
   4   0   0   54.85    1.66
   4   0   0   55.03    1.78
   5   1   0  105.15    2.64
  -5  -1   0  107.64    2.96
  -5  -1   0  104.74    2.64
   5   1   0  109.51    3.18
   5   1   0  107.11    3.20
   6   2   0  120.10    3.79
   6   2   0  130.43    3.19
   6   2   0  128.18    3.88
  -6  -2   0  133.59    3.57
   7   3   0    2.87    0.50
   7   3   0    2.40    0.23
   7   3   0    2.34    0.44
   7   3   0    2.25    0.22
   8   4   0    0.40    0.30
   8   4   0    0.29    0.27
   8   4   0    0.42    0.15
   8   4   0    0.31    0.13
   9   5   0    1.23    0.44
   9   5   0    1.21    0.20
   9   5   0    0.77    0.41
  10   6   0   15.11    0.66
   8  12  -1    9.08    0.46
   8  12  -1    8.96    0.55
   8  12   1    8.52    0.51
   8  12   1    8.88    1.00
   7  11  -1    0.48    0.33
   7  11  -1    0.87    0.38
   7  11  -1    0.74    0.21
   7  11  -1    0.54    0.15
   7  11   1    0.79    0.40
   7  11   1    0.52    0.35
   7  11   1    0.73    0.20
   6  10  -1    7.95    0.81
   6  10  -1    7.97    0.38
   6  10  -1    8.09    0.45
   6  10  -1    6.57    0.73
   6  10  -1    8.95    0.45
   6  10   1    7.15    0.79
   6  10   1    7.67    0.43
   6  10   1    7.48    0.76
   5   9  -1    0.56    0.28
   5   9  -1    0.62    0.22
   5   9  -1    0.39    0.12
   5   9  -1    0.25    0.22
   5   9  -1    0.92    0.17
   5   9   1    0.29    0.13
   5   9   1    0.44    0.25
   5   9   1    0.26    0.24
   4   8  -1    6.63    0.35
   4   8  -1    6.13    0.58
   4   8  -1    6.74    0.42
   4   8  -1    5.82    0.56
   4   8  -1    6.65    0.30
   4   8   1    8.34    0.66
   4   8   1    6.55    0.57
   4   8   1    6.82    0.36
   3   7  -1    8.92    0.42
   3   7  -1    7.69    0.31
   3   7  -1    8.07    0.35
   3   7  -1    7.43    0.56
   3   7  -1    8.86    0.59
   3   7  -1    7.92    0.35
  -3  -7  -1    8.09    0.36
   3   7   1    9.46    0.59
   3   7   1    8.29    0.37
   3   7   1    9.08    0.62
   2   6  -1  127.65    3.07
  -2  -6  -1  129.61    3.12
   2   6  -1  124.95    3.07
   2   6  -1  129.85    3.00
   2   6  -1  128.39    3.58
   2   6   1  126.78    3.61
   2   6   1  126.64    3.47
   2   6   1  127.94    3.14
   1   5  -1  179.26    4.22
   1   5  -1  176.91    4.69
   1   5  -1  176.01    4.06
  -1  -5  -1  176.45    4.25
   1   5   1  179.28    4.27
   1   5   1  179.29    4.56
   1   5   1  178.37    4.71
   0   4  -1  147.47    3.35
   0   4  -1  148.02    3.50
   0  -4  -1  148.48    3.51
   0   4   1  146.13    3.70
   0   4   1  145.05    3.84
   0   4   1  146.85    3.53
  -1   3  -1   83.44    2.01
   1  -3  -1   82.51    1.99
  -1   3  -1   79.55    2.06
  -1   3   1   82.93    2.10
   2  -2  -1    7.38    0.34
   2  -2  -1    7.40    0.44
  -2   2  -1    6.92    0.28
   2  -2  -1    7.44    0.26
   2  -2   1    7.89    0.28
  -3   1  -1  182.75    4.36
   3  -1  -1  177.77    4.80
   3  -1  -1  181.66    4.30
   3  -1  -1  177.82    4.73
   3  -1   1  186.02    4.35
  -3   1   1  183.49    4.79
   4   0  -1   56.54    1.85
   4   0  -1   61.12    1.88
  -4   0  -1   60.11    1.53
   4   0  -1   59.14    1.47
   4   0   1   57.35    1.61
  -4   0   1   57.09    1.84
   4   0   1   57.81    1.52
  -5  -1  -1    9.45    0.41
   5   1  -1    9.45    0.36
   5   1  -1    9.25    0.58
   5   1  -1    9.78    0.64
  -5  -1   1   10.42    0.61
   5   1   1    9.18    0.69
   5   1   1   10.41    0.41
   5   1   1   10.70    0.68
  -6  -2  -1   14.45    0.55
   6   2  -1   14.04    0.49
   6   2  -1   14.43    0.54
   6   2  -1   14.98    0.81
   6   2  -1   14.53    0.89
   6   2  -1   14.34    0.55
   6   2   1   14.81    0.92
   6   2   1   14.61    0.88
  -6  -2   1   13.78    0.78
   6   2   1   13.68    0.54
   7   3  -1    9.45    0.39
   7   3  -1    8.74    0.45
   7   3  -1    9.14    0.72
   7   3  -1   10.39    0.81
   7   3   1    9.97    0.47
   7   3   1    9.42    0.77
   7   3   1   10.35    0.83
   8   4  -1    1.88    0.48
   8   4  -1    2.49    0.22
   8   4  -1    2.73    0.28
   8   4  -1    3.78    0.56
   8   4   1    2.52    0.26
   8   4   1    1.71    0.50
   8   4   1    1.82    0.49
   9   5  -1    5.51    0.72
   9   5  -1    5.99    0.43
   9   5  -1    6.28    0.82
   9   5  -1    5.88    0.35
   9   5   1    5.42    0.40
   9   5   1    5.38    0.81
   9   5   1    6.10    0.81
  10   6  -1    5.12    0.77
  10   6  -1    5.18    0.35
  10   6   1    5.78    0.42
   7  11  -2    8.15    0.65
   7  11  -2    7.91    0.50
   7  11  -2    6.76    0.80
   7  11  -2    6.84    0.45
   7  11   2    6.78    0.46
   7  11   2    5.75    0.81
   7  11   2    7.70    0.86
   6  10  -2   -0.03    0.22
   6  10  -2   -0.04    0.13
   6  10  -2   -0.01    0.22
   6  10  -2   -0.07    0.12
   6  10   2    0.20    0.24
   6  10   2    0.06    0.27
   6  10   2    0.24    0.15
   5   9  -2    8.37    0.42
   5   9  -2    6.81    0.29
   5   9  -2    7.93    0.66
   5   9  -2    6.85    0.50
   5   9  -2    7.27    0.42
   5   9   2    6.14    0.64
   5   9   2    6.19    0.69
   5   9   2    6.00    0.39
   4   8  -2    3.92    0.30
   4   8  -2    3.32    0.31
   4   8  -2    3.59    0.44
  -4  -8  -2    3.57    0.27
   4   8  -2    3.59    0.26
   4   8  -2    3.46    0.19
   4   8   2    2.46    0.44
   4   8   2    2.18    0.38
   4   8   2    2.59    0.24
   3   7  -2    4.28    0.27
  -3  -7  -2    4.21    0.27
   3   7  -2    3.25    0.28
   3   7  -2    3.82    0.41
   3   7  -2    4.05    0.19
   3   7  -2    4.18    0.29
   3   7   2    4.50    0.44
   3   7   2    3.67    0.45
   3   7   2    3.89    0.27
   2   6  -2   11.29    0.61
   2   6  -2   10.74    0.45
   2   6  -2   10.82    0.44
   2   6  -2   10.61    0.40
  -2  -6  -2   10.95    0.42
   2   6  -2   10.72    0.34
   2   6   2   11.07    0.44
   2   6   2   11.88    0.66
   2   6   2   10.94    0.61
  -1  -5  -2  172.35    4.20
   1   5  -2  175.24    4.13
   1   5  -2  171.45    4.02
   1   5  -2  174.17    4.18
   1   5   2  177.31    4.65
   1   5   2  176.91    4.23
   0   4  -2  187.55    4.47
   0   4  -2  186.13    4.45
   0  -4  -2  189.63    4.96
   0  -4  -2  189.63    4.51
   0   4   2  189.75    4.86
   0   4   2  188.67    4.52
   1  -3  -2  228.92    6.08
   1  -3  -2  238.04    5.55
  -1   3  -2  236.86    5.46
   2  -2  -2   52.70    1.26
   2  -2  -2   49.93    1.67
  -2   2  -2   50.92    1.31
   2  -2   2   49.03    1.30
  -2   2   2   47.56    1.64
   3  -1  -2   62.90    1.53
   3  -1  -2   65.19    1.60
   3  -1  -2   67.39    2.12
  -3   1  -2   65.56    1.69
   3  -1   2   65.31    1.68
  -3   1   2   67.54    2.10
   4   0  -2    6.53    0.24
  -4   0  -2    6.75    0.33
   4   0  -2    6.45    0.48
   4   0  -2    6.52    0.25
   4   0  -2    7.26    0.40
   4   0   2    6.93    0.33
  -4   0   2    6.59    0.51
   5   1  -2    7.32    0.27
   5   1  -2    7.43    0.30
  -5  -1  -2    7.80    0.38
   5   1  -2    7.47    0.35
   5   1  -2    7.43    0.48
   5   1  -2    7.88    0.59
   5   1  -2    7.70    0.37
  -5  -1   2    6.13    0.56
   5   1   2    5.92    0.35
   6   2  -2   28.42    0.81
   6   2  -2   26.53    0.85
   6   2  -2   26.01    1.11
   6   2  -2   26.82    0.76
   6   2  -2   27.77    1.31
   6   2  -2   26.82    0.89
  -6  -2  -2   27.35    0.90
   6   2   2   25.82    1.35
   6   2   2   25.50    1.29
   6   2   2   26.86    0.90
   7   3  -2   16.36    0.66
   7   3  -2   17.09    0.94
   7   3  -2   16.91    0.55
   7   3  -2   16.71    0.68
   7   3  -2   16.81    0.61
   7   3  -2   17.33    1.10
   7   3   2   17.20    0.68
   7   3   2   17.27    1.09
   7   3   2   18.38    1.15
   8   4  -2   18.24    0.60
   8   4  -2   18.07    0.68
   8   4  -2   17.17    1.19
   8   4  -2   18.24    0.75
   8   4  -2   19.40    1.10
   8   4  -2   18.28    0.76
   8   4   2   16.84    1.19
   8   4   2   16.67    1.20
   8   4   2   17.14    0.73
   9   5  -2    4.59    0.39
   9   5  -2    4.93    0.37
   9   5  -2    4.56    0.73
   9   5   2    4.33    0.76
   9   5   2    4.80    0.38
   9   5   2    4.17    0.73
  10   6  -2    5.70    0.47
  10   6  -2    6.02    0.43
  10   6   2    4.97    0.43
   7  11  -3    5.81    0.47
   7  11  -3    5.22    0.54
   7  11  -3    5.41    0.41
   7  11   3    5.47    0.45
   7  11   3    5.56    0.79
   6  10  -3   15.96    0.79
   6  10  -3   16.09    0.74
   6  10  -3   15.69    0.68
   6  10   3   16.13    0.74
   6  10   3   16.32    1.18
   6  10   3   17.26    1.13
   5   9  -3   16.87    0.72
  -5  -9  -3   17.03    0.70
   5   9  -3   15.50    0.96
   5   9  -3   16.85    0.67
   5   9  -3   16.60    0.76
   5   9   3   15.84    1.09
   5   9   3   16.79    0.72
   5   9   3   18.16    1.08
   4   8  -3   54.01    1.58
  -4  -8  -3   53.17    1.54
   4   8  -3   51.51    1.90
   4   8  -3   54.45    1.49
   4   8  -3   54.26    1.57
   4   8   3   52.07    2.07
   4   8   3   53.77    1.99
   4   8   3   53.10    1.58
  -3  -7  -3   30.99    0.98
   3   7  -3   30.45    1.01
   3   7  -3   30.78    0.79
   3   7  -3   31.09    1.26
   3   7  -3   31.76    1.01
   3   7  -3   31.20    0.94
   3   7   3   31.98    1.00
   3   7   3   32.80    1.38
  -2  -6  -3   29.52    0.91
   2   6  -3   29.68    0.92
   2   6  -3   28.85    0.75
   2   6  -3   29.51    0.86
  -2  -6  -3   28.81    1.08
   2   6  -3   29.19    0.92
   2   6   3   29.61    1.20
   2   6   3   28.30    0.91
   1   5  -3   21.90    0.71
   1   5  -3   20.77    0.59
   1   5  -3   20.75    0.71
  -1  -5  -3   20.66    0.69
  -1  -5  -3   22.42    0.92
   1   5   3   22.58    0.71
   1   5   3   25.31    0.93
   0   4  -3    9.68    0.41
   0   4  -3    9.25    0.51
   0   4  -3   10.11    0.35
   0  -4  -3    9.87    0.38
   0  -4  -3    9.82    0.58
   0   4   3   10.68    0.48
   0   4   3    9.81    0.39
   1  -3  -3   27.46    0.79
  -1   3  -3   28.05    0.79
   1  -3  -3   27.08    1.13
  -1   3  -3   29.23    0.82
  -1   3   3   27.16    0.82
   2  -2  -3   46.26    1.66
   2  -2  -3   47.21    1.18
  -2   2  -3   47.34    1.24
  -2   2   3   43.60    1.61
   2  -2   3   42.57    1.21
   3  -1  -3   16.53    0.49
   3  -1  -3   17.29    0.57
   3  -1  -3   16.96    0.55
  -3   1  -3   16.19    0.58
  -3   1   3   17.19    0.90
   3  -1   3   16.18    0.57
   4   0  -3   50.23    1.25
  -4   0  -3   48.86    1.40
   4   0  -3   50.70    1.25
   4   0  -3   49.44    1.38
   4   0  -3   50.94    1.41
   4   0  -3   49.15    1.32
   4   0   3   48.48    1.39
   5   1  -3   97.85    2.46
   5   1  -3   96.16    2.54
  -5  -1  -3   98.61    2.58
   5   1  -3  100.97    2.38
   5   1  -3   98.48    2.38
   5   1   3   99.10    2.58
   5   1   3  100.08    3.16
  -6  -2  -3   17.53    0.71
   6   2  -3   18.83    0.53
   6   2  -3   18.08    0.72
   6   2  -3   18.36    0.61
   6   2  -3   19.32    0.69
   6   2   3   19.70    0.74
   6   2   3   17.45    1.07
   7   3  -3   17.00    0.63
  -7  -3  -3   15.11    0.69
   7   3  -3   17.01    0.69
   7   3  -3   18.56    0.75
   7   3   3   17.93    0.73
   7   3   3   17.25    1.13
   7   3   3   20.19    1.27
   8   4  -3    3.01    0.33
   8   4  -3    3.02    0.28
   8   4  -3    2.87    0.33
   8   4   3    2.43    0.29
   8   4   3    1.90    0.55
   8   4   3    2.76    0.58
   9   5  -3    9.42    0.50
   9   5  -3    9.59    0.59
   9   5   3    6.70    0.93
   9   5   3    8.89    0.56
   7  11  -4    0.68    0.33
   7  11  -4    0.47    0.24
   7  11  -4    0.49    0.20
   7  11   4    0.20    0.19
   6  10  -4    0.86    0.25
   6  10  -4    1.51    0.33
   6  10  -4    1.25    0.24
   6  10   4    1.20    0.27
   6  10   4    1.59    0.49
   5   9  -4    7.22    0.48
   5   9  -4    7.01    0.43
   5   9  -4    8.67    0.56
  -5  -9  -4    7.53    0.48
   5   9   4    8.71    0.81
   5   9   4    7.67    0.80
   5   9   4    6.06    0.45
   4   8  -4    1.73    0.22
  -4  -8  -4    2.14    0.26
   4   8  -4    2.15    0.29
   4   8  -4    1.58    0.25
   4   8   4    1.60    0.40
   4   8   4    2.15    0.27
   4   8   4    1.85    0.45
   3   7  -4   10.05    0.52
   3   7  -4    9.76    0.45
   3   7  -4    9.97    0.51
  -3  -7  -4    9.79    0.50
   3   7   4    9.70    0.50
   3   7   4   10.02    0.73
   2   6  -4   14.42    0.59
  -2  -6  -4   14.02    0.57
   2   6  -4   14.14    0.61
   2   6  -4   13.32    0.40
   2   6   4   14.19    0.58
   2   6   4   13.59    0.77
   1   5  -4   18.75    0.70
   1   5  -4   20.07    0.83
   1   5  -4   19.35    0.57
  -1  -5  -4   18.48    0.67
   1   5  -4   19.07    0.70
  -1  -5  -4   18.84    0.90
   1   5   4   20.00    0.85
   1   5   4   19.57    0.68
   0  -4  -4   39.57    1.51
   0   4  -4   41.02    1.10
   0   4  -4   40.68    1.19
   0   4  -4   41.22    1.36
   0  -4  -4   41.38    1.16
   0   4   4   41.08    1.27
   0   4   4   40.63    1.16
   1  -3  -4    3.27    0.42
  -1   3  -4    2.04    0.18
  -1   3  -4    2.34    0.22
   1  -3  -4    1.81    0.16
  -1   3   4    2.26    0.39
   2  -2  -4    1.95    0.18
   2  -2  -4    2.03    0.17
  -2   2  -4    2.89    0.23
   2  -2   4    2.53    0.20
   3  -1  -4   63.80    1.58
   3  -1  -4   63.22    1.66
   3  -1  -4   62.58    1.67
  -3   1  -4   62.19    1.71
   3  -1   4   60.85    1.68
   4   0  -4   10.46    0.46
   4   0  -4    9.95    0.34
   4   0  -4    9.15    0.45
  -4   0  -4    9.85    0.47
   4   0   4   10.20    0.47
  -5  -1  -4    0.84    0.20
   5   1  -4    0.91    0.19
   5   1  -4    1.00    0.19
   5   1  -4    1.23    0.10
   5   1   4    1.13    0.20
   5   1   4    1.38    0.35
   6   2  -4    1.33    0.23
   6   2  -4    1.06    0.15
  -6  -2  -4    1.36    0.23
   6   2  -4    1.26    0.22
   6   2   4    0.80    0.20
   6   2   4    0.82    0.33
  -7  -3  -4    3.38    0.34
   7   3  -4    3.49    0.27
   7   3  -4    3.34    0.33
   7   3  -4    3.29    0.35
   7   3   4    3.65    0.62
   7   3   4    3.50    0.34
   8   4  -4    2.39    0.26
   8   4  -4    2.95    0.36
   8   4  -4    2.21    0.33
   8   4   4    2.50    0.58
   8   4   4    1.96    0.30
   8   4   4    1.82    0.59
   9   5  -4    0.67    0.27
   9   5   4    0.58    0.24
   6  10  -5   13.87    0.77
   6  10  -5   13.12    0.78
  -6 -10  -5   12.55    0.69
   6  10  -5   12.54    0.64
   6  10   5   12.90    0.71
   5   9  -5    1.28    0.30
   5   9  -5    1.52    0.30
  -5  -9  -5    1.04    0.25
   5   9   5    1.19    0.27
   5   9   5    0.77    0.40
   4   8  -5    1.46    0.29
   4   8  -5    1.56    0.27
  -4  -8  -5    1.10    0.23
   4   8   5    1.26    0.40
   4   8   5    1.67    0.27
  -3  -7  -5   14.25    0.65
   3   7  -5   13.77    0.66
   3   7  -5   15.11    0.67
   3   7   5   13.34    0.63
   3   7   5   12.96    0.87
  -2  -6  -5   27.52    0.96
   2   6  -5   27.81    0.99
   2   6   5   28.38    0.97
   1   5  -5   24.05    0.98
   1   5  -5   23.83    0.69
  -1  -5  -5   22.58    0.81
   1   5  -5   22.83    0.85
   1   5  -5   21.93    0.82
   1   5   5   24.48    0.82
   0  -4  -5   35.94    1.09
   0   4  -5   35.15    1.14
   0   4  -5   37.76    1.04
   0   4  -5   35.12    1.31
   1  -3  -5   77.54    2.00
   1  -3  -5   78.83    2.06
  -1   3  -5   78.92    2.11
  -1   3  -5   78.69    2.06
  -2   2  -5   26.03    0.86
   2  -2  -5   26.70    0.80
   2  -2  -5   25.42    0.83
   3  -1  -5    5.14    0.36
   3  -1  -5    5.31    0.34
   3  -1  -5    5.24    0.26
  -3   1  -5    5.69    0.36
   4   0  -5   19.27    0.75
  -4   0  -5   19.44    0.77
   4   0  -5   19.24    0.74
   4   0  -5   20.38    0.59
   4   0   5   21.33    0.77
   5   1  -5   10.14    0.52
  -5  -1  -5   10.06    0.53
   5   1  -5   10.54    0.53
   5   1   5    8.25    0.77
   5   1   5    9.11    0.51
  -6  -2  -5    2.87    0.32
   6   2  -5    2.69    0.32
   6   2  -5    3.11    0.32
   6   2   5    3.29    0.33
   6   2   5    2.95    0.56
  -7  -3  -5   15.11    0.75
   7   3  -5   17.08    0.79
   7   3  -5   16.21    0.74
   7   3   5   15.60    1.15
   7   3   5   17.41    0.78
   8   4  -5   19.45    0.87
   8   4  -5   20.44    0.94
  -8  -4  -5   19.31    0.90
   8   4   5   20.49    0.91
   5   9  -6    2.24    0.37
   5   9  -6    1.66    0.35
  -5  -9  -6    1.65    0.31
   5   9   6    1.77    0.31
  -4  -8  -6    5.28    0.43
   4   8  -6    5.57    0.49
   4   8  -6    5.19    0.49
   4   8   6    6.37    0.46
   3   7  -6   12.43    0.69
  -3  -7  -6   12.89    0.65
   3   7  -6   13.68    0.70
   2   6  -6    9.61    0.56
  -2  -6  -6    9.26    0.52
   2   6  -6    9.47    0.58
  -1  -5  -6    0.19    0.14
   1   5  -6    0.16    0.17
   1   5  -6    0.15    0.10
   0  -4  -6    4.01    0.32
   0   4  -6    3.99    0.27
   0   4  -6    4.24    0.37
  -1   3  -6   14.72    0.59
  -1   3  -6   15.74    0.89
  -1   3  -6   15.23    0.69
   1  -3  -6   14.19    0.58
   2  -2  -6   11.59    0.52
  -2   2  -6   11.40    0.54
   2  -2  -6   12.35    0.49
   2  -2  -6   11.73    0.59
   3  -1  -6   15.52    0.65
   3  -1  -6   15.63    0.55
  -3   1  -6   15.91    0.67
   3  -1  -6   15.04    0.69
  -4   0  -6   32.28    1.13
   4   0  -6   31.38    1.10
   4   0  -6   34.21    1.14
  -5  -1  -6   13.67    0.68
   5   1  -6   13.40    0.67
   5   1  -6   13.79    0.67
   6   2  -6    6.96    0.49
   6   2  -6    7.63    0.53
  -6  -2  -6    6.61    0.49
   6   2   6    6.64    0.78
   7   3  -6    0.41    0.23
   7   3  -6    0.30    0.21
  -7  -3  -6    0.15    0.20
   7   3   6    0.24    0.35
   7   3   6    0.49    0.22
   3   7  -7    5.46    0.50
   3   7  -7    5.70    0.49
  -3  -7  -7    4.82    0.43
   2   6  -7    4.56    0.47
  -2  -6  -7    5.02    0.41
   1   5  -7    0.52    0.24
  -1  -5  -7    0.85    0.22
   0   4  -7    0.25    0.15
   0   4  -7    0.78    0.25
   0  -4  -7    0.31    0.16
  -1   3  -7    0.37    0.16
   1  -3  -7    0.17    0.14
  -1   3  -7    0.13    0.20
  -2   2  -7   12.81    0.69
  -2   2  -7   13.23    0.63
   2  -2  -7   13.23    0.70
   2  -2  -7   13.70    0.56
  -3   1  -7    1.56    0.26
   3  -1  -7    2.00    0.32
   3  -1  -7    2.19    0.28
   3  -1  -7    2.19    0.21
  -4   0  -7    9.65    0.59
   4   0  -7   10.71    0.63
   4   0  -7   10.67    0.59
   5   1  -7    2.78    0.36
  -5  -1  -7    2.73    0.35
   5   1  -7    2.71    0.36
   0   4  -8    8.34    0.63
   0  -4  -8    8.24    0.51
   1  -3  -8    9.26    0.66
   1  -3  -8   10.90    0.56
  -1   3  -8   10.12    0.54
  -1   3  -8   10.79    0.69
  -2   2  -8   13.14    0.66
  -2   2  -8   12.21    0.74
   2  -2  -8   13.79    0.78
   2  -2  -8   12.40    0.58
  -3   1  -8    5.77    0.52
  -3   1  -8    5.33    0.45
   3  -1  -8    5.72    0.51
   7  12   0    0.47    0.35
   7  12   0    0.03    0.13
   7  12   0    0.50    0.35
   6  11   0    1.93    0.48
   6  11   0    1.82    0.45
   6  11   0    1.71    0.21
   5  10   0    0.27    0.23
   5  10   0    0.14    0.11
   5  10   0    0.22    0.22
   4   9   0    0.62    0.14
   4   9   0    0.81    0.28
   4   9   0    1.00    0.29
   4   9   0    0.99    0.16
   3   8   0   60.77    2.12
   3   8   0   61.42    1.63
   3   8   0   63.33    2.04
   2   7   0   18.60    0.87
   2   7   0   18.79    0.79
   2   7   0   16.33    0.61
   2   7   0   18.10    0.57
   1   6   0   17.06    0.53
   1   6   0   17.83    0.78
   1   6   0   16.95    0.67
   0   5   0   -0.15    0.08
   0   5   0    0.03    0.05
   0   5   0   -0.06    0.06
  -1   4   0  974.17   23.03
  -2   3   0  172.67    4.04
  -2   3   0  174.57    4.15
   2  -3   0  174.63    4.13
   3  -2   0   68.44    1.67
   3  -2   0   64.45    1.94
   3  -2   0   66.66    1.94
  -3   2   0   67.36    1.68
   4  -1   0   33.86    0.93
   4  -1   0   34.23    1.23
  -4   1   0   34.76    0.94
   4  -1   0   33.80    1.17
   5   0   0    0.01    0.11
   5   0   0    0.00    0.17
   5   0   0   -0.08    0.07
  -5   0   0   -0.06    0.08
   6   1   0   28.69    1.28
   6   1   0   27.48    0.85
   6   1   0   26.64    1.22
   7   2   0   26.87    1.39
   7   2   0   28.00    1.36
   7   2   0   29.90    0.92
   8   3   0    3.12    0.58
   8   3   0    3.64    0.29
   8   3   0    3.87    0.29
   8   3   0    2.56    0.52
   9   4   0    6.33    0.78
   9   4   0    6.71    0.40
   9   4   0    4.66    0.73
  10   5   0    1.00    0.21
  10   5   0    1.06    0.49
  10   5   0    0.76    0.44
   7  12  -1    6.37    0.37
   7  12  -1    6.61    0.84
   7  12  -1    6.06    0.79
   7  12  -1    6.41    0.45
   7  12   1    7.36    0.46
   7  12   1    6.16    0.79
   6  11  -1   15.40    1.09
   6  11  -1   17.54    0.71
   6  11  -1   15.16    1.10
   6  11  -1   16.76    0.61
   6  11   1   15.94    1.08
   6  11   1   16.73    1.18
   6  11   1   15.81    0.68
   5  10  -1   17.97    0.62
   5  10  -1   18.70    1.10
   5  10  -1   17.72    0.77
   5  10  -1   17.30    0.68
   5  10  -1   16.10    1.05
   5  10  -1   17.58    0.68
   5  10   1   17.81    0.69
   5  10   1   17.38    1.11
   5  10   1   18.34    1.06
   4   9  -1   29.01    1.35
   4   9  -1   28.07    0.90
   4   9  -1   28.32    0.98
   4   9  -1   27.49    0.89
   4   9  -1   28.05    1.31
   4   9  -1   28.23    0.85
   4   9   1   31.89    1.31
   4   9   1   30.98    1.41
   4   9   1   30.60    0.94
   3   8  -1   48.96    1.29
   3   8  -1   48.37    1.37
   3   8  -1   47.64    1.73
   3   8  -1   48.88    1.33
   3   8  -1   49.09    1.28
   3   8  -1   48.27    1.77
  -3  -8  -1   49.54    1.33
   3   8   1   48.30    1.80
   3   8   1   47.62    1.66
   3   8   1   46.27    1.34
   2   7  -1   12.65    0.47
   2   7  -1   12.47    0.51
   2   7  -1   12.93    0.72
   2   7  -1   12.92    0.43
   2   7  -1   13.04    0.45
  -2  -7  -1   13.43    0.47
   2   7   1   14.79    0.76
   2   7   1   15.87    0.68
   2   7   1   14.34    0.50
  -1  -6  -1   83.55    2.04
   1   6  -1   83.72    1.95
   1   6  -1   85.31    2.42
   1   6  -1   83.23    2.01
   1   6   1   78.40    2.40
   1   6   1   77.90    2.06
   1   6   1   79.48    2.24
   0   5  -1  173.94    3.88
   0  -5  -1  170.80    4.07
   0   5  -1  168.56    4.05
   0   5   1  164.48    4.46
   0   5   1  170.75    4.09
   0   5   1  172.12    4.28
  -1   4  -1   46.81    1.24
  -1   4  -1   47.07    1.37
  -1   4   1   51.09    1.25
   2  -3  -1   53.88    1.38
  -2   3  -1   55.84    1.54
   2  -3  -1   54.02    1.49
  -2   3  -1   56.00    1.41
   2  -3  -1   56.10    1.73
   2  -3   1   55.04    1.39
   3  -2  -1  407.69   10.25
   3  -2  -1  407.79    9.70
  -3   2  -1  413.18    9.65
   3  -2  -1  412.22   10.33
  -3   2   1  413.20    9.08
   3  -2   1  405.00    9.63
   4  -1  -1   76.81    2.27
   4  -1  -1   76.31    1.88
   4  -1  -1   76.30    2.33
   4  -1   1   76.35    1.94
  -4   1   1   75.12    2.30
   4  -1   1   74.32    2.08
  -5   0  -1    1.59    0.17
   5   0  -1    1.78    0.29
   5   0  -1    1.37    0.28
   5   0  -1    1.50    0.14
   5   0   1    1.73    0.17
  -5   0   1    1.81    0.30
   5   0   1    1.23    0.33
   6   1  -1   42.82    1.18
   6   1  -1   43.58    1.62
   6   1  -1   42.49    1.17
   6   1  -1   41.50    1.68
  -6  -1  -1   43.22    1.25
   6   1   1   41.13    1.70
   6   1   1   44.76    1.26
  -6  -1   1   47.83    1.65
   6   1   1   44.69    1.76
   7   2  -1   61.10    2.17
   7   2  -1   62.25    2.31
   7   2  -1   59.97    1.61
   7   2  -1   59.25    1.68
   7   2   1   57.99    2.26
   7   2   1   65.65    2.39
   7   2   1   59.84    1.69
   8   3  -1   12.90    1.00
   8   3  -1   12.80    0.52
   8   3  -1   13.09    0.92
   8   3  -1   12.29    0.58
   8   3   1   13.32    0.98
   8   3   1   14.94    0.61
   8   3   1   14.16    1.04
   9   4  -1   23.38    1.38
   9   4  -1   23.06    0.80
   9   4  -1   23.69    1.48
   9   4  -1   24.35    0.90
   9   4   1   24.19    1.47
   9   4   1   23.00    0.87
   9   4   1   21.56    1.47
  10   5  -1    6.28    0.38
  10   5  -1    6.89    0.47
  10   5  -1    6.42    0.91
  10   5  -1    5.85    0.78
  10   5   1    6.02    0.44
   7  12  -2    0.32    0.18
   7  12  -2    0.45    0.37
   7  12   2   -0.33    0.28
   7  12   2    0.00    0.16
   6  11  -2   15.48    0.68
   6  11  -2   16.91    0.73
   6  11  -2   15.79    1.07
   6  11  -2   15.55    0.81
   6  11   2   15.60    0.69
   6  11   2   15.94    1.08
   6  11   2   14.15    1.11
   5  10  -2    5.83    0.65
   5  10  -2    6.23    0.29
   5  10  -2    6.26    0.41
   5  10  -2    6.01    0.38
   5  10  -2    6.13    0.47
   5  10   2    6.14    0.70
   5  10   2    6.03    0.40
   5  10   2    5.45    0.63
   4   9  -2   18.77    0.70
   4   9  -2   17.58    0.66
   4   9  -2   17.29    0.99
  -4  -9  -2   18.42    0.68
   4   9  -2   18.83    0.57
   4   9  -2   17.17    0.73
   4   9   2   19.24    0.72
   4   9   2   19.60    1.10
   4   9   2   20.43    1.02
   3   8  -2   53.47    1.44
   3   8  -2   55.18    1.38
   3   8  -2   54.85    1.52
   3   8  -2   53.45    1.89
   3   8  -2   56.03    1.51
  -3  -8  -2   54.74    1.50
   3   8   2   51.56    1.81
   3   8   2   52.91    1.97
   3   8   2   51.88    1.52
   2   7  -2   39.67    1.15
   2   7  -2   41.19    1.47
   2   7  -2   38.53    1.04
  -2  -7  -2   39.99    1.14
   2   7  -2   38.92    1.15
   2   7  -2   40.75    1.10
   2   7   2   42.65    1.18
   2   7   2   42.94    1.53
   2   7   2   41.28    1.38
   1   6  -2   66.54    1.67
   1   6  -2   64.15    1.61
   1   6  -2   64.67    1.61
  -1  -6  -2   64.77    1.69
   1   6  -2   64.41    1.68
   1   6   2   64.84    1.71
   1   6   2   65.43    2.02
   0  -5  -2   53.45    1.42
   0   5  -2   54.39    1.58
   0   5  -2   54.81    1.39
   0   5   2   56.22    1.44
   0   5   2   54.96    1.65
  -1   4  -2   40.60    1.06
  -1   4  -2   42.50    1.27
   1  -4  -2   39.48    1.05
   1  -4  -2   39.09    1.39
  -1   4   2   38.06    1.06
   2  -3  -2  249.41    6.72
   2  -3  -2  260.63    6.09
   2  -3   2  262.85    6.11
   3  -2  -2   29.54    1.21
  -3   2  -2   30.73    0.88
   3  -2  -2   29.96    0.81
   3  -2   2   29.52    0.87
  -3   2   2   31.54    1.22
   4  -1  -2   47.39    1.62
   4  -1  -2   48.87    1.18
   4  -1  -2   48.40    1.24
  -4   1  -2   47.21    1.33
   4  -1  -2   49.09    1.76
   4  -1   2   49.21    1.33
  -4   1   2   50.74    1.75
   5   0  -2    0.22    0.20
   5   0  -2    0.45    0.09
   5   0  -2    0.41    0.09
  -5   0  -2    0.49    0.13
   5   0  -2    0.35    0.16
  -5   0   2    0.22    0.19
   5   0   2    0.38    0.12
   6   1  -2   16.60    0.95
   6   1  -2   16.02    0.53
   6   1  -2   15.84    0.80
   6   1  -2   15.62    0.57
  -6  -1  -2   15.70    0.62
   6   1  -2   16.45    0.62
   6   1  -2   15.40    0.50
   6   1   2   15.55    0.61
   6   1   2   14.02    0.92
   7   2  -2   22.82    0.72
   7   2  -2   21.22    0.76
   7   2  -2   23.91    1.27
   7   2  -2   22.80    1.09
   7   2  -2   22.51    0.69
  -7  -2  -2   23.43    0.83
   7   2  -2   22.78    0.83
   7   2   2   22.09    1.25
   7   2   2   22.41    0.82
   7   2   2   22.35    1.30
   8   3  -2    9.91    0.77
   8   3  -2   10.06    0.41
   8   3  -2   10.62    0.55
   8   3  -2   10.01    0.92
   8   3  -2    9.72    0.46
   8   3   2   10.43    0.53
   8   3   2    9.96    0.95
   8   3   2    9.19    0.89
   9   4  -2    7.66    0.50
   9   4  -2    5.99    0.39
   9   4  -2    6.98    0.35
   9   4  -2    5.67    0.80
   9   4   2    6.42    0.45
   9   4   2    6.32    0.88
   9   4   2    7.24    0.88
  10   5  -2    2.20    0.28
  10   5  -2    1.95    0.32
  10   5   2    2.70    0.33
   7  12  -3    1.07    0.29
   7  12  -3    1.56    0.28
   7  12  -3    1.40    0.38
   7  12   3    1.26    0.27
   6  11  -3    0.17    0.15
   6  11  -3    0.05    0.17
   6  11  -3    0.05    0.26
   6  11   3    0.13    0.30
   6  11   3   -0.08    0.14
   5  10  -3    4.94    0.35
   5  10  -3    5.14    0.60
   5  10  -3    5.57    0.45
   5  10  -3    4.89    0.40
   5  10   3    5.16    0.39
   5  10   3    4.26    0.57
   5  10   3    5.25    0.68
   4   9  -3   15.81    0.94
   4   9  -3   16.58    0.69
  -4  -9  -3   16.52    0.67
   4   9  -3   16.03    0.72
   4   9  -3   16.06    0.64
   4   9   3   17.93    1.06
   4   9   3   16.52    0.97
   4   9   3   16.70    0.70
   3   8  -3   10.08    0.32
   3   8  -3    9.62    0.48
   3   8  -3    9.18    0.66
  -3  -8  -3   11.44    0.49
   3   8  -3   10.13    0.45
   3   8  -3    9.59    0.50
   3   8   3    8.10    0.66
   3   8   3   10.59    0.71
   3   8   3    9.27    0.48
   2   7  -3   17.16    0.66
   2   7  -3   17.09    0.50
   2   7  -3   17.78    0.60
  -2  -7  -3   18.26    0.84
  -2  -7  -3   16.82    0.63
   2   7  -3   16.82    0.65
   2   7   3   17.04    0.89
   2   7   3   18.19    0.67
  -1  -6  -3   28.58    1.12
   1   6  -3   28.62    0.76
  -1  -6  -3   28.64    0.86
   1   6  -3   29.18    0.88
   1   6   3   26.68    1.08
   1   6   3   26.01    0.87
   0   5  -3   20.36    0.61
   0  -5  -3   20.81    0.67
   0   5  -3   21.32    0.68
   0  -5  -3   19.99    0.93
   0   5  -3   21.68    0.86
   0   5   3   21.55    0.81
   0   5   3   20.97    0.68
  -1   4  -3    4.16    0.26
   1  -4  -3    4.31    0.23
   1  -4  -3    4.15    0.42
  -1   4  -3    4.30    0.39
  -1   4   3    3.33    0.23
  -1   4   3    3.68    0.25
   2  -3  -3   18.17    0.95
   2  -3  -3   20.82    0.60
  -2   3  -3   19.59    0.65
   2  -3  -3   20.48    0.61
   2  -3   3   21.91    0.64
  -3   2  -3   25.23    0.81
   3  -2  -3   26.33    1.20
   3  -2  -3   26.17    0.72
   3  -2   3   25.33    0.79
   4  -1  -3   26.16    0.73
   4  -1  -3   26.14    0.78
   4  -1  -3   27.83    0.72
   4  -1  -3   25.62    0.83
  -4   1  -3   26.12    0.86
   4  -1  -3   26.34    0.82
   4  -1   3   27.41    0.85
   5   0  -3    0.73    0.11
   5   0  -3    0.41    0.13
  -5   0  -3    0.55    0.16
   5   0  -3    0.63    0.15
   5   0  -3    0.49    0.09
   5   0   3    0.44    0.14
   6   1  -3   72.38    1.80
  -6  -1  -3   74.97    2.03
   6   1  -3   73.45    1.90
   6   1  -3   72.76    1.81
   6   1  -3   71.11    1.99
   6   1   3   72.78    2.01
   6   1   3   69.72    2.58
   7   2  -3    3.85    0.56
   7   2  -3    4.07    0.27
   7   2  -3    4.37    0.34
   7   2  -3    4.84    0.23
   7   2  -3    4.11    0.35
  -7  -2  -3    4.30    0.35
   7   2   3    3.63    0.34
   7   2   3    3.99    0.60
   8   3  -3    2.47    0.31
   8   3  -3    2.53    0.24
   8   3  -3    2.36    0.52
   8   3   3    2.42    0.59
   8   3   3    2.54    0.30
   8   3   3    3.15    0.60
   9   4  -3    1.37    0.21
   9   4  -3    1.57    0.29
   9   4   3    1.93    0.59
   9   4   3    1.50    0.50
   9   4   3    1.01    0.24
   6  11  -4    7.85    0.62
   6  11  -4    7.81    0.49
   6  11  -4    7.40    0.56
   6  11   4    7.77    0.54
   6  11   4    8.03    0.92
   5  10  -4    7.52    0.55
   5  10  -4    8.43    0.55
   5  10  -4    8.23    0.48
  -5 -10  -4    8.11    0.50
   5  10   4    7.75    0.50
   5  10   4    7.94    0.86
   4   9  -4   17.37    0.79
   4   9  -4   16.12    0.75
  -4  -9  -4   17.23    0.73
   4   9  -4   16.22    0.68
   4   9   4   18.65    0.77
   4   9   4   19.16    1.14
   4   9   4   19.43    1.12
   3   8  -4    9.84    0.47
   3   8  -4   10.36    0.55
   3   8  -4   10.18    0.54
  -3  -8  -4   11.37    0.53
   3   8   4    8.95    0.72
   3   8   4   10.46    0.53
  -2  -7  -4   36.57    1.14
   2   7  -4   36.33    0.94
   2   7  -4   36.98    1.17
   2   7   4   36.24    1.45
   2   7   4   36.19    1.15
   1   6  -4   32.13    0.99
  -1  -6  -4   30.99    0.96
   1   6  -4   29.80    0.97
   1   6  -4   29.97    0.82
  -1  -6  -4   29.45    1.23
   1   6   4   29.24    1.16
   1   6   4   28.12    0.95
   0  -5  -4    7.05    0.57
   0  -5  -4    8.32    0.39
   0   5  -4    8.74    0.34
   0   5  -4    7.60    0.41
   0   5  -4    8.12    0.55
   0   5   4    7.91    0.46
   0   5   4    9.32    0.41
  -1   4  -4  116.68    2.93
  -1   4  -4  119.37    2.92
   1  -4  -4  114.03    3.53
  -1   4  -4  118.51    3.17
   1  -4  -4  117.32    2.94
  -1   4   4  121.57    2.95
   2  -3  -4   80.41    2.01
  -2   3  -4   78.66    2.05
   2  -3  -4   79.53    2.00
   2  -3  -4   74.54    2.61
   2  -3   4   78.99    2.02
  -3   2  -4   12.05    0.51
   3  -2  -4   12.52    0.49
   3  -2  -4   12.31    0.42
   3  -2  -4   12.48    0.49
   3  -2   4   11.07    0.47
   4  -1  -4   27.12    0.84
   4  -1  -4   25.16    0.85
  -4   1  -4   25.79    0.88
   4  -1  -4   25.38    0.73
   4  -1   4   25.16    0.85
   5   0  -4   48.24    1.24
   5   0  -4   46.48    1.42
  -5   0  -4   49.83    1.46
   5   0  -4   48.73    1.37
   5   0   4   49.21    1.44
   6   1  -4    6.82    0.42
   6   1  -4    6.35    0.39
  -6  -1  -4    6.34    0.43
   6   1  -4    6.01    0.31
   6   1   4    5.52    0.39
   6   1   4    5.99    0.68
  -7  -2  -4    5.97    0.43
   7   2  -4    6.82    0.44
   7   2  -4    6.32    0.46
   7   2   4    5.76    0.42
   7   2   4    6.76    0.77
   8   3  -4   28.61    1.09
  -8  -3  -4   28.38    1.08
   8   3   4   25.64    1.56
   8   3   4   28.63    1.08
   8   3   4   27.10    1.67
   9   4  -4    4.18    0.43
   9   4   4    3.64    0.40
  -5 -10  -5    1.75    0.30
   5  10  -5    1.67    0.33
   5  10  -5    1.83    0.36
   5  10   5    1.73    0.52
   5  10   5    1.72    0.31
   4   9  -5    0.72    0.25
  -4  -9  -5    0.82    0.23
   4   9  -5    0.34    0.22
   4   9   5    0.38    0.18
   4   9   5    0.41    0.31
   3   8  -5   11.88    0.64
  -3  -8  -5   11.81    0.60
   3   8   5   12.91    0.63
  -2  -7  -5    2.32    0.26
   2   7  -5    2.17    0.28
   2   7  -5    2.23    0.28
   2   7   5    2.67    0.28
   1   6  -5    7.12    0.43
   1   6  -5    6.72    0.30
  -1  -6  -5    6.98    0.40
   1   6   5    5.41    0.37
   0   5  -5    6.78    0.56
   0  -5  -5    7.34    0.40
   0   5  -5    7.55    0.35
   0  -5  -5    7.59    0.63
   0   5  -5    7.62    0.44
   1  -4  -5   42.40    1.25
  -1   4  -5   44.44    1.32
  -1   4  -5   43.75    1.25
  -1   4  -5   45.60    1.61
   2  -3  -5   21.57    0.71
  -2   3  -5   21.07    0.74
   2  -3  -5   20.73    0.69
   3  -2  -5    8.32    0.42
   3  -2  -5    8.78    0.37
   3  -2  -5    8.53    0.44
  -3   2  -5    8.12    0.44
   4  -1  -5    5.71    0.37
   4  -1  -5    6.33    0.29
   4  -1  -5    6.16    0.39
  -4   1  -5    6.08    0.40
   4  -1   5    6.15    0.38
  -5   0  -5   14.30    0.66
   5   0  -5   13.71    0.60
   5   0  -5   13.33    0.63
   5   0   5   13.61    0.95
   5   0   5   16.01    0.66
  -6  -1  -5    3.26    0.34
   6   1  -5    4.00    0.37
   6   1  -5    3.69    0.33
   6   1   5    3.44    0.59
   6   1   5    3.26    0.33
   7   2  -5   14.77    0.73
   7   2  -5   13.81    0.67
  -7  -2  -5   14.76    0.74
   7   2   5   13.29    1.08
   7   2   5   13.99    0.70
  -8  -3  -5    6.39    0.49
   8   3  -5    6.65    0.52
   8   3   5    5.80    0.47
  -4  -9  -6    6.95    0.51
   4   9  -6    7.22    0.55
   4   9  -6    6.31    0.54
   4   9   6    6.73    0.51
   3   8  -6    2.70    0.36
   3   8  -6    2.97    0.38
  -3  -8  -6    3.37    0.36
  -2  -7  -6   13.80    0.66
   2   7  -6   14.91    0.74
   1   6  -6   20.03    0.87
   1   6  -6   21.78    0.68
  -1  -6  -6   22.07    0.84
   0   5  -6    0.08    0.12
   0   5  -6    0.01    0.16
   0  -5  -6    0.03    0.13
   1  -4  -6   24.18    0.81
  -1   4  -6   24.01    1.15
  -1   4  -6   22.41    0.79
  -1   4  -6   22.01    0.89
   2  -3  -6    2.05    0.21
  -2   3  -6    2.12    0.24
  -2   3  -6    2.28    0.29
   3  -2  -6    1.76    0.27
   3  -2  -6    2.06    0.20
  -3   2  -6    1.61    0.24
   3  -2  -6    1.89    0.23
   4  -1  -6    3.10    0.33
   4  -1  -6    3.48    0.32
   4  -1  -6    3.25    0.23
  -4   1  -6    3.68    0.35
  -5   0  -6   35.14    1.23
   5   0  -6   35.64    1.18
   5   0  -6   34.84    1.21
   5   0   6   31.19    1.59
   6   1  -6   10.36    0.57
  -6  -1  -6    9.05    0.58
   6   1  -6    9.12    0.57
   6   1   6   10.05    0.95
  -7  -2  -6    0.47    0.23
   7   2  -6    1.00    0.26
   7   2  -6    0.20    0.20
   7   2   6    0.80    0.42
   7   2   6    0.39    0.22
  -3  -8  -7    1.61    0.30
   3   8  -7    1.74    0.35
  -2  -7  -7    8.55    0.54
   2   7  -7    7.50    0.57
  -1  -6  -7   14.24    0.68
   1   6  -7   13.09    0.74
   0   5  -7    5.50    0.35
   0   5  -7    7.48    0.55
   0  -5  -7    5.61    0.41
   1  -4  -7   20.50    0.79
  -1   4  -7   21.06    0.79
  -1   4  -7   20.25    0.91
  -2   3  -7    8.41    0.49
   2  -3  -7    8.81    0.45
  -2   3  -7    7.97    0.54
   2  -3  -7    8.93    0.57
  -3   2  -7   10.74    0.58
   3  -2  -7   10.70    0.62
   3  -2  -7   10.76    0.47
  -4   1  -7    2.95    0.34
   4  -1  -7    2.90    0.35
   4  -1  -7    3.03    0.33
  -5   0  -7    6.99    0.53
   5   0  -7    6.69    0.49
   5   0  -7    7.63    0.53
   0  -5  -8    0.35    0.21
   0   5  -8   -0.25    0.20
   1  -4  -8    3.50    0.34
  -1   4  -8    3.45    0.43
   2  -3  -8    1.26    0.22
  -2   3  -8    1.77    0.28
   2  -3  -8    0.69    0.28
  -2   3  -8    1.04    0.30
   7  13   0    0.20    0.16
   7  13   0    0.34    0.35
   6  12   0    4.42    0.64
   6  12   0    2.69    0.59
   6  12   0    3.87    0.31
   5  11   0    8.42    0.81
   5  11   0    9.09    0.77
   5  11   0    9.15    0.44
   4  10   0   48.35    1.96
   4  10   0   51.87    1.90
   4  10   0   48.08    1.38
   3   9   0   61.51    2.05
   3   9   0   60.98    1.64
   3   9   0   61.32    2.18
   2   8   0  158.78    3.91
  -2  -8   0  160.74    3.87
   2   8   0  162.80    4.36
   2   8   0  159.54    4.52
   1   7   0  233.68    6.04
  -1  -7   0  235.08    5.59
   1   7   0  233.58    5.62
   1   7   0  241.10    6.26
   0   6   0   56.18    1.74
   0  -6   0   54.23    1.40
   0   6   0   55.51    1.43
   0   6   0   55.02    1.32
  -1   5   0  173.11    4.14
   1  -5   0  172.39    4.12
   2  -4   0  108.48    2.63
  -2   4   0  107.70    2.64
  -2   4   0  107.60    2.67
  -3   3   0   45.77    1.33
   3  -3   0   47.22    1.22
  -3   3   0   47.54    1.24
  -4   2   0   26.35    0.76
   4  -2   0   25.95    0.75
   4  -2   0   25.82    0.99
   4  -2   0   25.71    1.01
   5  -1   0  106.57    2.70
  -5   1   0  109.75    2.71
   5  -1   0  109.03    3.09
   5  -1   0  110.29    3.22
   6   0   0   86.21    2.77
   6   0   0   83.75    2.18
   7   1   0   71.62    2.53
   7   1   0   67.12    2.44
   7   1   0   69.95    1.86
   8   2   0    3.77    0.29
   8   2   0    3.64    0.59
   8   2   0    3.53    0.57
   9   3   0   25.89    0.92
   9   3   0   24.91    1.45
   9   3   0   26.23    1.54
   9   3   0   26.75    0.91
  10   4   0    7.92    0.93
  10   4   0    8.34    0.47
  10   4   0    8.43    0.99
   7  13  -1    1.65    0.28
   7  13  -1    2.03    0.23
   7  13   1    2.18    0.29
   6  12  -1    2.84    0.25
   6  12  -1    2.47    0.29
   6  12  -1    2.71    0.56
   6  12   1    3.12    0.57
   6  12   1    3.02    0.60
   6  12   1    2.76    0.29
   5  11  -1    1.64    0.18
   5  11  -1    1.41    0.21
   5  11  -1    1.50    0.42
   5  11   1    1.55    0.41
   5  11   1    1.32    0.21
   5  11   1    1.75    0.41
   4  10  -1   13.92    0.92
   4  10  -1   13.99    0.52
   4  10  -1   13.31    0.56
   4  10  -1   13.96    0.65
   4  10  -1   14.35    0.57
   4  10   1   14.01    0.93
   4  10   1   14.36    0.85
   4  10   1   14.84    0.59
   3   9  -1    8.13    0.36
   3   9  -1    8.29    0.39
   3   9  -1    8.87    0.48
   3   9  -1    8.32    0.64
  -3  -9  -1    8.46    0.38
   3   9   1    8.91    0.42
   3   9   1    9.88    0.71
   3   9   1    8.37    0.58
   2   8  -1   55.94    1.45
   2   8  -1   55.92    1.43
   2   8  -1   55.43    1.91
   2   8  -1   56.89    1.51
  -2  -8  -1   56.30    1.48
   2   8   1   53.48    1.73
   2   8   1   55.79    1.94
   2   8   1   55.17    1.51
  -1  -7  -1    9.84    0.38
   1   7  -1    9.91    0.41
   1   7  -1    9.76    0.59
   1   7  -1    9.78    0.36
   1   7  -1    9.74    0.36
   1   7   1   11.02    0.41
   1   7   1   10.10    0.60
   1   7   1   10.60    0.47
   0  -6  -1   64.75    1.67
   0   6  -1   66.60    1.59
   0   6  -1   67.46    1.67
   0   6   1   65.11    1.74
   0   6   1   64.94    1.98
   0   6   1   67.14    1.70
  -1   5  -1  183.49    4.38
  -1   5  -1  183.95    4.38
   1  -5  -1  184.82    4.38
  -1   5   1  180.66    4.39
   2  -4  -1  126.74    3.31
   2  -4  -1  128.85    3.15
  -2   4  -1  134.14    3.25
  -2   4  -1  134.04    3.18
  -2   4   1  129.66    3.17
   2  -4   1  131.84    3.16
   3  -3  -1   48.73    1.26
  -3   3  -1   48.84    1.30
   3  -3  -1   48.14    1.62
   3  -3  -1   47.45    1.43
   3  -3   1   49.18    1.28
  -3   3   1   50.04    1.31
  -4   2  -1   78.28    1.98
   4  -2  -1   76.12    2.37
   4  -2  -1   76.43    1.92
   4  -2  -1   78.28    2.28
  -4   2   1   77.88    1.94
   4  -2   1   75.42    1.96
  -5   1  -1   10.06    0.43
   5  -1  -1   10.23    0.38
   5  -1  -1   10.04    0.63
   5  -1  -1   10.99    0.65
   5  -1   1    9.77    0.49
   5  -1   1   10.06    0.42
   6   0  -1    4.02    0.48
   6   0  -1    5.05    0.28
   6   0  -1    4.38    0.45
  -6   0  -1    5.03    0.32
   6   0   1    4.38    0.53
  -6   0   1    5.24    0.50
   6   0   1    5.36    0.31
   7   1  -1    0.17    0.21
   7   1  -1   -0.01    0.09
   7   1  -1    0.31    0.23
   7   1   1   -0.24    0.23
   7   1   1    0.16    0.12
   7   1   1    0.12    0.22
   8   2  -1    0.97    0.19
   8   2  -1    0.88    0.33
   8   2  -1    0.70    0.33
   8   2  -1    0.59    0.14
   8   2   1    0.79    0.36
   8   2   1    0.09    0.29
   8   2   1    0.55    0.17
   9   3  -1    1.50    0.48
   9   3  -1    2.06    0.50
   9   3  -1    1.78    0.21
   9   3  -1    1.93    0.27
   9   3   1    1.47    0.24
   9   3   1    1.39    0.48
   9   3   1    1.29    0.44
  10   4  -1    4.90    0.75
  10   4  -1    4.82    0.34
  10   4  -1    4.66    0.80
  10   4  -1    5.36    0.43
  10   4   1    5.55    0.41
  10   4   1    4.41    0.82
   7  13  -2    3.09    0.35
   7  13   2    3.19    0.36
   6  12  -2    8.07    0.63
   6  12  -2    7.16    0.45
   6  12  -2    6.92    0.47
   6  12  -2    7.18    0.81
   6  12   2    6.23    0.45
   6  12   2    5.18    0.75
   5  11  -2   25.66    1.02
   5  11  -2   25.48    0.92
   5  11  -2   25.27    1.37
   5  11  -2   26.74    0.81
   5  11  -2   28.07    0.97
   5  11   2   28.29    1.37
   5  11   2   27.85    0.99
   5  11   2   27.63    1.50
   4  10  -2    6.56    0.40
   4  10  -2    6.43    0.29
   4  10  -2    5.88    0.44
   4  10  -2    6.33    0.37
   4  10  -2    6.43    0.63
   4  10   2    5.60    0.56
   4  10   2    6.16    0.39
   4  10   2    5.22    0.63
   3   9  -2    0.50    0.10
   3   9  -2    0.48    0.23
   3   9  -2    0.40    0.20
   3   9  -2    0.70    0.17
  -3  -9  -2    0.62    0.15
   3   9  -2    0.53    0.14
   3   9   2    0.40    0.14
   3   9   2    0.17    0.18
   3   9   2    0.03    0.17
  -2  -8  -2   21.73    0.73
   2   8  -2   21.43    0.69
   2   8  -2   21.57    1.03
   2   8  -2   21.59    0.76
   2   8  -2   21.99    0.65
   2   8   2   22.95    1.06
   2   8   2   23.50    0.93
   2   8   2   23.72    0.77
   1   7  -2   74.62    1.88
  -1  -7  -2   74.91    1.97
   1   7  -2   76.02    1.91
   1   7  -2   75.81    1.95
   1   7   2   80.99    2.02
   1   7   2   79.41    2.38
   1   7   2   76.03    2.16
   0   6  -2    2.91    0.18
   0  -6  -2    3.08    0.20
   0   6   2    2.71    0.29
   0   6   2    3.27    0.22
  -1   5  -2  182.05    4.28
   1  -5  -2  172.56    4.19
  -1   5  -2  175.75    4.19
  -1   5   2  167.98    4.20
  -2   4  -2   27.78    0.80
  -2   4  -2   27.76    1.02
   2  -4  -2   28.19    0.78
   2  -4  -2   25.95    1.11
  -2   4   2   27.90    0.79
   2  -4   2   28.02    0.79
   3  -3  -2  104.42    3.13
   3  -3  -2  104.44    2.57
  -3   3  -2  106.07    2.64
   3  -3   2  106.31    2.62
   4  -2  -2   29.11    0.71
  -4   2  -2   29.50    0.88
   4  -2  -2   28.92    0.79
   4  -2  -2   29.28    1.09
   4  -2  -2   31.36    1.28
  -4   2   2   24.40    1.16
   4  -2   2   26.49    0.85
  -5   1  -2    6.70    0.36
   5  -1  -2    5.94    0.27
   5  -1  -2    6.91    0.53
   5  -1  -2    6.42    0.44
   5  -1  -2    6.17    0.57
   5  -1  -2    6.44    0.26
   5  -1   2    7.95    0.38
   5  -1   2    6.99    0.33
   6   0  -2    3.21    0.37
   6   0  -2    2.49    0.18
  -6   0  -2    2.30    0.24
   6   0  -2    2.85    0.42
   6   0  -2    2.63    0.19
   6   0   2    2.54    0.24
   7   1  -2   14.33    0.85
   7   1  -2   15.75    0.55
   7   1  -2   15.79    0.54
   7   1  -2   16.39    1.01
  -7  -1  -2   16.70    0.66
   7   1  -2   15.26    0.65
   7   1   2   16.24    0.66
   7   1   2   13.84    0.98
   7   1   2   18.40    1.14
   8   2  -2    2.49    0.29
   8   2  -2    3.09    0.25
   8   2  -2    2.60    0.52
   8   2  -2    2.80    0.22
   8   2   2    1.52    0.24
   8   2   2    1.88    0.50
   8   2   2    1.76    0.51
   9   3  -2   13.33    1.09
   9   3  -2   13.48    0.57
   9   3  -2   13.30    0.51
   9   3  -2   13.50    0.67
   9   3   2   11.51    1.09
   9   3   2   13.94    0.66
   9   3   2   12.52    1.04
  10   4  -2    8.81    0.56
  10   4   2    8.36    0.53
   6  12  -3    3.48    0.45
   6  12  -3    3.35    0.38
   6  12  -3    2.98    0.33
   6  12   3    3.16    0.64
   6  12   3    3.69    0.37
   5  11  -3    1.32    0.27
   5  11  -3    1.24    0.41
   5  11  -3    0.97    0.29
   5  11  -3    1.39    0.24
   5  11   3    1.69    0.48
   5  11   3    1.50    0.26
  -4 -10  -3   15.81    0.66
   4  10  -3   15.18    0.95
   4  10  -3   14.98    0.63
   4  10  -3   15.32    0.71
   4  10  -3   14.11    0.67
   4  10   3   13.77    0.89
   4  10   3   14.49    0.65
   4  10   3   14.43    0.99
   3   9  -3   28.74    0.79
   3   9  -3   30.29    1.32
  -3  -9  -3   28.42    0.96
   3   9  -3   27.90    0.91
   3   9  -3   30.25    1.01
   3   9   3   30.08    1.00
   3   9   3   29.67    1.39
   3   9   3   29.35    1.26
  -2  -8  -3   37.86    1.14
   2   8  -3   36.98    1.15
   2   8  -3   38.49    1.09
   2   8  -3   37.60    0.99
   2   8  -3   36.57    1.15
   2   8   3   37.51    1.16
   2   8   3   39.27    1.39
   2   8   3   37.51    1.50
   1   7  -3   92.66    2.30
  -1  -7  -3   90.69    2.41
   1   7  -3   91.30    2.37
  -1  -7  -3   96.47    2.86
   1   7   3   94.57    2.44
   1   7   3   98.10    2.83
   0   6  -3   32.82    0.91
   0   6  -3   33.53    0.97
   0  -6  -3   33.42    1.31
   0   6  -3   32.82    1.18
   0  -6  -3   32.03    0.96
   0   6   3   33.36    1.17
   0   6   3   32.21    0.98
   1  -5  -3   26.29    1.12
  -1   5  -3   25.92    0.77
  -1   5  -3   26.58    1.02
  -1   5  -3   25.94    0.75
   1  -5  -3   25.25    0.76
  -1   5   3   23.91    0.77
  -1   5   3   23.26    0.86
  -2   4  -3   27.85    0.83
  -2   4  -3   26.59    1.09
   2  -4  -3   28.42    0.83
   2  -4  -3   29.09    1.26
  -2   4   3   30.30    0.85
   2  -4   3   30.11    0.84
   3  -3  -3   33.95    0.94
   3  -3  -3   31.98    1.42
  -3   3  -3   33.49    1.01
   3  -3   3   36.98    1.00
   4  -2  -3   96.75    2.48
   4  -2  -3   95.53    3.05
   4  -2  -3   93.88    2.30
   4  -2  -3   92.86    2.28
  -4   2  -3   92.96    2.43
   4  -2   3   88.04    2.39
   5  -1  -3   97.80    2.40
  -5   1  -3   97.30    2.56
   5  -1  -3   96.37    2.30
   5  -1  -3   98.07    2.39
   5  -1  -3   96.78    2.52
   5  -1   3   97.89    2.55
   6   0  -3   91.62    2.51
   6   0  -3   97.01    2.39
  -6   0  -3   93.23    2.54
   6   0  -3   97.34    2.30
   6   0  -3   95.85    2.35
   6   0   3   95.58    2.54
  -7  -1  -3    6.38    0.42
   7   1  -3    6.83    0.33
   7   1  -3    7.69    0.73
   7   1  -3    7.19    0.44
   7   1  -3    7.16    0.30
   7   1   3    6.68    0.74
   7   1   3    6.54    0.42
   8   2  -3    9.80    0.90
   8   2  -3   10.59    0.57
   8   2   3    9.94    0.98
   8   2   3   10.06    0.95
   8   2   3    9.99    0.56
   9   3  -3    2.74    0.35
   9   3  -3    2.82    0.61
   9   3   3    2.81    0.63
   9   3   3    2.24    0.63
   9   3   3    2.17    0.32
  10   4  -3    5.84    0.51
  10   4   3    5.52    0.46
   6  12  -4    0.94    0.23
   6  12  -4    1.04    0.29
   6  12  -4    1.22    0.35
   6  12   4    1.05    0.27
   5  11  -4    1.55    0.30
   5  11  -4    2.23    0.28
   5  11  -4    2.00    0.36
   5  11   4    1.58    0.28
   5  11   4    2.02    0.53
   4  10  -4    4.03    0.40
   4  10  -4    3.45    0.36
   4  10  -4    3.50    0.31
  -4 -10  -4    3.23    0.32
   4  10   4    3.61    0.35
   4  10   4    3.07    0.55
  -3  -9  -4    1.95    0.25
   3   9  -4    2.55    0.30
   3   9  -4    3.03    0.33
   3   9  -4    2.45    0.25
   3   9   4    2.26    0.27
   3   9   4    2.15    0.44
   2   8  -4   13.52    0.61
   2   8  -4   14.29    0.62
   2   8  -4   13.33    0.42
  -2  -8  -4   13.24    0.58
   2   8   4   12.25    0.58
   2   8   4   13.17    0.81
  -1  -7  -4    4.09    0.46
   1   7  -4    4.25    0.33
   1   7  -4    4.24    0.23
  -1  -7  -4    4.45    0.32
   1   7   4    4.49    0.32
   1   7   4    5.06    0.45
   0   6  -4    0.73    0.17
   0   6  -4    0.60    0.12
   0  -6  -4    0.56    0.14
   0   6  -4    0.90    0.25
   0  -6  -4    1.04    0.29
   0   6   4    0.57    0.14
   0   6   4    0.55    0.18
   1  -5  -4   17.84    0.63
  -1   5  -4   18.13    0.88
   1  -5  -4   18.36    0.99
  -1   5  -4   19.16    0.62
  -1   5  -4   18.03    0.66
  -1   5   4   17.88    0.63
  -2   4  -4   11.49    0.49
   2  -4  -4   12.14    0.46
  -2   4  -4   12.79    0.52
   2  -4  -4   12.86    0.46
   2  -4  -4   11.78    0.80
  -2   4  -4   13.03    0.75
  -3   3  -4    1.55    0.19
   3  -3  -4    1.81    0.16
   3  -3  -4    2.00    0.20
   3  -3  -4    1.79    0.19
   3  -3   4    1.92    0.19
  -4   2  -4    5.94    0.37
   4  -2  -4    5.69    0.27
   4  -2  -4    6.52    0.34
   4  -2  -4    5.69    0.34
   4  -2   4    5.32    0.33
   5  -1  -4    1.00    0.17
   5  -1  -4    0.70    0.17
   5  -1  -4    0.88    0.12
  -5   1  -4    0.30    0.16
   5  -1   4    0.89    0.19
  -6   0  -4    0.16    0.15
   6   0  -4    0.31    0.16
   6   0  -4    0.31    0.09
   6   0  -4    0.21    0.14
   6   0   4    0.31    0.15
   7   1  -4    6.05    0.43
  -7  -1  -4    6.25    0.44
   7   1   4    6.68    0.44
   7   1   4    5.92    0.73
  -8  -2  -4    3.52    0.36
   8   2  -4    3.43    0.37
   8   2   4    3.47    0.36
   8   2   4    3.36    0.71
   8   2   4    2.58    0.59
   9   3  -4    0.49    0.23
   9   3   4    0.69    0.23
   5  11  -5    7.71    0.61
  -5 -11  -5    7.42    0.53
   5  11  -5    7.70    0.59
   5  11   5    7.34    0.53
   5  11   5    6.13    0.81
   4  10  -5    4.25    0.43
  -4 -10  -5    4.24    0.39
   4  10  -5    4.37    0.43
   4  10   5    3.67    0.39
   4  10   5    4.74    0.67
   3   9  -5    4.11    0.39
   3   9  -5    3.90    0.38
  -3  -9  -5    4.22    0.37
   3   9   5    3.35    0.34
  -2  -8  -5    3.05    0.30
   2   8  -5    2.47    0.30
   2   8   5    2.57    0.30
   1   7  -5    4.28    0.37
  -1  -7  -5    4.48    0.34
   1   7  -5    4.66    0.25
   1   7   5    5.02    0.34
   0  -6  -5   26.20    1.27
   0  -6  -5   25.63    0.88
   0   6  -5   26.71    0.81
   0   6  -5   26.39    0.94
   0   6  -5   27.17    1.15
  -1   5  -5   27.33    1.21
   1  -5  -5   27.28    0.90
  -1   5  -5   28.57    0.88
  -1   5  -5   27.35    0.95
  -2   4  -5   76.60    2.05
  -2   4  -5   74.43    2.04
   2  -4  -5   75.40    1.97
  -2   4  -5   76.07    2.42
   2  -4  -5   76.68    2.00
  -3   3  -5   23.23    0.83
   3  -3  -5   23.86    0.75
   3  -3  -5   23.78    0.82
   3  -3  -5   23.10    0.80
   4  -2  -5   20.10    0.76
   4  -2  -5   20.24    0.65
   4  -2  -5   20.01    0.75
  -4   2  -5   20.22    0.78
   5  -1  -5    9.39    0.51
   5  -1  -5    8.66    0.46
  -5   1  -5    8.06    0.48
   5  -1  -5    9.01    0.35
   5  -1   5    9.40    0.50
   6   0  -5    2.65    0.32
  -6   0  -5    2.46    0.31
   6   0  -5    2.20    0.27
   6   0   5    3.04    0.32
   6   0   5    2.17    0.50
  -7  -1  -5    0.71    0.22
   7   1  -5    1.07    0.26
   7   1   5    1.72    0.51
   7   1   5    1.96    0.30
  -8  -2  -5   37.60    1.37
   8   2  -5   38.27    1.38
   8   2   5   37.98    1.36
  -4 -10  -6    7.19    0.52
   4  10  -6    8.28    0.61
   4  10   6    8.18    0.56
  -3  -9  -6    8.22    0.53
   3   9  -6    7.83    0.57
  -2  -8  -6   20.11    0.86
   2   8  -6   21.14    0.90
  -1  -7  -6    7.08    0.45
   1   7  -6    6.82    0.48
   0  -6  -6    3.00    0.28
   0   6  -6    3.78    0.36
   0   6  -6    2.63    0.23
  -1   5  -6    0.47    0.20
  -1   5  -6    0.64    0.29
   1  -5  -6    0.43    0.15
  -2   4  -6    0.51    0.28
  -2   4  -6    0.86    0.19
  -2   4  -6    0.62    0.20
   2  -4  -6    0.67    0.16
  -3   3  -6    1.84    0.25
   3  -3  -6    1.78    0.23
   3  -3  -6    1.23    0.24
   3  -3  -6    1.55    0.19
   4  -2  -6    4.30    0.27
   4  -2  -6    3.93    0.34
   4  -2  -6    3.72    0.33
  -4   2  -6    4.08    0.35
   5  -1  -6   13.79    0.66
  -5   1  -6   13.27    0.68
   5  -1  -6   14.08    0.65
   5  -1   6   12.66    0.97
   6   0  -6    9.66    0.56
  -6   0  -6   10.04    0.60
   6   0  -6   10.19    0.60
   6   0   6    9.92    0.93
  -7  -1  -6    0.88    0.27
   7   1  -6    2.45    0.35
   7   1   6    1.20    0.47
   2   8  -7    4.36    0.46
  -2  -8  -7    4.97    0.44
   1   7  -7    4.13    0.45
  -1  -7  -7    3.16    0.35
   0   6  -7    6.07    0.37
   0  -6  -7    5.65    0.42
   0   6  -7    5.95    0.50
  -1   5  -7    0.72    0.19
   1  -5  -7    0.35    0.17
  -1   5  -7    0.96    0.27
   2  -4  -7    3.71    0.39
  -2   4  -7    3.67    0.34
   2  -4  -7    3.64    0.31
  -2   4  -7    4.80    0.44
   3  -3  -7    0.63    0.23
   3  -3  -7    0.51    0.15
  -3   3  -7    0.51    0.22
  -3   3  -7    0.48    0.34
  -3   3  -7    0.71    0.21
  -4   2  -7    4.64    0.42
   4  -2  -7    4.69    0.43
   4  -2  -7    4.53    0.38
   5  -1  -7    3.07    0.36
   5  -1  -7    3.20    0.36
  -5   1  -7    3.15    0.37
   7  14   0    1.44    0.24
   7  14   0    1.17    0.27
   6  13   0    0.23    0.15
   6  13   0    0.70    0.35
   6  13   0    0.26    0.32
   5  12   0    1.83    0.44
   5  12   0    2.18    0.49
   5  12   0    2.39    0.24
   4  11   0    6.32    0.36
   4  11   0    7.19    0.71
   4  11   0    6.41    0.61
   3  10   0    6.80    0.65
   3  10   0    8.42    0.60
   3  10   0    7.83    0.38
   2   9   0    2.58    0.39
  -2  -9   0    2.75    0.20
   2   9   0    3.00    0.34
   2   9   0    2.93    0.23
   1   8   0   47.90    1.70
  -1  -8   0   48.78    1.29
   1   8   0   49.54    1.33
   1   8   0   48.62    1.31
   1   8   0   49.44    1.24
   0   7   0    0.09    0.05
   0   7   0    0.06    0.08
   0   7   0   -0.10    0.11
   0  -7   0   -0.01    0.06
  -1   6   0   19.54    0.61
  -1   6   0   20.10    0.51
   1  -6   0   19.43    0.59
  -2   5   0    2.37    0.19
   2  -5   0    2.47    0.17
  -3   4   0   18.07    0.73
   3  -4   0   19.17    0.59
  -3   4   0   20.52    0.62
   4  -3   0   -0.05    0.12
  -4   3   0    0.26    0.10
   4  -3   0    0.19    0.09
  -4   3   0    0.20    0.13
   4  -3   0    0.13    0.16
   5  -2   0    4.55    0.45
   5  -2   0    4.92    0.27
  -5   2   0    5.10    0.29
   5  -2   0    5.34    0.42
  -6   1   0   29.48    0.90
   6  -1   0   27.13    1.14
   6  -1   0   30.43    1.30
   6  -1   0   28.77    0.88
   7   0   0    0.02    0.11
   7   0   0   -0.19    0.16
   7   0   0   -0.12    0.20
   8   1   0   -0.16    0.21
   8   1   0    0.16    0.13
   8   1   0    0.24    0.25
   9   2   0    1.79    0.23
   9   2   0    2.20    0.27
   9   2   0    2.39    0.54
   9   2   0    0.77    0.39
  10   3   0    4.81    0.78
  10   3   0    3.86    0.34
  10   3   0    5.19    0.78
   6  13  -1    7.50    0.88
   6  13  -1    6.94    0.39
   6  13  -1    7.20    0.45
   6  13   1    6.11    0.83
   6  13   1    6.11    0.43
   5  12  -1   10.05    0.45
   5  12  -1    9.77    0.85
   5  12  -1    9.55    0.49
   5  12   1    9.98    0.79
   5  12   1    8.26    0.85
   5  12   1    9.43    0.49
   4  11  -1   14.84    0.98
   4  11  -1   14.16    0.68
   4  11  -1   14.80    0.56
   4  11  -1   14.67    0.59
   4  11   1   15.67    0.90
   4  11   1   15.63    1.02
   4  11   1   14.12    0.61
   3  10  -1    9.24    0.41
   3  10  -1    9.28    0.71
   3  10  -1    8.57    0.49
   3  10  -1    9.07    0.39
   3  10   1    8.62    0.60
   3  10   1    8.73    0.43
   3  10   1    8.49    0.69
   2   9  -1   28.86    0.82
   2   9  -1   26.41    0.80
  -2  -9  -1   28.32    0.84
   2   9  -1   28.86    1.24
   2   9  -1   28.41    0.89
   2   9   1   26.38    1.22
   2   9   1   25.06    1.02
   2   9   1   25.95    0.86
   1   8  -1   41.55    1.16
   1   8  -1   41.41    1.54
  -1  -8  -1   42.19    1.15
   1   8  -1   42.43    1.14
   1   8  -1   41.53    1.10
   1   8   1   42.03    1.30
   1   8   1   40.36    1.52
   1   8   1   42.20    1.19
   0   7  -1  144.97    3.34
   0   7  -1  141.92    3.50
   0  -7  -1  146.27    3.51
   0   7   1  143.06    3.54
   0   7   1  145.28    3.98
  -1   6  -1   76.12    2.00
   1  -6  -1   76.71    1.99
  -1   6   1   81.97    2.02
   1  -6   1   83.01    1.98
  -2   5  -1  221.94    5.34
   2  -5  -1  222.42    5.35
  -2   5  -1  223.86    5.38
  -2   5   1  229.69    5.38
   2  -5   1  226.71    5.35
   3  -4  -1  189.05    5.05
  -3   4  -1  183.84    4.48
   3  -4  -1  187.70    4.44
  -3   4  -1  184.79    4.49
   3  -4  -1  181.91    4.73
   3  -4   1  184.35    4.45
  -3   4   1  186.12    4.45
  -4   3  -1  124.38    3.06
   4  -3  -1  123.51    3.54
   4  -3  -1  127.12    3.39
   4  -3  -1  124.52    3.02
  -4   3   1  121.99    2.98
   4  -3   1  119.57    3.04
  -4   3   1  122.02    3.02
   5  -2  -1    4.04    0.23
   5  -2  -1    4.15    0.40
  -5   2  -1    4.63    0.29
   5  -2  -1    4.61    0.45
   5  -2   1    3.58    0.26
  -5   2   1    2.82    0.21
  -5   2   1    3.58    0.29
   5  -2   1    3.39    0.32
   6  -1  -1   42.55    1.17
  -6   1  -1   41.93    1.23
   6  -1  -1   41.06    1.60
   6  -1  -1   41.83    1.62
   6  -1   1   42.77    1.39
   6  -1   1   42.78    1.70
   6  -1   1   41.48    1.22
   7   0  -1   16.44    0.58
   7   0  -1   16.75    1.00
   7   0  -1   16.47    0.94
   7   0   1   14.66    0.99
   7   0   1   15.46    0.62
   8   1  -1   12.18    0.51
   8   1  -1   12.12    0.93
   8   1  -1   13.67    0.92
   8   1   1   12.20    0.96
   8   1   1   12.60    0.56
   8   1   1   12.41    0.94
   9   2  -1   13.09    0.97
   9   2  -1   12.09    1.01
   9   2  -1   12.41    0.61
   9   2  -1   11.86    0.52
   9   2   1   12.28    1.08
   9   2   1   10.04    0.98
   9   2   1   12.55    0.59
  10   3  -1   10.45    0.98
  10   3  -1    9.05    0.47
  10   3  -1    9.33    1.01
  10   3  -1   10.14    0.57
  10   3   1    9.86    1.03
  10   3   1    9.86    0.54
  10   3   1    8.13    1.00
   6  13  -2    8.54    0.52
   6  13  -2   10.34    0.98
   6  13  -2    9.06    0.71
   6  13   2    9.14    0.55
   5  12  -2    7.02    0.76
   5  12  -2    6.51    0.52
   5  12  -2    5.57    0.39
   5  12  -2    5.52    0.30
   5  12   2    5.87    0.41
   5  12   2    4.30    0.67
   4  11  -2    3.82    0.31
   4  11  -2    3.49    0.53
   4  11  -2    3.46    0.22
   4  11  -2    3.39    0.36
   4  11   2    2.86    0.29
   4  11   2    2.14    0.45
   3  10  -2   23.29    1.22
   3  10  -2   26.70    0.79
   3  10  -2   27.50    0.86
  -3 -10  -2   27.22    0.89
   3  10  -2   27.95    0.96
   3  10   2   27.11    1.15
   3  10   2   26.75    1.32
   3  10   2   26.61    0.92
  -2  -9  -2    3.48    0.27
   2   9  -2    3.82    0.22
   2   9  -2    3.85    0.30
   2   9  -2    3.33    0.25
   2   9  -2    3.86    0.46
   2   9   2    2.78    0.32
   2   9   2    2.74    0.42
   2   9   2    2.61    0.25
   1   8  -2   19.94    0.69
   1   8  -2   19.84    0.62
  -1  -8  -2   19.20    0.67
   1   8  -2   19.54    0.63
   1   8   2   21.69    0.72
   1   8   2   23.17    1.00
   1   8   2   21.28    0.77
   0   7  -2   11.60    0.45
   0  -7  -2   11.85    0.45
   0   7  -2   11.73    0.42
   0   7   2   11.18    0.46
   0   7   2   12.10    0.64
   0   7   2   11.47    0.44
  -1   6  -2   65.11    1.88
  -1   6  -2   63.00    1.63
   1  -6  -2   63.28    1.64
  -1   6   2   62.57    1.66
  -2   5  -2    9.98    0.58
   2  -5  -2    9.10    0.36
  -2   5  -2    8.33    0.37
   2  -5  -2    7.77    0.59
   2  -5   2    9.97    0.36
  -2   5   2   10.86    0.40
  -3   4  -2   68.99    2.07
   3  -4  -2   71.22    1.81
   3  -4  -2   66.33    2.29
  -3   4  -2   72.49    1.86
   3  -4   2   74.14    1.84
  -3   4   2   72.23    1.82
   4  -3  -2   45.94    1.47
   4  -3  -2   43.78    1.18
  -4   3  -2   45.69    1.27
   4  -3  -2   44.12    1.70
   4  -3   2   42.95    1.23
   5  -2  -2   47.99    1.82
   5  -2  -2   47.29    1.25
   5  -2  -2   47.25    1.15
   5  -2  -2   45.35    1.64
   5  -2   2   46.95    1.33
   6  -1  -2   14.38    0.85
   6  -1  -2   14.99    0.47
   6  -1  -2   14.19    0.50
   6  -1  -2   15.13    0.77
   6  -1   2   15.45    0.61
   7   0  -2   90.96    2.84
   7   0  -2   91.05    2.21
   7   0  -2   89.99    3.03
   7   0  -2   91.55    2.30
   7   0   2   89.79    2.43
   7   0   2   87.95    3.13
   8   1  -2   18.42    0.76
   8   1  -2   19.43    1.19
   8   1  -2   18.36    0.63
   8   1   2   17.73    1.18
   8   1   2   18.05    1.21
   8   1   2   18.58    0.75
   9   2  -2   24.70    1.47
   9   2  -2   23.01    0.90
   9   2  -2   22.46    0.74
   9   2   2   19.42    1.38
   9   2   2   21.49    0.88
   9   2   2   19.74    1.35
  10   3  -2    0.42    0.21
  10   3  -2    0.18    0.35
  10   3  -2    0.20    0.13
  10   3   2   -0.23    0.30
  10   3   2    0.40    0.20
   6  13  -3    1.00    0.24
   6  13  -3    0.60    0.32
   6  13   3    0.66    0.22
   5  12  -3    5.61    0.50
   5  12  -3    5.42    0.71
   5  12  -3    5.32    0.39
   5  12   3    5.40    0.42
   5  12   3    5.08    0.72
   4  11  -3    7.53    0.44
   4  11  -3    7.14    0.50
   4  11  -3    7.43    0.74
  -4 -11  -3    7.79    0.46
   4  11   3    6.11    0.71
   4  11   3    6.83    0.45
   3  10  -3    0.67    0.11
   3  10  -3    0.53    0.22
   3  10  -3    0.55    0.16
  -3 -10  -3    0.87    0.19
   3  10   3    1.08    0.21
   3  10   3    0.85    0.31
   2   9  -3   20.79    0.70
  -2  -9  -3   21.05    0.74
   2   9  -3   20.48    0.77
   2   9  -3   20.41    0.61
   2   9   3   20.40    1.06
   2   9   3   19.78    0.76
   1   8  -3   22.80    0.78
  -1  -8  -3   22.13    0.75
   1   8  -3   21.83    0.65
   1   8   3   21.26    0.76
   1   8   3   21.57    0.88
   1   8   3   21.87    1.01
   0   7  -3    1.90    0.21
   0  -7  -3    2.02    0.36
   0   7  -3    2.37    0.19
   0  -7  -3    1.91    0.19
   0   7   3    2.14    0.21
   0   7   3    1.99    0.29
  -1   6  -3   28.61    1.12
   1  -6  -3   26.75    1.21
  -1   6  -3   26.90    0.82
   1  -6  -3   28.17    0.84
  -1   6  -3   26.69    0.83
  -1   6   3   29.56    1.01
  -1   6   3   27.85    0.86
  -2   5  -3    3.10    0.23
  -2   5  -3    3.78    0.41
   2  -5  -3    3.23    0.22
  -2   5  -3    3.32    0.24
   2  -5  -3    3.51    0.45
  -2   5   3    3.66    0.24
   2  -5   3    3.74    0.23
  -3   4  -3    4.08    0.28
   3  -4  -3    4.07    0.50
   3  -4  -3    4.29    0.24
   3  -4   3    4.19    0.27
  -3   4   3    4.13    0.24
   4  -3  -3    3.09    0.20
  -4   3  -3    2.99    0.25
   4  -3  -3    2.25    0.41
   4  -3   3    2.79    0.23
   5  -2  -3    0.82    0.12
   5  -2  -3    0.79    0.14
  -5   2  -3    0.51    0.16
   5  -2   3    0.94    0.17
  -6   1  -3   73.19    2.03
   6  -1  -3   72.46    1.86
   6  -1  -3   73.12    2.01
   6  -1   3   72.82    2.02
   7   0  -3    2.85    0.20
  -7   0  -3    3.03    0.30
   7   0  -3    3.43    0.51
   7   0  -3    3.15    0.31
   7   0   3    2.69    0.28
   8   1  -3    1.88    0.44
   8   1  -3    1.88    0.27
   8   1  -3    1.72    0.17
  -8  -1  -3    1.56    0.26
   8   1   3    1.31    0.25
   8   1   3    1.52    0.49
   8   1   3    0.75    0.37
   9   2  -3    4.11    0.40
   9   2  -3    4.80    0.72
   9   2   3    2.93    0.66
   9   2   3    2.88    0.63
   9   2   3    3.64    0.38
  10   3  -3    6.59    0.51
  10   3   3    6.05    0.48
   5  12  -4   11.56    0.73
   5  12   4   11.80    1.03
   5  12   4   12.01    0.67
   4  11  -4   13.83    0.73
  -4 -11  -4   14.94    0.69
   4  11  -4   14.21    0.65
   4  11   4   15.02    0.72
   4  11   4   14.35    1.05
   3  10  -4   15.86    0.73
   3  10  -4   14.81    0.63
  -3 -10  -4   15.07    0.67
   3  10   4   15.53    1.00
   3  10   4   15.16    0.68
   2   9  -4   16.86    0.73
  -2  -9  -4   17.94    0.71
   2   9  -4   17.66    0.53
   2   9   4   17.56    0.72
   2   9   4   16.56    0.96
   1   8  -4   17.82    0.71
  -1  -8  -4   18.33    0.97
   1   8  -4   19.51    0.59
  -1  -8  -4   17.61    0.69
   1   8   4   16.93    0.89
   1   8   4   18.02    0.71
   0  -7  -4    3.21    0.26
   0  -7  -4    3.61    0.47
   0   7  -4    3.12    0.22
   0   7  -4    2.76    0.39
   0   7  -4    3.10    0.29
   0   7   4    2.82    0.33
   0   7   4    3.01    0.26
   1  -6  -4   27.44    0.86
  -1   6  -4   27.06    1.15
  -1   6  -4   26.29    0.88
   1  -6  -4   27.48    1.30
  -1   6  -4   26.31    0.83
  -1   6   4   27.84    0.87
  -2   5  -4   12.54    0.52
   2  -5  -4   13.05    0.47
  -2   5  -4   12.58    0.51
   2  -5  -4   13.02    0.50
  -2   5  -4   12.53    0.77
   2  -5  -4   12.67    0.86
   3  -4  -4   24.63    0.77
  -3   4  -4   24.32    0.83
   3  -4  -4   24.84    0.79
   3  -4   4   26.25    0.81
  -4   3  -4   14.53    0.60
   4  -3  -4   15.06    0.58
   4  -3  -4   14.43    0.50
   4  -3  -4   14.35    0.54
   4  -3   4   13.30    0.56
   5  -2  -4   44.31    1.32
   5  -2  -4   44.59    1.18
   5  -2  -4   42.74    1.22
  -5   2  -4   42.82    1.34
   5  -2   4   42.58    1.32
   6  -1  -4    5.31    0.38
   6  -1  -4    5.53    0.27
  -6   1  -4    6.31    0.42
   6  -1   4    6.41    0.41
   7   0  -4   23.02    0.90
  -7   0  -4   21.95    0.89
   7   0   4   23.45    1.37
   7   0   4   22.23    0.88
  -8  -1  -4   22.98    0.96
   8   1  -4   23.92    0.97
   8   1   4   22.85    1.45
   8   1   4   24.75    0.97
   9   2  -4    7.37    0.55
   9   2   4    8.66    0.57
   5  12  -5    1.08    0.34
   5  12   5    0.58    0.24
  -4 -11  -5    1.25    0.27
   4  11  -5    1.95    0.36
   4  11   5    1.32    0.28
   3  10  -5    3.51    0.39
  -3 -10  -5    3.03    0.33
   3  10   5    3.08    0.35
   2   9  -5    3.64    0.36
  -2  -9  -5    3.26    0.31
   2   9   5    3.20    0.32
  -1  -8  -5    5.36    0.38
   1   8  -5    5.00    0.27
   1   8  -5    5.02    0.40
   1   8   5    5.11    0.37
   0  -7  -5   12.04    0.55
   0   7  -5   12.26    0.59
   0   7  -5   13.46    0.80
   0   7  -5   11.91    0.47
  -1   6  -5    5.98    0.41
  -1   6  -5    5.61    0.33
   1  -6  -5    6.34    0.37
  -1   6  -5    5.76    0.57
  -2   5  -5    8.57    0.71
  -2   5  -5    7.95    0.45
  -2   5  -5    7.98    0.42
   2  -5  -5    7.57    0.39
   3  -4  -5    4.83    0.30
  -3   4  -5    5.61    0.37
  -3   4  -5    4.28    0.33
   3  -4  -5    4.52    0.31
   4  -3  -5    2.83    0.27
  -4   3  -5    2.87    0.28
   4  -3  -5    2.92    0.23
   4  -3  -5    2.94    0.27
  -5   2  -5    2.43    0.29
   5  -2  -5    2.84    0.27
   5  -2  -5    2.82    0.28
   5  -2  -5    2.31    0.19
   5  -2   5    3.12    0.30
  -6   1  -5    2.24    0.30
   6  -1  -5    2.87    0.32
   6  -1   5    3.10    0.32
   7   0  -5    5.13    0.43
  -7   0  -5    4.82    0.42
   7   0   5    4.65    0.41
   7   0   5    4.71    0.73
  -8  -1  -5    5.29    0.47
   8   1  -5    6.66    0.51
   8   1   5    6.49    0.49
   3  10  -6    3.28    0.42
  -3 -10  -6    3.26    0.37
   3  10   6    5.35    0.45
  -2  -9  -6   13.09    0.69
   2   9  -6   15.33    0.76
  -1  -8  -6    6.47    0.44
   1   8  -6    6.31    0.49
   0  -7  -6    4.09    0.33
   0   7  -6    3.81    0.28
   0   7  -6    4.45    0.40
  -1   6  -6   24.45    0.82
  -1   6  -6   24.08    1.20
  -1   6  -6   22.91    0.93
   1  -6  -6   22.60    0.85
  -2   5  -6    4.28    0.58
  -2   5  -6    3.73    0.31
  -2   5  -6    3.55    0.34
   2  -5  -6    3.44    0.29
   3  -4  -6    5.43    0.34
  -3   4  -6    5.93    0.69
   3  -4  -6    5.86    0.37
   3  -4  -6    5.71    0.42
  -3   4  -6    6.19    0.44
  -3   4  -6    6.59    0.42
  -4   3  -6    7.22    0.46
   4  -3  -6    6.15    0.43
   4  -3  -6    6.23    0.34
   4  -3  -6    6.21    0.41
   5  -2  -6   25.55    0.79
   5  -2  -6   24.58    0.92
   5  -2  -6   24.95    0.95
  -5   2  -6   24.83    0.98
   6  -1  -6    9.60    0.58
  -6   1  -6    9.46    0.58
   6  -1  -6    9.13    0.52
   6  -1   6    8.14    0.87
  -7   0  -6    0.87    0.25
   7   0  -6    0.42    0.24
   7   0   6    0.33    0.36
  -2  -9  -7   10.72    0.63
   2   9  -7    9.66    0.68
   1   8  -7    5.40    0.49
  -1  -8  -7    4.74    0.42
   0   7  -7    8.23    0.58
   0   7  -7    7.74    0.41
   0  -7  -7    6.65    0.47
  -1   6  -7   12.86    0.58
  -1   6  -7   12.74    0.70
   1  -6  -7   11.74    0.60
  -2   5  -7   16.21    0.79
   2  -5  -7   15.34    0.66
  -2   5  -7   14.92    0.68
  -3   4  -7    8.11    0.56
   3  -4  -7    8.84    0.55
  -3   4  -7    8.14    0.51
  -3   4  -7    9.56    0.89
   3  -4  -7    7.78    0.43
   4  -3  -7    6.85    0.46
   4  -3  -7    6.80    0.50
   4  -3  -7    6.88    0.38
  -4   3  -7    7.36    0.52
  -4   3  -7    7.32    0.50
   5  -2  -7    6.21    0.47
  -5   2  -7    5.94    0.49
   5  -2  -7    6.57    0.49
   6  14   0    6.26    0.43
   6  14   0    6.46    0.42
   5  13   0    1.35    0.42
   5  13   0    1.56    0.22
   5  13   0    1.24    0.22
   5  13   0    2.09    0.44
   4  12   0    0.13    0.13
   4  12   0    0.24    0.25
   4  12   0    0.23    0.21
   3  11   0    4.11    0.54
   3  11   0    4.23    0.46
   3  11   0    4.04    0.29
   2  10   0   37.55    1.57
   2  10   0   38.58    1.14
   2  10   0   39.79    1.08
   1   9   0   48.08    1.73
   1   9   0   46.66    1.21
   1   9   0   47.50    1.31
  -1  -9   0   46.79    1.27
   0   8   0    1.20    0.15
   0  -8   0    1.30    0.13
   0   8   0    1.12    0.26
   0   8   0    1.44    0.12
   1  -7   0  244.80    5.78
  -1   7   0  244.44    5.82
  -1   7   0  239.07    5.47
  -2   6   0   18.17    0.59
   3  -5   0   11.07    0.40
  -3   5   0   10.46    0.41
  -3   5   0   11.30    0.56
   4  -4   0   59.04    1.57
   4  -4   0   60.84    1.85
  -4   4   0   59.88    1.73
  -4   4   0   61.22    1.60
   5  -3   0   68.91    2.18
   5  -3   0   69.93    2.20
  -5   3   0   68.05    1.96
   5  -3   0   69.11    1.80
  -5   3   0   69.34    1.82
  -6   2   0  128.76    3.25
   6  -2   0  131.46    3.73
   6  -2   0  131.16    3.84
   6  -2   0  129.01    3.24
   7  -1   0   71.31    2.50
   7  -1   0   70.53    1.90
   8   0   0    0.65    0.33
   8   0   0    1.17    0.36
   8   0   0    1.23    0.19
   9   1   0   45.33    1.36
   9   1   0   40.49    2.02
   9   1   0   45.19    2.02
  10   2   0    8.00    0.49
  10   2   0    7.82    0.46
  10   2   0    7.75    0.91
  10   2   0    7.71    0.94
   6  14  -1    5.07    0.35
   6  14  -1    4.13    0.38
   6  14   1    5.01    0.40
   5  13  -1    5.65    0.73
   5  13  -1    4.93    0.33
   5  13  -1    5.50    0.39
   5  13   1    5.23    0.38
   5  13   1    5.39    0.75
   4  12  -1   13.11    0.67
   4  12  -1   12.97    0.55
   4  12  -1   11.88    0.92
   4  12  -1   11.99    0.51
   4  12   1   11.58    0.92
   4  12   1   13.00    0.58
   3  11  -1   13.26    0.63
   3  11  -1   12.99    0.89
   3  11  -1   13.31    0.53
   3  11  -1   13.40    0.52
   3  11   1   13.91    0.79
   3  11   1   13.11    0.89
   3  11   1   13.50    0.57
   2  10  -1    6.40    0.42
   2  10  -1    5.79    0.58
   2  10  -1    6.56    0.33
  -2 -10  -1    6.56    0.33
   2  10  -1    6.65    0.33
   2  10   1    4.93    0.55
   2  10   1    6.27    0.36
   2  10   1    6.11    0.44
   1   9  -1    0.27    0.10
  -1  -9  -1    0.19    0.10
   1   9  -1    0.11    0.18
   1   9  -1    0.22    0.10
   1   9  -1    0.04    0.15
   1   9   1    0.16    0.16
   1   9   1    0.22    0.12
   1   9   1    0.16    0.12
   0   8  -1   52.00    1.28
   0   8  -1   52.38    1.36
   0   8  -1   49.44    1.33
   0  -8  -1   50.78    1.36
   0   8   1   50.09    1.39
   0   8   1   50.30    1.73
   0  -8   1   49.21    1.32
  -1   7  -1   10.43    0.40
   1  -7  -1   10.69    0.40
  -1   7   1    9.99    0.29
   1  -7   1   10.06    0.37
  -1   7   1    9.14    0.40
  -2   6  -1  123.95    3.11
  -2   6  -1  124.56    3.24
   2  -6  -1  125.12    3.09
  -2   6   1  126.91    3.11
   2  -6   1  128.90    3.08
   3  -5  -1    4.40    0.26
  -3   5  -1    3.97    0.37
  -3   5  -1    4.17    0.26
   3  -5  -1    4.36    0.24
  -3   5   1    3.65    0.23
   3  -5   1    3.87    0.23
   4  -4  -1   44.79    1.41
  -4   4  -1   44.69    1.44
   4  -4  -1   42.32    1.60
  -4   4  -1   44.34    1.24
   4  -4  -1   44.62    1.20
   4  -4   1   44.36    1.22
  -4   4   1   44.02    1.21
  -4   4   1   43.63    1.29
   5  -3  -1   66.61    2.08
   5  -3  -1   65.03    1.72
  -5   3  -1   66.68    1.77
   5  -3  -1   65.45    2.21
   5  -3   1   64.27    2.03
   5  -3   1   66.99    1.76
  -5   3   1   67.44    1.80
  -5   3   1   65.03    1.72
  -6   2  -1   12.23    0.53
   6  -2  -1   13.17    0.50
   6  -2  -1   13.12    0.80
   6  -2  -1   13.04    0.79
   6  -2   1   14.47    0.56
   6  -2   1   13.25    0.67
   6  -2   1   14.85    0.89
  -6   2   1   15.02    0.64
   7  -1  -1    0.32    0.12
  -7   1  -1    0.31    0.15
   7  -1  -1    0.29    0.23
   7  -1  -1    0.33    0.23
   7  -1   1    0.26    0.13
   7  -1   1    0.22    0.28
   8   0  -1    1.76    0.43
   8   0  -1    1.67    0.40
   8   0  -1    2.01    0.21
   8   0   1    1.71    0.23
   8   0   1    1.93    0.46
   8   0   1    1.00    0.39
   9   1  -1    4.78    0.65
   9   1  -1    5.23    0.40
   9   1  -1    4.73    0.69
   9   1  -1    4.13    0.32
   9   1   1    5.80    0.78
   9   1   1    5.91    0.77
   9   1   1    4.65    0.37
  10   2  -1    1.05    0.24
  10   2  -1    0.34    0.38
  10   2  -1    0.96    0.45
  10   2  -1    1.04    0.20
  10   2   1    0.99    0.22
  10   2   1    0.70    0.45
  10   2   1    1.24    0.48
   6  14  -2    2.48    0.31
   6  14   2    2.46    0.32
   5  13  -2   11.60    0.94
   5  13  -2    9.81    0.43
   5  13  -2    9.84    0.54
   5  13  -2   10.14    0.65
   5  13   2   10.59    0.57
   5  13   2    7.69    0.89
   4  12  -2   16.53    0.76
   4  12  -2   14.96    0.55
   4  12  -2   17.04    0.66
   4  12  -2   15.02    1.03
   4  12   2   14.76    1.06
   4  12   2   15.13    0.68
   3  11  -2   12.67    0.54
   3  11  -2   13.51    0.92
   3  11  -2   14.49    0.66
   3  11  -2   14.49    0.51
  -3 -11  -2   13.99    0.58
   3  11   2   13.37    0.61
   3  11   2   10.88    0.86
   2  10  -2   14.85    0.64
  -2 -10  -2   15.81    0.60
   2  10  -2   15.46    0.91
   2  10  -2   15.41    0.53
   2  10  -2   15.10    0.57
   2  10   2   14.78    0.90
   2  10   2   14.98    0.62
  -1  -9  -2    0.47    0.13
   1   9  -2    0.46    0.11
   1   9  -2    0.28    0.10
   1   9  -2    0.52    0.16
   1   9   2    0.70    0.25
   1   9   2    0.54    0.15
   0   8  -2   11.00    0.45
   0   8  -2   10.77    0.42
   0  -8  -2   10.88    0.44
   0   8   2   10.94    0.47
   0   8   2   11.44    0.65
   0   8   2   10.54    0.40
   1  -7  -2   78.02    2.00
  -1   7  -2   78.83    1.99
  -1   7  -2   79.87    2.27
   1  -7   2   76.41    1.94
  -1   7   2   75.18    2.02
  -2   6  -2   11.59    0.44
  -2   6  -2   11.48    0.65
   2  -6  -2   11.03    0.43
  -2   6   2   11.57    0.46
   2  -6   2   11.93    0.43
   3  -5  -2  158.72    3.95
  -3   5  -2  165.33    4.16
  -3   5  -2  161.30    4.00
   3  -5  -2  162.30    4.62
  -3   5   2  166.59    3.97
   3  -5   2  163.11    3.96
   4  -4  -2   92.17    2.58
  -4   4  -2   91.18    2.36
   4  -4  -2   90.76    2.28
   4  -4   2   89.69    2.33
  -4   4   2   91.22    2.30
   5  -3  -2   54.81    2.07
  -5   3  -2   53.97    1.56
   5  -3  -2   55.22    1.84
   5  -3  -2   56.03    1.48
   5  -3   2   59.22    1.56
   6  -2  -2   26.91    0.82
   6  -2  -2   29.01    1.36
   6  -2  -2   27.56    1.21
  -6   2  -2   26.79    0.92
   6  -2   2   27.10    0.90
   7  -1  -2   16.63    0.97
   7  -1  -2   16.02    0.87
  -7   1  -2   16.04    0.67
   7  -1  -2   14.75    0.55
   7  -1   2   15.46    1.06
   7  -1   2   15.47    0.64
   8   0  -2    0.35    0.16
   8   0  -2    0.02    0.23
   8   0  -2    0.69    0.14
   8   0   2    0.76    0.35
   8   0   2    0.89    0.20
   8   0   2    0.32    0.34
   9   1  -2    4.23    0.67
   9   1  -2    5.99    0.45
   9   1  -2    5.53    0.33
   9   1   2    5.48    0.41
   9   1   2    5.81    0.82
   9   1   2    5.95    0.80
  10   2  -2   11.70    1.09
  10   2  -2    9.80    0.60
  10   2  -2    9.42    0.45
  10   2   2    8.53    1.03
  10   2   2    8.99    0.56
   5  13  -3    0.82    0.40
   5  13  -3    0.54    0.20
   5  13  -3    0.75    0.30
   5  13   3    0.76    0.40
   5  13   3    0.97    0.24
   4  12  -3    6.83    0.42
   4  12  -3    7.29    0.75
   4  12  -3    6.40    0.50
   4  12   3    5.62    0.72
   4  12   3    6.31    0.45
  -3 -11  -3   17.65    0.71
   3  11  -3   17.39    0.57
   3  11  -3   18.00    0.68
   3  11  -3   17.66    0.77
   3  11   3   16.72    1.07
   3  11   3   17.50    0.75
   2  10  -3   25.88    0.84
  -2 -10  -3   26.01    0.89
   2  10  -3   24.76    0.75
   2  10  -3   25.24    0.91
   2  10   3   25.62    0.92
   2  10   3   25.06    1.24
   1   9  -3   72.22    1.95
  -1  -9  -3   72.83    1.96
   1   9  -3   72.22    1.85
   1   9   3   72.93    2.40
   1   9   3   71.61    1.99
   0   8  -3   45.00    1.22
   0   8  -3   43.44    1.26
   0  -8  -3   43.40    1.28
   0  -8  -3   45.06    1.73
   0   8   3   45.82    1.32
   0   8   3   44.56    1.57
  -1   7  -3   99.01    2.43
   1  -7  -3  103.82    3.11
   1  -7  -3   96.74    2.49
  -1   7  -3   96.98    2.76
  -1   7  -3   96.39    2.46
  -1   7   3   93.47    2.50
   2  -6  -3   27.87    0.84
   2  -6  -3   28.30    1.30
  -2   6  -3   26.69    0.86
  -2   6  -3   27.47    0.83
  -2   6  -3   27.85    1.14
  -2   6   3   28.47    0.87
   2  -6   3   28.52    0.83
   3  -5  -3   19.52    0.65
   3  -5  -3   19.63    1.07
  -3   5  -3   20.07    0.64
  -3   5  -3   20.50    0.71
  -3   5  -3   18.24    0.94
   3  -5   3   21.91    0.68
  -3   5   3   22.38    0.68
  -4   4  -3   18.99    0.69
   4  -4  -3   19.70    0.62
   4  -4  -3   20.24    1.11
   4  -4   3   16.94    0.65
   5  -3  -3   47.74    1.32
  -5   3  -3   49.12    1.45
   5  -3   3   50.92    1.43
   6  -2  -3   19.60    0.63
   6  -2   3   19.40    0.74
   7  -1  -3    7.64    0.46
   7  -1  -3    6.98    0.34
   7  -1  -3    7.29    0.67
   7  -1   3    7.32    0.44
   8   0  -3   15.13    1.03
   8   0  -3   14.82    0.69
   8   0  -3   14.12    0.51
   8   0   3   12.80    1.12
   8   0   3   12.62    1.03
   8   0   3   15.08    0.69
   9   1  -3   14.48    1.10
   9   1  -3   14.13    0.52
   9   1  -3   13.47    0.70
   9   1   3   14.09    1.18
   9   1   3   12.94    1.10
   9   1   3   13.50    0.68
  10   2  -3    4.63    0.77
  10   2  -3    5.81    0.50
  10   2   3    5.08    0.45
   5  13  -4    0.80    0.22
   5  13  -4    1.60    0.38
   5  13   4    0.73    0.26
  -4 -12  -4    1.06    0.24
   4  12  -4    1.15    0.23
   4  12  -4    1.01    0.30
   4  12   4    1.11    0.26
   4  12   4    0.66    0.35
   3  11  -4    3.19    0.36
  -3 -11  -4    3.29    0.32
   3  11   4    3.83    0.36
   3  11   4    3.29    0.55
   2  10  -4    4.58    0.39
  -2 -10  -4    4.56    0.35
   2  10  -4    4.20    0.23
   2  10   4    4.64    0.36
   2  10   4    4.78    0.56
   1   9  -4    2.17    0.18
  -1  -9  -4    1.96    0.23
   1   9  -4    1.98    0.26
   1   9   4    1.73    0.35
   1   9   4    2.28    0.26
   0  -8  -4   46.11    1.35
   0  -8  -4   49.51    1.85
   0   8  -4   45.59    1.34
   0   8  -4   44.81    1.25
   0   8   4   43.21    1.35
   0   8   4   45.43    1.59
  -1   7  -4    3.98    0.31
  -1   7  -4    4.03    0.47
  -1   7  -4    4.35    0.28
   1  -7  -4    4.09    0.28
   1  -7  -4    4.30    0.54
  -1   7   4    3.73    0.29
  -2   6  -4   13.76    0.55
  -2   6  -4   13.90    0.55
  -2   6  -4   13.40    0.82
   2  -6  -4   13.66    0.53
  -3   5  -4    1.16    0.19
   3  -5  -4    1.01    0.15
  -3   5  -4    1.29    0.18
  -3   5  -4    1.25    0.33
   4  -4  -4    5.25    0.29
   4  -4  -4    5.69    0.31
   4  -4   4    5.30    0.34
   5  -3  -4   27.93    0.82
  -5   3  -4   25.54    0.94
   5  -3  -4   27.89    0.93
   5  -3   4   26.08    0.91
  -6   2  -4    0.64    0.20
   6  -2  -4    1.17    0.14
   6  -2  -4    0.95    0.21
   6  -2   4    1.00    0.20
   7  -1  -4    6.33    0.30
   7  -1  -4    6.36    0.44
  -7   1  -4    5.86    0.45
   7  -1   4    6.39    0.44
   8   0  -4    3.32    0.36
  -8   0  -4    3.35    0.38
   8   0   4    4.14    0.70
   8   0   4    2.52    0.32
   9   1  -4    0.39    0.21
   9   1   4    0.03    0.41
   9   1   4    0.32    0.20
   4  12  -5   14.62    0.82
  -4 -12  -5   14.86    0.75
   4  12   5   14.50    0.76
  -3 -11  -5   14.49    0.71
   3  11  -5   15.25    0.77
   3  11   5   13.73    0.71
  -2 -10  -5    7.86    0.48
   2  10  -5    7.42    0.52
   2  10   5    7.69    0.48
   1   9  -5    7.52    0.50
   1   9  -5    7.94    0.35
  -1  -9  -5    7.93    0.47
   1   9   5    8.68    0.49
   0   8  -5   25.56    0.94
   0  -8  -5   25.87    0.93
   0   8  -5   26.49    0.82
   1  -7  -5    6.34    0.39
  -1   7  -5    6.10    0.40
  -1   7  -5    6.65    0.36
  -1   7  -5    6.03    0.61
  -2   6  -5   27.41    0.92
   2  -6  -5   28.20    0.92
  -2   6  -5   29.18    1.33
  -2   6  -5   28.08    0.96
   3  -5  -5   29.39    0.96
  -3   5  -5   32.44    1.44
   3  -5  -5   30.87    0.97
  -3   5  -5   32.07    1.05
  -3   5  -5   31.74    1.02
   4  -4  -5   24.97    0.79
   4  -4  -5   23.48    0.82
   4  -4  -5   23.87    0.85
   5  -3  -5   20.63    0.67
   5  -3  -5   19.69    0.78
  -5   3  -5   19.25    0.81
   6  -2  -5    3.44    0.23
   6  -2  -5    3.58    0.34
  -6   2  -5    3.36    0.35
   6  -2   5    2.98    0.31
   7  -1  -5    2.23    0.31
  -7   1  -5    2.35    0.32
   7  -1   5    0.98    0.24
   7  -1   5    1.14    0.43
  -8   0  -5   31.35    1.23
   8   0  -5   33.88    1.25
   8   0   5   31.73    1.21
   3  11  -6    2.78    0.41
  -3 -11  -6    2.30    0.33
   3  11   6    2.39    0.34
   2  10  -6    6.76    0.53
  -2 -10  -6    5.48    0.46
  -1  -9  -6    9.73    0.56
   1   9  -6    9.40    0.58
   0   8  -6   22.27    0.94
   0   8  -6   24.05    0.79
   0  -8  -6   23.29    0.90
  -1   7  -6    7.52    0.72
  -1   7  -6    7.26    0.40
   1  -7  -6    7.09    0.43
  -1   7  -6    6.98    0.48
   2  -6  -6   12.71    0.57
  -2   6  -6   12.91    0.58
  -2   6  -6   12.39    0.89
  -2   6  -6   12.94    0.64
  -3   5  -6    2.94    0.31
  -3   5  -6    3.64    0.35
  -3   5  -6    4.47    0.64
   3  -5  -6    3.12    0.27
   4  -4  -6    1.55    0.25
  -4   4  -6    1.18    0.23
   4  -4  -6    1.11    0.21
   4  -4  -6    1.21    0.18
  -5   3  -6    3.22    0.35
   5  -3  -6    3.52    0.26
   5  -3  -6    4.32    0.36
   5  -3  -6    3.72    0.34
  -6   2  -6    9.39    0.59
   6  -2  -6    8.59    0.55
   7  -1  -6    2.23    0.34
  -7   1  -6    2.47    0.35
   7  -1   6    1.31    0.50
  -1  -9  -7    3.41    0.38
   1   9  -7    4.90    0.47
   0   8  -7    3.79    0.43
   0  -8  -7    3.85    0.38
  -1   7  -7    3.07    0.30
   1  -7  -7    3.14    0.32
  -1   7  -7    2.43    0.36
  -2   6  -7    5.11    0.47
  -2   6  -7    5.46    0.40
   2  -6  -7    4.37    0.36
   3  -5  -7    3.10    0.36
  -3   5  -7    2.45    0.35
   3  -5  -7    2.44    0.26
  -3   5  -7    1.70    0.50
  -3   5  -7    2.91    0.33
  -4   4  -7    1.62    0.52
   4  -4  -7    1.39    0.21
  -4   4  -7    1.23    0.29
   4  -4  -7    0.90    0.25
  -5   3  -7    9.36    0.58
   5  -3  -7    9.82    0.59
  -5   3  -7    9.73    0.61
   5  -3  -7    9.17    0.57
   6  15   0    0.49    0.18
   6  15   0    0.00    0.16
   5  14   0    0.02    0.14
   5  14   0    0.05    0.28
   5  14   0   -0.04    0.13
   4  13   0    0.87    0.37
   4  13   0    1.08    0.20
   4  13   0    0.89    0.19
   3  12   0    0.51    0.15
   3  12   0    0.29    0.13
   3  12   0    0.23    0.24
   2  11   0    8.12    0.41
   2  11   0    8.36    0.38
   2  11   0    8.48    0.70
   1  10   0   10.39    0.73
  -1 -10   0    9.79    0.40
   1  10   0   10.12    0.44
   1  10   0    9.57    0.38
   0  -9   0   -0.01    0.08
   0   9   0   -0.03    0.06
   0   9   0   -0.09    0.09
   1  -8   0   51.30    1.38
  -1   8   0   52.65    1.26
  -1   8   0   52.22    1.42
   2  -7   0   16.18    0.54
  -2   7   0   15.64    0.56
   3  -6   0    1.51    0.15
  -3   6   0    1.75    0.28
  -3   6   0    1.15    0.15
   4  -5   0    3.61    0.34
  -4   5   0    3.87    0.37
  -4   5   0    3.70    0.26
   4  -5   0    3.70    0.24
  -5   4   0    1.28    0.26
   5  -4   0    1.34    0.27
  -5   4   0    1.16    0.16
   5  -4   0    1.66    0.32
   5  -4   0    1.27    0.16
  -6   3   0    2.67    0.35
   6  -3   0    2.33    0.37
  -6   3   0    2.26    0.22
   6  -3   0    2.95    0.39
   6  -3   0    2.62    0.23
   7  -2   0   29.77    0.95
   7  -2   0   29.67    1.39
   8  -1   0   -0.28    0.19
   8  -1   0    0.05    0.12
   8  -1   0    0.00    0.22
   9   0   0    0.10    0.13
   9   0   0   -0.30    0.22
   9   0   0    0.03    0.27
  10   1   0    7.75    0.88
  10   1   0    7.20    0.45
  10   1   0    7.59    0.91
   6  15  -1    1.71    0.23
   6  15  -1    1.15    0.25
   6  15   1    1.60    0.27
   5  14  -1   25.14    0.93
   5  14  -1   23.75    1.47
   5  14  -1   26.34    0.89
   5  14   1   25.77    0.96
   5  14   1   26.52    1.57
   4  13  -1    7.94    0.82
   4  13  -1    7.45    0.40
   4  13  -1    8.93    0.46
   4  13   1    7.57    0.46
   4  13   1    8.13    0.83
   3  12  -1    8.97    0.56
   3  12  -1    7.74    0.41
   3  12  -1    7.77    0.40
   3  12  -1    6.30    0.69
   3  12   1    9.16    0.47
   3  12   1    8.85    0.76
   2  11  -1   12.33    0.85
   2  11  -1   12.86    0.58
   2  11  -1   12.17    0.49
  -2 -11  -1   11.70    0.49
   2  11  -1   12.74    0.49
   2  11   1   10.58    0.78
   2  11   1   10.14    0.50
  -1 -10  -1   68.75    1.80
   1  10  -1   69.84    1.71
   1  10  -1   67.40    1.79
   1  10  -1   68.69    1.80
   1  10  -1   66.26    2.31
   1  10   1   63.96    2.28
   1  10   1   66.22    1.84
   0   9  -1    1.17    0.18
   0  -9  -1    0.88    0.14
   0   9  -1    1.24    0.16
   0   9  -1    1.07    0.13
   0  -9   1    1.14    0.14
   0   9   1    1.22    0.17
   0   9   1    1.28    0.29
  -1   8  -1   41.95    1.17
   1  -8  -1   41.40    1.16
  -1   8   1   41.12    1.19
   1  -8   1   41.43    1.13
  -1   8   1   41.58    1.00
  -2   7  -1   15.62    0.54
  -2   7   1   14.03    0.53
   2  -7   1   13.83    0.50
  -3   6  -1   63.55    1.71
   3  -6  -1   62.52    1.67
   3  -6  -1   66.09    1.72
  -3   6  -1   62.54    1.92
  -3   6   1   64.28    1.70
   3  -6   1   65.19    1.68
   4  -5  -1    6.11    0.30
  -4   5  -1    5.56    0.47
  -4   5  -1    6.68    0.34
   4  -5  -1    6.19    0.38
   4  -5  -1    5.76    0.54
   4  -5   1    4.93    0.29
  -4   5   1    4.25    0.28
  -5   4  -1   50.02    1.41
   5  -4  -1   50.10    1.36
   5  -4  -1   49.60    1.65
   5  -4  -1   51.40    1.85
  -5   4  -1   50.41    1.65
   5  -4   1   47.67    1.38
  -5   4   1   49.31    1.37
  -5   4   1   50.71    1.48
   6  -3  -1    8.49    0.38
   6  -3  -1    7.73    0.58
   6  -3  -1    7.47    0.62
  -6   3  -1    8.31    0.43
   6  -3   1    7.57    0.52
  -6   3   1    7.42    0.47
   6  -3   1    7.64    0.39
   6  -3   1    7.89    0.67
   7  -2  -1   60.99    2.22
   7  -2  -1   61.75    1.68
  -7   2  -1   61.29    1.74
   7  -2  -1   61.27    2.21
   7  -2   1   61.66    1.73
   7  -2   1   62.52    2.31
   8  -1  -1   12.68    0.89
   8  -1  -1   13.05    0.92
   8  -1  -1   12.00    0.52
   8  -1   1   11.06    0.91
   8  -1   1   13.05    0.58
   9   0  -1   35.15    1.09
   9   0  -1   31.36    1.60
   9   0  -1   35.28    1.75
   9   0   1   33.34    1.73
   9   0   1   34.56    1.15
   9   0   1   33.71    1.78
  10   1  -1    8.24    0.54
  10   1  -1    8.42    0.95
  10   1  -1    8.76    0.46
  10   1   1   10.15    0.55
  10   1   1    9.09    0.99
  10   1   1    9.01    0.99
   5  14  -2    3.80    0.70
   5  14  -2    3.59    0.28
   5  14  -2    4.80    0.52
   5  14  -2    3.45    0.34
   5  14   2    4.45    0.72
   5  14   2    4.48    0.39
   4  13  -2    4.37    0.28
   4  13  -2    4.27    0.33
   4  13  -2    4.86    0.69
   4  13  -2    4.07    0.42
   4  13   2    5.28    0.70
   4  13   2    4.30    0.37
   3  12  -2    1.55    0.21
   3  12  -2    2.08    0.31
   3  12  -2    1.42    0.17
   3  12  -2    2.12    0.48
   3  12   2    2.78    0.51
   3  12   2    1.66    0.24
   2  11  -2    8.36    0.41
   2  11  -2    8.23    0.50
  -2 -11  -2    8.58    0.43
   2  11  -2    8.18    0.37
   2  11   2    6.45    0.65
   2  11   2    7.65    0.44
   1  10  -2    9.57    0.40
   1  10  -2    9.28    0.48
  -1 -10  -2    8.77    0.42
   1  10  -2    8.82    0.39
   1  10   2   10.54    0.71
   1  10   2    8.92    0.45
   0  -9  -2   39.93    1.16
   0   9  -2   39.39    1.14
   0   9  -2   40.29    1.13
   0   9   2   39.09    1.19
   0   9   2   39.94    1.51
  -1   8  -2   22.80    0.72
   1  -8  -2   22.54    0.72
  -1   8  -2   22.89    0.70
  -1   8   2   20.59    0.74
   1  -8   2   21.70    0.67
   2  -7  -2   42.14    1.16
  -2   7  -2   42.52    1.17
  -2   7  -2   41.35    1.46
  -2   7   2   38.86    1.17
   2  -7   2   40.27    1.13
  -3   6  -2   31.06    0.95
  -3   6  -2   30.51    1.20
   3  -6  -2   31.05    1.38
   3  -6  -2   30.59    0.91
   3  -6   2   30.74    0.91
  -3   6   2   31.73    0.93
   4  -5  -2   33.75    1.45
  -4   5  -2   33.72    1.01
  -4   5  -2   32.51    1.27
   4  -5  -2   33.60    0.95
  -4   5   2   30.86    0.95
   4  -5   2   30.81    0.96
   5  -4  -2    2.87    0.21
   5  -4  -2    2.03    0.29
  -5   4  -2    2.54    0.24
   5  -4  -2    2.68    0.45
   5  -4   2    1.96    0.21
   6  -3  -2    9.01    0.63
   6  -3  -2    8.16    0.38
  -6   3  -2    8.36    0.44
   6  -3   2    8.83    0.44
   7  -2  -2   22.22    1.07
  -7   2  -2   21.30    0.82
   7  -2  -2   21.82    0.72
   7  -2  -2   22.69    1.14
   7  -2   2   22.00    0.81
   8  -1  -2   17.95    0.65
   8  -1  -2   17.00    1.08
  -8   1  -2   18.27    0.75
   8  -1   2   18.04    0.74
   8  -1   2   17.70    1.19
   9   0  -2    3.73    0.62
   9   0  -2    4.55    0.40
   9   0  -2    4.34    0.30
   9   0   2    3.83    0.36
   9   0   2    3.87    0.71
   9   0   2    4.61    0.73
  10   1  -2    1.49    0.29
  10   1  -2    1.08    0.43
  10   1  -2    1.96    0.23
  10   1   2    1.40    0.27
  10   1   2    1.60    0.59
   5  14  -3    1.19    0.25
   5  14  -3    1.71    0.38
   5  14   3    1.17    0.27
   4  13  -3    1.33    0.33
   4  13  -3    1.22    0.23
   4  13   3    1.29    0.42
   4  13   3    1.62    0.27
   3  12  -3    2.97    0.28
   3  12  -3    2.52    0.33
  -3 -12  -3    2.51    0.28
   3  12  -3    2.83    0.21
   3  12   3    2.12    0.28
   3  12   3    2.50    0.51
  -2 -11  -3   13.93    0.61
   2  11  -3   14.23    0.66
   2  11  -3   14.10    0.50
   2  11  -3   14.35    0.58
   2  11   3   13.20    0.62
   2  11   3   11.94    0.87
   1  10  -3    6.69    0.33
   1  10  -3    7.54    0.43
  -1 -10  -3    7.02    0.40
   1  10   3    6.98    0.43
   1  10   3    6.26    0.58
   0  -9  -3    1.68    0.20
   0   9  -3    2.18    0.24
   0   9  -3    1.79    0.18
   0   9   3    1.67    0.32
   0   9   3    1.54    0.21
   1  -8  -3   20.64    1.12
   1  -8  -3   21.23    0.73
  -1   8  -3   20.78    1.01
  -1   8  -3   22.52    0.71
  -1   8  -3   21.47    0.72
  -1   8   3   20.52    0.74
   2  -7  -3   20.19    1.07
  -2   7  -3   18.16    0.93
  -2   7  -3   18.32    0.65
  -2   7  -3   18.21    0.61
   2  -7  -3   17.46    0.63
  -2   7   3   18.61    0.66
  -3   6  -3    5.74    0.55
   3  -6  -3    5.47    0.59
  -3   6  -3    5.78    0.34
  -3   6  -3    6.08    0.30
   3  -6  -3    5.88    0.31
   3  -6   3    5.46    0.30
  -3   6   3    5.65    0.32
  -4   5  -3   22.48    1.09
  -4   5  -3   23.50    0.80
  -4   5  -3   23.10    0.70
   4  -5  -3   23.09    0.73
   4  -5   3   21.46    0.75
  -5   4  -3   11.58    0.53
   5  -4  -3   10.95    0.44
   5  -4   3   10.45    0.49
   6  -3  -3   26.34    0.82
  -6   3  -3   26.27    0.94
   6  -3   3   27.37    0.93
  -7   2  -3    4.08    0.35
   7  -2  -3    4.32    0.27
   7  -2   3    4.69    0.36
   8  -1  -3    1.19    0.37
   8  -1  -3    1.51    0.18
  -8   1  -3    1.56    0.27
   8  -1  -3    1.14    0.24
   8  -1   3    1.67    0.25
   9   0  -3    0.11    0.25
   9   0  -3    0.29    0.13
   9   0  -3    0.23    0.19
   9   0   3   -0.52    0.28
   9   0   3   -0.10    0.14
   9   0   3    0.09    0.29
  10   1  -3    5.89    0.50
  10   1  -3    6.19    0.83
  10   1   3    5.90    0.46
   4  13  -4    9.32    0.53
   4  13  -4    9.17    0.64
   4  13   4    8.49    0.57
   4  13   4    8.56    0.92
  -3 -12  -4   12.45    0.63
   3  12  -4   14.27    0.74
   3  12   4   14.57    1.02
   3  12   4   14.07    0.69
   2  11  -4   26.36    0.99
  -2 -11  -4   25.99    0.95
   2  11  -4   26.80    0.78
   2  11   4   25.82    1.31
   2  11   4   24.34    0.97
  -1 -10  -4    3.47    0.31
   1  10  -4    3.55    0.33
   1  10  -4    3.55    0.23
   1  10   4    3.16    0.32
   1  10   4    4.43    0.51
   0  -9  -4   69.92    1.94
   0   9  -4   71.72    1.85
   0   9  -4   68.21    1.91
   0   9   4   70.08    2.28
   0   9   4   68.85    1.96
   1  -8  -4   17.93    0.67
  -1   8  -4   17.12    0.62
  -1   8  -4   16.30    0.92
  -1   8  -4   16.92    0.66
  -1   8   4   17.63    0.68
   2  -7  -4   38.71    1.14
  -2   7  -4   37.21    1.14
  -2   7  -4   38.16    1.52
  -2   7  -4   37.33    1.12
  -3   6  -4   40.77    1.22
   3  -6  -4   39.66    1.17
  -3   6  -4   39.73    1.60
  -3   6  -4   40.36    1.17
  -4   5  -4   69.84    1.94
   4  -5  -4   69.45    1.84
  -4   5  -4   69.05    1.82
  -4   5  -4   72.32    2.38
   4  -5   4   67.30    1.88
   5  -4  -4   12.19    0.48
  -5   4  -4   11.87    0.58
   5  -4   4   12.77    0.57
   6  -3  -4   14.48    0.54
  -6   3  -4   14.72    0.69
   6  -3  -4   15.05    0.66
   6  -3   4   15.33    0.65
   7  -2  -4    5.39    0.41
   7  -2  -4    5.90    0.31
  -7   2  -4    6.27    0.45
   7  -2   4    6.36    0.44
  -8   1  -4   23.92    0.99
   8  -1  -4   25.36    0.78
   8  -1  -4   25.82    1.00
   8  -1   4   23.63    0.95
   8  -1   4   21.65    1.42
   9   0  -4    0.71    0.25
  -9   0  -4    0.68    0.26
   9   0   4    0.50    0.21
   9   0   4    0.53    0.49
   4  13  -5    0.82    0.32
  -4 -13  -5    0.62    0.23
   4  13   5    0.61    0.25
   3  12  -5    1.26    0.33
  -3 -12  -5    1.10    0.26
   3  12   5    1.04    0.27
   2  11  -5    1.47    0.31
  -2 -11  -5    1.55    0.26
   2  11   5    0.86    0.24
   1  10  -5    3.06    0.35
   1  10  -5    2.77    0.22
  -1 -10  -5    3.26    0.32
   1  10   5    2.29    0.30
   0  -9  -5   13.77    0.63
   0   9  -5   13.56    0.53
   0   9  -5   13.19    0.63
   1  -8  -5    3.38    0.30
  -1   8  -5    4.94    0.32
  -1   8  -5    4.27    0.56
  -1   8  -5    4.10    0.35
  -2   7  -5    3.05    0.27
  -2   7  -5    2.97    0.49
   2  -7  -5    3.16    0.27
  -2   7  -5    3.03    0.30
  -3   6  -5    7.07    0.71
   3  -6  -5    7.29    0.40
   3  -6  -5    8.16    0.40
  -3   6  -5    7.70    0.44
  -3   6  -5    6.68    0.42
  -4   5  -5    1.37    0.22
  -4   5  -5    1.22    0.23
   4  -5  -5    1.29    0.20
   4  -5  -5    1.25    0.18
   4  -5  -5    1.07    0.19
  -4   5  -5    0.62    0.31
   5  -4  -5    0.71    0.15
   5  -4  -5    0.40    0.16
  -5   4  -5    0.38    0.18
   6  -3  -5    2.11    0.28
   6  -3  -5    2.04    0.20
   6  -3   5    1.79    0.27
   7  -2  -5   12.52    0.66
   7  -2   5   13.99    0.67
   8  -1  -5    5.96    0.50
   8  -1   5    5.46    0.46
  -2 -11  -6    9.39    0.58
   2  11  -6    8.79    0.64
   1  10  -6    0.79    0.27
  -1 -10  -6    0.70    0.22
   0   9  -6   10.82    0.48
   0  -9  -6   10.76    0.59
   0   9  -6   11.64    0.65
   1  -8  -6    5.75    0.41
  -1   8  -6    5.95    0.68
  -1   8  -6    5.35    0.43
  -1   8  -6    5.51    0.36
  -2   7  -6   14.04    0.62
   2  -7  -6   13.41    0.62
  -2   7  -6   13.83    0.68
  -2   7  -6   13.99    0.97
   3  -6  -6    1.87    0.23
  -3   6  -6    1.44    0.24
  -3   6  -6    1.38    0.26
  -3   6  -6    0.95    0.37
  -4   5  -6    9.65    0.55
   4  -5  -6   10.00    0.54
   4  -5  -6   10.29    0.53
  -4   5  -6   10.15    0.56
   4  -5  -6   10.53    0.49
  -4   5  -6   10.12    0.92
  -5   4  -6    7.73    0.52
  -5   4  -6    7.89    0.49
   5  -4  -6    8.02    0.40
   5  -4  -6    6.98    0.48
   6  -3  -6   14.03    0.55
   6  -3  -6   14.26    0.70
   7  -2  -6    0.41    0.23
   7  -2   6    0.18    0.36
   0   9  -7    4.20    0.44
   0  -9  -7    4.03    0.39
  -1   8  -7    3.87    0.41
   1  -8  -7    3.45    0.35
  -1   8  -7    3.73    0.32
  -2   7  -7    7.57    0.55
  -2   7  -7    8.49    0.50
   2  -7  -7    7.96    0.49
   3  -6  -7    7.24    0.52
  -3   6  -7    7.96    0.50
  -3   6  -7    6.66    0.81
   3  -6  -7    7.68    0.46
  -3   6  -7    8.82    0.57
  -4   5  -7    9.54    0.60
  -4   5  -7    9.37    0.57
   4  -5  -7    9.28    0.48
   4  -5  -7    9.44    0.57
  -4   5  -7    8.97    0.95
  -5   4  -7   11.42    0.67
   5  -4  -7   12.46    0.54
  -5   4  -7   12.05    0.67
   5  -4  -7   11.93    0.64
  -5   4  -7   12.55    1.11
   5  15   0    2.93    0.32
   5  15   0    3.00    0.31
   4  14   0   15.53    0.67
   4  14   0   15.47    0.65
   4  14   0   15.98    1.16
   3  13   0    7.69    0.43
   3  13   0    7.98    0.41
   3  13   0    7.78    0.78
   2  12   0   24.69    1.31
   2  12   0   25.91    0.89
   2  12   0   27.69    0.84
   1  11   0   35.26    1.00
   1  11   0   36.49    1.57
   1  11   0   36.33    1.10
   0  10   0   16.78    0.52
   0 -10   0   16.53    0.58
   0  10   0   16.60    0.61
   1  -9   0   46.97    1.30
  -1   9   0   47.83    1.18
  -1   9   0   47.74    1.35
   2  -8   0  161.00    3.92
  -2   8   0  159.71    3.95
   3  -7   0   14.54    0.52
  -3   7   0   13.50    0.53
  -4   6   0   21.98    0.73
   4  -6   0   22.22    0.71
  -4   6   0   21.18    0.91
   5  -5   0    2.83    0.23
  -5   5   0    3.39    0.37
   5  -5   0    2.37    0.39
  -5   5   0    3.19    0.26
   5  -5   0    2.95    0.36
   6  -4   0   47.74    1.39
   6  -4   0   50.54    1.80
  -6   4   0   50.28    1.42
  -6   4   0   49.55    1.62
   6  -4   0   50.81    1.83
   7  -3   0    3.36    0.44
   7  -3   0    2.97    0.46
   7  -3   0    3.05    0.26
  -7   3   0    2.48    0.38
   8  -2   0    4.14    0.57
   8  -2   0    3.46    0.29
   9  -1   0   43.36    1.98
   9  -1   0   45.63    2.06
   9  -1   0   43.64    1.36
  10   0   0   17.51    0.74
  10   0   0   17.97    1.27
  10   0   0   16.33    1.26
  11   1   0    9.53    0.54
  11   1   0    9.96    0.58
   5  15  -1    0.82    0.21
   5  15  -1    0.69    0.18
   5  15   1    0.70    0.21
   4  14  -1    3.00    0.27
   4  14  -1    2.57    0.28
   4  14  -1    2.73    0.58
   4  14   1    2.02    0.51
   4  14   1    2.39    0.29
   3  13  -1   15.85    1.09
   3  13  -1   17.14    0.65
   3  13  -1   15.91    0.64
   3  13   1   16.63    0.69
   3  13   1   16.25    1.09
   2  12  -1    3.91    0.29
   2  12  -1    4.37    0.36
   2  12  -1    3.60    0.56
   2  12  -1    4.43    0.29
   2  12   1    4.28    0.32
   2  12   1    4.38    0.57
  -1 -11  -1   28.41    0.92
   1  11  -1   29.38    0.96
   1  11  -1   30.45    0.88
   1  11  -1   30.44    0.94
   1  11   1   31.83    1.40
   1  11   1   29.40    0.97
   0  10  -1   14.45    0.56
   0  10  -1   14.37    0.55
   0  10  -1   14.44    0.49
   0 -10  -1   14.84    0.55
   0  10   1   14.73    0.86
   0  10   1   14.34    0.46
   0  10   1   13.57    0.57
  -1   9  -1    0.17    0.13
  -1   9  -1    0.25    0.12
   1  -9  -1    0.18    0.10
   1  -9   1    0.18    0.09
  -1   9   1    0.21    0.06
  -1   9   1    0.15    0.10
  -2   8  -1   53.40    1.48
   2  -8  -1   53.16    1.46
   2  -8   1   53.80    1.45
  -2   8   1   55.94    1.50
  -3   7  -1    9.00    0.60
   3  -7  -1    9.76    0.40
  -3   7  -1   10.33    0.43
  -3   7   1    9.29    0.42
   3  -7   1    9.11    0.40
  -4   6  -1   13.27    0.52
   4  -6  -1   12.06    0.47
   4  -6  -1   13.40    0.55
  -4   6  -1   13.61    0.73
  -4   6   1   11.85    0.50
   4  -6   1   12.04    0.48
   5  -5  -1   45.81    1.51
  -5   5  -1   44.58    1.32
   5  -5  -1   47.58    1.79
   5  -5  -1   44.98    1.27
  -5   5  -1   45.77    1.58
  -5   5   1   44.50    1.42
  -5   5   1   45.20    1.29
   5  -5   1   45.56    1.29
   6  -4  -1   20.60    1.09
  -6   4  -1   19.73    0.74
   6  -4  -1   20.79    0.70
   6  -4  -1   19.56    0.95
  -6   4  -1   20.60    0.98
  -6   4   1   20.71    0.85
   6  -4   1   21.47    0.74
   6  -4   1   21.38    0.97
   7  -3  -1   10.36    0.46
   7  -3  -1   11.24    0.80
   7  -3  -1   10.32    0.74
  -7   3  -1   11.05    0.52
   7  -3   1   10.06    0.80
   7  -3   1   11.11    0.51
   8  -2  -1    0.89    0.17
   8  -2  -1    0.91    0.33
   8  -2   1    0.47    0.34
   8  -2   1    0.63    0.18
   9  -1  -1    5.76    0.71
   9  -1  -1    5.49    0.68
   9  -1  -1    4.74    0.34
   9  -1   1    3.87    0.66
   9  -1   1    4.14    0.68
   9  -1   1    4.81    0.37
  10   0  -1    0.07    0.14
  10   0  -1    0.23    0.31
  10   0   1    0.40    0.20
  10   0   1    0.40    0.40
  10   0   1   -0.02    0.34
   5  15  -2    4.73    0.40
   5  15  -2    4.20    0.31
   5  15   2    3.92    0.38
   4  14  -2   10.19    0.46
   4  14  -2   10.08    0.97
   4  14  -2    8.52    0.50
   4  14  -2   11.22    0.67
   4  14   2    8.29    0.90
   4  14   2    9.92    0.56
   3  13  -2    8.78    0.42
   3  13  -2    9.03    0.56
   3  13  -2    8.40    0.81
   3  13  -2    8.78    0.47
   3  13   2    9.17    0.52
   3  13   2    9.36    0.87
   2  12  -2   36.66    1.09
   2  12  -2   36.01    1.10
  -2 -12  -2   36.36    1.15
   2  12  -2   35.93    1.20
   2  12   2   35.72    1.64
   2  12   2   39.56    1.23
   1  11  -2    7.15    0.37
  -1 -11  -2    7.52    0.40
   1  11  -2    7.03    0.36
   1  11  -2    7.92    0.44
   1  11   2    7.24    0.62
   1  11   2    7.34    0.42
   0  10  -2   24.83    0.82
   0 -10  -2   25.31    0.83
   0  10  -2   25.24    0.80
   0  10   2   24.00    0.85
   0  10   2   24.00    1.15
   1  -9  -2    0.73    0.14
  -1   9  -2    0.79    0.14
  -1   9  -2    0.94    0.16
  -1   9   2    0.49    0.15
  -2   8  -2   24.11    0.76
  -2   8  -2   23.96    1.06
   2  -8  -2   23.74    0.76
  -2   8   2   22.22    0.77
   2  -8   2   21.58    0.71
  -3   7  -2    3.52    0.44
   3  -7  -2    4.33    0.54
   3  -7  -2    4.07    0.26
  -3   7  -2    4.47    0.29
   3  -7   2    3.86    0.26
  -3   7   2    4.25    0.29
  -4   6  -2   47.36    1.36
   4  -6  -2   47.04    1.86
  -4   6  -2   45.98    1.65
   4  -6  -2   46.76    1.30
   4  -6   2   45.87    1.31
  -4   6   2   46.21    1.32
  -5   5  -2   24.08    0.84
   5  -5  -2   23.16    0.95
   5  -5  -2   23.74    0.76
  -5   5  -2   22.20    1.08
   5  -5   2   25.15    0.81
   6  -4  -2   93.09    2.75
   6  -4  -2   87.47    2.28
  -6   4  -2   88.57    2.38
   6  -4   2   84.76    2.34
  -7   3  -2   18.95    0.74
   7  -3  -2   18.59    1.00
   7  -3  -2   18.71    0.65
   7  -3   2   16.21    0.70
   8  -2  -2    1.86    0.42
   8  -2  -2    2.04    0.21
  -8   2  -2    1.86    0.27
   8  -2   2    2.68    0.29
   8  -2   2    1.92    0.51
   9  -1  -2    4.34    0.65
   9  -1  -2    5.87    0.35
   9  -1   2    5.96    0.81
   9  -1   2    5.29    0.42
   9  -1   2    4.27    0.72
  10   0  -2    9.88    0.60
  10   0  -2    9.15    0.47
  10   0  -2    9.72    0.97
  10   0   2    9.59    0.57
  10   0   2   10.14    1.06
   4  14  -3    2.33    0.38
   4  14  -3    1.95    0.27
   4  14   3    1.16    0.26
   4  14   3    1.53    0.47
   3  13  -3   10.37    0.44
   3  13  -3   11.94    0.66
   3  13  -3   11.64    0.55
   3  13   3   10.94    0.60
   3  13   3   12.70    0.99
   2  12  -3    3.75    0.30
   2  12  -3    2.70    0.34
  -2 -12  -3    2.85    0.29
   2  12  -3    3.19    0.25
   2  12   3    4.61    0.60
   2  12   3    4.13    0.35
   1  11  -3   12.53    0.48
  -1 -11  -3   10.59    0.52
   1  11  -3   11.99    0.57
   1  11   3    9.99    0.76
   1  11   3   11.58    0.57
   0  10  -3    0.32    0.12
   0  10  -3    0.18    0.15
   0 -10  -3    0.07    0.11
   0  10   3    0.17    0.14
   0  10   3   -0.01    0.17
  -1   9  -3   72.48    1.91
  -1   9  -3   73.74    1.94
   1  -9  -3   72.18    1.97
  -1   9   3   74.01    2.01
  -2   8  -3   40.46    1.19
   2  -8  -3   39.52    1.18
  -2   8  -3   40.77    1.13
  -2   8  -3   39.87    1.54
  -2   8   3   39.53    1.20
  -3   7  -3   31.94    1.34
  -3   7  -3   31.64    0.92
  -3   7  -3   32.16    1.02
   3  -7  -3   32.22    0.98
  -3   7   3   32.97    1.01
   3  -7   3   33.06    0.98
  -4   6  -3   23.63    0.82
   4  -6  -3   23.38    0.76
  -4   6  -3   21.70    1.10
   4  -6   3   23.15    0.78
   5  -5  -3   59.87    1.67
  -5   5  -3   62.67    1.78
  -5   5  -3   64.49    2.18
   5  -5   3   64.19    1.75
   6  -4  -3    8.84    0.40
  -6   4  -3    8.96    0.50
   6  -4   3    8.14    0.45
  -7   3  -3   19.76    0.80
   7  -3  -3   19.79    0.67
   7  -3   3   17.73    0.75
   8  -2  -3    9.69    0.44
  -8   2  -3    9.57    0.57
   8  -2  -3    9.69    0.80
   8  -2   3   11.53    0.59
   9  -1  -3   14.05    0.55
   9  -1  -3   14.61    0.72
   9  -1  -3   11.79    0.97
   9  -1   3   12.74    0.67
   9  -1   3   15.25    1.22
   9  -1   3   14.03    1.14
  10   0  -3    2.92    0.25
  10   0  -3    3.39    0.39
  10   0   3    3.30    0.37
   4  14  -4    0.12    0.28
   4  14  -4    0.23    0.17
   4  14   4    0.27    0.21
  -3 -13  -4    6.80    0.47
   3  13  -4    7.37    0.58
   3  13   4    7.57    0.52
   3  13   4    7.42    0.81
   2  12  -4    0.86    0.25
   2  12  -4    0.91    0.14
  -2 -12  -4    1.37    0.24
   2  12   4    1.04    0.23
   2  12   4    0.72    0.33
   1  11  -4    7.28    0.35
   1  11  -4    6.88    0.46
  -1 -11  -4    7.59    0.46
   1  11   4    8.20    0.68
   1  11   4    7.79    0.48
   0 -10  -4   11.07    0.53
   0  10  -4   11.53    0.48
   0  10  -4   11.09    0.55
   0  10   4   11.01    0.55
  -1   9  -4    1.48    0.22
   1  -9  -4    1.51    0.21
  -1   9  -4    1.72    0.20
  -1   9   4    1.78    0.24
  -2   8  -4   14.11    0.88
  -2   8  -4   14.32    0.58
  -2   8  -4   13.84    0.57
   2  -8  -4   13.41    0.56
  -3   7  -4   10.12    0.49
  -3   7  -4    8.85    0.74
   3  -7  -4    9.79    0.45
  -3   7  -4    9.94    0.46
  -4   6  -4    0.08    0.12
  -4   6  -4   -0.16    0.12
  -4   6  -4    0.08    0.21
   4  -6  -4    0.03    0.11
  -5   5  -4    8.73    0.49
   5  -5  -4    7.81    0.39
  -5   5  -4    9.06    0.80
   5  -5   4    8.31    0.45
  -6   4  -4    0.59    0.20
   6  -4  -4    0.40    0.13
   6  -4   4    0.76    0.19
   7  -3  -4    3.33    0.25
  -7   3  -4    2.87    0.33
   7  -3  -4    3.94    0.36
   7  -3   4    3.09    0.33
  -8   2  -4    4.72    0.42
   8  -2  -4    4.11    0.40
   8  -2  -4    4.25    0.28
   8  -2   4    2.65    0.33
  -9   1  -4    0.22    0.20
   9  -1  -4   -0.04    0.16
   9  -1   4   -0.10    0.15
   9  -1   4   -0.63    0.40
  -3 -13  -5    9.13    0.59
   3  13  -5    9.21    0.64
   3  13   5    9.60    0.61
  -2 -12  -5   10.34    0.60
   2  12  -5   10.08    0.64
   2  12   5   10.84    0.61
   1  11  -5    5.46    0.45
  -1 -11  -5    5.37    0.40
   1  11   5    5.65    0.44
   0  10  -5   20.14    0.84
   0  10  -5   21.26    0.73
   0 -10  -5   21.13    0.84
   0  10   5   21.47    0.86
   1  -9  -5    8.74    0.48
  -1   9  -5    9.86    0.46
  -1   9  -5    9.19    0.51
  -2   8  -5    2.50    0.27
  -2   8  -5    1.68    0.42
  -2   8  -5    2.30    0.25
   2  -8  -5    2.29    0.25
  -3   7  -5   14.72    0.64
  -3   7  -5   14.68    0.97
   3  -7  -5   13.93    0.60
  -3   7  -5   14.42    0.63
   4  -6  -5   16.85    0.65
  -4   6  -5   15.88    0.71
   4  -6  -5   16.57    0.67
  -4   6  -5   19.17    0.71
  -4   6  -5   16.63    1.07
  -5   5  -5   42.64    1.42
  -5   5  -5   46.62    1.96
   5  -5  -5   43.56    1.37
   5  -5  -5   45.82    1.31
  -6   4  -5    8.15    0.52
   6  -4  -5    7.57    0.49
   6  -4  -5    8.30    0.40
   7  -3  -5   17.70    0.80
   7  -3  -5   17.24    0.63
  -7   3  -5   17.54    0.82
   7  -3   5   17.35    0.78
  -8   2  -5   37.76    1.40
   8  -2  -5   38.86    1.38
   8  -2   5   38.26    1.36
  -2 -12  -6    3.20    0.38
   2  12  -6    2.25    0.39
   1  11  -6    0.38    0.24
  -1 -11  -6    0.16    0.18
   0  10  -6   17.35    0.64
   0  10  -6   16.77    0.80
   0 -10  -6   16.44    0.76
  -1   9  -6   10.39    0.58
   1  -9  -6    9.96    0.55
  -1   9  -6    9.42    0.48
  -2   8  -6   25.70    0.97
   2  -8  -6   24.38    0.91
  -2   8  -6   24.08    0.89
  -2   8  -6   23.71    1.33
  -3   7  -6   10.72    0.57
  -3   7  -6   11.45    0.95
   3  -7  -6   10.78    0.54
  -3   7  -6   11.43    0.60
  -4   6  -6    5.98    0.45
   4  -6  -6    6.60    0.41
  -4   6  -6    6.73    0.79
  -4   6  -6    7.14    0.47
   5  -5  -6    4.75    0.33
   5  -5  -6    4.75    0.38
  -5   5  -6    5.24    0.75
  -5   5  -6    4.34    0.40
   6  -4  -6    7.54    0.51
   6  -4  -6    5.73    0.35
  -6   4  -6    5.83    0.47
  -7   3  -6    0.54    0.24
   7  -3  -6    0.68    0.26
   1  -9  -7    4.57    0.41
  -1   9  -7    4.19    0.35
  -1   9  -7    4.48    0.45
  -2   8  -7    3.93    0.42
   2  -8  -7    2.98    0.34
  -2   8  -7    3.10    0.33
  -3   7  -7    6.92    0.52
   3  -7  -7    5.65    0.42
  -3   7  -7    6.00    0.46
  -3   7  -7    6.94    0.83
   3  -7  -7    6.83    0.50
  -4   6  -7    1.73    0.31
   4  -6  -7    1.58    0.24
  -4   6  -7    1.65    0.30
  -4   6  -7    2.26    0.55
  -5   5  -7    2.90    0.36
   5  -5  -7    3.02    0.28
  -5   5  -7    3.35    0.70
  -5   5  -7    3.57    0.39
   5  16   0    2.49    0.30
   5  16   0    2.33    0.30
   4  15   0   -0.04    0.14
   4  15   0    0.00    0.14
   4  15   0    0.38    0.32
   3  14   0    5.53    0.73
   3  14   0    5.77    0.36
   3  14   0    5.12    0.37
   2  13   0    1.01    0.17
   2  13   0    0.51    0.31
   2  13   0    0.69    0.17
   1  12   0    0.15    0.13
   1  12   0    0.01    0.08
   1  12   0   -0.12    0.15
   0  11   0   -0.01    0.11
   0 -11   0    0.12    0.10
   0  11   0    0.00    0.07
   1 -10   0   11.78    0.47
  -1  10   0   11.47    0.38
  -1  10   0   10.39    0.48
  -2   9   0    3.61    0.28
   2  -9   0    3.29    0.24
  -3   8   0   58.18    1.62
   3  -8   0   59.00    1.58
  -4   7   0    0.71    0.23
  -4   7   0    1.03    0.17
   4  -7   0    0.70    0.14
  -5   6   0   41.08    1.43
   5  -6   0   39.98    1.18
   5  -6   0   39.82    1.42
  -5   6   0   40.54    1.20
  -6   5   0    4.84    0.46
   6  -5   0    4.59    0.32
  -6   5   0    5.32    0.35
   6  -5   0    4.89    0.54
   6  -5   0    4.97    0.49
   7  -4   0   14.78    0.59
   7  -4   0   14.68    0.90
   7  -4   0   14.56    0.88
  -7   4   0   14.06    0.79
   8  -3   0    4.31    0.33
  -8   3   0    4.35    0.49
   8  -3   0    3.93    0.55
   9  -2   0    1.67    0.24
   9  -2   0    1.09    0.43
   9  -2   0    1.08    0.40
  10  -1   0    7.30    0.87
  10  -1   0    8.14    0.91
  10  -1   0    7.81    0.47
  11   0   0    0.16    0.16
   5  16  -1    7.46    0.45
   5  16   1    6.94    0.48
   5  16   1    7.31    0.47
   4  15  -1    7.92    0.47
   4  15  -1    9.10    0.47
   4  15  -1    8.73    0.96
   4  15   1    8.04    0.50
   4  15   1    6.81    0.85
   4  15   1    7.80    0.45
   3  14  -1    1.03    0.20
   3  14  -1    1.44    0.43
   3  14  -1    1.42    0.21
   3  14   1    1.34    0.21
   3  14   1    1.05    0.23
   3  14   1    0.77    0.35
   2  13  -1   11.86    0.61
   2  13  -1   11.54    0.52
   2  13  -1   11.66    0.89
   2  13  -1   11.74    0.50
   2  13   1   10.60    0.85
   2  13   1   11.72    0.56
   2  13   1   10.70    0.46
  -1 -12  -1   36.53    1.12
   1  12  -1   36.83    1.06
   1  12  -1   37.47    1.13
   1  12  -1   35.13    1.13
   1  12   1   37.20    1.17
   1  12   1   37.20    1.02
   1  12   1   35.54    1.62
   0  11  -1   11.89    0.52
   0 -11  -1   12.66    0.52
   0  11  -1   12.58    0.53
   0  11  -1   12.90    0.46
   0  11   1   12.43    0.55
   0  11   1   12.43    0.43
   1 -10  -1   71.08    1.88
  -1  10  -1   69.52    1.79
  -1  10  -1   69.89    1.90
  -1  10   1   70.23    1.92
   1 -10   1   71.31    1.85
   2  -9  -1   27.45    0.86
  -2   9  -1   25.91    0.87
  -2   9   1   28.65    0.90
   2  -9   1   27.99    0.85
  -3   8  -1   46.61    1.66
   3  -8  -1   47.69    1.35
  -3   8  -1   48.29    1.39
   3  -8   1   49.47    1.35
  -3   8   1   49.91    1.40
   4  -7  -1   50.37    1.36
  -4   7  -1   49.32    1.67
  -4   7  -1   48.59    1.39
  -4   7   1   45.09    1.36
   4  -7   1   46.98    1.35
  -5   6  -1   22.79    0.80
  -5   6  -1   23.20    1.05
   5  -6  -1   22.88    0.91
   5  -6  -1   22.80    1.18
   5  -6  -1   22.66    0.76
   5  -6   1   23.27    0.78
  -5   6   1   23.49    0.78
  -6   5  -1   13.53    0.80
  -6   5  -1   12.80    0.57
   6  -5  -1   11.50    0.69
   6  -5  -1   11.55    0.82
   6  -5  -1   11.83    0.51
  -6   5   1   13.41    0.67
   6  -5   1   13.74    0.81
   6  -5   1   13.09    0.54
   7  -4  -1   37.08    1.49
  -7   4  -1   36.15    1.45
   7  -4  -1   35.65    1.10
  -7   4  -1   34.09    1.14
   7  -4   1   34.83    1.57
   7  -4   1   36.31    1.14
   8  -3  -1   14.10    0.58
   8  -3  -1   13.77    0.91
   8  -3   1   13.42    0.61
   8  -3   1   12.11    0.94
   9  -2  -1   12.95    0.57
   9  -2  -1   14.57    1.00
   9  -2  -1   10.72    0.91
   9  -2   1   12.49    1.01
   9  -2   1   11.88    0.60
  10  -1  -1    9.94    0.51
  10  -1  -1    8.83    0.92
  10  -1   1    9.92    1.00
  10  -1   1    8.35    0.96
  10  -1   1    9.02    0.53
   4  15  -2   10.67    0.72
   4  15  -2   10.87    0.50
   4  15  -2   11.38    1.04
   4  15  -2   10.48    0.57
   4  15   2   11.39    0.63
   3  14  -2    3.32    0.27
   3  14  -2    2.86    0.40
   3  14  -2    3.27    0.31
   3  14   2    3.84    0.36
   3  14   2    3.11    0.59
   2  13  -2    0.99    0.25
   2  13  -2    0.76    0.17
   2  13  -2    1.28    0.18
   2  13   2    0.70    0.30
   2  13   2    0.61    0.20
   1  12  -2   25.35    0.92
  -1 -12  -2   26.66    0.90
   1  12  -2   26.53    0.84
   1  12  -2   27.38    0.87
   1  12   2   25.54    0.93
   1  12   2   25.90    1.32
   0 -11  -2   28.42    0.93
   0  11  -2   28.45    0.91
   0  11  -2   28.05    0.93
   0  11   2   29.51    1.33
   0  11   2   27.69    0.97
   1 -10  -2    9.29    0.44
  -1  10  -2    8.88    0.42
  -1  10  -2    9.19    0.42
  -1  10   2    9.07    0.46
  -2   9  -2    2.09    0.22
  -2   9  -2    2.44    0.21
   2  -9  -2    2.12    0.21
  -2   9   2    3.57    0.27
   2  -9   2    3.02    0.23
   3  -8  -2   52.83    1.49
  -3   8  -2   52.83    1.52
  -3   8  -2   52.36    1.84
   3  -8   2   55.75    1.49
  -3   8   2   54.00    1.52
   4  -7  -2   37.47    1.08
  -4   7  -2   37.13    1.12
  -4   7  -2   38.69    1.47
  -4   7   2   33.15    1.07
   4  -7   2   34.43    1.07
  -5   6  -2    1.93    0.39
  -5   6  -2    2.63    0.26
   5  -6  -2    2.85    0.23
   5  -6   2    3.32    0.27
  -6   5  -2    5.85    0.59
   6  -5  -2    6.25    0.50
   6  -5  -2    6.34    0.34
  -6   5  -2    6.07    0.40
   6  -5   2    6.10    0.37
   7  -4  -2   17.02    0.63
   7  -4  -2   16.92    0.93
  -7   4  -2   16.11    0.70
   7  -4   2   15.87    0.67
   8  -3  -2   11.98    0.86
   8  -3  -2   11.75    0.51
  -8   3  -2   10.88    0.58
   8  -3   2   10.83    0.93
   8  -3   2   10.96    0.56
   9  -2  -2   20.46    1.26
   9  -2  -2   20.44    0.76
   9  -2   2   22.56    0.89
   9  -2   2   20.95    1.37
  10  -1  -2    2.17    0.54
  10  -1  -2    2.07    0.25
  10  -1  -2    1.75    0.31
  10  -1   2    2.31    0.32
  10  -1   2    1.57    0.59
   4  15  -3   -0.18    0.12
   4  15  -3    0.03    0.29
   4  15   3   -0.14    0.14
   3  14  -3    1.97    0.27
   3  14  -3    1.41    0.18
   3  14  -3    1.14    0.30
   3  14   3    1.63    0.29
   3  14   3    1.24    0.44
  -2 -13  -3   13.10    0.61
   2  13  -3   11.92    0.56
   2  13  -3   12.44    0.51
   2  13  -3   11.56    0.63
   2  13   3   11.26    0.90
   2  13   3   12.27    0.62
   1  12  -3    1.28    0.26
   1  12  -3    1.81    0.20
  -1 -12  -3    2.03    0.25
   1  12   3    1.78    0.42
   1  12   3    1.95    0.26
   0  11  -3    1.56    0.19
   0  11  -3    1.35    0.23
   0 -11  -3    1.82    0.23
   0  11   3    1.67    0.24
   0  11   3    2.45    0.42
  -1  10  -3    6.62    0.37
  -1  10  -3    6.96    0.40
   1 -10  -3    7.19    0.39
  -1  10   3    7.08    0.41
   2  -9  -3   20.13    0.74
  -2   9  -3   20.41    0.70
  -2   9  -3   21.33    0.75
  -2   9  -3   21.02    1.08
  -2   9   3   22.34    0.79
  -3   8  -3    9.15    0.71
   3  -8  -3   10.11    0.46
  -3   8  -3   10.36    0.48
  -3   8   3   10.78    0.49
   4  -7  -3   33.13    1.00
  -4   7  -3   32.61    1.05
  -4   7  -3   30.89    1.39
   4  -7   3   30.32    0.99
   5  -6  -3   17.64    0.65
  -5   6  -3   17.89    0.72
  -5   6  -3   16.71    1.00
   5  -6   3   18.14    0.68
   6  -5  -3    0.61    0.15
  -6   5  -3    1.18    0.35
  -6   5  -3    0.84    0.20
   6  -5   3    0.77    0.18
  -7   4  -3    7.10    0.47
   7  -4  -3    7.85    0.40
   7  -4   3    8.81    0.49
   8  -3  -3    2.12    0.22
  -8   3  -3    2.26    0.30
   8  -3   3    1.78    0.27
   9  -2  -3    3.58    0.39
   9  -2  -3    3.72    0.29
   9  -2   3    3.97    0.74
   9  -2   3    5.05    0.42
  10  -1  -3    5.39    0.49
  10  -1  -3    5.40    0.35
  10  -1   3    5.45    0.45
  -3 -14  -4   10.05    0.57
   3  14  -4    9.96    0.65
   3  14   4    8.98    0.58
   3  14   4   10.06    0.96
   2  13  -4    9.17    0.58
  -2 -13  -4    9.90    0.55
   2  13   4    9.83    0.59
   2  13   4    8.96    0.85
  -1 -12  -4    5.63    0.41
   1  12  -4    5.06    0.31
   1  12  -4    4.76    0.41
   1  12   4    5.91    0.43
   1  12   4    6.39    0.66
   0 -11  -4   17.42    0.73
   0  11  -4   18.17    0.66
   0  11  -4   18.20    0.76
   0  11   4   18.24    0.77
   1 -10  -4    3.99    0.32
  -1  10  -4    3.81    0.32
  -1  10  -4    3.78    0.29
  -1  10   4    3.45    0.31
   2  -9  -4   16.48    0.66
  -2   9  -4   15.17    0.96
  -2   9  -4   16.13    0.64
  -2   9  -4   15.30    0.63
  -2   9   4   17.60    0.68
   3  -8  -4    9.34    0.46
  -3   8  -4   10.57    0.79
  -3   8  -4    9.36    0.48
  -3   8  -4    9.23    0.44
  -4   7  -4   29.62    1.43
   4  -7  -4   32.11    1.01
  -4   7  -4   31.67    1.07
  -5   6  -4   22.02    1.22
  -5   6  -4   21.34    0.84
   5  -6  -4   22.07    0.76
   5  -6   4   22.43    0.82
  -6   5  -4   23.67    1.31
  -6   5  -4   20.84    0.87
   6  -5  -4   22.59    0.77
   6  -5   4   23.33    0.86
  -7   4  -4   12.05    0.64
   7  -4  -4   10.72    0.48
   7  -4   4   11.47    0.59
   8  -3  -4   31.00    1.16
  -8   3  -4   30.74    1.17
   8  -3  -4   29.26    0.95
   8  -3   4   31.57    1.14
   9  -2  -4    8.27    0.57
   9  -2  -4    8.58    0.42
  -9   2  -4    7.58    0.57
   9  -2   4    8.22    0.56
  -2 -13  -5   -0.15    0.14
   2  13  -5   -0.12    0.22
   2  13   5    0.41    0.22
   1  12  -5    0.28    0.22
  -1 -12  -5    0.59    0.21
   1  12   5    0.12    0.18
   0 -11  -5    3.71    0.36
   0  11  -5    3.35    0.36
   0  11  -5    3.32    0.27
   0  11   5    3.84    0.36
  -1  10  -5    2.09    0.24
   1 -10  -5    2.14    0.27
  -1  10  -5    2.36    0.29
   2  -9  -5    3.34    0.32
  -2   9  -5    3.80    0.33
  -2   9  -5    3.38    0.56
  -2   9  -5    3.44    0.30
  -3   8  -5   13.13    0.61
   3  -8  -5   13.19    0.59
  -3   8  -5   13.50    0.95
  -3   8  -5   13.90    0.61
   4  -7  -5    2.26    0.24
   4  -7  -5    3.01    0.27
  -4   7  -5    2.08    0.27
  -4   7  -5    2.55    0.53
  -5   6  -5    4.71    0.39
   5  -6  -5    5.00    0.37
   5  -6  -5    5.20    0.34
  -5   6  -5    4.94    0.69
   6  -5  -5    8.19    0.50
  -6   5  -5    7.82    0.53
   6  -5  -5    7.97    0.41
  -6   5  -5    6.58    0.80
   7  -4  -5    5.02    0.44
   7  -4  -5    5.35    0.33
  -7   4  -5    4.57    0.44
   8  -3  -5    6.67    0.50
  -8   3  -5    5.02    0.47
   8  -3   5    5.13    0.45
   1  12  -6    0.90    0.30
  -1 -12  -6    1.18    0.28
   0 -11  -6    7.18    0.49
   0  11  -6    7.49    0.55
  -1  10  -6    1.34    0.28
  -1  10  -6    0.75    0.20
   1 -10  -6    1.35    0.25
   2  -9  -6   14.70    0.68
  -2   9  -6   13.74    1.03
  -2   9  -6   13.53    0.63
  -2   9  -6   13.88    0.69
  -3   8  -6    3.72    0.64
  -3   8  -6    3.47    0.34
  -3   8  -6    3.51    0.35
   3  -8  -6    2.84    0.31
  -4   7  -6   10.17    0.59
   4  -7  -6   11.28    0.55
  -4   7  -6   10.76    0.99
  -4   7  -6   11.08    0.59
   5  -6  -6    7.52    0.43
  -5   6  -6    6.96    0.49
  -5   6  -6    5.49    0.79
   5  -6  -6    7.58    0.47
  -6   5  -6    5.01    0.78
   6  -5  -6    7.24    0.41
   6  -5  -6    7.60    0.51
  -6   5  -6    7.03    0.52
   7  -4  -6    0.44    0.23
  -7   4  -6    0.20    0.21
  -2   9  -7    9.41    0.63
  -2   9  -7   11.17    0.57
   2  -9  -7    9.60    0.58
  -3   8  -7    2.63    0.35
  -3   8  -7    2.81    0.34
  -3   8  -7    2.54    0.62
   3  -8  -7    1.87    0.28
  -4   7  -7   12.93    0.68
   4  -7  -7   13.07    0.62
  -4   7  -7   11.08    0.66
  -4   7  -7   12.27    1.11
   4  16   0    3.74    0.33
   4  16   0    3.94    0.36
   3  15   0   24.88    0.89
   3  15   0   26.72    1.58
   3  15   0   27.69    0.98
   2  14   0    1.80    0.46
   2  14   0    1.60    0.20
   2  14   0    2.05    0.26
   1  13   0   13.36    0.51
   1  13   0   12.97    0.58
   0  12   0    3.22    0.28
   0  12   0    2.82    0.21
   1 -11   0   35.48    1.06
  -1  11   0   35.88    0.94
  -1  11   0   34.47    1.10
  -2  10   0   39.77    1.22
   2 -10   0   41.13    1.18
   3  -9   0   63.35    1.73
  -3   9   0   64.45    1.77
   4  -8   0   91.29    2.37
  -4   8   0   91.03    2.40
  -5   7   0   62.55    1.77
   5  -7   0   62.62    1.98
   5  -7   0   64.29    1.75
  -5   7   0   64.38    2.02
  -6   6   0   28.05    0.94
   6  -6   0   26.52    1.16
   6  -6   0   28.88    0.93
   6  -6   0   28.03    1.35
  -6   6   0   27.85    1.17
   7  -5   0   15.94    0.64
  -7   5   0   16.77    0.87
   7  -5   0   14.29    0.93
   7  -5   0   16.52    0.93
  -7   5   0   15.44    0.65
   8  -4   0    0.84    0.33
  -8   4   0    0.58    0.27
   8  -4   0    0.45    0.16
   9  -3   0   24.86    1.44
   9  -3   0   26.85    0.96
  10  -2   0    8.89    0.50
  10  -2   0    8.49    0.93
  10  -2   0    7.07    0.84
  11  -1   0    8.87    0.53
   4  16  -1    0.11    0.15
   4  16  -1   -0.14    0.13
   4  16   1   -0.04    0.13
   4  16   1    0.12    0.15
   3  15  -1    5.44    0.37
   3  15  -1    5.50    0.38
   3  15  -1    5.89    0.78
   3  15   1    5.36    0.41
   3  15   1    5.12    0.75
   3  15   1    5.86    0.37
   2  14  -1    3.69    0.29
   2  14  -1    3.29    0.30
   2  14   1    4.16    0.64
   2  14   1    3.47    0.33
   2  14   1    4.42    0.30
   1  13  -1   12.01    0.54
   1  13  -1   11.51    0.60
   1  13  -1   11.73    0.49
   1  13   1   11.43    0.46
   1  13   1   11.51    0.56
   1  13   1   11.41    0.88
   0  12  -1   15.66    0.62
   0  12  -1   15.79    0.55
   0 -12  -1   15.74    0.62
   0  12  -1   15.50    0.64
   0  12   1   16.29    0.67
  -1  11  -1   29.98    0.92
  -1  11  -1   29.43    0.98
   1 -11  -1   30.87    0.96
  -1  11   1   30.87    1.01
   2 -10  -1    5.47    0.33
  -2  10  -1    5.34    0.35
  -2  10   1    6.09    0.37
   2 -10   1    5.88    0.33
  -3   9  -1    9.33    0.46
   3  -9  -1    9.54    0.43
   3  -9   1    8.40    0.40
  -3   9   1    8.90    0.45
   4  -8  -1    6.98    0.36
  -4   8  -1    7.17    0.40
  -4   8  -1    6.29    0.58
  -4   8   1    7.02    0.39
   4  -8   1    6.59    0.36
  -5   7  -1    9.60    0.67
  -5   7  -1    9.31    0.47
   5  -7  -1    9.13    0.43
   5  -7   1    9.42    0.45
  -5   7   1    9.37    0.45
  -6   6  -1   22.81    1.12
  -6   6  -1   23.87    0.87
   6  -6  -1   24.37    0.83
  -6   6   1   25.23    0.85
   6  -6   1   25.44    0.85
  -7   5  -1    6.02    0.41
  -7   5  -1    5.18    0.57
   7  -5  -1    5.68    0.36
   7  -5  -1    6.69    0.56
   7  -5   1    5.52    0.37
   7  -5   1    5.86    0.63
   8  -4  -1    2.16    0.42
  -8   4  -1    2.58    0.46
   8  -4  -1    1.78    0.23
   8  -4   1    1.72    0.45
   8  -4   1    2.30    0.27
   9  -3  -1    1.91    0.24
   9  -3  -1    2.11    0.48
  -9   3  -1    2.08    0.46
   9  -3   1    1.35    0.24
   9  -3   1    1.16    0.44
  10  -2  -1    0.27    0.34
  10  -2  -1    0.39    0.18
  10  -2   1    0.26    0.38
  10  -2   1    0.78    0.23
  10  -2   1    0.81    0.41
   4  16  -2    0.76    0.22
   4  16  -2    1.07    0.20
   4  16   2    0.84    0.24
   3  15  -2    1.51    0.24
   3  15  -2    1.11    0.20
   3  15  -2    1.18    0.33
   3  15   2    1.18    0.25
   3  15   2    0.92    0.42
   2  14  -2    7.25    0.41
   2  14  -2    8.01    0.53
   2  14  -2    6.97    0.41
   2  14   2    8.05    0.82
   2  14   2    7.47    0.48
   1  13  -2   22.58    0.78
  -1 -13  -2   22.05    0.82
   1  13  -2   23.17    0.86
   1  13  -2   22.32    0.79
   1  13   2   20.38    1.22
   1  13   2   21.95    0.86
   0  12  -2    3.06    0.27
   0 -12  -2    3.80    0.30
   0  12  -2    3.78    0.33
   0  12   2    3.29    0.31
  -1  11  -2    7.81    0.42
  -1  11  -2    8.07    0.42
   1 -11  -2    7.23    0.40
  -1  11   2    6.76    0.41
  -2  10  -2   16.30    0.63
   2 -10  -2   15.68    0.61
  -2  10   2   14.47    0.62
  -3   9  -2    0.42    0.15
  -3   9  -2    0.11    0.19
   3  -9  -2    0.17    0.12
  -3   9   2    0.56    0.16
   3  -9   2    0.97    0.16
   4  -8  -2    3.13    0.26
  -4   8  -2    3.23    0.49
  -4   8  -2    2.75    0.27
  -4   8   2    4.56    0.32
   4  -8   2    3.61    0.27
  -5   7  -2   23.78    1.16
   5  -7  -2   23.90    0.82
  -5   7  -2   23.38    0.87
  -5   7   2   26.39    0.86
   5  -7   2   25.63    0.85
  -6   6  -2   33.53    1.44
  -6   6  -2   31.72    1.08
   6  -6  -2   33.33    1.02
   6  -6   2   30.98    1.04
  -7   5  -2   21.80    0.84
   7  -5  -2   21.52    0.75
  -7   5  -2   21.21    1.14
   7  -5   2   20.43    0.80
  -8   4  -2   19.02    0.80
   8  -4  -2   18.18    0.70
   8  -4   2   18.57    0.77
   8  -4   2   17.48    1.18
   9  -3  -2   13.82    0.59
   9  -3   2   13.56    1.11
   9  -3   2   12.81    0.65
  10  -2  -2   10.53    0.52
  10  -2   2    8.38    0.99
  10  -2   2   10.56    0.60
   3  15  -3   13.64    0.56
   3  15  -3   13.81    0.66
   3  15  -3   13.35    0.76
   3  15   3   13.89    0.73
   3  15   3   13.56    1.10
   2  14  -3    8.53    0.59
   2  14  -3    9.07    0.50
   2  14  -3    8.73    0.44
  -2 -14  -3    8.86    0.51
   2  14   3    9.83    0.91
   2  14   3   10.07    0.57
  -1 -13  -3    1.50    0.23
   1  13  -3    1.24    0.19
   1  13  -3    1.29    0.27
   1  13   3    1.90    0.27
   1  13   3    2.13    0.47
   0  12  -3    4.14    0.36
   0  12  -3    5.16    0.33
   0 -12  -3    4.87    0.36
   0  12   3    4.92    0.57
   0  12   3    4.92    0.38
  -1  11  -3   11.62    0.52
  -1  11  -3   10.98    0.52
   1 -11  -3   11.41    0.53
  -1  11   3   12.77    0.58
  -2  10  -3   24.25    0.87
   2 -10  -3   25.80    0.88
  -2  10  -3   26.78    0.84
  -2  10   3   25.59    0.91
   3  -9  -3   29.79    0.98
  -3   9  -3   31.11    1.38
  -3   9  -3   28.57    0.99
  -3   9   3   30.91    1.00
  -4   8  -3   52.39    1.95
   4  -8  -3   52.39    1.50
  -4   8  -3   51.71    1.54
   4  -8   3   52.31    1.49
   5  -7  -3   22.76    0.81
  -5   7  -3   24.47    1.24
  -5   7  -3   23.99    0.89
   5  -7   3   25.69    0.86
   6  -6  -3    5.02    0.33
  -6   6  -3    4.91    0.40
  -6   6  -3    6.21    0.69
   6  -6   3    4.68    0.35
  -7   5  -3   11.88    0.60
  -7   5  -3   10.32    0.88
   7  -5  -3   11.95    0.51
   7  -5   3    9.64    0.54
   8  -4  -3    1.97    0.22
  -8   4  -3    1.73    0.28
   8  -4   3    2.69    0.31
   9  -3  -3    3.15    0.27
  -9   3  -3    3.22    0.37
   9  -3   3    1.45    0.57
   9  -3   3    3.21    0.36
  10  -2  -3    4.87    0.48
  10  -2  -3    5.47    0.35
  10  -2   3    5.16    0.45
   3  15  -4    2.98    0.43
   3  15   4    2.59    0.36
   2  14  -4    0.22    0.24
  -2 -14  -4    0.25    0.18
   2  14   4    0.11    0.17
   2  14   4    0.21    0.31
   1  13  -4    2.17    0.32
  -1 -13  -4    1.76    0.27
   1  13  -4    1.81    0.21
   1  13   4    1.48    0.27
   0  12  -4    0.04    0.17
   0 -12  -4   -0.04    0.13
   0  12  -4   -0.03    0.10
   0  12   4    0.03    0.14
  -1  11  -4    6.68    0.43
   1 -11  -4    6.31    0.42
  -1  11  -4    6.89    0.39
  -1  11   4    5.96    0.43
  -2  10  -4    4.75    0.34
  -2  10  -4    4.25    0.33
   2 -10  -4    3.49    0.31
  -2  10   4    4.34    0.34
  -3   9  -4    2.35    0.26
   3  -9  -4    1.86    0.23
  -3   9  -4    1.78    0.43
  -4   8  -4    2.31    0.27
  -4   8  -4    2.28    0.46
   4  -8  -4    1.89    0.23
  -5   7  -4    0.84    0.33
   5  -7  -4    0.72    0.17
  -5   7  -4    0.88    0.21
   6  -6  -4    5.78    0.36
  -6   6  -4    3.67    0.60
  -6   6  -4    5.31    0.41
   6  -6   4    5.18    0.38
  -7   5  -4    5.45    0.74
  -7   5  -4    5.54    0.44
   7  -5  -4    5.85    0.36
   7  -5   4    5.95    0.42
  -8   4  -4    3.08    0.37
   8  -4  -4    2.49    0.35
   8  -4  -4    2.73    0.26
   8  -4   4    2.52    0.32
  -9   3  -4    0.67    0.26
   9  -3  -4    0.35    0.23
   9  -3  -4    0.52    0.16
   9  -3   4    0.47    0.22
   2  14  -5    7.18    0.57
   2  14   5    8.00    0.56
  -1 -13  -5    6.20    0.47
   1  13  -5    6.22    0.52
   1  13   5    5.92    0.47
   0 -12  -5   30.32    1.11
   0  12  -5   28.68    0.95
   0  12  -5   29.32    1.10
  -1  11  -5    5.37    0.37
  -1  11  -5    5.88    0.44
   1 -11  -5    5.20    0.41
  -2  10  -5    8.46    0.82
  -2  10  -5    9.01    0.50
   2 -10  -5    8.73    0.50
  -2  10  -5    7.60    0.46
  -3   9  -5    4.02    0.34
  -3   9  -5    3.79    0.33
  -3   9  -5    3.39    0.60
   3  -9  -5    3.17    0.31
  -4   8  -5    0.43    0.35
   4  -8  -5    1.17    0.21
  -4   8  -5    1.23    0.24
  -5   7  -5    5.82    0.44
   5  -7  -5    6.08    0.38
   5  -7  -5    5.47    0.38
  -5   7  -5    4.80    0.71
   6  -6  -5    9.53    0.47
  -6   6  -5    9.35    0.58
   6  -6  -5    8.87    0.52
  -6   6  -5    7.29    0.85
  -7   5  -5   13.82    1.16
   7  -5  -5   17.01    0.66
   7  -5  -5   15.86    0.77
  -7   5  -5   17.70    0.83
   8  -4  -5   20.09    0.74
   8  -4  -5   21.97    0.96
  -8   4  -5   19.01    0.92
   8  -4   5   21.82    0.93
   0  12  -6    0.26    0.22
   0 -12  -6    0.20    0.19
   1 -11  -6   -0.10    0.14
  -1  11  -6   -0.21    0.18
  -1  11  -6   -0.05    0.14
  -2  10  -6    7.04    0.81
   2 -10  -6    6.53    0.47
  -2  10  -6    6.98    0.50
  -2  10  -6    7.14    0.45
   3  -9  -6    7.16    0.47
  -3   9  -6    6.16    0.80
  -3   9  -6    7.69    0.50
  -3   9  -6    7.83    0.49
  -4   8  -6    4.29    0.71
   4  -8  -6    5.43    0.40
  -4   8  -6    5.18    0.43
   5  -7  -6   13.15    0.64
  -5   7  -6   13.40    1.15
  -5   7  -6   12.35    0.68
   5  -7  -6   12.67    0.60
  -6   6  -6    8.94    0.98
   6  -6  -6    7.67    0.44
   6  -6  -6    7.18    0.50
  -6   6  -6    7.66    0.56
  -7   5  -6    3.19    0.40
   7  -5  -6    2.77    0.27
   7  -5  -6    2.48    0.35
   4  17   0    2.67    0.31
   4  17   0    2.99    0.33
   3  16   0    0.25    0.15
   3  16   0   -0.01    0.29
   3  16   0    0.10    0.16
   2  15   0    5.03    0.71
   2  15   0    4.12    0.35
   2  15   0    4.63    0.33
   1  14   0    1.18    0.22
   1  14   0    1.18    0.17
   0  13   0    0.03    0.09
   0  13   0   -0.15    0.10
  -1  12   0   -0.14    0.11
   1 -12   0    0.00    0.10
  -2  11   0    9.12    0.47
   2 -11   0    9.76    0.45
   3 -10   0    8.09    0.41
  -3  10   0    8.51    0.45
  -4   9   0    1.16    0.20
   4  -9   0    1.73    0.21
   5  -8   0   -0.08    0.10
  -5   8   0    0.08    0.13
  -6   7   0    0.40    0.16
   6  -7   0    0.07    0.12
  -6   7   0    0.22    0.22
   7  -6   0   26.61    1.23
   7  -6   0   26.40    0.92
  -7   6   0   27.42    0.94
  -7   6   0   25.95    1.17
   8  -5   0    9.60    0.77
   8  -5   0   10.46    0.53
   9  -4   0    5.36    0.69
   9  -4   0    5.27    0.39
  10  -3   0    4.83    0.39
  10  -3   0    4.59    0.75
  10  -3   0    4.93    0.74
   3  16  -1    0.53    0.19
   3  16  -1    0.82    0.20
   3  16   1    0.96    0.20
   3  16   1    1.05    0.25
   2  15  -1   16.57    0.66
   2  15  -1   15.45    0.67
   2  15   1   15.74    1.15
   2  15   1   14.66    0.70
   1  14  -1   12.78    0.58
   1  14  -1   12.58    0.52
   1  14   1   11.39    0.59
   1  14   1   12.96    0.96
   0 -13  -1   10.73    0.51
   0  13  -1   10.68    0.55
   0  13  -1   10.40    0.45
   0  13  -1   10.42    0.51
   0  13   1   10.87    0.54
  -1  12  -1   35.41    1.07
   1 -12  -1   36.16    1.12
  -1  12  -1   36.38    1.15
  -1  12   1   36.03    1.17
   2 -11  -1   11.33    0.51
  -2  11  -1   11.36    0.54
  -2  11   1   12.55    0.56
   2 -11   1   12.56    0.50
   3 -10  -1    9.03    0.44
  -3  10  -1    9.22    0.47
   3 -10   1    9.15    0.43
  -3  10   1    9.48    0.48
  -4   9  -1   32.30    1.04
   4  -9  -1   32.30    1.00
   4  -9   1   29.03    0.97
  -4   9   1   30.79    1.02
   5  -8  -1    9.18    0.45
  -5   8  -1    9.60    0.70
  -5   8  -1    8.91    0.48
   5  -8   1    9.79    0.46
  -5   8   1    9.96    0.48
  -6   7  -1   22.41    1.11
  -6   7  -1   21.91    0.83
   6  -7  -1   21.90    0.79
   6  -7   1   21.68    0.80
  -6   7   1   22.83    0.81
  -7   6  -1   33.54    1.13
   7  -6  -1   31.90    1.07
  -7   6  -1   32.81    1.43
   7  -6   1   35.49    1.53
   7  -6   1   34.40    1.11
  -8   5  -1    5.62    0.41
  -8   5  -1    5.57    0.61
   8  -5  -1    5.07    0.37
   8  -5   1    6.14    0.68
   8  -5   1    6.13    0.40
   9  -4  -1   24.17    0.89
  -9   4  -1   25.19    1.28
   9  -4   1   22.77    1.38
   9  -4   1   24.09    0.93
  10  -3  -1    9.56    0.52
  10  -3   1    9.88    0.98
  10  -3   1    9.59    0.56
   3  16  -2    0.46    0.17
   3  16  -2    0.26    0.17
   3  16   2    0.23    0.19
   2  15  -2    0.39    0.16
   2  15  -2    0.46    0.26
   2  15  -2    0.16    0.13
   2  15   2    1.01    0.24
   2  15   2    1.37    0.45
   1  14  -2    7.92    0.43
   1  14  -2    7.56    0.52
   1  14  -2    8.38    0.45
  -1 -14  -2    7.65    0.45
   1  14   2    7.65    0.80
   1  14   2    9.70    0.54
   0 -13  -2    4.01    0.32
   0  13  -2    3.87    0.34
   0  13  -2    4.47    0.33
   0  13   2    4.57    0.36
  -1  12  -2   27.70    0.96
  -1  12  -2   28.21    0.92
   1 -12  -2   29.49    0.98
  -1  12   2   29.36    1.02
   2 -11  -2    5.65    0.38
  -2  11  -2    6.78    0.39
  -2  11   2    7.21    0.43
   3 -10  -2   29.35    0.94
  -3  10  -2   27.62    0.95
  -3  10   2   27.01    0.95
   3 -10   2   28.54    0.90
  -4   9  -2   21.79    1.11
   4  -9  -2   21.14    0.75
  -4   9  -2   20.68    0.78
  -4   9   2   19.76    0.76
   4  -9   2   20.33    0.74
   5  -8  -2   17.26    0.66
  -5   8  -2   15.94    0.69
  -5   8  -2   17.90    1.01
  -5   8   2   17.67    0.69
  -6   7  -2   37.36    1.21
  -6   7  -2   37.75    1.58
   6  -7  -2   35.05    1.12
   6  -7   2   34.82    1.14
  -7   6  -2   14.23    0.65
   7  -6  -2   13.95    0.59
  -7   6  -2   12.79    0.89
   7  -6   2   12.26    0.59
  -8   5  -2   17.55    0.78
  -8   5  -2   15.43    1.03
   8  -5  -2   17.63    0.69
   8  -5   2   17.32    0.74
   8  -5   2   17.50    1.17
   9  -4  -2    6.59    0.42
  -9   4  -2    7.54    0.79
   9  -4   2    7.52    0.49
   9  -4   2    6.40    0.80
  10  -3  -2    0.12    0.15
  10  -3   2    0.10    0.41
  10  -3   2    0.46    0.20
   3  16  -3    3.47    0.48
   3  16  -3    3.39    0.29
   3  16  -3    2.96    0.33
   3  16   3    3.13    0.38
   2  15  -3    3.39    0.40
   2  15  -3    3.06    0.28
   2  15   3    3.61    0.38
   2  15   3    2.94    0.62
   1  14  -3    1.81    0.30
  -1 -14  -3    1.44    0.25
   1  14  -3    1.44    0.21
   1  14   3    0.96    0.37
   1  14   3    1.28    0.26
   0  13  -3    1.24    0.25
   0 -13  -3    1.59    0.24
   0  13  -3    1.87    0.23
   0  13   3    1.47    0.26
   1 -12  -3    1.51    0.23
  -1  12  -3    1.85    0.23
  -1  12  -3    1.51    0.23
  -1  12   3    1.53    0.25
   2 -11  -3   12.85    0.59
  -2  11  -3   14.05    0.61
  -2  11   3   14.14    0.63
  -3  10  -3    0.76    0.30
  -3  10  -3    0.74    0.18
   3 -10  -3    1.21    0.20
  -3  10   3    0.47    0.17
  -4   9  -3   17.04    0.71
  -4   9  -3   16.35    1.02
   4  -9  -3   17.61    0.68
  -5   8  -3    1.63    0.24
   5  -8  -3    2.04    0.23
  -5   8  -3    2.96    0.52
   5  -8   3    1.66    0.22
  -6   7  -3   -0.10    0.18
  -6   7  -3    0.07    0.15
   6  -7  -3    0.12    0.13
   6  -7   3    0.19    0.14
  -7   6  -3    7.90    0.80
  -7   6  -3    7.85    0.50
   7  -6  -3    8.37    0.44
   7  -6   3    7.93    0.48
   8  -5  -3    0.75    0.18
  -8   5  -3    0.79    0.38
  -8   5  -3    0.84    0.24
   8  -5   3    0.42    0.19
  -9   4  -3    1.07    0.27
   9  -4  -3    1.69    0.23
  -9   4  -3    1.06    0.44
   9  -4   3    1.84    0.30
   9  -4   3    0.98    0.52
  10  -3  -3    5.79    0.38
  10  -3  -3    5.51    0.51
  10  -3   3    5.46    0.47
  -2 -15  -4    2.08    0.31
   2  15  -4    2.31    0.40
   2  15   4    2.72    0.36
   1  14  -4   10.92    0.50
  -1 -14  -4   10.38    0.60
   1  14  -4   10.94    0.65
   1  14   4   10.93    0.63
   0  13  -4   15.25    0.71
   0 -13  -4   14.89    0.69
   0  13  -4   14.07    0.60
   0  13   4   14.34    0.71
   1 -12  -4    5.30    0.39
  -1  12  -4    5.74    0.38
  -1  12  -4    5.88    0.42
  -1  12   4    5.96    0.43
  -2  11  -4   24.04    0.88
   2 -11  -4   23.36    0.89
  -2  11  -4   24.85    0.87
  -2  11   4   25.23    0.93
   3 -10  -4   15.98    0.67
  -3  10  -4   15.59    0.68
  -3  10  -4   17.27    1.08
   4  -9  -4   20.47    0.76
  -4   9  -4   19.61    1.20
  -4   9  -4   18.48    0.78
  -5   8  -4   13.77    0.65
  -5   8  -4   15.36    1.03
   5  -8  -4   12.70    0.58
  -6   7  -4   15.40    1.09
  -6   7  -4   16.86    0.78
   6  -7  -4   17.13    0.68
   6  -7   4   17.81    0.73
  -7   6  -4   10.44    0.97
  -7   6  -4   11.48    0.64
   7  -6  -4   11.66    0.54
   7  -6   4   13.69    0.64
  -8   5  -4   18.96    0.88
  -8   5  -4   20.05    1.31
   8  -5  -4   19.46    0.74
   8  -5   4   19.49    0.86
   9  -4  -4    4.23    0.32
   9  -4  -4    4.01    0.44
  -9   4  -4    4.56    0.46
   9  -4   4    5.06    0.45
  -1 -14  -5    3.68    0.39
   1  14  -5    3.83    0.44
   1  14   5    5.36    0.48
   0  13  -5    1.01    0.20
   0 -13  -5    1.01    0.25
   0  13  -5    0.99    0.26
   0  13   5    0.74    0.23
  -1  12  -5    0.10    0.20
  -1  12  -5    0.46    0.17
   1 -12  -5    0.31    0.18
  -2  11  -5    0.66    0.19
   2 -11  -5    0.81    0.22
  -2  11  -5    0.48    0.20
  -3  10  -5    2.49    0.55
   3 -10  -5    2.98    0.31
  -3  10  -5    2.79    0.31
  -4   9  -5   -0.11    0.25
   4  -9  -5    0.41    0.16
  -4   9  -5    0.59    0.19
  -5   8  -5    0.00    0.27
  -5   8  -5    0.35    0.20
   5  -8  -5    0.19    0.15
  -6   7  -5    2.70    0.60
  -6   7  -5    3.26    0.38
   6  -7  -5    3.11    0.34
   6  -7  -5    3.22    0.29
  -7   6  -5    6.68    0.53
  -7   6  -5    6.65    0.88
   7  -6  -5    6.39    0.39
   7  -6  -5    5.89    0.46
  -8   5  -5    4.73    0.47
   8  -5  -5    5.46    0.36
   8  -5  -5    5.14    0.47
  -8   5  -5    4.97    0.79
  -1  12  -6    0.80    0.27
   1 -12  -6    0.46    0.20
  -1  12  -6    0.39    0.18
  -2  11  -6    8.74    0.51
   2 -11  -6    8.26    0.53
  -2  11  -6    8.95    0.56
  -3  10  -6    4.47    0.39
  -3  10  -6    4.96    0.76
   3 -10  -6    3.98    0.38
  -4   9  -6    6.93    0.87
   4  -9  -6    6.45    0.45
  -4   9  -6    7.47    0.51
   5  -8  -6    9.22    0.52
  -5   8  -6    8.81    0.58
  -5   8  -6    8.90    0.97
  -6   7  -6    0.95    0.27
   6  -7  -6    1.46    0.28
   6  -7  -6    1.22    0.23
  -6   7  -6    1.73    0.56
   3  17   0    8.72    0.49
   3  17   0    9.99    0.57
   2  16   0   18.29    0.70
   2  16   0   18.87    0.80
   1  15   0    6.70    0.44
   0  14   0   -0.10    0.12
  -1  13   0   12.69    0.59
  -2  12   0   26.95    0.94
   2 -12   0   26.32    0.89
  -3  11   0    4.12    0.33
   4 -10   0   49.10    1.45
  -4  10   0   50.77    1.50
   5  -9   0   51.28    1.51
  -5   9   0   53.08    1.56
   6  -8   0   16.28    0.65
  -6   8   0   14.53    0.65
  -6   8   0   14.34    0.87
  -7   7   0    8.63    0.49
   7  -7   0    8.99    0.47
  -7   7   0    7.29    0.65
   8  -6   0   16.60    0.70
   9  -5   0    0.87    0.21
  10  -4   0    8.69    0.52
   3  17  -1    0.98    0.22
   3  17  -1    0.81    0.22
   3  17   1    0.53    0.21
   2  16  -1    0.01    0.12
   2  16  -1    0.16    0.16
   2  16   1    0.10    0.18
   2  16   1    0.16    0.30
   1  15  -1    1.12    0.18
   1  15  -1    1.10    0.22
   1  15   1    1.13    0.23
   0  14  -1    0.04    0.12
   0  14  -1   -0.10    0.09
   0  14   1   -0.06    0.14
   1 -13  -1    9.83    0.49
  -1  13  -1   10.45    0.53
  -1  13   1   10.37    0.54
  -2  12  -1    4.20    0.33
   2 -12  -1    3.87    0.31
  -2  12   1    3.75    0.32
  -3  11  -1   12.89    0.59
   3 -11  -1   12.57    0.55
  -3  11   1   13.37    0.60
   3 -11   1   12.05    0.53
  -4  10  -1   15.84    0.67
   4 -10  -1   16.12    0.64
  -4  10   1   14.62    0.65
   4 -10   1   15.38    0.61
  -5   9  -1    0.59    0.18
   5  -9  -1    0.40    0.16
  -5   9  -1    0.23    0.23
  -5   9   1    0.74    0.18
   5  -9   1    0.19    0.13
   6  -8  -1    0.84    0.18
  -6   8  -1    0.64    0.27
  -6   8  -1    0.80    0.19
  -6   8   1    1.32    0.21
   6  -8   1    1.11    0.20
  -7   7  -1    4.41    0.57
   7  -7  -1    4.52    0.33
  -7   7  -1    3.68    0.34
   7  -7   1    4.20    0.33
   7  -7   1    4.28    0.56
  -8   6  -1    9.54    0.81
  -8   6  -1    9.91    0.57
   8  -6  -1   10.85    0.53
   8  -6   1   10.61    0.85
   8  -6   1   10.31    0.54
   9  -5  -1    4.96    0.37
  -9   5  -1    5.29    0.65
   9  -5   1    5.13    0.70
   9  -5   1    5.35    0.41
  10  -4  -1    6.21    0.42
  10  -4   1    4.15    0.71
  10  -4   1    5.61    0.44
   3  17  -2    1.42    0.24
   3  17  -2    1.42    0.26
   3  17   2    1.52    0.29
   2  16  -2    5.16    0.38
   2  16  -2    5.81    0.40
   2  16  -2    5.23    0.51
   2  16   2    5.09    0.44
   2  16   2    4.88    0.76
   1  15  -2    8.06    0.46
   1  15  -2    7.77    0.43
   1  15  -2    8.18    0.54
   1  15   2    8.04    0.53
   0  14  -2    5.48    0.43
   0 -14  -2    5.58    0.38
   0  14  -2    4.90    0.36
   0  14   2    5.87    0.43
  -1  13  -2   23.67    0.83
  -1  13  -2   22.42    0.85
   1 -13  -2   23.18    0.86
  -1  13   2   23.73    0.91
   2 -12  -2   37.73    1.19
  -2  12  -2   37.56    1.20
  -2  12   2   36.95    1.23
   3 -11  -2   13.15    0.59
  -3  11  -2   13.15    0.61
  -3  11   2   15.43    0.65
   4 -10  -2    5.87    0.37
  -4  10  -2    5.98    0.65
  -4  10  -2    5.78    0.40
   4 -10   2    6.35    0.38
  -4  10   2    6.69    0.41
   5  -9  -2    6.22    0.38
  -5   9  -2    6.95    0.43
  -5   9  -2    6.56    0.67
   5  -9   2    6.55    0.40
  -5   9   2    7.56    0.43
  -6   8  -2    3.90    0.57
   6  -8  -2    4.90    0.33
  -6   8  -2    3.82    0.34
   6  -8   2    2.92    0.29
  -7   7  -2    4.19    0.60
   7  -7  -2    4.13    0.32
  -7   7  -2    4.14    0.37
   7  -7   2    3.52    0.33
  -8   6  -2    8.54    0.81
   8  -6  -2    8.17    0.45
  -8   6  -2    8.86    0.53
   8  -6   2    7.80    0.82
   8  -6   2    7.79    0.49
   9  -5  -2    5.35    0.37
  -9   5  -2    5.56    0.72
   9  -5   2    4.89    0.42
   9  -5   2    5.70    0.77
  10  -4  -2    8.24    0.47
 -10   4  -2    6.95    0.84
  10  -4   2    7.41    0.94
  10  -4   2    7.39    0.52
   2  16  -3    9.37    0.48
   2  16  -3    8.48    0.65
   2  16   3    8.24    0.57
  -1 -15  -3    3.53    0.35
   1  15  -3    3.47    0.39
   1  15  -3    3.59    0.31
   1  15   3    3.10    0.37
   0  14  -3    3.59    0.37
   0 -14  -3    4.02    0.35
   0  14  -3    3.92    0.33
   0  14   3    4.04    0.39
  -1  13  -3    1.45    0.22
  -1  13  -3    1.74    0.27
   1 -13  -3    1.19    0.22
  -1  13   3    1.50    0.25
   2 -12  -3    5.00    0.36
  -2  12  -3    4.97    0.36
  -2  12   3    3.48    0.34
  -3  11  -3   16.86    0.70
   3 -11  -3   16.01    0.68
  -3  11   3   16.27    0.71
   4 -10  -3   15.08    0.64
  -4  10  -3   14.50    0.66
  -4  10  -3   15.50    1.03
  -5   9  -3   18.25    1.11
   5  -9  -3   16.76    0.69
  -5   9  -3   16.39    0.73
   5  -9   3   17.91    0.70
   6  -8  -3   13.82    0.61
  -6   8  -3   13.86    0.67
  -6   8  -3   14.76    1.01
   6  -8   3   13.88    0.64
  -7   7  -3   26.56    1.04
   7  -7  -3   27.87    0.96
  -7   7  -3   29.67    1.50
   7  -7   3   28.06    1.02
  -8   6  -3    5.60    0.47
  -8   6  -3    4.67    0.70
   8  -6  -3    5.98    0.39
   8  -6   3    6.53    0.45
  -9   5  -3   10.26    0.98
  -9   5  -3    8.28    0.58
   9  -5  -3    8.31    0.47
   9  -5   3    9.21    0.57
   9  -5   3   10.26    1.04
  10  -4  -3    5.00    0.37
 -10   4  -3    5.71    0.81
  10  -4   3    5.67    0.48
  -1 -15  -4    3.28    0.37
   1  15  -4    3.48    0.41
   1  15  -4    3.43    0.30
   1  15   4    3.45    0.39
   0  14  -4    0.72    0.19
   0  14  -4    1.11    0.28
   0 -14  -4    1.19    0.24
   0  14   4    0.72    0.24
  -1  13  -4    2.04    0.29
   1 -13  -4    2.68    0.31
  -1  13  -4    2.29    0.27
  -1  13   4    2.33    0.32
  -2  12  -4    1.14    0.22
   2 -12  -4    1.13    0.23
  -2  12   4    1.10    0.23
   3 -11  -4    3.56    0.32
  -3  11  -4    3.67    0.34
  -4  10  -4    3.40    0.59
   4 -10  -4    3.05    0.30
  -4  10  -4    3.15    0.32
   5  -9  -4    8.03    0.46
  -5   9  -4    7.19    0.49
  -5   9  -4    7.33    0.81
   6  -8  -4    1.57    0.23
  -6   8  -4    0.93    0.39
  -6   8  -4    1.48    0.28
  -7   7  -4    2.05    0.32
  -7   7  -4    1.31    0.45
   7  -7  -4    1.96    0.26
   7  -7   4    2.35    0.30
  -8   6  -4    0.92    0.26
  -8   6  -4    0.74    0.41
   8  -6  -4    0.95    0.20
   8  -6   4    0.61    0.21
   9  -5  -4    1.35    0.22
   9  -5  -4    1.70    0.33
  -9   5  -4    1.60    0.32
  -9   5  -4    1.59    0.53
   9  -5   4    1.49    0.30
   0 -14  -5   17.88    0.85
   0  14  -5   18.08    0.72
   0  14  -5   18.40    0.85
   0  14   5   19.51    0.89
  -1  13  -5    7.01    0.49
   1 -13  -5    6.30    0.47
  -1  13  -5    6.12    0.40
  -2  12  -5   11.39    0.58
   2 -12  -5   10.72    0.59
  -3  11  -5   13.45    1.09
   3 -11  -5   13.70    0.66
  -3  11  -5   13.44    0.66
   4 -10  -5    3.96    0.35
  -4  10  -5    2.97    0.62
  -4  10  -5    3.96    0.37
  -5   9  -5    0.95    0.24
  -5   9  -5    1.23    0.44
   5  -9  -5    1.13    0.22
  -6   8  -5    7.65    0.55
  -6   8  -5    8.61    0.93
   6  -8  -5    8.54    0.48
  -7   7  -5   11.81    1.09
  -7   7  -5   10.60    0.66
   7  -7  -5   12.16    0.57
   7  -7  -5   10.24    0.62
  -8   6  -5    3.43    0.43
   8  -6  -5    3.39    0.40
   8  -6  -5    3.60    0.32
   2 -12  -6    2.69    0.34
  -2  12  -6    3.06    0.33
   3 -11  -6    3.45    0.36
  -3  11  -6    2.63    0.33
  -4  10  -6    6.67    0.49
  -4  10  -6    6.78    0.89
   4 -10  -6    7.08    0.48
   5  -9  -6    2.34    0.30
  -5   9  -6    1.82    0.32
  -5   9  -6    2.16    0.61
   2  17   0    0.72    0.23
   1  16   0    1.64    0.27
   0  15   0   -0.18    0.13
  -1  14   0    1.24    0.23
  -2  13   0    0.79    0.20
   2 -13   0    0.74    0.17
  -3  12   0    0.29    0.16
   3 -12   0    0.38    0.16
   4 -11   0    6.03    0.38
  -4  11   0    6.02    0.41
  -5  10   0    0.23    0.15
   5 -10   0    0.05    0.13
  -6   9   0    0.51    0.18
   6  -9   0    0.57    0.17
   7  -8   0   11.25    0.56
  -7   8   0   12.80    0.62
  -7   8   0   11.87    0.81
   8  -7   0    6.37    0.43
   9  -6   0    6.61    0.45
  10  -5   0    1.11    0.24
   2  17  -1    3.65    0.32
   2  17  -1    3.89    0.36
   2  17   1    3.07    0.37
   1  16  -1    8.57    0.45
   1  16  -1    8.24    0.50
   1  16   1    8.74    0.54
   0  15  -1    2.35    0.28
   0  15   1    1.99    0.29
   1 -14  -1   13.19    0.60
  -1  14  -1   12.57    0.60
  -1  14   1   12.29    0.62
   2 -13  -1   12.46    0.57
  -2  13  -1   12.45    0.60
  -2  13   1   12.55    0.61
   3 -12  -1    8.46    0.46
  -3  12  -1    9.17    0.49
  -3  12   1    8.05    0.47
   3 -12   1    8.55    0.45
  -4  11  -1   16.29    0.69
   4 -11  -1   16.05    0.65
   4 -11   1   14.99    0.63
  -4  11   1   14.78    0.67
  -5  10  -1   17.87    0.75
   5 -10  -1   17.67    0.71
  -5  10   1   18.55    0.75
   5 -10   1   18.73    0.72
  -6   9  -1   41.82    1.40
   6  -9  -1   44.91    1.37
  -6   9  -1   42.55    1.75
  -6   9   1   46.78    1.41
   6  -9   1   44.88    1.38
  -7   8  -1    5.38    0.64
   7  -8  -1    5.63    0.39
  -7   8  -1    5.65    0.42
   7  -8   1    7.27    0.44
  -8   7  -1   13.60    0.95
  -8   7  -1   13.13    0.67
   8  -7  -1   13.66    0.64
   8  -7   1   15.75    0.68
  -9   6  -1   14.95    0.99
   9  -6  -1   13.21    0.64
   9  -6   1   14.88    0.70
  10  -5  -1    6.33    0.45
  10  -5   1    6.27    0.47
   2  17  -2    5.21    0.40
   2  17  -2    5.74    0.40
   2  17   2    4.81    0.45
   1  16  -2    7.66    0.57
   1  16  -2    7.98    0.48
   1  16   2    7.51    0.53
   0  15  -2    1.66    0.30
   0  15  -2    1.39    0.24
   0 -15  -2    1.71    0.25
   0  15   2    1.40    0.27
  -1  14  -2    8.19    0.48
   1 -14  -2    8.58    0.49
  -1  14   2    8.45    0.51
  -2  13  -2    0.37    0.18
   2 -13  -2    1.05    0.21
  -2  13   2    0.92    0.23
   3 -12  -2    2.21    0.26
  -3  12  -2    2.62    0.29
  -3  12   2    1.53    0.25
   4 -11  -2    2.59    0.28
  -4  11  -2    2.28    0.29
  -4  11   2    2.75    0.29
   4 -11   2    3.21    0.28
  -5  10  -2    4.96    0.38
   5 -10  -2    4.58    0.35
  -5  10  -2    5.70    0.67
  -5  10   2    5.04    0.37
   5 -10   2    5.44    0.38
   6  -9  -2   21.75    0.82
  -6   9  -2   22.36    1.23
  -6   9  -2   20.17    0.85
   6  -9   2   21.33    0.82
  -7   8  -2    1.20    0.38
   7  -8  -2    1.62    0.24
  -7   8  -2    1.37    0.26
   7  -8   2    1.20    0.23
  -8   7  -2    9.48    0.57
   8  -7  -2    8.68    0.49
  -8   7  -2    9.05    0.86
   8  -7   2    8.78    0.52
   8  -7   2    9.66    0.90
   9  -6  -2    7.59    0.46
  -9   6  -2    7.04    0.80
   9  -6   2    6.30    0.81
   9  -6   2    7.95    0.51
 -10   5  -2    2.85    0.62
  10  -5  -2    2.71    0.30
  10  -5   2    2.30    0.64
  10  -5   2    2.54    0.34
   1  16  -3    0.11    0.26
   1  16  -3    0.85    0.20
   1  16   3    0.53    0.24
   0  15  -3    6.71    0.50
   0  15  -3    6.25    0.42
   0 -15  -3    7.10    0.48
   0  15   3    7.53    0.52
   1 -14  -3    0.99    0.22
  -1  14  -3    1.10    0.22
  -1  14   3    1.42    0.27
   2 -13  -3   12.39    0.61
  -2  13  -3   12.42    0.60
  -2  13   3   13.43    0.67
  -3  12  -3    2.70    0.30
   3 -12  -3    2.76    0.30
  -3  12   3    2.41    0.30
  -4  11  -3    7.92    0.47
   4 -11  -3    7.34    0.44
  -4  11   3    6.80    0.45
  -5  10  -3    5.02    0.40
   5 -10  -3    4.89    0.36
  -5  10  -3    5.70    0.71
  -6   9  -3    3.20    0.34
  -6   9  -3    3.44    0.60
   6  -9  -3    3.25    0.31
   6  -9   3    4.39    0.35
  -7   8  -3    5.21    0.43
   7  -8  -3    6.17    0.40
  -7   8  -3    5.62    0.73
   7  -8   3    5.16    0.40
   8  -7  -3    0.55    0.18
  -8   7  -3   -0.25    0.25
  -8   7  -3    0.33    0.22
   8  -7   3    0.44    0.21
   9  -6  -3    2.52    0.28
  -9   6  -3    2.51    0.59
  -9   6  -3    2.57    0.36
   9  -6   3    2.38    0.66
   9  -6   3    2.77    0.35
   0  15  -4   11.46    0.57
   0  15  -4   12.76    0.68
   0 -15  -4   12.36    0.66
   0  15   4   11.60    0.67
   1 -14  -4   10.47    0.59
  -1  14  -4   11.11    0.56
  -2  13  -4    7.92    0.49
   2 -13  -4    8.63    0.52
  -2  13   4   10.31    0.57
  -3  12  -4   15.95    0.71
   3 -12  -4   14.96    0.70
   4 -11  -4   14.22    0.67
  -4  11  -4   15.46    1.11
  -4  11  -4   16.19    0.72
  -5  10  -4    8.92    0.54
  -5  10  -4    8.05    0.86
   5 -10  -4    8.85    0.50
   6  -9  -4    1.70    0.25
  -6   9  -4    1.53    0.45
  -6   9  -4    1.80    0.30
  -7   8  -4   11.43    0.65
   7  -8  -4   10.65    0.55
  -7   8  -4    9.01    0.96
  -8   7  -4    7.28    0.55
   8  -7  -4    7.12    0.45
  -8   7  -4    7.52    0.91
   8  -7   4    7.60    0.52
   1 -14  -5    4.19    0.42
  -1  14  -5    4.54    0.37
   2 -13  -5    0.37    0.20
  -2  13  -5    0.84    0.22
   3 -12  -5    1.65    0.27
  -3  12  -5    0.98    0.24
  -4  11  -5    0.58    0.39
  -4  11  -5    1.49    0.27
   4 -11  -5    1.55    0.27
   5 -10  -5    1.97    0.27
  -5  10  -5    1.94    0.54
  -5  10  -5    1.13    0.27
  -6   9  -5    4.31    0.75
   6  -9  -5    3.54    0.34
  -6   9  -5    3.30    0.39
  -7   8  -5    4.74    0.79
  -7   8  -5    5.48    0.49
   7  -8  -5    5.01    0.39
   1  17   0    9.15    0.56
   0  16   0    6.06    0.45
  -1  15   0    6.59    0.45
  -2  14   0    1.85    0.26
   3 -13   0    7.08    0.43
  -3  13   0    7.38    0.48
   4 -12   0    0.04    0.13
  -4  12   0    0.13    0.15
  -5  11   0    8.10    0.49
   5 -11   0    9.26    0.49
  -6  10   0    0.75    0.20
   6 -10   0    0.97    0.20
  -7   9   0   35.40    1.21
   7  -9   0   33.97    1.17
   8  -8   0   27.35    1.01
   9  -7   0    7.73    0.50
  10  -6   0   16.41    0.77
   1  17  -1    0.24    0.18
   1  17   1    0.32    0.19
   0  16  -1    1.61    0.27
   0  16   1    1.30    0.28
  -1  15  -1    1.59    0.26
  -1  15   1    1.57    0.27
   2 -14  -1    3.91    0.34
  -2  14  -1    3.97    0.36
  -2  14   1    3.95    0.36
   3 -13  -1   17.73    0.73
  -3  13  -1   17.27    0.75
  -3  13   1   18.58    0.78
   4 -12  -1   12.67    0.59
  -4  12  -1   13.06    0.63
   4 -12   1   12.81    0.58
  -4  12   1   12.06    0.62
   5 -11  -1    0.91    0.20
  -5  11  -1    0.89    0.22
   5 -11   1    1.04    0.21
  -5  11   1    1.24    0.23
  -6  10  -1    6.80    0.48
   6 -10  -1    7.26    0.44
   6 -10   1    7.38    0.44
  -6  10   1    7.46    0.47
  -7   9  -1    1.33    0.25
   7  -9  -1    0.82    0.20
  -7   9  -1    1.44    0.40
   7  -9   1    0.97    0.22
   8  -8  -1    1.71    0.26
  -8   8  -1    2.24    0.31
  -8   8  -1    1.86    0.46
   8  -8   1    2.58    0.31
  -9   7  -1    2.17    0.53
   9  -7  -1    3.31    0.34
   9  -7   1    3.71    0.37
  10  -6  -1    6.30    0.46
  10  -6   1    6.22    0.47
   1  17  -2    0.32    0.18
   1  17   2    0.03    0.18
   0  16  -2   -0.23    0.14
   0  16   2    0.01    0.16
   1 -15  -2    8.20    0.49
  -1  15  -2    7.48    0.47
  -1  15   2    7.28    0.51
   2 -14  -2    7.92    0.47
  -2  14  -2    7.63    0.48
  -2  14   2    7.88    0.51
   3 -13  -2    9.41    0.50
  -3  13  -2    9.01    0.51
  -3  13   2    7.84    0.50
   4 -12  -2   16.22    0.70
  -4  12  -2   16.88    0.74
  -4  12   2   16.08    0.73
  -5  11  -2   26.35    1.01
   5 -11  -2   29.59    1.01
  -5  11   2   26.58    0.99
   5 -11   2   26.86    0.97
  -6  10  -2    0.29    0.26
  -6  10  -2    0.27    0.18
   6 -10  -2    0.32    0.17
   6 -10   2    0.11    0.15
   7  -9  -2   11.42    0.57
  -7   9  -2    9.72    0.58
  -7   9  -2   11.58    0.96
   7  -9   2   10.37    0.57
  -8   8  -2    2.40    0.34
   8  -8  -2    2.98    0.31
  -8   8  -2    1.91    0.49
   8  -8   2    2.47    0.32
  -9   7  -2    6.52    0.51
  -9   7  -2    6.37    0.78
   9  -7  -2    6.44    0.44
   9  -7   2    7.56    0.52
  10  -6  -2    5.42    0.41
 -10   6  -2    5.94    0.82
  10  -6   2    5.16    0.46
   0  16  -3   15.51    0.70
   0 -16  -3   15.66    0.75
   0  16   3   16.61    0.82
   1 -15  -3    4.09    0.38
  -1  15  -3    3.51    0.35
  -1  15   3    3.28    0.38
   2 -14  -3    9.97    0.56
  -2  14  -3    9.80    0.54
  -2  14   3    9.00    0.57
  -3  13  -3   12.32    0.62
   3 -13  -3   12.20    0.61
  -3  13   3   11.74    0.64
   4 -12  -3    6.43    0.44
  -4  12  -3    6.59    0.45
  -4  12   3    6.86    0.46
   5 -11  -3    2.12    0.27
  -5  11  -3    2.02    0.29
  -5  11  -3    1.34    0.44
   6 -10  -3   16.66    0.73
  -6  10  -3   17.13    1.15
  -6  10  -3   17.26    0.79
   6 -10   3   16.52    0.73
  -7   9  -3    8.47    0.56
   7  -9  -3    8.00    0.48
  -7   9  -3    7.13    0.83
   7  -9   3    7.18    0.49
  -8   8  -3   12.73    0.70
   8  -8  -3   13.08    0.63
  -8   8  -3   13.21    1.08
   8  -8   3   12.72    0.66
  -9   7  -3    4.12    0.43
  -9   7  -3    3.54    0.68
   9  -7  -3    3.38    0.34
   9  -7   3    5.18    0.45
   0  16  -4   -0.04    0.15
   0 -16  -4    0.07    0.17
   0  16   4   -0.13    0.17
   1 -15  -4    2.94    0.35
  -1  15  -4    2.48    0.30
  -1  15   4    3.03    0.37
   2 -14  -4    0.11    0.16
  -2  14  -4   -0.02    0.16
  -2  14   4   -0.07    0.15
   3 -13  -4    7.21    0.48
  -3  13  -4    7.88    0.49
  -4  12  -4    0.72    0.23
   4 -12  -4    0.85    0.22
  -5  11  -4    0.58    0.38
  -5  11  -4    1.92    0.30
   5 -11  -4    2.16    0.29
  -6  10  -4    1.79    0.30
  -6  10  -4    0.64    0.39
   6 -10  -4    1.81    0.26
  -7   9  -4    2.76    0.37
  -7   9  -4    2.74    0.62
   7  -9  -4    2.87    0.31
  -8   8  -4    0.13    0.21
  -8   8  -4    0.14    0.33
   8  -8  -4    0.16    0.16
   8  -8   4   -0.16    0.15
  -2  14  -5    8.59    0.53
   2 -14  -5    8.29    0.56
   3 -13  -5    8.86    0.56
  -3  13  -5    8.28    0.53
   4 -12  -5   13.52    0.68
  -4  12  -5   12.59    0.68
   5 -11  -5    6.75    0.48
  -5  11  -5    7.50    0.53
  -5  11  -5    7.25    0.92
  -6  10  -5   13.52    1.19
   6 -10  -5   13.34    0.65
  -6  10  -5   11.74    0.69
   1  18   0   -0.06    0.17
   0  17   0   -0.05    0.17
  -1  16   0    1.20    0.26
  -2  15   0    4.67    0.40
  -3  14   0    4.52    0.40
   3 -14   0    5.04    0.38
  -4  13   0    0.49    0.20
   4 -13   0    0.53    0.19
  -5  12   0    2.43    0.31
   5 -12   0    1.72    0.24
   6 -11   0    1.82    0.25
  -6  11   0    2.06    0.29
  -7  10   0    2.43    0.31
   7 -10   0    2.08    0.28
   8  -9   0    1.71    0.28
   9  -8   0    2.36    0.32
  10  -7   0    0.38    0.19
   1  18  -1    6.48    0.48
   1  18   1    6.94    0.51
   0  17  -1    7.65    0.52
   0  17   1    8.05    0.54
  -1  16  -1    7.82    0.51
  -1  16   1    9.04    0.56
   2 -15  -1   16.52    0.71
  -2  15  -1   15.89    0.74
  -2  15   1   15.27    0.74
   3 -14  -1    1.23    0.22
  -3  14  -1    1.58    0.26
  -3  14   1    1.70    0.28
  -4  13  -1    8.23    0.51
   4 -13  -1    8.07    0.47
   4 -13   1    8.24    0.47
  -4  13   1    7.69    0.50
  -5  12  -1   10.81    0.58
   5 -12  -1   10.11    0.54
   5 -12   1   10.20    0.54
  -5  12   1    9.75    0.56
  -6  11  -1   16.35    0.75
   6 -11  -1   17.07    0.73
   6 -11   1   16.50    0.71
  -6  11   1   17.24    0.76
   7 -10  -1    2.96    0.31
  -7  10  -1    2.44    0.33
  -7  10  -1    2.91    0.56
   7 -10   1    1.98    0.27
  -8   9  -1   14.64    1.04
   8  -9  -1   14.00    0.69
  -8   9  -1   15.78    0.76
   8  -9   1   15.21    0.72
   9  -8  -1    5.40    0.42
   9  -8   1    5.53    0.44
  10  -7  -1    3.71    0.38
  10  -7   1    4.13    0.41
   0  17  -2    3.32    0.35
   0  17   2    3.22    0.38
  -1  16  -2    7.99    0.51
   1 -16  -2    8.33    0.51
  -1  16   2    8.50    0.57
   2 -15  -2    0.78    0.21
  -2  15  -2    0.46    0.20
  -2  15   2    0.82    0.25
  -3  14  -2    3.81    0.36
   3 -14  -2    4.00    0.35
  -3  14   2    3.63    0.37
   4 -13  -2    4.17    0.36
  -4  13  -2    5.01    0.41
  -4  13   2    4.69    0.40
  -5  12  -2    6.26    0.46
   5 -12  -2    6.88    0.44
   5 -12   2    6.33    0.43
  -5  12   2    6.03    0.45
  -6  11  -2   15.52    0.76
   6 -11  -2   16.78    0.73
  -6  11  -2   14.67    1.06
   6 -11   2   16.39    0.72
  -7  10  -2    1.94    0.50
  -7  10  -2    2.13    0.31
   7 -10  -2    2.14    0.28
   7 -10   2    2.71    0.31
   8  -9  -2    3.81    0.36
  -8   9  -2    3.77    0.39
  -8   9  -2    3.64    0.65
   8  -9   2    3.90    0.38
  -9   8  -2    4.07    0.71
   9  -8  -2    5.26    0.41
  -9   8  -2    3.90    0.42
   9  -8   2    4.92    0.44
   0  17  -3    0.02    0.16
   0  17   3    0.15    0.21
  -1  16  -3    0.77    0.22
   1 -16  -3    0.60    0.21
  -1  16   3    0.49    0.22
   2 -15  -3    2.78    0.32
  -2  15  -3    2.38    0.31
  -2  15   3    3.43    0.38
  -3  14  -3    1.53    0.27
   3 -14  -3    0.86    0.23
  -3  14   3    1.54    0.28
   4 -13  -3    1.74    0.26
  -4  13  -3    1.45    0.26
  -4  13   3    1.33    0.28
   5 -12  -3    5.34    0.41
  -5  12  -3    6.04    0.47
  -6  11  -3    0.13    0.18
   6 -11  -3   -0.07    0.13
  -6  11  -3   -0.05    0.28
  -7  10  -3    4.45    0.72
  -7  10  -3    4.17    0.42
   7 -10  -3    4.02    0.36
   7 -10   3    4.36    0.40
  -8   9  -3    3.34    0.40
   8  -9  -3    4.14    0.37
  -8   9  -3    3.18    0.67
   8  -9   3    3.98    0.39
  -9   8  -3    3.18    0.68
   9  -8  -3    3.28    0.34
  -9   8  -3    3.63    0.41
   9  -8   3    3.21    0.38
  -2  15  -4    2.75    0.32
   2 -15  -4    2.52    0.34
  -2  15   4    2.70    0.37
  -3  14  -4    9.56    0.57
   4 -13  -4    9.54    0.57
  -4  13  -4    9.41    0.58
  -5  12  -4   13.09    1.12
   5 -12  -4   12.08    0.63
  -5  12  -4   11.51    0.65
  -6  11  -4    6.90    0.52
   6 -11  -4    7.43    0.48
  -6  11  -4    8.66    0.95
   7 -10  -4   18.44    0.81
  -7  10  -4   20.60    0.93
  -7  10  -4   16.60    1.26
   8  -9  -4    2.77    0.32
  -8   9  -4    3.32    0.41
   4 -13  -5    0.70    0.23
  -4  13  -5    0.66    0.25
  -5  12  -5    0.68    0.24
   5 -12  -5    0.76    0.23
   0  18   0   15.66    0.79
  -1  17   0    7.40    0.52
  -2  16   0   17.91    0.82
  -3  15   0   27.24    1.06
  -4  14   0   15.64    0.75
   4 -14   0   15.66    0.71
  -5  13   0    1.23    0.26
   5 -13   0    1.52    0.25
   6 -12   0    4.21    0.37
  -6  12   0    3.47    0.37
   7 -11   0    5.33    0.42
  -7  11   0    4.60    0.41
   8 -10   0   24.30    0.96
   9  -9   0    0.31    0.19
   0  18  -1    1.51    0.30
   0  18   1    1.90    0.33
  -1  17  -1    0.25    0.18
  -1  17   1    0.23    0.20
  -2  16  -1    0.39    0.20
  -2  16   1    0.00    0.16
  -3  15  -1    5.10    0.44
   3 -15  -1    6.32    0.43
  -3  15   1    5.46    0.44
   4 -14  -1    3.48    0.34
  -4  14  -1    2.65    0.34
  -4  14   1    3.05    0.35
  -5  13  -1    5.10    0.42
   5 -13  -1    4.24    0.37
  -5  13   1    5.02    0.43
   5 -13   1    5.48    0.40
  -6  12  -1    2.84    0.35
   6 -12  -1    2.57    0.31
   6 -12   1    3.07    0.32
  -6  12   1    3.28    0.36
  -7  11  -1    1.28    0.27
   7 -11  -1    0.90    0.22
   7 -11   1    0.88    0.22
   8 -10  -1    4.44    0.39
  -8  10  -1    4.30    0.43
  -8  10  -1    3.40    0.62
   8 -10   1    5.08    0.43
   9  -9  -1    0.17    0.18
   9  -9   1    0.09    0.19
  -1  17  -2    0.26    0.19
  -1  17   2    0.26    0.20
   2 -16  -2    4.85    0.41
  -2  16  -2    4.65    0.42
  -2  16   2    4.77    0.45
   3 -15  -2    0.57    0.20
  -3  15  -2    1.13    0.26
  -3  15   2    1.11    0.27
  -4  14  -2   10.69    0.62
   4 -14  -2   10.15    0.58
  -4  14   2   11.49    0.64
   5 -13  -2   10.59    0.58
  -5  13  -2   11.28    0.62
  -5  13   2    9.90    0.59
  -6  12  -2    7.30    0.52
   6 -12  -2    6.47    0.45
   6 -12   2    7.59    0.47
  -7  11  -2    7.80    0.55
   7 -11  -2    7.67    0.49
   7 -11   2    6.74    0.49
   8 -10  -2    3.80    0.37
  -8  10  -2    4.23    0.43
  -8  10  -2    2.98    0.64
   8 -10   2    2.65    0.34
  -9   9  -2    2.53    0.36
   9  -9  -2    2.46    0.32
  -9   9  -2    2.10    0.57
   9  -9   2    3.28    0.38
  -2  16  -3    7.96    0.53
  -2  16   3    9.15    0.60
  -3  15  -3   14.51    0.71
   3 -15  -3   12.10    0.66
  -3  15   3   15.22    0.75
  -4  14  -3    1.73    0.29
   4 -14  -3    1.80    0.28
  -4  14   3    2.00    0.31
  -5  13  -3    1.12    0.26
   5 -13  -3    1.07    0.24
   6 -12  -3    2.91    0.33
  -6  12  -3    2.85    0.37
   7 -11  -3    6.43    0.46
  -7  11  -3    5.97    0.84
  -7  11  -3    6.04    0.50
  -8  10  -3   12.34    0.72
   8 -10  -3   11.51    0.63
  -8  10  -3   12.76    1.14
   8 -10   3   12.09    0.66
   3 -15  -4    2.62    0.34
  -3  15  -4    3.38    0.37
   4 -14  -4    0.23    0.19
  -4  14  -4   -0.02    0.17
  -5  13  -4    1.21    0.28
   5 -13  -4    0.63    0.22
   6 -12  -4    1.11    0.25
  -6  12  -4    1.55    0.31
  -6  12  -4    0.70    0.42
   7 -11  -4    0.06    0.15
  -7  11  -4    0.19    0.19
  -1  18   0    0.08    0.19
  -2  17   0    1.11    0.27
  -3  16   0    0.03    0.17
   4 -15   0   -0.01    0.15
  -4  15   0   -0.21    0.14
   5 -14   0   -0.09    0.15
  -5  14   0   -0.06    0.17
   6 -13   0    0.17    0.16
  -6  13   0    0.23    0.19
   7 -12   0    0.24    0.17
  -7  12   0    0.00    0.18
   8 -11   0    1.09    0.25
   9 -10   0    1.41    0.27
  -1  18  -1    7.16    0.52
  -1  18   1    6.39    0.53
  -2  17  -1    2.69    0.35
  -2  17   1    3.39    0.39
  -3  16  -1    0.67    0.24
   3 -16  -1    1.12    0.24
  -3  16   1    1.24    0.27
  -4  15  -1    8.07    0.56
   4 -15  -1    8.80    0.54
  -4  15   1    9.31    0.58
   5 -14  -1   28.29    1.05
  -5  14  -1   27.22    1.09
  -5  14   1   26.70    1.07
   5 -14   1   26.57    1.01
  -6  13  -1    7.44    0.52
   6 -13  -1    6.93    0.48
   6 -13   1    7.85    0.49
  -6  13   1    6.99    0.52
   7 -12  -1    6.98    0.49
  -7  12  -1    7.64    0.53
   7 -12   1    6.93    0.48
   8 -11  -1   16.12    0.76
  -8  11  -1   17.08    0.83
   8 -11   1   15.42    0.76
   9 -10  -1    5.42    0.44
   9 -10   1    5.78    0.47
  -2  17  -2    5.82    0.47
  -2  17   2    4.58    0.45
  -3  16  -2    0.19    0.19
   3 -16  -2    0.10    0.17
  -3  16   2    0.15    0.19
   4 -15  -2   11.04    0.61
  -4  15  -2   11.71    0.66
  -4  15   2   11.89    0.67
  -5  14  -2    4.88    0.44
   5 -14  -2    4.31    0.40
  -5  14   2    3.63    0.39
   6 -13  -2    8.06    0.52
  -6  13  -2    8.51    0.56
   7 -12  -2    0.05    0.16
  -7  12  -2    0.28    0.21
   7 -12   2    0.53    0.20
  -8  11  -2    3.00    0.63
  -8  11  -2    3.22    0.39
   8 -11  -2    2.97    0.35
   8 -11   2    2.81    0.35
  -3  16  -3    3.43    0.38
   3 -16  -3    3.14    0.37
  -3  16   3    3.33    0.40
  -4  15  -3    0.25    0.20
   4 -15  -3   -0.10    0.15
  -4  15   3   -0.18    0.15
   5 -14  -3    1.31    0.28
  -5  14  -3    1.26    0.28
   6 -13  -3    1.15    0.26
  -6  13  -3    0.90    0.27
   7 -12  -3    1.56    0.28
  -7  12  -3    1.96    0.57
  -7  12  -3    1.53    0.32
  -3  17   0    8.19    0.57
  -4  16   0    4.35    0.43
  -5  15   0    3.17    0.38
   5 -15   0    3.30    0.36
  -6  14   0    6.38    0.50
   6 -14   0    6.22    0.46
  -7  13   0    0.33    0.21
   7 -13   0    0.64    0.23
   8 -12   0   17.74    0.82
  -3  17  -1    0.94    0.27
  -3  17   1    0.84    0.27
   4 -16  -1    0.05    0.16
  -4  16  -1    0.19    0.21
  -4  16   1   -0.02    0.18
   5 -15  -1    0.64    0.22
  -5  15  -1    0.56    0.24
  -5  15   1    0.92    0.26
  -6  14  -1    5.92    0.48
   6 -14  -1    5.46    0.44
   6 -14   1    4.69    0.41
  -6  14   1    5.14    0.46
   7 -13  -1    1.64    0.29
  -7  13  -1    1.82    0.32
   7 -13   1    1.57    0.28
  -8  12  -1    9.00    0.61
   8 -12  -1    8.54    0.57
   8 -12   1    9.03    0.58
   3 -17  -2    1.79    0.31
  -3  17  -2    1.77    0.32
  -3  17   2    1.52    0.32
  -4  16  -2    0.82    0.26
   4 -16  -2    0.78    0.24
  -4  16   2    1.19    0.28
   5 -15  -2    4.78    0.42
  -5  15  -2    3.30    0.40
  -5  15   2    4.28    0.44
   6 -14  -2    3.03    0.36
  -6  14  -2    3.35    0.39
  -7  13  -2    3.00    0.40
   7 -13  -2    4.18    0.41
   7 -13   2    3.83    0.39
  -4  17   0    2.83    0.39
  -5  16   0    2.06    0.34
   5 -16   0    2.03    0.31
   6 -15   0   -0.06    0.16
  -6  15   0    0.19    0.21
  -7  14   0    0.55    0.24
   7 -14   0    1.02    0.26
  -5  16  -1    6.61    0.54
   5 -16  -1    6.94    0.50
  -5  16   1    7.18    0.55
  -6  15  -1    1.26    0.30
   6 -15  -1    1.53    0.29
  -6  15   1    2.06    0.34
   7 -14  -1    2.88    0.37
   0   0   0    0.00    0.00
;
_shelx_hkl_checksum              91221
_shelx_res_file
;
TITL tartrato in P2(1)2(1)2
CELL 0.71073   7.7390  12.8030   5.8290  90.0000  90.0000  90.0000
ZERR         2     0.0001   0.0002   0.0001   0.0000   0.0000   0.0000
LATT -1
SYMM -x,-y,z
SYMM 1/2+x,1/2-y,-z
SYMM 1/2-x,1/2+y,-z
SFAC C H O Ca
UNIT   8   32   24   2
EQIV $1 -x+1/2, y-1/2, -z
HTAB O1 O6_$1
EQIV $2 -x, -y+1, z-1
HTAB O1 O2_$2
EQIV $3 x, y, z-1
HTAB O4 O3_$3
EQIV $4 -x+1/2, y-1/2, -z+1
HTAB O5 O6_$4
HTAB O5 O3_$4
EQIV $5 x-1/2, -y+3/2, -z+1
HTAB O6 O3_$5
EQIV $6 -x, -y+1, z
HTAB O6 O1_$6
HTAB C2 O4
ACTA
L.S.     30
WGHT    0.100000
FVAR       0.33784
CA1   4    0.000000    0.500000    0.310788    10.50000    0.01416    0.02106 =
         0.01374    0.00000    0.00000   -0.00108
O1    3   -0.017707    0.379752   -0.009149    11.00000    0.02334    0.03203 =
         0.01735    0.00064   -0.00012    0.00573
H1    2    0.079030    0.348638   -0.059208    11.00000   -1.20000
H2    2   -0.065023    0.410645   -0.129074    11.00000   -1.20000
O2    3    0.185784    0.534328    0.628588    11.00000    0.01595    0.04312 =
         0.01978   -0.00662    0.00357   -0.00544
O3    3    0.420041    0.604000    0.786023    11.00000    0.02352    0.04288 =
         0.01976   -0.00705   -0.00117   -0.00878
O4    3    0.314873    0.536678    0.216384    11.00000    0.01648    0.04878 =
         0.01494    0.00596   -0.00173    0.00196
H8    2    0.359391    0.559627    0.085438    11.00000   -1.20000
O5    3    0.115286    0.327513    0.418490    11.00000    0.06939    0.02890 =
         0.03679   -0.00175   -0.02442    0.00641
H3    2    0.166034    0.310697    0.550641    11.00000   -1.20000
H4    2    0.141131    0.274831    0.323221    11.00000   -1.20000
O6    3    0.221631    0.790133    0.164576    11.00000    0.02221    0.03022 =
         0.04517   -0.00546   -0.00060   -0.00289
H5    2    0.132476    0.833111    0.164665    11.00000   -1.20000
H6    2    0.188285    0.734582    0.091932    11.00000   -1.20000
C1    1    0.340891    0.562544    0.621983    11.00000    0.01599    0.02195 =
         0.01520   -0.00139    0.00094    0.00085
C2    1    0.439028    0.548061    0.395389    11.00000    0.01349    0.02554 =
         0.01437    0.00096   -0.00013    0.00094
H7    2    0.507657    0.611867    0.376161    11.00000   -1.20000
DFIX 0.89 O1 H1 O1 H2 O4 H8 O5 H3 O5 H4 O6 H5 O6 H6
DFIX 0.99 C2 H7
HKLF 4
REM  tartrato in P2(1)2(1)2
REM R1 =  0.0214 for    1700 Fo > 4sig(Fo)  and  0.0228 for all    1759 data
REM    102 parameters refined using      8 restraints
END
WGHT      0.0350      0.0578
REM Highest difference peak  0.293,  deepest hole -0.188,  1-sigma level  0.045
Q1    1   0.5000  0.5000  0.4033  10.50000  0.05    0.29
Q2    1   0.3923  0.5525  0.5137  11.00000  0.05    0.23
Q3    1   0.0000  0.5000  0.3874  10.50000  0.05    0.21
Q4    1   0.0676  0.4944  0.3231  11.00000  0.05    0.20
Q5    1   0.4795  0.6767  0.7358  11.00000  0.05    0.16
Q6    1   0.0000  0.5000  0.2009  10.50000  0.05    0.16
Q7    1   0.0289  0.2744  0.4135  11.00000  0.05    0.14
Q8    1   0.5058  0.6227  0.7147  11.00000  0.05    0.13
Q9    1   0.4295  0.5488  0.8056  11.00000  0.05    0.13
Q10   1   0.1944  0.5841  0.5710  11.00000  0.05    0.13
Q11   1   0.0651  0.3573  0.3055  11.00000  0.05    0.12
Q12   1   0.0000  0.5000  0.0098  10.50000  0.05    0.12
Q13   1  -0.0477  0.3006  0.5895  11.00000  0.05    0.12
Q14   1   0.3747  0.5988  0.6940  11.00000  0.05    0.12
Q15   1   0.5136  0.5812  0.4128  11.00000  0.05    0.12
Q16   1  -0.0178  0.3182 -0.0373  11.00000  0.05    0.11
Q17   1   0.1936  0.7405  0.2079  11.00000  0.05    0.11
Q18   1   0.2270  0.5005  0.2382  11.00000  0.05    0.11
Q19   1   0.0081  0.4538  0.0531  11.00000  0.05    0.11
Q20   1   0.3087  0.4575  0.2366  11.00000  0.05    0.11
;
_shelx_res_checksum              46572
_shelxl_version_number           .2013
#END Tags that were not found in dictionaries
loop_
_space_group_symop_operation_xyz
'x, y, z'
'-x, -y, z'
'x+1/2, -y+1/2, -z'
'-x+1/2, y+1/2, -z'
loop_
_atom_site_type_symbol
_atom_site_label
_atom_site_fract_x
_atom_site_fract_y
_atom_site_fract_z
_atom_site_U_iso_or_equiv
_atom_site_adp_type
_atom_site_calc_flag
_atom_site_occupancy
Ca Ca1 0.0000 0.5000 0.31079(6) 0.01632(12) Uani d 1
O O1 -0.01771(16) 0.37975(10) -0.00915(19) 0.0242(2) Uani d 1
O O2 0.18578(15) 0.53433(11) 0.6286(2) 0.0263(3) Uani d 1
O O3 0.42004(16) 0.60400(11) 0.7860(2) 0.0287(3) Uani d 1
O O4 0.31487(15) 0.53668(11) 0.2164(2) 0.0267(3) Uani d 1
O O5 0.1153(3) 0.32751(12) 0.4185(3) 0.0450(4) Uani d 1
O O6 0.22163(16) 0.79013(10) 0.1646(3) 0.0325(3) Uani d 1
C C1 0.34089(18) 0.56254(11) 0.6220(2) 0.0177(3) Uani d 1
C C2 0.43903(19) 0.54806(11) 0.3954(2) 0.0178(2) Uani d 1
H H1 0.079(3) 0.3486(18) -0.059(5) 0.029 Uiso d 1
H H2 -0.065(3) 0.4106(17) -0.129(4) 0.029 Uiso d 1
H H3 0.166(4) 0.311(3) 0.551(5) 0.054 Uiso d 1
H H4 0.141(4) 0.275(2) 0.323(6) 0.054 Uiso d 1
H H5 0.132(3) 0.833(2) 0.165(6) 0.039 Uiso d 1
H H6 0.188(4) 0.7346(19) 0.092(5) 0.039 Uiso d 1
H H7 0.508(3) 0.6119(16) 0.376(4) 0.021 Uiso d 1
H H8 0.359(3) 0.560(2) 0.085(4) 0.032 Uiso d 1
loop_
_atom_site_aniso_label
_atom_site_aniso_U_11
_atom_site_aniso_U_22
_atom_site_aniso_U_33
_atom_site_aniso_U_12
_atom_site_aniso_U_13
_atom_site_aniso_U_23
Ca1 0.01416(17) 0.02106(19) 0.01374(18) -0.00108(12) 0.000 0.000
O1 0.0233(5) 0.0320(5) 0.0173(5) 0.0057(4) -0.0001(4) 0.0006(4)
O2 0.0159(4) 0.0431(6) 0.0198(5) -0.0054(5) 0.0036(4) -0.0066(4)
O3 0.0235(5) 0.0429(6) 0.0198(5) -0.0088(5) -0.0012(4) -0.0071(5)
O4 0.0165(4) 0.0488(7) 0.0149(4) 0.0020(5) -0.0017(4) 0.0060(5)
O5 0.0694(11) 0.0289(6) 0.0368(8) 0.0064(7) -0.0244(8) -0.0017(6)
O6 0.0222(5) 0.0302(6) 0.0452(8) -0.0029(4) -0.0006(5) -0.0055(6)
C1 0.0160(6) 0.0219(6) 0.0152(5) 0.0009(4) 0.0009(4) -0.0014(5)
C2 0.0135(5) 0.0255(6) 0.0144(5) 0.0009(5) -0.0001(4) 0.0010(5)
loop_
_atom_type_symbol
_atom_type_description
_atom_type_scat_dispersion_real
_atom_type_scat_dispersion_imag
_atom_type_scat_source
C C 0.0033 0.0016 'International Tables Vol C Tables 4.2.6.8 and 6.1.1.4'
H H 0.0000 0.0000 'International Tables Vol C Tables 4.2.6.8 and 6.1.1.4'
O O 0.0106 0.0060 'International Tables Vol C Tables 4.2.6.8 and 6.1.1.4'
Ca Ca 0.2262 0.3064 'International Tables Vol C Tables 4.2.6.8 and 6.1.1.4'
loop_
_geom_angle_atom_site_label_1
_geom_angle_atom_site_label_2
_geom_angle_atom_site_label_3
_geom_angle_site_symmetry_1
_geom_angle_site_symmetry_3
_geom_angle
O1 Ca1 O1 . 2_565 79.30(6)
O1 Ca1 O2 . . 138.50(4)
O1 Ca1 O2 2_565 . 116.53(4)
O1 Ca1 O2 . 2_565 116.53(4)
O1 Ca1 O2 2_565 2_565 138.50(4)
O2 Ca1 O2 . 2_565 78.13(6)
O1 Ca1 O5 . . 69.32(5)
O1 Ca1 O5 2_565 . 138.21(6)
O2 Ca1 O5 . . 75.46(5)
O2 Ca1 O5 2_565 . 81.68(6)
O1 Ca1 O5 . 2_565 138.21(6)
O1 Ca1 O5 2_565 2_565 69.32(5)
O2 Ca1 O5 . 2_565 81.68(6)
O2 Ca1 O5 2_565 2_565 75.46(5)
O5 Ca1 O5 . 2_565 150.47(9)
O1 Ca1 O4 . 2_565 70.22(4)
O1 Ca1 O4 2_565 2_565 90.29(4)
O2 Ca1 O4 . 2_565 141.25(4)
O2 Ca1 O4 2_565 2_565 63.66(4)
O5 Ca1 O4 . 2_565 103.70(5)
O5 Ca1 O4 2_565 2_565 82.74(6)
O1 Ca1 O4 . . 90.29(4)
O1 Ca1 O4 2_565 . 70.22(4)
O2 Ca1 O4 . . 63.66(4)
O2 Ca1 O4 2_565 . 141.25(4)
O5 Ca1 O4 . . 82.74(6)
O5 Ca1 O4 2_565 . 103.70(5)
O4 Ca1 O4 2_565 . 154.99(5)
C1 O2 Ca1 . . 127.30(10)
C2 O4 Ca1 . . 120.43(9)
O2 C1 O3 . . 124.49(14)
O2 C1 C2 . . 117.73(13)
O3 C1 C2 . . 117.76(13)
O4 C2 C1 . . 107.98(12)
O4 C2 C2 . 2_665 109.20(11)
C1 C2 C2 . 2_665 113.39(9)
loop_
_geom_bond_atom_site_label_1
_geom_bond_atom_site_label_2
_geom_bond_site_symmetry_2
_geom_bond_distance
Ca1 O1 . 2.4222(12)
Ca1 O1 2_565 2.4222(12)
Ca1 O2 . 2.3858(12)
Ca1 O2 2_565 2.3858(12)
Ca1 O5 . 2.4631(15)
Ca1 O5 2_565 2.4631(15)
Ca1 O4 2_565 2.5419(12)
Ca1 O4 . 2.5419(12)
O2 C1 . 1.2541(18)
O3 C1 . 1.2535(18)
O4 C2 . 1.4259(18)
C1 C2 . 1.535(2)
C2 C2 2_665 1.551(3)
loop_
_geom_hbond_atom_site_label_D
_geom_hbond_atom_site_label_H
_geom_hbond_atom_site_label_A
_geom_hbond_site_symmetry_A
_geom_hbond_distance_DH
_geom_hbond_distance_HA
_geom_hbond_distance_DA
_geom_hbond_angle_DHA
O1 H1 O6 4_545 0.90(2) 1.82(2) 2.7180(17) 178(2)
O1 H2 O2 2_564 0.883(19) 1.834(19) 2.7131(16) 173(3)
O4 H8 O3 1_554 0.89(2) 1.89(2) 2.7746(18) 171(2)
O5 H3 O6 4_546 0.89(2) 1.89(2) 2.780(2) 174(3)
O5 H4 O3 4_546 0.90(2) 2.33(3) 3.112(2) 146(3)
O6 H5 O3 3_466 0.88(2) 1.85(2) 2.7143(18) 165(3)
O6 H6 O1 2_565 0.87(2) 2.06(2) 2.8717(18) 156(3)
