#------------------------------------------------------------------------------
#$Date: 2018-07-21 22:54:28 +0300 (Sat, 21 Jul 2018) $
#$Revision: 209177 $
#$URL: file:///home/coder/svn-repositories/cod/cif/2/31/07/2310780.cif $
#------------------------------------------------------------------------------
#
# This file is available in the Crystallography Open Database (COD),
# http://www.crystallography.net/. The original data for this entry
# were provided by IUCr Journals, http://journals.iucr.org/.
#
# The file may be used within the scientific community so long as
# proper attribution is given to the journal article from which the
# data were obtained.
#
data_2310780
loop_
_publ_author_name
'Batuk, Dmitry'
'Batuk, Maria'
'Abakumov, Artem M.'
'Hadermann, Joke'
_publ_section_title
;
 Synergy between transmission electron microscopy and powder diffraction:
 application to modulated structures.
;
_journal_coden_ASTM              ACSBDA
_journal_coeditor_code           DQ5010
_journal_issue                   2
_journal_name_full
;
 Acta Crystallographica, Section B: Structural Science, Crystal Engineering
 and Materials
;
_journal_page_first              127
_journal_page_last               143
_journal_paper_doi               10.1107/S2052520615005466
_journal_volume                  71
_journal_year                    2015
_chemical_formula_sum            'Bi0.097 Fe1.049 O2.585 Pb0.856'
_chemical_formula_weight         297.6
_space_group_crystal_system      monoclinic
_space_group_IT_number           12
_space_group_name_Hall           '-I 2y'
_space_group_name_H-M_alt        'I 1 2/m 1'
_space_group_ssg_name            X2/m(\a0\g)00
_cell_angle_alpha                90
_cell_angle_beta                 92.603(3)
_cell_angle_gamma                90
_cell_formula_units_Z            1
_cell_length_a                   3.93492(13)
_cell_length_b                   3.93193(10)
_cell_length_c                   4.00171(14)
_cell_measurement_temperature    900
_cell_modulation_dimension       1
_cell_volume                     61.850(3)
_diffrn_ambient_temperature      900
_diffrn_radiation_probe          neutron
_diffrn_radiation_wavelength     1.8857
_exptl_absorpt_coefficient_mu    0.005
_exptl_crystal_density_diffrn    7.989
_exptl_crystal_F_000             126
_pd_instr_location               ' ?'
_pd_meas_2theta_range_inc        0.05
_pd_meas_2theta_range_max        164.600
_pd_meas_2theta_range_min        3.650
_pd_meas_number_of_points        3220
_pd_proc_2theta_range_inc        0.05
_pd_proc_2theta_range_max        159.95
_pd_proc_2theta_range_min        6.05
_pd_proc_ls_background_function  '7 Legendre polynoms'
_pd_proc_ls_pref_orient_corr     none
_pd_proc_ls_profile_function     Pseudo-Voigt
_pd_proc_ls_prof_R_factor        0.0391
_pd_proc_ls_prof_wR_expected     0.0197
_pd_proc_ls_prof_wR_factor       0.0495
_refine_ls_goodness_of_fit_all   2.51
_refine_ls_number_constraints    7
_refine_ls_number_parameters     65
_refine_ls_number_restraints     0
_refine_ls_R_factor_all          0.0396
_refine_ls_R_factor_gt           0.0386
_refine_ls_shift/su_max          0.0574
_refine_ls_shift/su_mean         0.0353
_refine_ls_weighting_scheme      sigma
_refine_ls_wR_factor_all         0.0500
_refine_ls_wR_factor_gt          0.0499
_cod_data_source_file            dq5010sup1.cif
_cod_data_source_block           I
_cod_depositor_comments
;
 Updating space group information.

 Antanas Vaitkus,
 2018-07-22
;
_cod_database_code               2310780
_publcif_datablock.id            {f107b8ec-5bd8-43c4-a9b2-5ccedc9e6d92}
_publcif_info_exptl_table_max_cols 4
_publcif_info_exptl_table_use_headnotes n
loop_
_space_group_symop_id
_space_group_symop_operation_xyz
1 x,y,z
2 -x,y,-z
3 x+0.5,y+0.5,z+0.5
4 -x+0.5,y+0.5,-z+0.5
5 -x,-y,-z
6 x,-y,z
7 -x+0.5,-y+0.5,-z+0.5
8 x+0.5,-y+0.5,z+0.5
loop_
_space_group_symop_ssg_id
_space_group_symop_ssg_operation_algebraic
1 x1,x2,x3,x4
2 -x1,x2,-x3,-x4
3 -x1,-x2,-x3,-x4
4 x1,-x2,x3,x4
5 x1+1/2,x2+1/2,x3+1/2,x4+1/2
6 -x1+1/2,x2+1/2,-x3+1/2,-x4+1/2
7 -x1+1/2,-x2+1/2,-x3+1/2,-x4+1/2
8 x1+1/2,-x2+1/2,x3+1/2,x4+1/2
loop_
_atom_site_label
_atom_site_type_symbol
_atom_site_fract_x
_atom_site_fract_y
_atom_site_fract_z
_atom_site_adp_type
_atom_site_U_iso_or_equiv
_atom_site_site_symmetry_multiplicity
_atom_site_occupancy
_atom_site_calc_flag
Fe1 Fe 0 0 0 Uiso 0.0174(4) 2 0.52465(11) d
Pb1 Pb 0 0 0 Uiso 0.0536(9) 2 0.42782(10) d
Bi1 Bi 0 0 0 Uiso 0.0536(9) 2 0.0487 d
O1 O 0 0.5 0 Uani 0.0393(16) 2 0.52465(11) d
O2 O 0.5 0 0 Uiso 0.0463(17) 2 0.35938(19) d
O3 O 0 0 0.5 Uiso 0.0489(12) 2 0.40867(11) d
loop_
_atom_site_aniso_label
_atom_site_aniso_type_symbol
_atom_site_aniso_U_11
_atom_site_aniso_U_22
_atom_site_aniso_U_33
_atom_site_aniso_U_12
_atom_site_aniso_U_13
_atom_site_aniso_U_23
O1 O 0.065(3) 0.0036(12) 0.050(4) 0 0.006(2) 0
loop_
_atom_site_Fourier_wave_vector_seq_id
_jana_atom_site_fourier_wave_vector_q1_coeff
1 1
2 2
loop_
_atom_site_occ_special_func_atom_site_label
_atom_site_occ_special_func_crenel_c
_atom_site_occ_special_func_crenel_w
Fe1 0 0.52465(11)
Pb1 0.5 0.47535(11)
Bi1 0.5 0.4868
O1 0 0.52465(11)
O2 0 0.35938(19)
O3 0 0.40867(11)
loop_
_atom_type_symbol
_atom_type_scat_length_neutron
_atom_type_scat_source
Pb 9.405 International_Tables_Vol_C
Bi 8.532 International_Tables_Vol_C
Fe 9.450 International_Tables_Vol_C
O 5.803 International_Tables_Vol_C
loop_
_cell_wave_vector_seq_id
_cell_wave_vector_x
_cell_wave_vector_y
_cell_wave_vector_z
1 0.066678 0.000000 0.115975
loop_
_geom_angle_atom_site_label_1
_geom_angle_atom_site_label_2
_geom_angle_atom_site_label_3
_geom_angle_site_ssg_symmetry_1
_geom_angle_site_ssg_symmetry_3
_geom_angle_av
_geom_angle_min
_geom_angle_max
Fe1 Fe1 Fe1 1_4555 1_5455 90.0(3) 90.0(2) 90.0(2)
Fe1 Fe1 Fe1 1_4555 1_5545 90.9(3) 87.1(3) 92.1(3)
Fe1 Fe1 Fe1 1_4555 1_5565 89.1(3) 86.9(3) 94.1(3)
Fe1 Fe1 Fe1 1_4555 1_5655 90.0(3) 90.0(2) 90.0(2)
Fe1 Fe1 Fe1 1_4555 1_6555 178.1(4) 176.2(4) 180.0(5)
Fe1 Fe1 Fe1 1_4555 5_4445 52.2(3) 51.8(3) 52.3(3)
Fe1 Fe1 Fe1 1_4555 5_4455 50.0(3) 49.3(3) 50.7(3)
Fe1 Fe1 Fe1 1_4555 5_4545 52.2(3) 51.8(3) 52.3(3)
Fe1 Fe1 Fe1 1_4555 5_4555 50.0(3) 49.3(3) 50.7(3)
Fe1 Fe1 Fe1 1_4555 5_5455 126.8(4) 125.6(4) 129.7(3)
Fe1 Fe1 Fe1 1_4555 5_5555 126.8(4) 125.6(4) 129.7(3)
Fe1 Fe1 Pb1 1_4555 1_5545 87.2(5) 86.5(5) 87.5(4)
Fe1 Fe1 Pb1 1_4555 1_5565 89.6(5) 88.7(5) 91.2(4)
Fe1 Fe1 Pb1 1_4555 1_6555 170.0(4) 167.0(4) 171.7(5)
Fe1 Fe1 Pb1 1_4555 5_4445 55.6(4) 53.2(4) 60.3(5)
Fe1 Fe1 Pb1 1_4555 5_4455 54.2(4) 52.0(4) 60.5(4)
Fe1 Fe1 Pb1 1_4555 5_4545 55.6(4) 53.2(4) 60.3(5)
Fe1 Fe1 Pb1 1_4555 5_4555 54.2(4) 52.0(4) 60.5(4)
Fe1 Fe1 Pb1 1_4555 5_5445 124.7(4) 115.3(4) 126.9(4)
Fe1 Fe1 Pb1 1_4555 5_5455 125.0(5) 117.7(6) 126.9(4)
Fe1 Fe1 Pb1 1_4555 5_5545 124.7(4) 115.3(4) 126.9(4)
Fe1 Fe1 Pb1 1_4555 5_5555 125.0(5) 117.7(6) 126.9(4)
Fe1 Fe1 Bi1 1_4555 1_5545 87.6(5) 87.1(5) 87.8(4)
Fe1 Fe1 Bi1 1_4555 . 101.8(18) 101.8(18) 101.8(18)
Fe1 Fe1 Bi1 1_4555 1_5565 89.3(5) 88.5(5) 91.2(4)
Fe1 Fe1 Bi1 1_4555 1_6555 170.6(4) 167.2(4) 172.3(5)
Fe1 Fe1 Bi1 1_4555 5_4445 55.7(4) 53.3(4) 60.5(5)
Fe1 Fe1 Bi1 1_4555 5_4455 54.2(4) 52.2(4) 60.5(4)
Fe1 Fe1 Bi1 1_4555 5_4545 55.7(4) 53.3(4) 60.5(5)
Fe1 Fe1 Bi1 1_4555 5_4555 54.2(4) 52.2(4) 60.5(4)
Fe1 Fe1 Bi1 1_4555 5_5445 124.7(4) 115.5(4) 126.9(4)
Fe1 Fe1 Bi1 1_4555 5_5455 124.9(5) 117.3(6) 126.9(4)
Fe1 Fe1 Bi1 1_4555 5_5545 124.7(4) 115.5(4) 126.9(4)
Fe1 Fe1 Bi1 1_4555 5_5555 124.9(5) 117.3(6) 126.9(4)
Fe1 Fe1 O1 1_4555 1_5455 89.7(17) 86.9(16) 91.8(17)
Fe1 Fe1 O1 1_4555 . 89.7(17) 86.9(16) 91.8(17)
Fe1 Fe1 O1 1_4555 5_4445 20.3(12) 17.9(11) 22.0(12)
Fe1 Fe1 O1 1_4555 5_4455 20.0(10) 19.0(11) 20.7(10)
Fe1 Fe1 O1 1_4555 5_5455 155.8(13) 153.7(13) 159.2(12)
Fe1 Fe1 O2 1_4555 1_4555 8(2) 0(2) 17(2)
Fe1 Fe1 O2 1_4555 . 171(2) 161(2) 180(2)
Fe1 Fe1 O3 1_4555 1_5545 90.9(4) 88.1(4) 92.8(3)
Fe1 Fe1 O3 1_4555 . 89.1(4) 86.3(3) 94.9(5)
Fe1 Fe1 Fe1 1_5455 1_5545 90.00(15) 90 90
Fe1 Fe1 Fe1 1_5455 1_5565 90.00(15) 90 90
Fe1 Fe1 Fe1 1_5455 1_5655 180.0(5) 180.0(5) 180.0(5)
Fe1 Fe1 Fe1 1_5455 1_6555 90.00(17) 90 90
Fe1 Fe1 Fe1 1_5455 5_4445 49.8(2) 49.2(2) 50.2(2)
Fe1 Fe1 Fe1 1_5455 5_4455 51.3(2) 51.1(2) 51.4(2)
Fe1 Fe1 Fe1 1_5455 5_4545 130.2(3) 129.8(3) 130.8(2)
Fe1 Fe1 Fe1 1_5455 5_4555 128.7(2) 128.6(2) 128.9(2)
Fe1 Fe1 Fe1 1_5455 5_5445 51.3(2) 51.1(2) 51.4(2)
Fe1 Fe1 Fe1 1_5455 5_5455 49.8(2) 49.2(2) 50.2(2)
Fe1 Fe1 Fe1 1_5455 5_5545 128.7(2) 128.6(2) 128.9(2)
Fe1 Fe1 Fe1 1_5455 5_5555 130.2(3) 129.8(3) 130.8(2)
Fe1 Fe1 Pb1 1_5455 1_4555 90.00(12) 90.00(10) 90.00(10)
Fe1 Fe1 Pb1 1_5455 1_5545 90.00(16) 90.00(9) 90.00(9)
Fe1 Fe1 Pb1 1_5455 1_5565 90.00(16) 90.0(3) 90.0(3)
Fe1 Fe1 Pb1 1_5455 1_6555 90.00(12) 90.00(18) 90.00(18)
Fe1 Fe1 Pb1 1_5455 5_4445 54.9(3) 53.8(3) 58.9(2)
Fe1 Fe1 Pb1 1_5455 5_4455 55.8(3) 54.0(3) 57.9(2)
Fe1 Fe1 Pb1 1_5455 5_4545 125.1(3) 121.1(2) 126.2(4)
Fe1 Fe1 Pb1 1_5455 5_4555 124.2(4) 122.1(3) 126.0(4)
Fe1 Fe1 Pb1 1_5455 5_5445 55.8(3) 54.0(3) 57.9(2)
Fe1 Fe1 Pb1 1_5455 5_5455 54.9(3) 53.8(3) 58.9(2)
Fe1 Fe1 Pb1 1_5455 5_5545 124.2(4) 122.1(3) 126.0(4)
Fe1 Fe1 Pb1 1_5455 5_5555 125.1(3) 121.1(2) 126.2(4)
Fe1 Fe1 Bi1 1_5455 1_4555 90.00(13) 90.00(10) 90.00(10)
Fe1 Fe1 Bi1 1_5455 1_5545 90.00(16) 90.00(9) 90.00(9)
Fe1 Fe1 Bi1 1_5455 . 90.00(9) 90.00(9) 90.00(9)
Fe1 Fe1 Bi1 1_5455 1_5565 90.00(16) 90.0(3) 90.0(3)
Fe1 Fe1 Bi1 1_5455 1_6555 90.00(13) 90.0(2) 90.0(2)
Fe1 Fe1 Bi1 1_5455 5_4445 54.9(3) 53.7(3) 58.9(2)
Fe1 Fe1 Bi1 1_5455 5_4455 55.8(3) 54.0(3) 57.5(3)
Fe1 Fe1 Bi1 1_5455 5_4545 125.1(3) 121.1(2) 126.3(4)
Fe1 Fe1 Bi1 1_5455 5_4555 124.2(4) 122.5(3) 126.0(4)
Fe1 Fe1 Bi1 1_5455 5_5445 55.8(3) 54.0(3) 57.5(3)
Fe1 Fe1 Bi1 1_5455 5_5455 54.9(3) 53.7(3) 58.9(2)
Fe1 Fe1 Bi1 1_5455 5_5545 124.2(4) 122.5(3) 126.0(4)
Fe1 Fe1 Bi1 1_5455 5_5555 125.1(3) 121.1(2) 126.3(4)
Fe1 Fe1 O1 1_5455 1_5455 12.3(10) 0.0(5) 19.4(10)
Fe1 Fe1 O1 1_5455 . 167.7(10) 160.6(10) 180.0(5)
Fe1 Fe1 O1 1_5455 5_4445 90.00(17) 90.00(10) 90.00(10)
Fe1 Fe1 O1 1_5455 5_4455 90.00(11) 90.00(13) 90.00(13)
Fe1 Fe1 O1 1_5455 5_5445 90.00(11) 90.00(10) 90.00(10)
Fe1 Fe1 O1 1_5455 5_5455 90.00(17) 90.0(3) 90.0(3)
Fe1 Fe1 O2 1_5455 1_4555 90.00(17) 90 90
Fe1 Fe1 O2 1_5455 . 90.00(17) 90 90
Fe1 Fe1 O3 1_5455 1_5545 90.00(15) 90 90
Fe1 Fe1 O3 1_5455 . 90.00(15) 90 90
Fe1 Fe1 Fe1 1_5545 1_5565 178.9(4) 178.0(4) 180.0(5)
Fe1 Fe1 Fe1 1_5545 1_5655 90.0(3) 90.0(2) 90.0(2)
Fe1 Fe1 Fe1 1_5545 1_6555 89.1(3) 86.9(3) 94.1(3)
Fe1 Fe1 Fe1 1_5545 5_4455 114.8(3) 114.4(3) 115.0(3)
Fe1 Fe1 Fe1 1_5545 5_4555 114.8(3) 114.4(3) 115.0(3)
Fe1 Fe1 Fe1 1_5545 5_5455 118.9(4) 116.1(3) 120.4(3)
Fe1 Fe1 Fe1 1_5545 5_5555 118.9(4) 116.1(3) 120.4(3)
Fe1 Fe1 Pb1 1_5545 1_5565 178.4(5) 177.7(5) 179.7(6)
Fe1 Fe1 Pb1 1_5545 1_6555 81.7(4) 79.9(4) 82.4(4)
Fe1 Fe1 Pb1 1_5545 5_4445 54.3(4) 46.9(4) 58.6(4)
Fe1 Fe1 Pb1 1_5545 5_4455 125.7(4) 124.1(5) 129.8(5)
Fe1 Fe1 Pb1 1_5545 5_4545 54.3(4) 46.9(4) 58.6(4)
Fe1 Fe1 Pb1 1_5545 5_4555 125.7(4) 124.1(5) 129.8(5)
Fe1 Fe1 Pb1 1_5545 5_5445 52.6(4) 46.3(4) 54.9(4)
Fe1 Fe1 Pb1 1_5545 5_5455 123.7(5) 121.4(4) 130.9(5)
Fe1 Fe1 Pb1 1_5545 5_5545 52.6(4) 46.3(4) 54.9(4)
Fe1 Fe1 Pb1 1_5545 5_5555 123.7(5) 121.4(4) 130.9(5)
Fe1 Fe1 Bi1 1_5545 . 14.7(18) 14.7(18) 14.7(18)
Fe1 Fe1 Bi1 1_5545 1_5565 178.3(5) 177.6(5) 179.8(6)
Fe1 Fe1 Bi1 1_5545 1_6555 82.1(4) 80.1(4) 82.9(4)
Fe1 Fe1 Bi1 1_5545 5_4445 54.4(4) 46.6(4) 58.5(4)
Fe1 Fe1 Bi1 1_5545 5_4455 125.6(4) 124.1(5) 129.8(5)
Fe1 Fe1 Bi1 1_5545 5_4545 54.4(4) 46.6(4) 58.5(4)
Fe1 Fe1 Bi1 1_5545 5_4555 125.6(4) 124.1(5) 129.8(5)
Fe1 Fe1 Bi1 1_5545 5_5445 52.6(4) 46.0(4) 54.9(4)
Fe1 Fe1 Bi1 1_5545 5_5455 123.9(5) 121.4(4) 131.3(5)
Fe1 Fe1 Bi1 1_5545 5_5545 52.6(4) 46.0(4) 54.9(4)
Fe1 Fe1 Bi1 1_5545 5_5555 123.9(5) 121.4(4) 131.3(5)
Fe1 Fe1 O1 1_5545 1_5455 95.1(10) 75.6(10) 109.0(9)
Fe1 Fe1 O1 1_5545 . 95.1(10) 75.6(10) 109.0(9)
Fe1 Fe1 O1 1_5545 5_4455 108.0(10) 107.7(10) 108.2(10)
Fe1 Fe1 O1 1_5545 5_5455 115.1(12) 110.2(12) 117.3(13)
Fe1 Fe1 O2 1_5545 1_4555 92(2) 74(2) 106(2)
Fe1 Fe1 O2 1_5545 . 91(2) 78(2) 108(2)
Fe1 Fe1 O3 1_5545 1_5545 0.6(4) 0.0(5) 1.0(4)
Fe1 Fe1 O3 1_5545 . 178.5(5) 177.1(7) 179.9(4)
Fe1 Fe1 Fe1 1_5565 1_5655 90.0(3) 90.0(2) 90.0(2)
Fe1 Fe1 Fe1 1_5565 1_6555 90.9(3) 87.1(3) 92.1(3)
Fe1 Fe1 Fe1 1_5565 5_4445 118.9(4) 116.1(3) 120.4(3)
Fe1 Fe1 Fe1 1_5565 5_4545 118.9(4) 116.1(3) 120.4(3)
Fe1 Fe1 Fe1 1_5565 5_5445 114.8(3) 114.4(3) 115.0(3)
Fe1 Fe1 Fe1 1_5565 5_5545 114.8(3) 114.4(3) 115.0(3)
Fe1 Fe1 Pb1 1_5565 1_4555 81.7(4) 79.9(4) 82.4(4)
Fe1 Fe1 Pb1 1_5565 1_5545 178.4(5) 177.7(5) 179.7(6)
Fe1 Fe1 Pb1 1_5565 5_4445 123.7(5) 121.4(4) 130.9(5)
Fe1 Fe1 Pb1 1_5565 5_4455 52.6(4) 46.3(4) 54.9(4)
Fe1 Fe1 Pb1 1_5565 5_4545 123.7(5) 121.4(4) 130.9(5)
Fe1 Fe1 Pb1 1_5565 5_4555 52.6(4) 46.3(4) 54.9(4)
Fe1 Fe1 Pb1 1_5565 5_5445 125.7(4) 124.1(5) 129.8(5)
Fe1 Fe1 Pb1 1_5565 5_5455 54.3(4) 46.9(4) 58.6(4)
Fe1 Fe1 Pb1 1_5565 5_5545 125.7(4) 124.1(5) 129.8(5)
Fe1 Fe1 Pb1 1_5565 5_5555 54.3(4) 46.9(4) 58.6(4)
Fe1 Fe1 Bi1 1_5565 1_4555 82.1(4) 80.1(4) 82.9(4)
Fe1 Fe1 Bi1 1_5565 1_5545 178.3(5) 177.6(5) 179.8(6)
Fe1 Fe1 Bi1 1_5565 . 14.7(18) 14.7(18) 14.7(18)
Fe1 Fe1 Bi1 1_5565 5_4445 123.9(5) 121.4(4) 131.3(5)
Fe1 Fe1 Bi1 1_5565 5_4455 52.6(4) 46.0(4) 54.9(4)
Fe1 Fe1 Bi1 1_5565 5_4545 123.9(5) 121.4(4) 131.3(5)
Fe1 Fe1 Bi1 1_5565 5_4555 52.6(4) 46.0(4) 54.9(4)
Fe1 Fe1 Bi1 1_5565 5_5445 125.6(4) 124.1(5) 129.8(5)
Fe1 Fe1 Bi1 1_5565 5_5455 54.4(4) 46.6(4) 58.5(4)
Fe1 Fe1 Bi1 1_5565 5_5545 125.6(4) 124.1(5) 129.8(5)
Fe1 Fe1 Bi1 1_5565 5_5555 54.4(4) 46.6(4) 58.5(4)
Fe1 Fe1 O1 1_5565 1_5455 95.1(10) 75.6(10) 109.0(9)
Fe1 Fe1 O1 1_5565 . 95.1(10) 75.6(10) 109.0(9)
Fe1 Fe1 O1 1_5565 5_4445 115.1(12) 110.2(12) 117.3(13)
Fe1 Fe1 O1 1_5565 5_5445 108.0(10) 107.7(10) 108.2(10)
Fe1 Fe1 O2 1_5565 1_4555 91(2) 78(2) 108(2)
Fe1 Fe1 O2 1_5565 . 92(2) 74(2) 106(2)
Fe1 Fe1 O3 1_5565 1_5545 178.5(5) 177.1(7) 179.9(4)
Fe1 Fe1 O3 1_5565 . 0.6(4) 0.0(5) 1.0(4)
Fe1 Fe1 Fe1 1_5655 1_6555 90.00(17) 90 90
Fe1 Fe1 Fe1 1_5655 5_4445 130.2(3) 129.8(3) 130.8(2)
Fe1 Fe1 Fe1 1_5655 5_4455 128.7(2) 128.6(2) 128.9(2)
Fe1 Fe1 Fe1 1_5655 5_4545 49.8(2) 49.2(2) 50.2(2)
Fe1 Fe1 Fe1 1_5655 5_4555 51.3(2) 51.1(2) 51.4(2)
Fe1 Fe1 Fe1 1_5655 5_5445 128.7(2) 128.6(2) 128.9(2)
Fe1 Fe1 Fe1 1_5655 5_5455 130.2(3) 129.8(3) 130.8(2)
Fe1 Fe1 Fe1 1_5655 5_5545 51.3(2) 51.1(2) 51.4(2)
Fe1 Fe1 Fe1 1_5655 5_5555 49.8(2) 49.2(2) 50.2(2)
Fe1 Fe1 Pb1 1_5655 1_4555 90.00(12) 90.00(10) 90.00(10)
Fe1 Fe1 Pb1 1_5655 1_5545 90.00(16) 90.00(9) 90.00(9)
Fe1 Fe1 Pb1 1_5655 1_5565 90.00(16) 90.0(3) 90.0(3)
Fe1 Fe1 Pb1 1_5655 1_6555 90.00(12) 90.00(18) 90.00(18)
Fe1 Fe1 Pb1 1_5655 5_4445 125.1(3) 121.1(2) 126.2(4)
Fe1 Fe1 Pb1 1_5655 5_4455 124.2(4) 122.1(3) 126.0(4)
Fe1 Fe1 Pb1 1_5655 5_4545 54.9(3) 53.8(3) 58.9(2)
Fe1 Fe1 Pb1 1_5655 5_4555 55.8(3) 54.0(3) 57.9(2)
Fe1 Fe1 Pb1 1_5655 5_5445 124.2(4) 122.1(3) 126.0(4)
Fe1 Fe1 Pb1 1_5655 5_5455 125.1(3) 121.1(2) 126.2(4)
Fe1 Fe1 Pb1 1_5655 5_5545 55.8(3) 54.0(3) 57.9(2)
Fe1 Fe1 Pb1 1_5655 5_5555 54.9(3) 53.8(3) 58.9(2)
Fe1 Fe1 Bi1 1_5655 1_4555 90.00(13) 90.00(10) 90.00(10)
Fe1 Fe1 Bi1 1_5655 1_5545 90.00(16) 90.00(9) 90.00(9)
Fe1 Fe1 Bi1 1_5655 . 90.00(9) 90.00(9) 90.00(9)
Fe1 Fe1 Bi1 1_5655 1_5565 90.00(16) 90.0(3) 90.0(3)
Fe1 Fe1 Bi1 1_5655 1_6555 90.00(13) 90.0(2) 90.0(2)
Fe1 Fe1 Bi1 1_5655 5_4445 125.1(3) 121.1(2) 126.3(4)
Fe1 Fe1 Bi1 1_5655 5_4455 124.2(4) 122.5(3) 126.0(4)
Fe1 Fe1 Bi1 1_5655 5_4545 54.9(3) 53.7(3) 58.9(2)
Fe1 Fe1 Bi1 1_5655 5_4555 55.8(3) 54.0(3) 57.5(3)
Fe1 Fe1 Bi1 1_5655 5_5445 124.2(4) 122.5(3) 126.0(4)
Fe1 Fe1 Bi1 1_5655 5_5455 125.1(3) 121.1(2) 126.3(4)
Fe1 Fe1 Bi1 1_5655 5_5545 55.8(3) 54.0(3) 57.5(3)
Fe1 Fe1 Bi1 1_5655 5_5555 54.9(3) 53.7(3) 58.9(2)
Fe1 Fe1 O1 1_5655 1_5455 167.7(10) 160.6(10) 180.0(5)
Fe1 Fe1 O1 1_5655 . 12.3(10) 0.0(5) 19.4(10)
Fe1 Fe1 O1 1_5655 5_4445 90.00(17) 90.00(10) 90.00(10)
Fe1 Fe1 O1 1_5655 5_4455 90.00(11) 90.00(13) 90.00(13)
Fe1 Fe1 O1 1_5655 5_5445 90.00(11) 90.00(10) 90.00(10)
Fe1 Fe1 O1 1_5655 5_5455 90.00(17) 90.0(3) 90.0(3)
Fe1 Fe1 O2 1_5655 1_4555 90.00(17) 90 90
Fe1 Fe1 O2 1_5655 . 90.00(17) 90 90
Fe1 Fe1 O3 1_5655 1_5545 90.00(15) 90 90
Fe1 Fe1 O3 1_5655 . 90.00(15) 90 90
Fe1 Fe1 Fe1 1_6555 5_4445 126.8(4) 125.6(4) 129.7(3)
Fe1 Fe1 Fe1 1_6555 5_4545 126.8(4) 125.6(4) 129.7(3)
Fe1 Fe1 Fe1 1_6555 5_5445 50.0(3) 49.3(3) 50.7(3)
Fe1 Fe1 Fe1 1_6555 5_5455 52.2(3) 51.8(3) 52.3(3)
Fe1 Fe1 Fe1 1_6555 5_5545 50.0(3) 49.3(3) 50.7(3)
Fe1 Fe1 Fe1 1_6555 5_5555 52.2(3) 51.8(3) 52.3(3)
Fe1 Fe1 Pb1 1_6555 1_4555 170.0(4) 167.0(4) 171.7(5)
Fe1 Fe1 Pb1 1_6555 1_5545 89.6(5) 88.7(5) 91.2(4)
Fe1 Fe1 Pb1 1_6555 1_5565 87.2(5) 86.5(5) 87.5(4)
Fe1 Fe1 Pb1 1_6555 5_4445 125.0(5) 117.7(6) 126.9(4)
Fe1 Fe1 Pb1 1_6555 5_4455 124.7(4) 115.3(4) 126.9(4)
Fe1 Fe1 Pb1 1_6555 5_4545 125.0(5) 117.7(6) 126.9(4)
Fe1 Fe1 Pb1 1_6555 5_4555 124.7(4) 115.3(4) 126.9(4)
Fe1 Fe1 Pb1 1_6555 5_5445 54.2(4) 52.0(4) 60.5(4)
Fe1 Fe1 Pb1 1_6555 5_5455 55.6(4) 53.2(4) 60.3(5)
Fe1 Fe1 Pb1 1_6555 5_5545 54.2(4) 52.0(4) 60.5(4)
Fe1 Fe1 Pb1 1_6555 5_5555 55.6(4) 53.2(4) 60.3(5)
Fe1 Fe1 Bi1 1_6555 1_4555 170.6(4) 167.2(4) 172.3(5)
Fe1 Fe1 Bi1 1_6555 1_5545 89.3(5) 88.5(5) 91.2(4)
Fe1 Fe1 Bi1 1_6555 . 101.8(18) 101.8(18) 101.8(18)
Fe1 Fe1 Bi1 1_6555 1_5565 87.6(5) 87.1(5) 87.8(4)
Fe1 Fe1 Bi1 1_6555 5_4445 124.9(5) 117.3(6) 126.9(4)
Fe1 Fe1 Bi1 1_6555 5_4455 124.7(4) 115.5(4) 126.9(4)
Fe1 Fe1 Bi1 1_6555 5_4545 124.9(5) 117.3(6) 126.9(4)
Fe1 Fe1 Bi1 1_6555 5_4555 124.7(4) 115.5(4) 126.9(4)
Fe1 Fe1 Bi1 1_6555 5_5445 54.2(4) 52.2(4) 60.5(4)
Fe1 Fe1 Bi1 1_6555 5_5455 55.7(4) 53.3(4) 60.5(5)
Fe1 Fe1 Bi1 1_6555 5_5545 54.2(4) 52.2(4) 60.5(4)
Fe1 Fe1 Bi1 1_6555 5_5555 55.7(4) 53.3(4) 60.5(5)
Fe1 Fe1 O1 1_6555 1_5455 89.7(17) 86.9(16) 91.8(17)
Fe1 Fe1 O1 1_6555 . 89.7(17) 86.9(16) 91.8(17)
Fe1 Fe1 O1 1_6555 5_4445 155.8(13) 153.7(13) 159.2(12)
Fe1 Fe1 O1 1_6555 5_5445 20.0(10) 19.0(11) 20.7(10)
Fe1 Fe1 O1 1_6555 5_5455 20.3(12) 17.9(11) 22.0(12)
Fe1 Fe1 O2 1_6555 1_4555 171(2) 161(2) 180(2)
Fe1 Fe1 O2 1_6555 . 8(2) 0(2) 17(2)
Fe1 Fe1 O3 1_6555 1_5545 89.1(4) 86.3(3) 94.9(5)
Fe1 Fe1 O3 1_6555 . 90.9(4) 88.1(4) 92.8(3)
Fe1 Fe1 Fe1 5_4445 5_4545 80.3(3) 79.6(3) 81.5(3)
Fe1 Fe1 Fe1 5_4445 5_5445 78.0(3) 77.2(3) 79.1(3)
Fe1 Fe1 Fe1 5_4445 5_5545 126.9(4) 125.7(4) 129.1(4)
Fe1 Fe1 Pb1 5_4445 1_4555 58.8(3) 57.9(4) 59.6(3)
Fe1 Fe1 Pb1 5_4445 1_5545 62.0(3) 60.8(3) 65.1(4)
Fe1 Fe1 Pb1 5_4445 5_4455 70.0(4) 66.4(4) 71.5(4)
Fe1 Fe1 Pb1 5_4445 5_4555 111.1(5) 107.7(5) 112.6(5)
Fe1 Fe1 Pb1 5_4445 5_5445 73.8(4) 73.4(4) 74.6(4)
Fe1 Fe1 Pb1 5_4445 5_5455 106.0(3) 104.1(3) 106.8(3)
Fe1 Fe1 Pb1 5_4445 5_5545 115.7(5) 114.5(4) 118.1(6)
Fe1 Fe1 Pb1 5_4445 5_5555 168.5(5) 162.9(4) 170.8(5)
Fe1 Fe1 Bi1 5_4445 1_4555 58.7(3) 57.8(4) 59.4(3)
Fe1 Fe1 Bi1 5_4445 1_5545 62.1(3) 61.0(3) 65.1(4)
Fe1 Fe1 Bi1 5_4445 . 105.5(14) 105.5(14) 105.5(14)
Fe1 Fe1 Bi1 5_4445 5_4445 14.2(4) 14.2(4) 14.2(4)
Fe1 Fe1 Bi1 5_4445 5_4455 70.1(4) 66.4(4) 71.6(4)
Fe1 Fe1 Bi1 5_4445 5_4545 78.4(4) 78.4(4) 78.4(4)
Fe1 Fe1 Bi1 5_4445 5_4555 111.0(5) 107.7(5) 112.3(5)
Fe1 Fe1 Bi1 5_4445 5_5445 73.7(4) 73.3(4) 74.4(4)
Fe1 Fe1 Bi1 5_4445 5_5455 106.0(3) 104.1(3) 106.8(3)
Fe1 Fe1 Bi1 5_4445 5_5545 116.0(5) 114.9(4) 118.2(6)
Fe1 Fe1 Bi1 5_4445 5_5555 168.4(5) 162.7(4) 170.8(5)
Fe1 Fe1 O1 5_4445 1_5455 40.8(15) 39.4(15) 44.4(15)
Fe1 Fe1 O1 5_4445 . 118.1(13) 116.7(13) 121.2(13)
Fe1 Fe1 O1 5_4445 5_4445 42.2(4) 41.6(3) 43.7(4)
Fe1 Fe1 O1 5_4445 5_5445 115.1(8) 113.9(8) 117.0(7)
Fe1 Fe1 O2 5_4445 . 117.0(15) 114.9(15) 120.0(15)
Fe1 Fe1 O3 5_4445 . 119.2(4) 115.3(4) 120.8(4)
Fe1 Fe1 Fe1 5_4455 5_4555 77.5(2) 77.3(2) 77.9(2)
Fe1 Fe1 Fe1 5_4455 5_5455 78.0(3) 77.2(3) 79.1(3)
Fe1 Fe1 Fe1 5_4455 5_5555 126.9(3) 125.7(3) 129.1(3)
Fe1 Fe1 Pb1 5_4455 1_5565 63.7(3) 63.5(3) 64.0(3)
Fe1 Fe1 Pb1 5_4455 1_6555 135.5(2) 135.2(2) 135.9(2)
Fe1 Fe1 Pb1 5_4455 5_4445 67.0(4) 65.7(4) 67.9(4)
Fe1 Fe1 Pb1 5_4455 5_4545 105.7(4) 105.3(4) 105.9(4)
Fe1 Fe1 Pb1 5_4455 5_5445 105.2(3) 104.1(3) 105.8(3)
Fe1 Fe1 Pb1 5_4455 5_5545 161.7(4) 160.4(4) 162.5(4)
Fe1 Fe1 Bi1 5_4455 . 124.9(12) 124.9(12) 124.9(12)
Fe1 Fe1 Bi1 5_4455 1_5565 63.7(3) 63.4(3) 64.0(3)
Fe1 Fe1 Bi1 5_4455 1_6555 135.4(2) 135.0(2) 135.9(2)
Fe1 Fe1 Bi1 5_4455 5_4445 67.2(4) 65.7(4) 68.1(4)
Fe1 Fe1 Bi1 5_4455 5_4545 105.8(4) 105.4(4) 106.1(4)
Fe1 Fe1 Bi1 5_4455 5_5445 105.6(3) 104.6(3) 106.1(3)
Fe1 Fe1 Bi1 5_4455 5_5545 161.6(4) 160.2(4) 162.4(4)
Fe1 Fe1 O1 5_4455 1_5455 41.1(16) 39.2(16) 42.7(16)
Fe1 Fe1 O1 5_4455 . 115.5(14) 114.2(14) 117.0(14)
Fe1 Fe1 O1 5_4455 5_4455 41.0(3) 40.9(3) 41.2(3)
Fe1 Fe1 O1 5_4455 5_5455 114.0(9) 113.4(9) 115.3(9)
Fe1 Fe1 O3 5_4455 1_5545 115.0(3) 114.2(3) 115.5(3)
Fe1 Fe1 Fe1 5_4545 5_5445 126.9(4) 125.7(4) 129.1(4)
Fe1 Fe1 Fe1 5_4545 5_5545 78.0(3) 77.2(3) 79.1(3)
Fe1 Fe1 Pb1 5_4545 1_4555 58.8(3) 57.9(4) 59.6(3)
Fe1 Fe1 Pb1 5_4545 1_5545 62.0(3) 60.8(3) 65.1(4)
Fe1 Fe1 Pb1 5_4545 5_4455 111.1(5) 107.7(5) 112.6(5)
Fe1 Fe1 Pb1 5_4545 5_4555 70.0(4) 66.4(4) 71.5(4)
Fe1 Fe1 Pb1 5_4545 5_5445 115.7(5) 114.5(4) 118.1(6)
Fe1 Fe1 Pb1 5_4545 5_5455 168.5(5) 162.9(4) 170.8(5)
Fe1 Fe1 Pb1 5_4545 5_5545 73.8(4) 73.4(4) 74.6(4)
Fe1 Fe1 Pb1 5_4545 5_5555 106.0(3) 104.1(3) 106.8(3)
Fe1 Fe1 Bi1 5_4545 1_4555 58.7(3) 57.8(4) 59.4(3)
Fe1 Fe1 Bi1 5_4545 1_5545 62.1(3) 61.0(3) 65.1(4)
Fe1 Fe1 Bi1 5_4545 . 105.5(14) 105.5(14) 105.5(14)
Fe1 Fe1 Bi1 5_4545 5_4445 78.4(4) 78.4(4) 78.4(4)
Fe1 Fe1 Bi1 5_4545 5_4455 111.0(5) 107.7(5) 112.3(5)
Fe1 Fe1 Bi1 5_4545 5_4545 14.2(4) 14.2(4) 14.2(4)
Fe1 Fe1 Bi1 5_4545 5_4555 70.1(4) 66.4(4) 71.6(4)
Fe1 Fe1 Bi1 5_4545 5_5445 116.0(5) 114.9(4) 118.2(6)
Fe1 Fe1 Bi1 5_4545 5_5455 168.4(5) 162.7(4) 170.8(5)
Fe1 Fe1 Bi1 5_4545 5_5545 73.7(4) 73.3(4) 74.4(4)
Fe1 Fe1 Bi1 5_4545 5_5555 106.0(3) 104.1(3) 106.8(3)
Fe1 Fe1 O1 5_4545 1_5455 118.1(13) 116.7(13) 121.2(13)
Fe1 Fe1 O1 5_4545 . 40.8(15) 39.4(15) 44.4(15)
Fe1 Fe1 O1 5_4545 5_4445 42.2(4) 41.6(3) 43.7(4)
Fe1 Fe1 O1 5_4545 5_5445 115.1(8) 113.9(8) 117.0(7)
Fe1 Fe1 O2 5_4545 . 117.0(15) 114.9(15) 120.0(15)
Fe1 Fe1 O3 5_4545 . 119.2(4) 115.3(4) 120.8(4)
Fe1 Fe1 Fe1 5_4555 5_5455 126.9(3) 125.7(3) 129.1(3)
Fe1 Fe1 Fe1 5_4555 5_5555 78.0(3) 77.2(3) 79.1(3)
Fe1 Fe1 Pb1 5_4555 1_5565 63.7(3) 63.5(3) 64.0(3)
Fe1 Fe1 Pb1 5_4555 1_6555 135.5(2) 135.2(2) 135.9(2)
Fe1 Fe1 Pb1 5_4555 5_4445 105.7(4) 105.3(4) 105.9(4)
Fe1 Fe1 Pb1 5_4555 5_4545 67.0(4) 65.7(4) 67.9(4)
Fe1 Fe1 Pb1 5_4555 5_5445 161.7(4) 160.4(4) 162.5(4)
Fe1 Fe1 Pb1 5_4555 5_5545 105.2(3) 104.1(3) 105.8(3)
Fe1 Fe1 Bi1 5_4555 . 124.9(12) 124.9(12) 124.9(12)
Fe1 Fe1 Bi1 5_4555 1_5565 63.7(3) 63.4(3) 64.0(3)
Fe1 Fe1 Bi1 5_4555 1_6555 135.4(2) 135.0(2) 135.9(2)
Fe1 Fe1 Bi1 5_4555 5_4445 105.8(4) 105.4(4) 106.1(4)
Fe1 Fe1 Bi1 5_4555 5_4545 67.2(4) 65.7(4) 68.1(4)
Fe1 Fe1 Bi1 5_4555 5_5445 161.6(4) 160.2(4) 162.4(4)
Fe1 Fe1 Bi1 5_4555 5_5545 105.6(3) 104.6(3) 106.1(3)
Fe1 Fe1 O1 5_4555 1_5455 115.5(14) 114.2(14) 117.0(14)
Fe1 Fe1 O1 5_4555 . 41.1(16) 39.2(16) 42.7(16)
Fe1 Fe1 O1 5_4555 5_4455 41.0(3) 40.9(3) 41.2(3)
Fe1 Fe1 O1 5_4555 5_5455 114.0(9) 113.4(9) 115.3(9)
Fe1 Fe1 O3 5_4555 1_5545 115.0(3) 114.2(3) 115.5(3)
Fe1 Fe1 Fe1 5_5445 5_5545 77.5(2) 77.3(2) 77.9(2)
Fe1 Fe1 Pb1 5_5445 1_4555 135.5(2) 135.2(2) 135.9(2)
Fe1 Fe1 Pb1 5_5445 1_5545 63.7(3) 63.5(3) 64.0(3)
Fe1 Fe1 Pb1 5_5445 5_4455 105.2(3) 104.1(3) 105.8(3)
Fe1 Fe1 Pb1 5_5445 5_4555 161.7(4) 160.4(4) 162.5(4)
Fe1 Fe1 Pb1 5_5445 5_5455 67.0(4) 65.7(4) 67.9(4)
Fe1 Fe1 Pb1 5_5445 5_5555 105.7(4) 105.3(4) 105.9(4)
Fe1 Fe1 Bi1 5_5445 1_4555 135.4(2) 135.0(2) 135.9(2)
Fe1 Fe1 Bi1 5_5445 1_5545 63.7(3) 63.4(3) 64.0(3)
Fe1 Fe1 Bi1 5_5445 . 124.9(12) 124.9(12) 124.9(12)
Fe1 Fe1 Bi1 5_5445 5_4455 105.6(3) 104.6(3) 106.1(3)
Fe1 Fe1 Bi1 5_5445 5_4555 161.6(4) 160.2(4) 162.4(4)
Fe1 Fe1 Bi1 5_5445 5_5455 67.2(4) 65.7(4) 68.1(4)
Fe1 Fe1 Bi1 5_5445 5_5555 105.8(4) 105.4(4) 106.1(4)
Fe1 Fe1 O1 5_5445 1_5455 41.1(16) 39.2(16) 42.7(16)
Fe1 Fe1 O1 5_5445 . 115.5(14) 114.2(14) 117.0(14)
Fe1 Fe1 O1 5_5445 5_4445 114.0(9) 113.4(9) 115.3(9)
Fe1 Fe1 O1 5_5445 5_5445 41.0(3) 40.9(3) 41.2(3)
Fe1 Fe1 O3 5_5445 . 115.0(3) 114.2(3) 115.5(3)
Fe1 Fe1 Fe1 5_5455 5_5555 80.3(3) 79.6(3) 81.5(3)
Fe1 Fe1 Pb1 5_5455 1_5565 62.0(3) 60.8(3) 65.1(4)
Fe1 Fe1 Pb1 5_5455 1_6555 58.8(3) 57.9(4) 59.6(3)
Fe1 Fe1 Pb1 5_5455 5_4445 106.0(3) 104.1(3) 106.8(3)
Fe1 Fe1 Pb1 5_5455 5_4455 73.8(4) 73.4(4) 74.6(4)
Fe1 Fe1 Pb1 5_5455 5_4545 168.5(5) 162.9(4) 170.8(5)
Fe1 Fe1 Pb1 5_5455 5_4555 115.7(5) 114.5(4) 118.1(6)
Fe1 Fe1 Pb1 5_5455 5_5445 70.0(4) 66.4(4) 71.5(4)
Fe1 Fe1 Pb1 5_5455 5_5545 111.1(5) 107.7(5) 112.6(5)
Fe1 Fe1 Bi1 5_5455 . 105.5(14) 105.5(14) 105.5(14)
Fe1 Fe1 Bi1 5_5455 1_5565 62.1(3) 61.0(3) 65.1(4)
Fe1 Fe1 Bi1 5_5455 1_6555 58.7(3) 57.8(4) 59.4(3)
Fe1 Fe1 Bi1 5_5455 5_4445 106.0(3) 104.1(3) 106.8(3)
Fe1 Fe1 Bi1 5_5455 5_4455 73.7(4) 73.3(4) 74.4(4)
Fe1 Fe1 Bi1 5_5455 5_4545 168.4(5) 162.7(4) 170.8(5)
Fe1 Fe1 Bi1 5_5455 5_4555 116.0(5) 114.9(4) 118.2(6)
Fe1 Fe1 Bi1 5_5455 5_5445 70.1(4) 66.4(4) 71.6(4)
Fe1 Fe1 Bi1 5_5455 5_5455 14.2(4) 14.2(4) 14.2(4)
Fe1 Fe1 Bi1 5_5455 5_5545 111.0(5) 107.7(5) 112.3(5)
Fe1 Fe1 Bi1 5_5455 5_5555 78.4(4) 78.4(4) 78.4(4)
Fe1 Fe1 O1 5_5455 1_5455 40.8(15) 39.4(15) 44.4(15)
Fe1 Fe1 O1 5_5455 . 118.1(13) 116.7(13) 121.2(13)
Fe1 Fe1 O1 5_5455 5_4455 115.1(8) 113.9(8) 117.0(7)
Fe1 Fe1 O1 5_5455 5_5455 42.2(4) 41.6(3) 43.7(4)
Fe1 Fe1 O2 5_5455 1_4555 117.0(15) 114.9(15) 120.0(15)
Fe1 Fe1 O3 5_5455 1_5545 119.2(4) 115.3(4) 120.8(4)
Fe1 Fe1 Pb1 5_5545 1_4555 135.5(2) 135.2(2) 135.9(2)
Fe1 Fe1 Pb1 5_5545 1_5545 63.7(3) 63.5(3) 64.0(3)
Fe1 Fe1 Pb1 5_5545 5_4455 161.7(4) 160.4(4) 162.5(4)
Fe1 Fe1 Pb1 5_5545 5_4555 105.2(3) 104.1(3) 105.8(3)
Fe1 Fe1 Pb1 5_5545 5_5455 105.7(4) 105.3(4) 105.9(4)
Fe1 Fe1 Pb1 5_5545 5_5555 67.0(4) 65.7(4) 67.9(4)
Fe1 Fe1 Bi1 5_5545 1_4555 135.4(2) 135.0(2) 135.9(2)
Fe1 Fe1 Bi1 5_5545 1_5545 63.7(3) 63.4(3) 64.0(3)
Fe1 Fe1 Bi1 5_5545 . 124.9(12) 124.9(12) 124.9(12)
Fe1 Fe1 Bi1 5_5545 5_4455 161.6(4) 160.2(4) 162.4(4)
Fe1 Fe1 Bi1 5_5545 5_4555 105.6(3) 104.6(3) 106.1(3)
Fe1 Fe1 Bi1 5_5545 5_5455 105.8(4) 105.4(4) 106.1(4)
Fe1 Fe1 Bi1 5_5545 5_5555 67.2(4) 65.7(4) 68.1(4)
Fe1 Fe1 O1 5_5545 1_5455 115.5(14) 114.2(14) 117.0(14)
Fe1 Fe1 O1 5_5545 . 41.1(16) 39.2(16) 42.7(16)
Fe1 Fe1 O1 5_5545 5_4445 114.0(9) 113.4(9) 115.3(9)
Fe1 Fe1 O1 5_5545 5_5445 41.0(3) 40.9(3) 41.2(3)
Fe1 Fe1 O3 5_5545 . 115.0(3) 114.2(3) 115.5(3)
Fe1 Fe1 Pb1 5_5555 1_5565 62.0(3) 60.8(3) 65.1(4)
Fe1 Fe1 Pb1 5_5555 1_6555 58.8(3) 57.9(4) 59.6(3)
Fe1 Fe1 Pb1 5_5555 5_4445 168.5(5) 162.9(4) 170.8(5)
Fe1 Fe1 Pb1 5_5555 5_4455 115.7(5) 114.5(4) 118.1(6)
Fe1 Fe1 Pb1 5_5555 5_4545 106.0(3) 104.1(3) 106.8(3)
Fe1 Fe1 Pb1 5_5555 5_4555 73.8(4) 73.4(4) 74.6(4)
Fe1 Fe1 Pb1 5_5555 5_5445 111.1(5) 107.7(5) 112.6(5)
Fe1 Fe1 Pb1 5_5555 5_5545 70.0(4) 66.4(4) 71.5(4)
Fe1 Fe1 Bi1 5_5555 . 105.5(14) 105.5(14) 105.5(14)
Fe1 Fe1 Bi1 5_5555 1_5565 62.1(3) 61.0(3) 65.1(4)
Fe1 Fe1 Bi1 5_5555 1_6555 58.7(3) 57.8(4) 59.4(3)
Fe1 Fe1 Bi1 5_5555 5_4445 168.4(5) 162.7(4) 170.8(5)
Fe1 Fe1 Bi1 5_5555 5_4455 116.0(5) 114.9(4) 118.2(6)
Fe1 Fe1 Bi1 5_5555 5_4545 106.0(3) 104.1(3) 106.8(3)
Fe1 Fe1 Bi1 5_5555 5_4555 73.7(4) 73.3(4) 74.4(4)
Fe1 Fe1 Bi1 5_5555 5_5445 111.0(5) 107.7(5) 112.3(5)
Fe1 Fe1 Bi1 5_5555 5_5455 78.4(4) 78.4(4) 78.4(4)
Fe1 Fe1 Bi1 5_5555 5_5545 70.1(4) 66.4(4) 71.6(4)
Fe1 Fe1 Bi1 5_5555 5_5555 14.2(4) 14.2(4) 14.2(4)
Fe1 Fe1 O1 5_5555 1_5455 118.1(13) 116.7(13) 121.2(13)
Fe1 Fe1 O1 5_5555 . 40.8(15) 39.4(15) 44.4(15)
Fe1 Fe1 O1 5_5555 5_4455 115.1(8) 113.9(8) 117.0(7)
Fe1 Fe1 O1 5_5555 5_5455 42.2(4) 41.6(3) 43.7(4)
Fe1 Fe1 O2 5_5555 1_4555 117.0(15) 114.9(15) 120.0(15)
Fe1 Fe1 O3 5_5555 1_5545 119.2(4) 115.3(4) 120.8(4)
Pb1 Fe1 Pb1 1_4555 1_5545 100.4(5) 99.6(4) 101.8(5)
Pb1 Fe1 Pb1 1_4555 5_4455 53.7(4) 52.1(4) 54.8(4)
Pb1 Fe1 Pb1 1_4555 5_4555 53.7(4) 52.1(4) 54.8(4)
Pb1 Fe1 Pb1 1_4555 5_5445 133.8(4) 133.6(4) 134.0(4)
Pb1 Fe1 Pb1 1_4555 5_5455 114.8(5) 112.9(5) 116.0(5)
Pb1 Fe1 Pb1 1_4555 5_5545 133.8(4) 133.6(4) 134.0(4)
Pb1 Fe1 Pb1 1_4555 5_5555 114.8(5) 112.9(5) 116.0(5)
Pb1 Fe1 Bi1 1_4555 1_4555 0.4(4) 0.2(5) 0.6(4)
Pb1 Fe1 Bi1 1_4555 1_5545 100.5(5) 99.9(4) 101.8(5)
Pb1 Fe1 Bi1 1_4555 . 65.2(18) 65.2(18) 65.2(18)
Pb1 Fe1 Bi1 1_4555 5_4455 53.5(4) 52.0(4) 54.5(4)
Pb1 Fe1 Bi1 1_4555 5_4555 53.5(4) 52.0(4) 54.5(4)
Pb1 Fe1 Bi1 1_4555 5_5445 133.6(4) 133.4(4) 133.8(4)
Pb1 Fe1 Bi1 1_4555 5_5455 114.7(5) 112.6(5) 116.0(5)
Pb1 Fe1 Bi1 1_4555 5_5545 133.6(4) 133.4(4) 133.8(4)
Pb1 Fe1 Bi1 1_4555 5_5555 114.7(5) 112.6(5) 116.0(5)
Pb1 Fe1 O1 1_4555 1_5455 94.3(16) 92.0(16) 97.3(16)
Pb1 Fe1 O1 1_4555 . 94.3(16) 92.0(16) 97.3(16)
Pb1 Fe1 O1 1_4555 5_4445 34.7(13) 34.1(13) 35.0(13)
Pb1 Fe1 O1 1_4555 5_5445 170.7(10) 169.8(11) 172.3(10)
Pb1 Fe1 O2 1_4555 . 172(2) 172(2) 173(2)
Pb1 Fe1 O3 1_4555 . 81.6(4) 78.9(5) 82.9(5)
Pb1 Fe1 Pb1 1_5545 5_4455 131.9(4) 127.8(5) 134.7(4)
Pb1 Fe1 Pb1 1_5545 5_4555 131.9(4) 127.8(5) 134.7(4)
Pb1 Fe1 Pb1 1_5545 5_5445 54.8(4) 53.4(4) 56.6(4)
Pb1 Fe1 Pb1 1_5545 5_5455 129.4(5) 128.1(5) 131.9(5)
Pb1 Fe1 Pb1 1_5545 5_5545 54.8(4) 53.4(4) 56.6(4)
Pb1 Fe1 Pb1 1_5545 5_5555 129.4(5) 128.1(5) 131.9(5)
Pb1 Fe1 Bi1 1_5545 1_4555 99.9(5) 99.0(5) 101.6(5)
Pb1 Fe1 Bi1 1_5545 1_5545 0.2(5) 0.0(5) 0.6(4)
Pb1 Fe1 Bi1 1_5545 . 167.0(19) 167.0(19) 167.0(19)
Pb1 Fe1 Bi1 1_5545 5_4445 47.9(4) 47.9(4) 47.9(4)
Pb1 Fe1 Bi1 1_5545 5_4455 132.1(4) 127.8(5) 135.0(4)
Pb1 Fe1 Bi1 1_5545 5_4545 47.9(4) 47.9(4) 47.9(4)
Pb1 Fe1 Bi1 1_5545 5_4555 132.1(4) 127.8(5) 135.0(4)
Pb1 Fe1 Bi1 1_5545 5_5445 55.1(4) 53.8(4) 56.7(4)
Pb1 Fe1 Bi1 1_5545 5_5455 129.5(5) 128.0(5) 132.1(4)
Pb1 Fe1 Bi1 1_5545 5_5545 55.1(4) 53.8(4) 56.7(4)
Pb1 Fe1 Bi1 1_5545 5_5555 129.5(5) 128.0(5) 132.1(4)
Pb1 Fe1 O1 1_5545 1_5455 72.2(10) 70.9(9) 74.7(10)
Pb1 Fe1 O1 1_5545 . 72.2(10) 70.9(9) 74.7(10)
Pb1 Fe1 O1 1_5545 5_4445 66.2(12) 64.9(13) 68.6(11)
Pb1 Fe1 O1 1_5545 5_5445 70.0(11) 69.6(11) 70.6(10)
Pb1 Fe1 O2 1_5545 . 76(2) 72(2) 80(2)
Pb1 Fe1 O3 1_5545 . 178.3(6) 177.4(5) 179.7(7)
Pb1 Fe1 Pb1 1_5565 1_6555 100.4(5) 99.6(5) 101.8(5)
Pb1 Fe1 Pb1 1_5565 5_4445 129.4(5) 128.1(5) 131.9(5)
Pb1 Fe1 Pb1 1_5565 5_4455 54.8(4) 53.4(4) 56.6(4)
Pb1 Fe1 Pb1 1_5565 5_4545 129.4(5) 128.1(5) 131.9(5)
Pb1 Fe1 Pb1 1_5565 5_4555 54.8(4) 53.4(4) 56.6(4)
Pb1 Fe1 Pb1 1_5565 5_5445 131.9(4) 127.8(5) 134.7(4)
Pb1 Fe1 Pb1 1_5565 5_5545 131.9(4) 127.8(5) 134.7(4)
Pb1 Fe1 Bi1 1_5565 . 167.0(19) 167.0(19) 167.0(19)
Pb1 Fe1 Bi1 1_5565 1_5565 0.2(5) 0.0(5) 0.6(4)
Pb1 Fe1 Bi1 1_5565 1_6555 99.9(5) 99.0(5) 101.6(5)
Pb1 Fe1 Bi1 1_5565 5_4445 129.5(5) 128.0(5) 132.1(4)
Pb1 Fe1 Bi1 1_5565 5_4455 55.1(4) 53.8(4) 56.7(4)
Pb1 Fe1 Bi1 1_5565 5_4545 129.5(5) 128.0(5) 132.1(4)
Pb1 Fe1 Bi1 1_5565 5_4555 55.1(4) 53.8(4) 56.7(4)
Pb1 Fe1 Bi1 1_5565 5_5445 132.1(4) 127.8(5) 135.0(4)
Pb1 Fe1 Bi1 1_5565 5_5455 47.9(4) 47.9(4) 47.9(4)
Pb1 Fe1 Bi1 1_5565 5_5545 132.1(4) 127.8(5) 135.0(4)
Pb1 Fe1 Bi1 1_5565 5_5555 47.9(4) 47.9(4) 47.9(4)
Pb1 Fe1 O1 1_5565 1_5455 72.2(10) 70.9(9) 74.7(10)
Pb1 Fe1 O1 1_5565 . 72.2(10) 70.9(9) 74.7(10)
Pb1 Fe1 O1 1_5565 5_4455 70.0(11) 69.6(11) 70.6(10)
Pb1 Fe1 O1 1_5565 5_5455 66.2(12) 64.9(13) 68.6(11)
Pb1 Fe1 O2 1_5565 1_4555 76(2) 72(2) 80(2)
Pb1 Fe1 O3 1_5565 1_5545 178.3(6) 177.4(5) 179.7(7)
Pb1 Fe1 Pb1 1_6555 5_4445 114.8(5) 112.9(5) 116.0(5)
Pb1 Fe1 Pb1 1_6555 5_4455 133.8(4) 133.6(4) 134.0(4)
Pb1 Fe1 Pb1 1_6555 5_4545 114.8(5) 112.9(5) 116.0(5)
Pb1 Fe1 Pb1 1_6555 5_4555 133.8(4) 133.6(4) 134.0(4)
Pb1 Fe1 Pb1 1_6555 5_5445 53.7(4) 52.1(4) 54.8(4)
Pb1 Fe1 Pb1 1_6555 5_5545 53.7(4) 52.1(4) 54.8(4)
Pb1 Fe1 Bi1 1_6555 . 65.2(18) 65.2(18) 65.2(18)
Pb1 Fe1 Bi1 1_6555 1_5565 100.5(5) 99.9(4) 101.8(5)
Pb1 Fe1 Bi1 1_6555 1_6555 0.4(4) 0.2(5) 0.6(4)
Pb1 Fe1 Bi1 1_6555 5_4445 114.7(5) 112.6(5) 116.0(5)
Pb1 Fe1 Bi1 1_6555 5_4455 133.6(4) 133.4(4) 133.8(4)
Pb1 Fe1 Bi1 1_6555 5_4545 114.7(5) 112.6(5) 116.0(5)
Pb1 Fe1 Bi1 1_6555 5_4555 133.6(4) 133.4(4) 133.8(4)
Pb1 Fe1 Bi1 1_6555 5_5445 53.5(4) 52.0(4) 54.5(4)
Pb1 Fe1 Bi1 1_6555 5_5545 53.5(4) 52.0(4) 54.5(4)
Pb1 Fe1 O1 1_6555 1_5455 94.3(16) 92.0(16) 97.3(16)
Pb1 Fe1 O1 1_6555 . 94.3(16) 92.0(16) 97.3(16)
Pb1 Fe1 O1 1_6555 5_4455 170.7(10) 169.8(11) 172.3(10)
Pb1 Fe1 O1 1_6555 5_5455 34.7(13) 34.1(13) 35.0(13)
Pb1 Fe1 O2 1_6555 1_4555 172(2) 172(2) 173(2)
Pb1 Fe1 O3 1_6555 1_5545 81.6(4) 78.9(5) 82.9(5)
Pb1 Fe1 Pb1 5_4445 5_4455 70.5(5) 66.6(4) 79.5(4)
Pb1 Fe1 Pb1 5_4445 5_4545 70.1(3) 62.2(3) 72.5(4)
Pb1 Fe1 Pb1 5_4445 5_4555 109.0(5) 106.5(5) 117.1(6)
Pb1 Fe1 Pb1 5_4445 5_5445 69.0(5) 58.6(5) 73.5(5)
Pb1 Fe1 Pb1 5_4445 5_5455 108.2(3) 108.0(3) 108.8(3)
Pb1 Fe1 Pb1 5_4445 5_5545 107.0(5) 93.1(4) 113.3(5)
Pb1 Fe1 Pb1 5_4445 5_5555 178.0(6) 173.9(7) 180.0(5)
Pb1 Fe1 Bi1 5_4445 . 58.0(15) 58.0(15) 58.0(15)
Pb1 Fe1 Bi1 5_4445 1_5565 129.3(4) 127.7(4) 131.9(4)
Pb1 Fe1 Bi1 5_4445 1_6555 115.3(5) 113.0(4) 116.6(5)
Pb1 Fe1 Bi1 5_4445 5_4445 0.1(5) 0.0(5) 1.0(5)
Pb1 Fe1 Bi1 5_4445 5_4455 70.4(5) 66.6(4) 79.5(4)
Pb1 Fe1 Bi1 5_4445 5_4545 70.1(3) 62.1(3) 72.5(4)
Pb1 Fe1 Bi1 5_4445 5_4555 109.0(5) 106.5(5) 117.1(6)
Pb1 Fe1 Bi1 5_4445 5_5445 69.0(5) 58.9(5) 73.5(5)
Pb1 Fe1 Bi1 5_4445 5_5455 108.2(3) 108.0(3) 109.0(3)
Pb1 Fe1 Bi1 5_4445 5_5545 106.9(5) 92.8(4) 113.3(5)
Pb1 Fe1 Bi1 5_4445 5_5555 178.0(6) 173.8(7) 180.0(5)
Pb1 Fe1 O1 5_4445 1_5455 59.0(13) 41.4(13) 72.5(11)
Pb1 Fe1 O1 5_4445 . 128.4(14) 112.8(13) 136.8(14)
Pb1 Fe1 O1 5_4445 5_4455 73.4(9) 72.7(9) 73.7(9)
Pb1 Fe1 O1 5_4445 5_5455 139.2(7) 137.0(7) 140.1(7)
Pb1 Fe1 O2 5_4445 1_4555 56.0(15) 49.0(13) 70.9(17)
Pb1 Fe1 O2 5_4445 . 126.7(14) 110.5(17) 136.1(13)
Pb1 Fe1 O3 5_4445 1_5545 54.3(4) 47.6(4) 59.1(4)
Pb1 Fe1 O3 5_4445 . 123.6(4) 120.8(3) 131.5(5)
Pb1 Fe1 Pb1 5_4455 5_4545 109.0(5) 106.5(4) 117.1(7)
Pb1 Fe1 Pb1 5_4455 5_4555 68.4(3) 64.2(3) 72.1(4)
Pb1 Fe1 Pb1 5_4455 5_5445 111.3(3) 109.5(3) 114.6(2)
Pb1 Fe1 Pb1 5_4455 5_5455 69.0(5) 58.6(4) 73.5(4)
Pb1 Fe1 Pb1 5_4455 5_5545 176.6(5) 172.4(5) 180.0(5)
Pb1 Fe1 Pb1 5_4455 5_5555 107.0(5) 93.1(4) 113.3(4)
Pb1 Fe1 Bi1 5_4455 1_4555 53.7(3) 51.8(4) 54.9(3)
Pb1 Fe1 Bi1 5_4455 1_5545 132.1(4) 128.3(5) 134.8(3)
Pb1 Fe1 Bi1 5_4455 . 38.2(8) 38.2(8) 38.2(8)
Pb1 Fe1 Bi1 5_4455 1_5565 54.6(4) 53.3(3) 56.2(4)
Pb1 Fe1 Bi1 5_4455 5_4445 70.6(5) 66.7(4) 80.3(5)
Pb1 Fe1 Bi1 5_4455 5_4455 0.1(4) 0.0(5) 0.6(3)
Pb1 Fe1 Bi1 5_4455 5_4545 109.1(5) 106.6(4) 117.9(7)
Pb1 Fe1 Bi1 5_4455 5_4555 68.4(3) 64.7(3) 72.1(4)
Pb1 Fe1 Bi1 5_4455 5_5445 111.2(3) 109.5(3) 114.8(2)
Pb1 Fe1 Bi1 5_4455 5_5455 69.0(5) 58.4(4) 73.5(4)
Pb1 Fe1 Bi1 5_4455 5_5545 176.6(5) 172.3(5) 180.0(5)
Pb1 Fe1 Bi1 5_4455 5_5555 107.0(5) 92.9(4) 113.2(4)
Pb1 Fe1 O1 5_4455 1_5455 58.3(14) 46.7(15) 74.5(12)
Pb1 Fe1 O1 5_4455 . 125.6(14) 108.8(13) 141.4(13)
Pb1 Fe1 O1 5_4455 5_4445 78.8(11) 71.8(10) 82.1(10)
Pb1 Fe1 O1 5_4455 5_5445 132.4(7) 130.6(7) 133.7(7)
Pb1 Fe1 O1 5_4455 5_5455 108.6(10) 107.0(10) 111.5(10)
Pb1 Fe1 O2 5_4455 1_4555 53.8(15) 40.8(12) 69.8(18)
Pb1 Fe1 O2 5_4455 . 125.8(15) 112.8(18) 133.1(14)
Pb1 Fe1 O3 5_4455 1_5545 125.6(4) 123.5(6) 129.4(5)
Pb1 Fe1 O3 5_4455 . 52.6(3) 45.7(2) 54.8(4)
Pb1 Fe1 Pb1 5_4545 5_4555 70.5(5) 66.6(4) 79.5(4)
Pb1 Fe1 Pb1 5_4545 5_5445 107.0(5) 93.1(4) 113.3(5)
Pb1 Fe1 Pb1 5_4545 5_5455 178.0(6) 173.9(7) 180.0(5)
Pb1 Fe1 Pb1 5_4545 5_5545 69.0(5) 58.6(5) 73.5(5)
Pb1 Fe1 Pb1 5_4545 5_5555 108.2(3) 108.0(3) 108.8(3)
Pb1 Fe1 Bi1 5_4545 . 58.0(15) 58.0(15) 58.0(15)
Pb1 Fe1 Bi1 5_4545 1_5565 129.3(4) 127.7(4) 131.9(4)
Pb1 Fe1 Bi1 5_4545 1_6555 115.3(5) 113.0(4) 116.6(5)
Pb1 Fe1 Bi1 5_4545 5_4445 70.1(3) 62.1(3) 72.5(4)
Pb1 Fe1 Bi1 5_4545 5_4455 109.0(5) 106.5(5) 117.1(6)
Pb1 Fe1 Bi1 5_4545 5_4545 0.1(5) 0.0(5) 1.0(5)
Pb1 Fe1 Bi1 5_4545 5_4555 70.4(5) 66.6(4) 79.5(4)
Pb1 Fe1 Bi1 5_4545 5_5445 106.9(5) 92.8(4) 113.3(5)
Pb1 Fe1 Bi1 5_4545 5_5455 178.0(6) 173.8(7) 180.0(5)
Pb1 Fe1 Bi1 5_4545 5_5545 69.0(5) 58.9(5) 73.5(5)
Pb1 Fe1 Bi1 5_4545 5_5555 108.2(3) 108.0(3) 109.0(3)
Pb1 Fe1 O1 5_4545 1_5455 128.4(14) 112.8(13) 136.8(14)
Pb1 Fe1 O1 5_4545 . 59.0(13) 41.4(13) 72.5(11)
Pb1 Fe1 O1 5_4545 5_4455 73.4(9) 72.7(9) 73.7(9)
Pb1 Fe1 O1 5_4545 5_5455 139.2(7) 137.0(7) 140.1(7)
Pb1 Fe1 O2 5_4545 1_4555 56.0(15) 49.0(13) 70.9(17)
Pb1 Fe1 O2 5_4545 . 126.7(14) 110.5(17) 136.1(13)
Pb1 Fe1 O3 5_4545 1_5545 54.3(4) 47.6(4) 59.1(4)
Pb1 Fe1 O3 5_4545 . 123.6(4) 120.8(3) 131.5(5)
Pb1 Fe1 Pb1 5_4555 5_5445 176.6(5) 172.4(5) 180.0(5)
Pb1 Fe1 Pb1 5_4555 5_5455 107.0(5) 93.1(4) 113.3(4)
Pb1 Fe1 Pb1 5_4555 5_5545 111.3(3) 109.5(3) 114.6(2)
Pb1 Fe1 Pb1 5_4555 5_5555 69.0(5) 58.6(4) 73.5(4)
Pb1 Fe1 Bi1 5_4555 1_4555 53.7(3) 51.8(4) 54.9(3)
Pb1 Fe1 Bi1 5_4555 1_5545 132.1(4) 128.3(5) 134.8(3)
Pb1 Fe1 Bi1 5_4555 . 38.2(8) 38.2(8) 38.2(8)
Pb1 Fe1 Bi1 5_4555 1_5565 54.6(4) 53.3(3) 56.2(4)
Pb1 Fe1 Bi1 5_4555 5_4445 109.1(5) 106.6(4) 117.9(7)
Pb1 Fe1 Bi1 5_4555 5_4455 68.4(3) 64.7(3) 72.1(4)
Pb1 Fe1 Bi1 5_4555 5_4545 70.6(5) 66.7(4) 80.3(5)
Pb1 Fe1 Bi1 5_4555 5_4555 0.1(4) 0.0(5) 0.6(3)
Pb1 Fe1 Bi1 5_4555 5_5445 176.6(5) 172.3(5) 180.0(5)
Pb1 Fe1 Bi1 5_4555 5_5455 107.0(5) 92.9(4) 113.2(4)
Pb1 Fe1 Bi1 5_4555 5_5545 111.2(3) 109.5(3) 114.8(2)
Pb1 Fe1 Bi1 5_4555 5_5555 69.0(5) 58.4(4) 73.5(4)
Pb1 Fe1 O1 5_4555 1_5455 125.6(14) 108.8(13) 141.4(13)
Pb1 Fe1 O1 5_4555 . 58.3(14) 46.7(15) 74.5(12)
Pb1 Fe1 O1 5_4555 5_4445 78.8(11) 71.8(10) 82.1(10)
Pb1 Fe1 O1 5_4555 5_5445 132.4(7) 130.6(7) 133.7(7)
Pb1 Fe1 O1 5_4555 5_5455 108.6(10) 107.0(10) 111.5(10)
Pb1 Fe1 O2 5_4555 1_4555 53.8(15) 40.8(12) 69.8(18)
Pb1 Fe1 O2 5_4555 . 125.8(15) 112.8(18) 133.1(14)
Pb1 Fe1 O3 5_4555 1_5545 125.6(4) 123.5(6) 129.4(5)
Pb1 Fe1 O3 5_4555 . 52.6(3) 45.7(2) 54.8(4)
Pb1 Fe1 Pb1 5_5445 5_5455 70.5(5) 66.6(4) 79.5(5)
Pb1 Fe1 Pb1 5_5445 5_5545 68.4(3) 64.2(3) 72.1(4)
Pb1 Fe1 Pb1 5_5445 5_5555 109.0(5) 106.5(4) 117.1(7)
Pb1 Fe1 Bi1 5_5445 1_5545 54.6(4) 53.3(3) 56.2(4)
Pb1 Fe1 Bi1 5_5445 . 38.2(8) 38.2(8) 38.2(8)
Pb1 Fe1 Bi1 5_5445 1_5565 132.1(4) 128.3(5) 134.8(3)
Pb1 Fe1 Bi1 5_5445 1_6555 53.7(3) 51.8(4) 54.9(3)
Pb1 Fe1 Bi1 5_5445 5_4445 69.0(5) 58.4(4) 73.5(4)
Pb1 Fe1 Bi1 5_5445 5_4455 111.2(3) 109.5(3) 114.8(2)
Pb1 Fe1 Bi1 5_5445 5_4545 107.0(5) 92.9(4) 113.2(4)
Pb1 Fe1 Bi1 5_5445 5_4555 176.6(5) 172.3(5) 180.0(5)
Pb1 Fe1 Bi1 5_5445 5_5445 0.1(4) 0.0(5) 0.6(3)
Pb1 Fe1 Bi1 5_5445 5_5455 70.6(5) 66.7(4) 80.3(5)
Pb1 Fe1 Bi1 5_5445 5_5545 68.4(3) 64.7(3) 72.1(4)
Pb1 Fe1 Bi1 5_5445 5_5555 109.1(5) 106.6(4) 117.9(7)
Pb1 Fe1 O1 5_5445 1_5455 58.3(14) 46.7(15) 74.5(12)
Pb1 Fe1 O1 5_5445 . 125.6(14) 108.8(13) 141.4(13)
Pb1 Fe1 O1 5_5445 5_4445 108.6(10) 107.0(10) 111.5(10)
Pb1 Fe1 O1 5_5445 5_4455 132.4(7) 130.6(7) 133.7(7)
Pb1 Fe1 O1 5_5445 5_5455 78.8(11) 71.8(10) 82.1(10)
Pb1 Fe1 O2 5_5445 1_4555 125.8(15) 112.8(18) 133.1(14)
Pb1 Fe1 O2 5_5445 . 53.8(15) 40.8(12) 69.8(18)
Pb1 Fe1 O3 5_5445 1_5545 52.6(3) 45.7(2) 54.8(4)
Pb1 Fe1 O3 5_5445 . 125.6(4) 123.5(6) 129.4(5)
Pb1 Fe1 Pb1 5_5455 5_5545 109.0(5) 106.5(5) 117.1(6)
Pb1 Fe1 Pb1 5_5455 5_5555 70.1(3) 62.2(3) 72.5(4)
Pb1 Fe1 Bi1 5_5455 1_4555 115.3(5) 113.0(4) 116.6(5)
Pb1 Fe1 Bi1 5_5455 1_5545 129.3(4) 127.7(4) 131.9(4)
Pb1 Fe1 Bi1 5_5455 . 58.0(15) 58.0(15) 58.0(15)
Pb1 Fe1 Bi1 5_5455 5_4445 108.2(3) 108.0(3) 109.0(3)
Pb1 Fe1 Bi1 5_5455 5_4455 69.0(5) 58.9(5) 73.5(5)
Pb1 Fe1 Bi1 5_5455 5_4545 178.0(6) 173.8(7) 180.0(5)
Pb1 Fe1 Bi1 5_5455 5_4555 106.9(5) 92.8(4) 113.3(5)
Pb1 Fe1 Bi1 5_5455 5_5445 70.4(5) 66.6(4) 79.5(4)
Pb1 Fe1 Bi1 5_5455 5_5455 0.1(5) 0.0(5) 1.0(5)
Pb1 Fe1 Bi1 5_5455 5_5545 109.0(5) 106.5(5) 117.1(6)
Pb1 Fe1 Bi1 5_5455 5_5555 70.1(3) 62.1(3) 72.5(4)
Pb1 Fe1 O1 5_5455 1_5455 59.0(13) 41.4(13) 72.5(11)
Pb1 Fe1 O1 5_5455 . 128.4(14) 112.8(13) 136.8(14)
Pb1 Fe1 O1 5_5455 5_4445 139.2(7) 137.0(7) 140.1(7)
Pb1 Fe1 O1 5_5455 5_5445 73.4(9) 72.7(9) 73.7(9)
Pb1 Fe1 O2 5_5455 1_4555 126.7(14) 110.5(17) 136.1(13)
Pb1 Fe1 O2 5_5455 . 56.0(15) 49.0(13) 70.9(17)
Pb1 Fe1 O3 5_5455 1_5545 123.6(4) 120.8(3) 131.5(5)
Pb1 Fe1 O3 5_5455 . 54.3(4) 47.6(4) 59.1(4)
Pb1 Fe1 Pb1 5_5545 5_5555 70.5(5) 66.6(4) 79.5(5)
Pb1 Fe1 Bi1 5_5545 1_5545 54.6(4) 53.3(3) 56.2(4)
Pb1 Fe1 Bi1 5_5545 . 38.2(8) 38.2(8) 38.2(8)
Pb1 Fe1 Bi1 5_5545 1_5565 132.1(4) 128.3(5) 134.8(3)
Pb1 Fe1 Bi1 5_5545 1_6555 53.7(3) 51.8(4) 54.9(3)
Pb1 Fe1 Bi1 5_5545 5_4445 107.0(5) 92.9(4) 113.2(4)
Pb1 Fe1 Bi1 5_5545 5_4455 176.6(5) 172.3(5) 180.0(5)
Pb1 Fe1 Bi1 5_5545 5_4545 69.0(5) 58.4(4) 73.5(4)
Pb1 Fe1 Bi1 5_5545 5_4555 111.2(3) 109.5(3) 114.8(2)
Pb1 Fe1 Bi1 5_5545 5_5445 68.4(3) 64.7(3) 72.1(4)
Pb1 Fe1 Bi1 5_5545 5_5455 109.1(5) 106.6(4) 117.9(7)
Pb1 Fe1 Bi1 5_5545 5_5545 0.1(4) 0.0(5) 0.6(3)
Pb1 Fe1 Bi1 5_5545 5_5555 70.6(5) 66.7(4) 80.3(5)
Pb1 Fe1 O1 5_5545 1_5455 125.6(14) 108.8(13) 141.4(13)
Pb1 Fe1 O1 5_5545 . 58.3(14) 46.7(15) 74.5(12)
Pb1 Fe1 O1 5_5545 5_4445 108.6(10) 107.0(10) 111.5(10)
Pb1 Fe1 O1 5_5545 5_4455 132.4(7) 130.6(7) 133.7(7)
Pb1 Fe1 O1 5_5545 5_5455 78.8(11) 71.8(10) 82.1(10)
Pb1 Fe1 O2 5_5545 1_4555 125.8(15) 112.8(18) 133.1(14)
Pb1 Fe1 O2 5_5545 . 53.8(15) 40.8(12) 69.8(18)
Pb1 Fe1 O3 5_5545 1_5545 52.6(3) 45.7(2) 54.8(4)
Pb1 Fe1 O3 5_5545 . 125.6(4) 123.5(6) 129.4(5)
Pb1 Fe1 Bi1 5_5555 1_4555 115.3(5) 113.0(4) 116.6(5)
Pb1 Fe1 Bi1 5_5555 1_5545 129.3(4) 127.7(4) 131.9(4)
Pb1 Fe1 Bi1 5_5555 . 58.0(15) 58.0(15) 58.0(15)
Pb1 Fe1 Bi1 5_5555 5_4445 178.0(6) 173.8(7) 180.0(5)
Pb1 Fe1 Bi1 5_5555 5_4455 106.9(5) 92.8(4) 113.3(5)
Pb1 Fe1 Bi1 5_5555 5_4545 108.2(3) 108.0(3) 109.0(3)
Pb1 Fe1 Bi1 5_5555 5_4555 69.0(5) 58.9(5) 73.5(5)
Pb1 Fe1 Bi1 5_5555 5_5445 109.0(5) 106.5(5) 117.1(6)
Pb1 Fe1 Bi1 5_5555 5_5455 70.1(3) 62.1(3) 72.5(4)
Pb1 Fe1 Bi1 5_5555 5_5545 70.4(5) 66.6(4) 79.5(4)
Pb1 Fe1 Bi1 5_5555 5_5555 0.1(5) 0.0(5) 1.0(5)
Pb1 Fe1 O1 5_5555 1_5455 128.4(14) 112.8(13) 136.8(14)
Pb1 Fe1 O1 5_5555 . 59.0(13) 41.4(13) 72.5(11)
Pb1 Fe1 O1 5_5555 5_4445 139.2(7) 137.0(7) 140.1(7)
Pb1 Fe1 O1 5_5555 5_5445 73.4(9) 72.7(9) 73.7(9)
Pb1 Fe1 O2 5_5555 1_4555 126.7(14) 110.5(17) 136.1(13)
Pb1 Fe1 O2 5_5555 . 56.0(15) 49.0(13) 70.9(17)
Pb1 Fe1 O3 5_5555 1_5545 123.6(4) 120.8(3) 131.5(5)
Pb1 Fe1 O3 5_5555 . 54.3(4) 47.6(4) 59.1(4)
Bi1 Fe1 Bi1 1_4555 1_5545 100.0(5) 99.3(4) 101.6(5)
Bi1 Fe1 Bi1 1_4555 . 65.4(18) 65.4(18) 65.4(18)
Bi1 Fe1 Bi1 1_4555 5_4455 53.5(4) 51.7(4) 54.6(4)
Bi1 Fe1 Bi1 1_4555 5_4555 53.5(4) 51.7(4) 54.6(4)
Bi1 Fe1 Bi1 1_4555 5_5445 133.1(4) 132.8(4) 133.4(4)
Bi1 Fe1 Bi1 1_4555 5_5455 115.2(5) 112.8(5) 116.7(5)
Bi1 Fe1 Bi1 1_4555 5_5545 133.1(4) 132.8(4) 133.4(4)
Bi1 Fe1 Bi1 1_4555 5_5555 115.2(5) 112.8(5) 116.7(5)
Bi1 Fe1 O1 1_4555 1_5455 93.8(16) 91.5(16) 97.2(16)
Bi1 Fe1 O1 1_4555 . 93.8(16) 91.5(16) 97.2(16)
Bi1 Fe1 O1 1_4555 5_4445 34.2(12) 33.5(12) 34.6(13)
Bi1 Fe1 O1 1_4555 5_5445 170.4(10) 169.5(11) 172.2(10)
Bi1 Fe1 O2 1_4555 . 172(2) 171(2) 173(2)
Bi1 Fe1 O3 1_4555 . 82.1(4) 79.1(5) 83.5(5)
Bi1 Fe1 Bi1 1_5545 . 167.0(19) 167.0(19) 167.0(19)
Bi1 Fe1 Bi1 1_5545 5_4445 48.3(4) 48.3(4) 48.3(4)
Bi1 Fe1 Bi1 1_5545 5_4455 132.2(4) 128.3(5) 135.1(4)
Bi1 Fe1 Bi1 1_5545 5_4545 48.3(4) 48.3(4) 48.3(4)
Bi1 Fe1 Bi1 1_5545 5_4555 132.2(4) 128.3(5) 135.1(4)
Bi1 Fe1 Bi1 1_5545 5_5445 54.8(4) 53.7(4) 56.3(4)
Bi1 Fe1 Bi1 1_5545 5_5455 129.3(5) 127.6(5) 132.1(4)
Bi1 Fe1 Bi1 1_5545 5_5545 54.8(4) 53.7(4) 56.3(4)
Bi1 Fe1 Bi1 1_5545 5_5555 129.3(5) 127.6(5) 132.1(4)
Bi1 Fe1 O1 1_5545 1_5455 72.2(10) 70.9(9) 74.7(10)
Bi1 Fe1 O1 1_5545 . 72.2(10) 70.9(9) 74.7(10)
Bi1 Fe1 O1 1_5545 5_4445 66.5(12) 65.1(13) 69.2(11)
Bi1 Fe1 O1 1_5545 5_5445 69.9(11) 69.6(11) 70.6(10)
Bi1 Fe1 O2 1_5545 . 75(2) 72(2) 79(2)
Bi1 Fe1 O3 1_5545 . 178.1(6) 177.2(5) 179.7(7)
Bi1 Fe1 Bi1 . 1_5565 167.0(8) 167.0(8) 167.0(8)
Bi1 Fe1 Bi1 . 1_6555 65.4(7) 65.4(7) 65.4(7)
Bi1 Fe1 Bi1 . 5_4445 57.8(6) 57.8(6) 57.8(6)
Bi1 Fe1 Bi1 . 5_4455 37.8(4) 37.8(4) 37.8(4)
Bi1 Fe1 Bi1 . 5_4545 57.8(6) 57.8(6) 57.8(6)
Bi1 Fe1 Bi1 . 5_4555 37.8(4) 37.8(4) 37.8(4)
Bi1 Fe1 Bi1 . 5_5445 37.8(4) 37.8(4) 37.8(4)
Bi1 Fe1 Bi1 . 5_5455 57.8(6) 57.8(6) 57.8(6)
Bi1 Fe1 Bi1 . 5_5545 37.8(4) 37.8(4) 37.8(4)
Bi1 Fe1 Bi1 . 5_5555 57.8(6) 57.8(6) 57.8(6)
Bi1 Fe1 O1 . 1_5455 109.4(10) 109.4(10) 109.4(10)
Bi1 Fe1 O1 . . 109.4(10) 109.4(10) 109.4(10)
Bi1 Fe1 O1 . 5_4445 99.4(14) 99.4(14) 99.4(14)
Bi1 Fe1 O1 . 5_4455 122.5(12) 122.5(12) 122.5(12)
Bi1 Fe1 O1 . 5_5445 122.5(12) 122.5(12) 122.5(12)
Bi1 Fe1 O1 . 5_5455 99.4(14) 99.4(14) 99.4(14)
Bi1 Fe1 O3 . 1_5545 13.7(7) 13.7(7) 13.7(7)
Bi1 Fe1 O3 . . 13.7(7) 13.7(7) 13.7(7)
Bi1 Fe1 Bi1 1_5565 1_6555 100.0(5) 99.3(5) 101.6(5)
Bi1 Fe1 Bi1 1_5565 5_4445 129.3(5) 127.6(5) 132.1(4)
Bi1 Fe1 Bi1 1_5565 5_4455 54.8(4) 53.7(4) 56.3(4)
Bi1 Fe1 Bi1 1_5565 5_4545 129.3(5) 127.6(5) 132.1(4)
Bi1 Fe1 Bi1 1_5565 5_4555 54.8(4) 53.7(4) 56.3(4)
Bi1 Fe1 Bi1 1_5565 5_5445 132.2(4) 128.3(5) 135.1(4)
Bi1 Fe1 Bi1 1_5565 5_5455 48.3(4) 48.3(4) 48.3(4)
Bi1 Fe1 Bi1 1_5565 5_5545 132.2(4) 128.3(5) 135.1(4)
Bi1 Fe1 Bi1 1_5565 5_5555 48.3(4) 48.3(4) 48.3(4)
Bi1 Fe1 O1 1_5565 1_5455 72.2(10) 70.9(9) 74.7(10)
Bi1 Fe1 O1 1_5565 . 72.2(10) 70.9(9) 74.7(10)
Bi1 Fe1 O1 1_5565 5_4455 69.9(11) 69.6(11) 70.6(10)
Bi1 Fe1 O1 1_5565 5_5455 66.5(12) 65.1(13) 69.2(11)
Bi1 Fe1 O2 1_5565 1_4555 75(2) 72(2) 79(2)
Bi1 Fe1 O3 1_5565 1_5545 178.1(6) 177.2(5) 179.7(7)
Bi1 Fe1 Bi1 1_6555 5_4445 115.2(5) 112.8(5) 116.7(5)
Bi1 Fe1 Bi1 1_6555 5_4455 133.1(4) 132.8(4) 133.4(4)
Bi1 Fe1 Bi1 1_6555 5_4545 115.2(5) 112.8(5) 116.7(5)
Bi1 Fe1 Bi1 1_6555 5_4555 133.1(4) 132.8(4) 133.4(4)
Bi1 Fe1 Bi1 1_6555 5_5445 53.5(4) 51.7(4) 54.6(4)
Bi1 Fe1 Bi1 1_6555 5_5545 53.5(4) 51.7(4) 54.6(4)
Bi1 Fe1 O1 1_6555 1_5455 93.8(16) 91.5(16) 97.2(16)
Bi1 Fe1 O1 1_6555 . 93.8(16) 91.5(16) 97.2(16)
Bi1 Fe1 O1 1_6555 5_4455 170.4(10) 169.5(11) 172.2(10)
Bi1 Fe1 O1 1_6555 5_5455 34.2(12) 33.5(12) 34.6(13)
Bi1 Fe1 O2 1_6555 1_4555 172(2) 171(2) 173(2)
Bi1 Fe1 O3 1_6555 1_5545 82.1(4) 79.1(5) 83.5(5)
Bi1 Fe1 Bi1 5_4445 5_4455 70.6(5) 66.7(4) 80.3(4)
Bi1 Fe1 Bi1 5_4445 5_4545 70.2(3) 62.1(3) 72.5(4)
Bi1 Fe1 Bi1 5_4445 5_4555 109.1(5) 106.6(5) 117.9(6)
Bi1 Fe1 Bi1 5_4445 5_5445 69.0(5) 58.7(5) 73.5(5)
Bi1 Fe1 Bi1 5_4445 5_5455 108.2(3) 108.0(3) 108.9(3)
Bi1 Fe1 Bi1 5_4445 5_5545 106.9(5) 92.6(4) 113.2(5)
Bi1 Fe1 Bi1 5_4445 5_5555 178.0(6) 173.8(7) 180.0(5)
Bi1 Fe1 O1 5_4445 1_5455 58.6(13) 40.8(13) 72.6(11)
Bi1 Fe1 O1 5_4445 . 128.1(14) 112.2(12) 136.8(14)
Bi1 Fe1 O1 5_4445 5_4445 48.3(7) 48.3(7) 48.3(7)
Bi1 Fe1 O1 5_4445 5_4455 73.5(9) 72.8(9) 73.9(9)
Bi1 Fe1 O1 5_4445 5_5455 139.1(7) 137.0(7) 140.1(7)
Bi1 Fe1 O2 5_4445 1_4555 55.9(15) 48.4(14) 70.9(17)
Bi1 Fe1 O2 5_4445 . 126.2(14) 109.3(17) 136.2(13)
Bi1 Fe1 O3 5_4445 1_5545 54.4(4) 47.4(4) 59.0(4)
Bi1 Fe1 O3 5_4445 . 123.8(4) 120.9(3) 131.9(5)
Bi1 Fe1 Bi1 5_4455 5_4545 109.1(5) 106.6(4) 117.9(7)
Bi1 Fe1 Bi1 5_4455 5_4555 68.4(3) 65.1(3) 72.0(4)
Bi1 Fe1 Bi1 5_4455 5_5445 111.2(3) 109.5(3) 114.2(2)
Bi1 Fe1 Bi1 5_4455 5_5455 69.0(5) 58.7(4) 73.5(4)
Bi1 Fe1 Bi1 5_4455 5_5545 176.5(5) 172.3(5) 180.0(5)
Bi1 Fe1 Bi1 5_4455 5_5555 106.9(5) 92.6(4) 113.2(4)
Bi1 Fe1 O1 5_4455 1_5455 58.3(14) 46.2(15) 75.0(12)
Bi1 Fe1 O1 5_4455 . 125.6(14) 109.3(13) 140.8(13)
Bi1 Fe1 O1 5_4455 5_4445 78.8(11) 71.7(10) 82.0(11)
Bi1 Fe1 O1 5_4455 5_5445 132.7(7) 131.0(7) 133.9(7)
Bi1 Fe1 O1 5_4455 5_5455 108.6(10) 107.1(10) 111.5(10)
Bi1 Fe1 O2 5_4455 1_4555 53.8(15) 41.1(12) 69.8(18)
Bi1 Fe1 O2 5_4455 . 125.8(15) 112.8(18) 133.2(14)
Bi1 Fe1 O3 5_4455 1_5545 125.6(4) 123.4(6) 129.4(5)
Bi1 Fe1 O3 5_4455 . 52.6(3) 45.4(3) 54.9(4)
Bi1 Fe1 Bi1 5_4545 5_4555 70.6(5) 66.7(4) 80.3(4)
Bi1 Fe1 Bi1 5_4545 5_5445 106.9(5) 92.6(4) 113.2(5)
Bi1 Fe1 Bi1 5_4545 5_5455 178.0(6) 173.8(7) 180.0(5)
Bi1 Fe1 Bi1 5_4545 5_5545 69.0(5) 58.7(5) 73.5(5)
Bi1 Fe1 Bi1 5_4545 5_5555 108.2(3) 108.0(3) 108.9(3)
Bi1 Fe1 O1 5_4545 1_5455 128.1(14) 112.2(12) 136.8(14)
Bi1 Fe1 O1 5_4545 . 58.6(13) 40.8(13) 72.6(11)
Bi1 Fe1 O1 5_4545 5_4445 48.3(7) 48.3(7) 48.3(7)
Bi1 Fe1 O1 5_4545 5_4455 73.5(9) 72.8(9) 73.9(9)
Bi1 Fe1 O1 5_4545 5_5455 139.1(7) 137.0(7) 140.1(7)
Bi1 Fe1 O2 5_4545 1_4555 55.9(15) 48.4(14) 70.9(17)
Bi1 Fe1 O2 5_4545 . 126.2(14) 109.3(17) 136.2(13)
Bi1 Fe1 O3 5_4545 1_5545 54.4(4) 47.4(4) 59.0(4)
Bi1 Fe1 O3 5_4545 . 123.8(4) 120.9(3) 131.9(5)
Bi1 Fe1 Bi1 5_4555 5_5445 176.5(5) 172.3(5) 180.0(5)
Bi1 Fe1 Bi1 5_4555 5_5455 106.9(5) 92.6(4) 113.2(4)
Bi1 Fe1 Bi1 5_4555 5_5545 111.2(3) 109.5(3) 114.2(2)
Bi1 Fe1 Bi1 5_4555 5_5555 69.0(5) 58.7(4) 73.5(4)
Bi1 Fe1 O1 5_4555 1_5455 125.6(14) 109.3(13) 140.8(13)
Bi1 Fe1 O1 5_4555 . 58.3(14) 46.2(15) 75.0(12)
Bi1 Fe1 O1 5_4555 5_4445 78.8(11) 71.7(10) 82.0(11)
Bi1 Fe1 O1 5_4555 5_5445 132.7(7) 131.0(7) 133.9(7)
Bi1 Fe1 O1 5_4555 5_5455 108.6(10) 107.1(10) 111.5(10)
Bi1 Fe1 O2 5_4555 1_4555 53.8(15) 41.1(12) 69.8(18)
Bi1 Fe1 O2 5_4555 . 125.8(15) 112.8(18) 133.2(14)
Bi1 Fe1 O3 5_4555 1_5545 125.6(4) 123.4(6) 129.4(5)
Bi1 Fe1 O3 5_4555 . 52.6(3) 45.4(3) 54.9(4)
Bi1 Fe1 Bi1 5_5445 5_5455 70.6(5) 66.7(4) 80.3(5)
Bi1 Fe1 Bi1 5_5445 5_5545 68.4(3) 65.1(3) 72.0(4)
Bi1 Fe1 Bi1 5_5445 5_5555 109.1(5) 106.6(4) 117.9(7)
Bi1 Fe1 O1 5_5445 1_5455 58.3(14) 46.2(15) 75.0(12)
Bi1 Fe1 O1 5_5445 . 125.6(14) 109.3(13) 140.8(13)
Bi1 Fe1 O1 5_5445 5_4445 108.6(10) 107.1(10) 111.5(10)
Bi1 Fe1 O1 5_5445 5_4455 132.7(7) 131.0(7) 133.9(7)
Bi1 Fe1 O1 5_5445 5_5455 78.8(11) 71.7(10) 82.0(11)
Bi1 Fe1 O2 5_5445 1_4555 125.8(15) 112.8(18) 133.2(14)
Bi1 Fe1 O2 5_5445 . 53.8(15) 41.1(12) 69.8(18)
Bi1 Fe1 O3 5_5445 1_5545 52.6(3) 45.4(3) 54.9(4)
Bi1 Fe1 O3 5_5445 . 125.6(4) 123.4(6) 129.4(5)
Bi1 Fe1 Bi1 5_5455 5_5545 109.1(5) 106.6(5) 117.9(6)
Bi1 Fe1 Bi1 5_5455 5_5555 70.2(3) 62.1(3) 72.5(4)
Bi1 Fe1 O1 5_5455 1_5455 58.6(13) 40.8(13) 72.6(11)
Bi1 Fe1 O1 5_5455 . 128.1(14) 112.2(12) 136.8(14)
Bi1 Fe1 O1 5_5455 5_4445 139.1(7) 137.0(7) 140.1(7)
Bi1 Fe1 O1 5_5455 5_5445 73.5(9) 72.8(9) 73.9(9)
Bi1 Fe1 O1 5_5455 5_5455 48.3(7) 48.3(7) 48.3(7)
Bi1 Fe1 O2 5_5455 1_4555 126.2(14) 109.3(17) 136.2(13)
Bi1 Fe1 O2 5_5455 . 55.9(15) 48.4(14) 70.9(17)
Bi1 Fe1 O3 5_5455 1_5545 123.8(4) 120.9(3) 131.9(5)
Bi1 Fe1 O3 5_5455 . 54.4(4) 47.4(4) 59.0(4)
Bi1 Fe1 Bi1 5_5545 5_5555 70.6(5) 66.7(4) 80.3(5)
Bi1 Fe1 O1 5_5545 1_5455 125.6(14) 109.3(13) 140.8(13)
Bi1 Fe1 O1 5_5545 . 58.3(14) 46.2(15) 75.0(12)
Bi1 Fe1 O1 5_5545 5_4445 108.6(10) 107.1(10) 111.5(10)
Bi1 Fe1 O1 5_5545 5_4455 132.7(7) 131.0(7) 133.9(7)
Bi1 Fe1 O1 5_5545 5_5455 78.8(11) 71.7(10) 82.0(11)
Bi1 Fe1 O2 5_5545 1_4555 125.8(15) 112.8(18) 133.2(14)
Bi1 Fe1 O2 5_5545 . 53.8(15) 41.1(12) 69.8(18)
Bi1 Fe1 O3 5_5545 1_5545 52.6(3) 45.4(3) 54.9(4)
Bi1 Fe1 O3 5_5545 . 125.6(4) 123.4(6) 129.4(5)
Bi1 Fe1 O1 5_5555 1_5455 128.1(14) 112.2(12) 136.8(14)
Bi1 Fe1 O1 5_5555 . 58.6(13) 40.8(13) 72.6(11)
Bi1 Fe1 O1 5_5555 5_4445 139.1(7) 137.0(7) 140.1(7)
Bi1 Fe1 O1 5_5555 5_5445 73.5(9) 72.8(9) 73.9(9)
Bi1 Fe1 O1 5_5555 5_5455 48.3(7) 48.3(7) 48.3(7)
Bi1 Fe1 O2 5_5555 1_4555 126.2(14) 109.3(17) 136.2(13)
Bi1 Fe1 O2 5_5555 . 55.9(15) 48.4(14) 70.9(17)
Bi1 Fe1 O3 5_5555 1_5545 123.8(4) 120.9(3) 131.9(5)
Bi1 Fe1 O3 5_5555 . 54.4(4) 47.4(4) 59.0(4)
O1 Fe1 O1 1_5455 . 155.4(12) 141.2(11) 180.0(5)
O1 Fe1 O1 1_5455 5_4445 82.9(9) 81.7(10) 86.1(6)
O1 Fe1 O1 1_5455 5_4455 82.0(6) 80.4(6) 83.7(7)
O1 Fe1 O1 1_5455 5_5445 82.0(6) 80.4(6) 83.7(7)
O1 Fe1 O1 1_5455 5_5455 82.9(9) 81.7(10) 86.1(6)
O1 Fe1 O2 1_5455 1_4555 88.5(9) 83.6(15) 91.0(7)
O1 Fe1 O2 1_5455 . 88.5(9) 83.6(15) 91.0(7)
O1 Fe1 O3 1_5455 1_5545 95.1(5) 75.5(9) 109.0(4)
O1 Fe1 O3 1_5455 . 95.1(5) 75.5(9) 109.0(4)
O1 Fe1 O1 . 5_4445 82.9(9) 81.7(10) 86.1(6)
O1 Fe1 O1 . 5_4455 82.0(6) 80.4(6) 83.7(7)
O1 Fe1 O1 . 5_5445 82.0(6) 80.4(6) 83.7(7)
O1 Fe1 O1 . 5_5455 82.9(9) 81.7(10) 86.1(6)
O1 Fe1 O2 . 1_4555 88.5(9) 83.6(15) 91.0(7)
O1 Fe1 O2 . . 88.5(9) 83.6(15) 91.0(7)
O1 Fe1 O3 . 1_5545 95.1(5) 75.5(9) 109.0(4)
O1 Fe1 O3 . . 95.1(5) 75.5(9) 109.0(4)
O1 Fe1 O1 5_4445 5_5445 136.0(14) 134.9(13) 138.2(14)
O1 Fe1 O2 5_4445 . 142(2) 137(2) 149(2)
O1 Fe1 O3 5_4445 . 115.5(9) 111.1(8) 117.7(8)
O1 Fe1 O1 5_4455 5_5455 136.0(13) 134.9(13) 138.2(13)
O1 Fe1 O3 5_4455 1_5545 108.3(6) 107.5(6) 108.8(6)
O1 Fe1 O3 5_5445 . 108.3(6) 107.5(6) 108.8(6)
O1 Fe1 O2 5_5455 1_4555 142(2) 137(2) 149(2)
O1 Fe1 O3 5_5455 1_5545 115.5(9) 111.1(8) 117.7(8)
O2 Fe1 O2 1_4555 . 167(2) 151(3) 180.0(5)
O2 Fe1 O3 1_4555 1_5545 91.5(12) 73.2(16) 105.4(15)
O2 Fe1 O3 1_4555 . 91.1(11) 78.3(18) 109.1(17)
O2 Fe1 O3 . 1_5545 91.1(11) 78.3(18) 109.1(17)
O2 Fe1 O3 . . 91.5(12) 73.2(16) 105.4(15)
O3 Fe1 O3 1_5545 . 178.3(6) 177.5(8) 180.0(5)
Fe1 Pb1 Fe1 1_4555 1_5545 98.1(4) 96.1(3) 100.4(5)
Fe1 Pb1 Fe1 1_4555 5_4455 47.4(3) 46.2(2) 48.1(3)
Fe1 Pb1 Fe1 1_4555 5_4555 47.4(3) 46.2(2) 48.1(3)
Fe1 Pb1 Fe1 1_4555 5_5445 126.3(4) 124.7(3) 128.2(4)
Fe1 Pb1 Fe1 1_4555 5_5455 116.8(4) 113.5(3) 119.2(5)
Fe1 Pb1 Fe1 1_4555 5_5545 126.3(4) 124.7(3) 128.2(4)
Fe1 Pb1 Fe1 1_4555 5_5555 116.8(4) 113.5(3) 119.2(5)
Fe1 Pb1 Pb1 1_4555 1_5455 90.0(4) 90.0(4) 90.0(4)
Fe1 Pb1 Pb1 1_4555 1_5655 90.0(4) 90.0(4) 90.0(4)
Fe1 Pb1 Pb1 1_4555 1_6555 171.2(5) 169.1(5) 172.3(6)
Fe1 Pb1 Pb1 1_4555 5_4445 57.5(5) 56.9(4) 57.8(5)
Fe1 Pb1 Pb1 1_4555 5_4545 57.5(5) 56.9(4) 57.8(5)
Fe1 Pb1 Bi1 1_4555 1_5455 89.6(4) 89.4(4) 89.8(5)
Fe1 Pb1 Bi1 1_4555 . 40(50) 40(80) 40(30)
Fe1 Pb1 Bi1 1_4555 1_5655 89.6(4) 89.4(4) 89.8(5)
Fe1 Pb1 Bi1 1_4555 1_6555 171.1(5) 168.9(5) 172.3(6)
Fe1 Pb1 Bi1 1_4555 5_4445 58.0(5) 57.2(4) 58.5(5)
Fe1 Pb1 Bi1 1_4555 5_4545 58.0(5) 57.2(4) 58.5(5)
Fe1 Pb1 O1 1_4555 1_5445 97.7(9) 96.0(9) 99.3(9)
Fe1 Pb1 O1 1_4555 1_5545 97.7(9) 96.0(9) 99.3(9)
Fe1 Pb1 O1 1_4555 5_4455 25.4(9) 24.8(9) 25.7(10)
Fe1 Pb1 O1 1_4555 5_5445 129.3(9) 128.7(9) 130.7(9)
Fe1 Pb1 O1 1_4555 5_5455 129.4(13) 125.6(13) 131.8(13)
Fe1 Pb1 O2 1_4555 1_4545 68.8(15) 67.2(15) 70.2(16)
Fe1 Pb1 O2 1_4555 5_4455 80(2) 78(2) 81(2)
Fe1 Pb1 O2 1_4555 5_4555 80(2) 78(2) 81(2)
Fe1 Pb1 O3 1_4555 5_5445 133.1(3) 130.7(2) 135.2(3)
Fe1 Pb1 O3 1_4555 5_5545 133.1(3) 130.7(2) 135.2(3)
Fe1 Pb1 Fe1 1_5545 5_4445 49.1(3) 47.7(3) 50.4(4)
Fe1 Pb1 Fe1 1_5545 5_4455 125.9(4) 123.6(3) 127.0(5)
Fe1 Pb1 Fe1 1_5545 5_4545 49.1(3) 47.7(3) 50.4(4)
Fe1 Pb1 Fe1 1_5545 5_4555 125.9(4) 123.6(3) 127.0(5)
Fe1 Pb1 Fe1 1_5545 5_5445 48.0(3) 47.7(3) 48.5(4)
Fe1 Pb1 Fe1 1_5545 5_5455 123.8(5) 119.2(6) 131.1(3)
Fe1 Pb1 Fe1 1_5545 5_5545 48.0(3) 47.7(3) 48.5(4)
Fe1 Pb1 Fe1 1_5545 5_5555 123.8(5) 119.2(6) 131.1(3)
Fe1 Pb1 Pb1 1_5545 1_4555 90.6(6) 88.5(6) 92.5(6)
Fe1 Pb1 Pb1 1_5545 1_5455 90.0(4) 90.0(4) 90.0(4)
Fe1 Pb1 Pb1 1_5545 1_5565 176.9(6) 173.4(5) 179.6(6)
Fe1 Pb1 Pb1 1_5545 1_5655 90.0(4) 90.0(4) 90.0(4)
Fe1 Pb1 Pb1 1_5545 1_6555 88.1(5) 83.9(6) 94.8(5)
Fe1 Pb1 Pb1 1_5545 5_4445 57.5(5) 56.6(4) 59.2(5)
Fe1 Pb1 Pb1 1_5545 5_4545 57.5(5) 56.6(4) 59.2(5)
Fe1 Pb1 Bi1 1_5545 1_4555 91.2(6) 89.3(6) 92.8(6)
Fe1 Pb1 Bi1 1_5545 1_5455 90.3(4) 90.0(5) 90.6(4)
Fe1 Pb1 Bi1 1_5545 . 140(160) 100(600) 140(80)
Fe1 Pb1 Bi1 1_5545 1_5565 176.9(6) 173.4(5) 179.6(6)
Fe1 Pb1 Bi1 1_5545 1_5655 90.3(4) 90.0(5) 90.6(4)
Fe1 Pb1 Bi1 1_5545 1_6555 88.1(5) 83.8(6) 95.0(5)
Fe1 Pb1 Bi1 1_5545 5_4445 57.3(5) 56.2(4) 59.5(5)
Fe1 Pb1 Bi1 1_5545 5_4545 57.3(5) 56.2(4) 59.5(5)
Fe1 Pb1 O1 1_5545 1_5445 31.3(3) 30.7(3) 33.0(4)
Fe1 Pb1 O1 1_5545 1_5545 31.3(3) 30.7(3) 33.0(4)
Fe1 Pb1 O1 1_5545 5_4445 32.1(9) 30.1(9) 34.0(9)
Fe1 Pb1 O1 1_5545 5_4455 125.8(11) 120.8(9) 130.2(13)
Fe1 Pb1 O1 1_5545 5_5445 31.0(8) 30.3(8) 32.7(9)
Fe1 Pb1 O1 1_5545 5_5455 129.3(13) 125.0(13) 138.3(13)
Fe1 Pb1 O2 1_5545 1_4545 29.3(15) 28.9(15) 30.2(15)
Fe1 Pb1 O2 1_5545 5_4455 128.5(13) 127.7(13) 129.6(13)
Fe1 Pb1 O2 1_5545 5_4555 128.5(13) 127.7(13) 129.6(13)
Fe1 Pb1 O3 1_5545 5_4445 78.2(10) 76.2(10) 80.1(11)
Fe1 Pb1 O3 1_5545 5_4545 78.2(10) 76.2(10) 80.1(11)
Fe1 Pb1 O3 1_5545 5_5445 78.0(10) 77.5(10) 79.2(10)
Fe1 Pb1 O3 1_5545 5_5545 78.0(10) 77.5(10) 79.2(10)
Fe1 Pb1 Fe1 1_5565 1_6555 98.1(4) 96.1(3) 100.4(5)
Fe1 Pb1 Fe1 1_5565 5_4445 123.8(5) 119.2(6) 131.1(3)
Fe1 Pb1 Fe1 1_5565 5_4455 48.0(3) 47.7(3) 48.5(4)
Fe1 Pb1 Fe1 1_5565 5_4545 123.8(5) 119.2(6) 131.1(3)
Fe1 Pb1 Fe1 1_5565 5_4555 48.0(3) 47.7(3) 48.5(4)
Fe1 Pb1 Fe1 1_5565 5_5445 125.9(4) 123.6(3) 127.0(5)
Fe1 Pb1 Fe1 1_5565 5_5455 49.1(3) 47.7(3) 50.4(4)
Fe1 Pb1 Fe1 1_5565 5_5545 125.9(4) 123.6(3) 127.0(5)
Fe1 Pb1 Fe1 1_5565 5_5555 49.1(3) 47.7(3) 50.4(4)
Fe1 Pb1 Pb1 1_5565 1_4555 88.1(5) 83.9(6) 94.8(5)
Fe1 Pb1 Pb1 1_5565 1_5455 90.0(4) 90.0(5) 90.0(5)
Fe1 Pb1 Pb1 1_5565 1_5545 176.9(6) 173.4(5) 179.6(6)
Fe1 Pb1 Pb1 1_5565 1_5655 90.0(4) 90.0(5) 90.0(5)
Fe1 Pb1 Pb1 1_5565 1_6555 90.6(6) 88.5(6) 92.5(6)
Fe1 Pb1 Pb1 1_5565 5_5455 57.5(5) 56.6(4) 59.2(5)
Fe1 Pb1 Pb1 1_5565 5_5555 57.5(5) 56.6(4) 59.2(5)
Fe1 Pb1 Bi1 1_5565 1_4555 88.1(5) 83.8(6) 95.0(5)
Fe1 Pb1 Bi1 1_5565 1_5455 90.3(4) 90.0(5) 90.6(4)
Fe1 Pb1 Bi1 1_5565 1_5545 176.9(6) 173.4(5) 179.6(6)
Fe1 Pb1 Bi1 1_5565 . 140(160) 100(600) 140(80)
Fe1 Pb1 Bi1 1_5565 1_5655 90.3(4) 90.0(5) 90.6(4)
Fe1 Pb1 Bi1 1_5565 1_6555 91.2(6) 89.3(6) 92.8(6)
Fe1 Pb1 Bi1 1_5565 5_5455 57.3(5) 56.2(4) 59.5(5)
Fe1 Pb1 Bi1 1_5565 5_5555 57.3(5) 56.2(4) 59.5(5)
Fe1 Pb1 O1 1_5565 1_5465 31.3(3) 30.7(3) 33.0(4)
Fe1 Pb1 O1 1_5565 1_5565 31.3(3) 30.7(3) 33.0(4)
Fe1 Pb1 O1 1_5565 5_4445 129.3(13) 125.0(13) 138.3(13)
Fe1 Pb1 O1 1_5565 5_4455 31.0(8) 30.3(8) 32.7(9)
Fe1 Pb1 O1 1_5565 5_5445 125.8(11) 120.8(9) 130.2(13)
Fe1 Pb1 O1 1_5565 5_5455 32.1(9) 30.1(9) 34.0(9)
Fe1 Pb1 O2 1_5565 1_5565 29.3(15) 28.9(15) 30.2(15)
Fe1 Pb1 O2 1_5565 5_4445 128.5(13) 127.7(13) 129.6(13)
Fe1 Pb1 O2 1_5565 5_4545 128.5(13) 127.7(13) 129.6(13)
Fe1 Pb1 O3 1_5565 5_4445 78.0(10) 77.5(10) 79.2(10)
Fe1 Pb1 O3 1_5565 5_4545 78.0(10) 77.5(10) 79.2(10)
Fe1 Pb1 O3 1_5565 5_5445 78.2(10) 76.2(10) 80.1(11)
Fe1 Pb1 O3 1_5565 5_5545 78.2(10) 76.2(10) 80.1(11)
Fe1 Pb1 Fe1 1_6555 5_4445 116.8(4) 113.5(3) 119.2(5)
Fe1 Pb1 Fe1 1_6555 5_4455 126.3(4) 124.7(3) 128.2(4)
Fe1 Pb1 Fe1 1_6555 5_4545 116.8(4) 113.5(3) 119.2(5)
Fe1 Pb1 Fe1 1_6555 5_4555 126.3(4) 124.7(3) 128.2(4)
Fe1 Pb1 Fe1 1_6555 5_5445 47.4(3) 46.2(2) 48.1(3)
Fe1 Pb1 Fe1 1_6555 5_5545 47.4(3) 46.2(2) 48.1(3)
Fe1 Pb1 Pb1 1_6555 1_4555 171.2(5) 169.1(5) 172.3(6)
Fe1 Pb1 Pb1 1_6555 1_5455 90.0(4) 90.0(5) 90.0(5)
Fe1 Pb1 Pb1 1_6555 1_5655 90.0(4) 90.0(5) 90.0(5)
Fe1 Pb1 Pb1 1_6555 5_5455 57.5(5) 56.9(4) 57.8(5)
Fe1 Pb1 Pb1 1_6555 5_5555 57.5(5) 56.9(4) 57.8(5)
Fe1 Pb1 Bi1 1_6555 1_4555 171.1(5) 168.9(5) 172.3(6)
Fe1 Pb1 Bi1 1_6555 1_5455 89.6(4) 89.4(4) 89.8(5)
Fe1 Pb1 Bi1 1_6555 . 40(50) 40(80) 40(30)
Fe1 Pb1 Bi1 1_6555 1_5655 89.6(4) 89.4(4) 89.8(5)
Fe1 Pb1 Bi1 1_6555 5_5455 58.0(5) 57.2(4) 58.5(5)
Fe1 Pb1 Bi1 1_6555 5_5555 58.0(5) 57.2(4) 58.5(5)
Fe1 Pb1 O1 1_6555 1_5465 97.7(9) 96.0(9) 99.3(9)
Fe1 Pb1 O1 1_6555 1_5565 97.7(9) 96.0(9) 99.3(9)
Fe1 Pb1 O1 1_6555 5_4445 129.4(13) 125.6(13) 131.8(13)
Fe1 Pb1 O1 1_6555 5_4455 129.3(9) 128.7(9) 130.7(9)
Fe1 Pb1 O1 1_6555 5_5445 25.4(9) 24.8(9) 25.7(10)
Fe1 Pb1 O2 1_6555 1_5565 68.8(15) 67.2(15) 70.2(16)
Fe1 Pb1 O2 1_6555 5_4445 80(2) 78(2) 81(2)
Fe1 Pb1 O2 1_6555 5_4545 80(2) 78(2) 81(2)
Fe1 Pb1 O3 1_6555 5_4445 133.1(3) 130.7(2) 135.2(3)
Fe1 Pb1 O3 1_6555 5_4545 133.1(3) 130.7(2) 135.2(3)
Fe1 Pb1 Fe1 5_4445 5_4455 73.1(3) 68.6(3) 82.8(3)
Fe1 Pb1 Fe1 5_4445 5_4545 70.0(3) 62.1(3) 72.5(4)
Fe1 Pb1 Fe1 5_4445 5_4555 110.9(5) 106.4(5) 121.8(4)
Fe1 Pb1 Fe1 5_4445 5_5445 70.0(3) 62.4(3) 73.5(3)
Fe1 Pb1 Fe1 5_4445 5_5455 109.82(18) 108.90(19) 111.99(19)
Fe1 Pb1 Fe1 5_4445 5_5545 107.9(5) 95.4(5) 114.1(6)
Fe1 Pb1 Fe1 5_4445 5_5555 172.7(6) 169.3(7) 180.0(5)
Fe1 Pb1 Pb1 5_4445 1_4555 56.3(4) 53.9(4) 58.7(4)
Fe1 Pb1 Pb1 5_4445 1_5455 55.0(4) 53.8(4) 59.0(4)
Fe1 Pb1 Pb1 5_4445 1_5545 55.6(4) 52.9(4) 57.6(4)
Fe1 Pb1 Pb1 5_4445 1_5565 126.0(4) 117.0(6) 133.6(5)
Fe1 Pb1 Pb1 5_4445 1_5655 125.0(5) 121.0(6) 126.2(5)
Fe1 Pb1 Pb1 5_4445 1_6555 123.7(5) 118.7(6) 128.7(6)
Fe1 Pb1 Pb1 5_4445 5_5455 108.6(3) 108.1(3) 108.8(3)
Fe1 Pb1 Pb1 5_4445 5_5555 174.2(7) 169.9(6) 176.7(7)
Fe1 Pb1 Bi1 5_4445 1_4555 56.4(4) 53.9(4) 58.8(4)
Fe1 Pb1 Bi1 5_4445 1_5455 55.0(4) 53.7(4) 59.0(4)
Fe1 Pb1 Bi1 5_4445 1_5545 55.5(4) 52.6(4) 57.6(4)
Fe1 Pb1 Bi1 5_4445 . 100(500) 0 100(1400)
Fe1 Pb1 Bi1 5_4445 1_5565 126.1(4) 117.3(6) 133.6(5)
Fe1 Pb1 Bi1 5_4445 1_5655 125.0(5) 121.1(6) 126.2(6)
Fe1 Pb1 Bi1 5_4445 1_6555 123.6(5) 118.6(6) 128.3(6)
Fe1 Pb1 Bi1 5_4445 5_4445 12.0(4) 12.0(4) 12.0(4)
Fe1 Pb1 Bi1 5_4445 5_4545 67.1(4) 67.1(4) 67.1(4)
Fe1 Pb1 Bi1 5_4445 5_5455 108.7(3) 108.2(3) 108.9(3)
Fe1 Pb1 Bi1 5_4445 5_5555 175.1(7) 170.3(6) 177.5(7)
Fe1 Pb1 O1 5_4445 1_5445 32.8(9) 32.5(9) 32.9(9)
Fe1 Pb1 O1 5_4445 1_5465 99.7(6) 96.2(7) 104.6(5)
Fe1 Pb1 O1 5_4445 1_5545 73.5(7) 72.0(6) 75.1(7)
Fe1 Pb1 O1 5_4445 1_5565 141.5(10) 138.1(11) 149.3(9)
Fe1 Pb1 O1 5_4445 5_4445 35.3(2) 32.0(2) 36.6(2)
Fe1 Pb1 O1 5_4445 5_4455 93.2(8) 88.9(9) 107.5(7)
Fe1 Pb1 O1 5_4445 5_5445 89.7(8) 71.7(8) 100.4(10)
Fe1 Pb1 O1 5_4445 5_5455 143.1(4) 139.6(5) 145.8(6)
Fe1 Pb1 O2 5_4445 1_5565 141.8(5) 140.3(6) 143.4(3)
Fe1 Pb1 O2 5_4445 5_4445 36(2) 33.3(18) 39(2)
Fe1 Pb1 O2 5_4445 5_4455 91.7(15) 90.4(16) 94.9(12)
Fe1 Pb1 O2 5_4445 5_4545 90.9(16) 76.7(12) 98.4(18)
Fe1 Pb1 O2 5_4445 5_4555 144(2) 137.8(18) 148(2)
Fe1 Pb1 O3 5_4445 5_4445 36.8(10) 28.6(9) 51.9(10)
Fe1 Pb1 O3 5_4445 5_4545 90.4(7) 79.7(8) 105.3(7)
Fe1 Pb1 O3 5_4445 5_5445 90.4(6) 82.0(7) 98.6(5)
Fe1 Pb1 O3 5_4445 5_5545 145.2(11) 125.1(11) 161.9(11)
Fe1 Pb1 Fe1 5_4455 5_4545 110.9(5) 106.4(5) 121.8(4)
Fe1 Pb1 Fe1 5_4455 5_4555 68.4(3) 64.7(2) 72.1(4)
Fe1 Pb1 Fe1 5_4455 5_5445 111.41(18) 110.44(16) 113.05(17)
Fe1 Pb1 Fe1 5_4455 5_5455 70.0(4) 62.4(4) 73.5(4)
Fe1 Pb1 Fe1 5_4455 5_5545 175.6(5) 169.9(4) 180.0(5)
Fe1 Pb1 Fe1 5_4455 5_5555 107.9(5) 95.4(5) 114.1(6)
Fe1 Pb1 Pb1 5_4455 1_4555 54.7(4) 51.9(3) 63.6(4)
Fe1 Pb1 Pb1 5_4455 1_5455 55.8(4) 54.0(4) 57.6(4)
Fe1 Pb1 Pb1 5_4455 1_5545 128.0(4) 125.0(3) 135.9(3)
Fe1 Pb1 Pb1 5_4455 1_5565 53.8(4) 47.1(4) 56.7(4)
Fe1 Pb1 Pb1 5_4455 1_5655 124.2(5) 122.4(4) 126.0(6)
Fe1 Pb1 Pb1 5_4455 1_6555 126.2(4) 119.3(6) 127.9(2)
Fe1 Pb1 Pb1 5_4455 5_4445 67.7(5) 67.1(4) 68.1(5)
Fe1 Pb1 Pb1 5_4455 5_4545 104.7(6) 102.9(5) 105.5(6)
Fe1 Pb1 Pb1 5_4455 5_5455 68.8(5) 67.8(4) 70.7(5)
Fe1 Pb1 Pb1 5_4455 5_5555 105.3(5) 104.6(5) 106.7(6)
Fe1 Pb1 Bi1 5_4455 1_4555 54.7(4) 51.9(3) 63.8(4)
Fe1 Pb1 Bi1 5_4455 1_5455 55.8(4) 54.0(4) 57.6(4)
Fe1 Pb1 Bi1 5_4455 1_5545 128.0(4) 125.0(3) 135.9(3)
Fe1 Pb1 Bi1 5_4455 . 90(190) 0 147(9)
Fe1 Pb1 Bi1 5_4455 1_5565 53.8(4) 47.4(4) 56.6(4)
Fe1 Pb1 Bi1 5_4455 1_5655 124.2(5) 121.5(4) 126.1(6)
Fe1 Pb1 Bi1 5_4455 1_6555 126.3(4) 119.9(5) 127.9(2)
Fe1 Pb1 Bi1 5_4455 5_4445 68.1(5) 67.2(5) 68.7(5)
Fe1 Pb1 Bi1 5_4455 5_4545 105.3(6) 103.2(5) 106.2(6)
Fe1 Pb1 Bi1 5_4455 5_5455 68.6(5) 67.5(4) 71.1(5)
Fe1 Pb1 Bi1 5_4455 5_5555 105.0(5) 104.2(5) 107.0(6)
Fe1 Pb1 O1 5_4455 1_5445 102.0(6) 99.8(7) 102.9(6)
Fe1 Pb1 O1 5_4455 1_5465 31.3(9) 30.3(8) 33.5(9)
Fe1 Pb1 O1 5_4455 1_5545 142.8(10) 139.5(9) 144.2(11)
Fe1 Pb1 O1 5_4455 1_5565 73.1(6) 72.1(6) 75.7(8)
Fe1 Pb1 O1 5_4455 5_4445 93.7(9) 87.2(10) 103.5(8)
Fe1 Pb1 O1 5_4455 5_4455 34.7(2) 33.3(3) 36.6(3)
Fe1 Pb1 O1 5_4455 5_5445 144.1(3) 140.5(5) 146.2(3)
Fe1 Pb1 O1 5_4455 5_5455 87.3(9) 70.9(8) 95.8(11)
Fe1 Pb1 O2 5_4455 1_4545 102.0(13) 100.2(13) 103.0(13)
Fe1 Pb1 O2 5_4455 1_5565 70.2(12) 69.9(12) 70.9(13)
Fe1 Pb1 O2 5_4455 5_4445 92.0(16) 89.3(17) 99.4(12)
Fe1 Pb1 O2 5_4455 5_4455 35(2) 32(2) 37(2)
Fe1 Pb1 O2 5_4455 5_4545 146(2) 143(2) 156(2)
Fe1 Pb1 O2 5_4455 5_4555 89.1(16) 76.4(12) 94.7(19)
Fe1 Pb1 O3 5_4455 5_4445 36.3(10) 29.7(10) 50.3(10)
Fe1 Pb1 O3 5_4455 5_4545 89.4(7) 82.5(8) 98.4(9)
Fe1 Pb1 O3 5_4455 5_5445 90.7(6) 80.0(7) 96.9(6)
Fe1 Pb1 O3 5_4455 5_5545 144.6(11) 124.0(11) 156.4(11)
Fe1 Pb1 Fe1 5_4545 5_4555 73.1(3) 68.6(3) 82.8(3)
Fe1 Pb1 Fe1 5_4545 5_5445 107.9(5) 95.4(5) 114.1(6)
Fe1 Pb1 Fe1 5_4545 5_5455 172.7(6) 169.3(7) 180.0(5)
Fe1 Pb1 Fe1 5_4545 5_5545 70.0(3) 62.4(3) 73.5(3)
Fe1 Pb1 Fe1 5_4545 5_5555 109.82(18) 108.90(19) 111.99(19)
Fe1 Pb1 Pb1 5_4545 1_4555 56.3(4) 53.9(4) 58.7(4)
Fe1 Pb1 Pb1 5_4545 1_5455 125.0(5) 121.0(6) 126.2(5)
Fe1 Pb1 Pb1 5_4545 1_5545 55.6(4) 52.9(4) 57.6(4)
Fe1 Pb1 Pb1 5_4545 1_5565 126.0(4) 117.0(6) 133.6(5)
Fe1 Pb1 Pb1 5_4545 1_5655 55.0(4) 53.8(4) 59.0(4)
Fe1 Pb1 Pb1 5_4545 1_6555 123.7(5) 118.7(6) 128.7(6)
Fe1 Pb1 Pb1 5_4545 5_5455 174.2(7) 169.9(6) 176.7(7)
Fe1 Pb1 Pb1 5_4545 5_5555 108.6(3) 108.1(3) 108.8(3)
Fe1 Pb1 Bi1 5_4545 1_4555 56.4(4) 53.9(4) 58.8(4)
Fe1 Pb1 Bi1 5_4545 1_5455 125.0(5) 121.1(6) 126.2(6)
Fe1 Pb1 Bi1 5_4545 1_5545 55.5(4) 52.6(4) 57.6(4)
Fe1 Pb1 Bi1 5_4545 . 100(500) 0 100(1400)
Fe1 Pb1 Bi1 5_4545 1_5565 126.1(4) 117.3(6) 133.6(5)
Fe1 Pb1 Bi1 5_4545 1_5655 55.0(4) 53.7(4) 59.0(4)
Fe1 Pb1 Bi1 5_4545 1_6555 123.6(5) 118.6(6) 128.3(6)
Fe1 Pb1 Bi1 5_4545 5_4445 67.1(4) 67.1(4) 67.1(4)
Fe1 Pb1 Bi1 5_4545 5_4545 12.0(4) 12.0(4) 12.0(4)
Fe1 Pb1 Bi1 5_4545 5_5455 175.1(7) 170.3(6) 177.5(7)
Fe1 Pb1 Bi1 5_4545 5_5555 108.7(3) 108.2(3) 108.9(3)
Fe1 Pb1 O1 5_4545 1_5445 73.5(7) 72.0(6) 75.1(7)
Fe1 Pb1 O1 5_4545 1_5465 141.5(10) 138.1(11) 149.3(9)
Fe1 Pb1 O1 5_4545 1_5545 32.8(9) 32.5(9) 32.9(9)
Fe1 Pb1 O1 5_4545 1_5565 99.7(6) 96.2(7) 104.6(5)
Fe1 Pb1 O1 5_4545 5_4445 35.3(2) 32.0(2) 36.6(2)
Fe1 Pb1 O1 5_4545 5_4455 93.2(8) 88.9(9) 107.5(7)
Fe1 Pb1 O1 5_4545 5_5445 89.7(8) 71.7(8) 100.4(10)
Fe1 Pb1 O1 5_4545 5_5455 143.1(4) 139.6(5) 145.8(6)
Fe1 Pb1 O2 5_4545 1_5565 141.8(5) 140.3(6) 143.4(3)
Fe1 Pb1 O2 5_4545 5_4445 90.9(16) 76.7(12) 98.4(18)
Fe1 Pb1 O2 5_4545 5_4455 144(2) 137.8(18) 148(2)
Fe1 Pb1 O2 5_4545 5_4545 36(2) 33.3(18) 39(2)
Fe1 Pb1 O2 5_4545 5_4555 91.7(15) 90.4(16) 94.9(12)
Fe1 Pb1 O3 5_4545 5_4445 90.4(7) 79.7(8) 105.3(7)
Fe1 Pb1 O3 5_4545 5_4545 36.8(10) 28.6(9) 51.9(10)
Fe1 Pb1 O3 5_4545 5_5445 145.2(11) 125.1(11) 161.9(11)
Fe1 Pb1 O3 5_4545 5_5545 90.4(6) 82.0(7) 98.6(5)
Fe1 Pb1 Fe1 5_4555 5_5445 175.6(5) 169.9(4) 180.0(5)
Fe1 Pb1 Fe1 5_4555 5_5455 107.9(5) 95.4(5) 114.1(6)
Fe1 Pb1 Fe1 5_4555 5_5545 111.41(18) 110.44(16) 113.05(17)
Fe1 Pb1 Fe1 5_4555 5_5555 70.0(4) 62.4(4) 73.5(4)
Fe1 Pb1 Pb1 5_4555 1_4555 54.7(4) 51.9(3) 63.6(4)
Fe1 Pb1 Pb1 5_4555 1_5455 124.2(5) 122.4(4) 126.0(6)
Fe1 Pb1 Pb1 5_4555 1_5545 128.0(4) 125.0(3) 135.9(3)
Fe1 Pb1 Pb1 5_4555 1_5565 53.8(4) 47.1(4) 56.7(4)
Fe1 Pb1 Pb1 5_4555 1_5655 55.8(4) 54.0(4) 57.6(4)
Fe1 Pb1 Pb1 5_4555 1_6555 126.2(4) 119.3(6) 127.9(2)
Fe1 Pb1 Pb1 5_4555 5_4445 104.7(6) 102.9(5) 105.5(6)
Fe1 Pb1 Pb1 5_4555 5_4545 67.7(5) 67.1(4) 68.1(5)
Fe1 Pb1 Pb1 5_4555 5_5455 105.3(5) 104.6(5) 106.7(6)
Fe1 Pb1 Pb1 5_4555 5_5555 68.8(5) 67.8(4) 70.7(5)
Fe1 Pb1 Bi1 5_4555 1_4555 54.7(4) 51.9(3) 63.8(4)
Fe1 Pb1 Bi1 5_4555 1_5455 124.2(5) 121.5(4) 126.1(6)
Fe1 Pb1 Bi1 5_4555 1_5545 128.0(4) 125.0(3) 135.9(3)
Fe1 Pb1 Bi1 5_4555 . 90(190) 0 147(9)
Fe1 Pb1 Bi1 5_4555 1_5565 53.8(4) 47.4(4) 56.6(4)
Fe1 Pb1 Bi1 5_4555 1_5655 55.8(4) 54.0(4) 57.6(4)
Fe1 Pb1 Bi1 5_4555 1_6555 126.3(4) 119.9(5) 127.9(2)
Fe1 Pb1 Bi1 5_4555 5_4445 105.3(6) 103.2(5) 106.2(6)
Fe1 Pb1 Bi1 5_4555 5_4545 68.1(5) 67.2(5) 68.7(5)
Fe1 Pb1 Bi1 5_4555 5_5455 105.0(5) 104.2(5) 107.0(6)
Fe1 Pb1 Bi1 5_4555 5_5555 68.6(5) 67.5(4) 71.1(5)
Fe1 Pb1 O1 5_4555 1_5445 142.8(10) 139.5(9) 144.2(11)
Fe1 Pb1 O1 5_4555 1_5465 73.1(6) 72.1(6) 75.7(8)
Fe1 Pb1 O1 5_4555 1_5545 102.0(6) 99.8(7) 102.9(6)
Fe1 Pb1 O1 5_4555 1_5565 31.3(9) 30.3(8) 33.5(9)
Fe1 Pb1 O1 5_4555 5_4445 93.7(9) 87.2(10) 103.5(8)
Fe1 Pb1 O1 5_4555 5_4455 34.7(2) 33.3(3) 36.6(3)
Fe1 Pb1 O1 5_4555 5_5445 144.1(3) 140.5(5) 146.2(3)
Fe1 Pb1 O1 5_4555 5_5455 87.3(9) 70.9(8) 95.8(11)
Fe1 Pb1 O2 5_4555 1_4545 102.0(13) 100.2(13) 103.0(13)
Fe1 Pb1 O2 5_4555 1_5565 70.2(12) 69.9(12) 70.9(13)
Fe1 Pb1 O2 5_4555 5_4445 146(2) 143(2) 156(2)
Fe1 Pb1 O2 5_4555 5_4455 89.1(16) 76.4(12) 94.7(19)
Fe1 Pb1 O2 5_4555 5_4545 92.0(16) 89.3(17) 99.4(12)
Fe1 Pb1 O2 5_4555 5_4555 35(2) 32(2) 37(2)
Fe1 Pb1 O3 5_4555 5_4445 89.4(7) 82.5(8) 98.4(9)
Fe1 Pb1 O3 5_4555 5_4545 36.3(10) 29.7(10) 50.3(10)
Fe1 Pb1 O3 5_4555 5_5445 144.6(11) 124.0(11) 156.4(11)
Fe1 Pb1 O3 5_4555 5_5545 90.7(6) 80.0(7) 96.9(6)
Fe1 Pb1 Fe1 5_5445 5_5455 73.1(3) 68.6(3) 82.8(3)
Fe1 Pb1 Fe1 5_5445 5_5545 68.4(3) 64.7(2) 72.1(4)
Fe1 Pb1 Fe1 5_5445 5_5555 110.9(5) 106.4(5) 121.8(4)
Fe1 Pb1 Pb1 5_5445 1_4555 126.2(4) 119.3(6) 127.9(2)
Fe1 Pb1 Pb1 5_5445 1_5455 55.8(4) 54.0(4) 57.6(4)
Fe1 Pb1 Pb1 5_5445 1_5545 53.8(4) 47.1(4) 56.7(4)
Fe1 Pb1 Pb1 5_5445 1_5565 128.0(4) 125.0(3) 135.9(3)
Fe1 Pb1 Pb1 5_5445 1_5655 124.2(5) 122.4(4) 126.0(6)
Fe1 Pb1 Pb1 5_5445 1_6555 54.7(4) 51.9(3) 63.6(4)
Fe1 Pb1 Pb1 5_5445 5_4445 68.8(5) 67.8(4) 70.7(5)
Fe1 Pb1 Pb1 5_5445 5_4545 105.3(5) 104.6(5) 106.7(6)
Fe1 Pb1 Pb1 5_5445 5_5455 67.7(5) 67.1(4) 68.1(5)
Fe1 Pb1 Pb1 5_5445 5_5555 104.7(6) 102.9(5) 105.5(6)
Fe1 Pb1 Bi1 5_5445 1_4555 126.3(4) 119.9(5) 127.9(2)
Fe1 Pb1 Bi1 5_5445 1_5455 55.8(4) 54.0(4) 57.6(4)
Fe1 Pb1 Bi1 5_5445 1_5545 53.8(4) 47.4(4) 56.6(4)
Fe1 Pb1 Bi1 5_5445 . 90(190) 0 147(9)
Fe1 Pb1 Bi1 5_5445 1_5565 128.0(4) 125.0(3) 135.9(3)
Fe1 Pb1 Bi1 5_5445 1_5655 124.2(5) 121.5(4) 126.1(6)
Fe1 Pb1 Bi1 5_5445 1_6555 54.7(4) 51.9(3) 63.8(4)
Fe1 Pb1 Bi1 5_5445 5_4445 68.6(5) 67.5(4) 71.1(5)
Fe1 Pb1 Bi1 5_5445 5_4545 105.0(5) 104.2(5) 107.0(6)
Fe1 Pb1 Bi1 5_5445 5_5455 68.1(5) 67.2(5) 68.7(5)
Fe1 Pb1 Bi1 5_5445 5_5555 105.3(6) 103.2(5) 106.2(6)
Fe1 Pb1 O1 5_5445 1_5445 31.3(9) 30.3(8) 33.5(9)
Fe1 Pb1 O1 5_5445 1_5465 102.0(6) 99.8(7) 102.9(6)
Fe1 Pb1 O1 5_5445 1_5545 73.1(6) 72.1(6) 75.7(8)
Fe1 Pb1 O1 5_5445 1_5565 142.8(10) 139.5(9) 144.2(11)
Fe1 Pb1 O1 5_5445 5_4445 87.3(9) 70.9(8) 95.8(11)
Fe1 Pb1 O1 5_5445 5_4455 144.1(3) 140.5(5) 146.2(3)
Fe1 Pb1 O1 5_5445 5_5445 34.7(2) 33.3(3) 36.6(3)
Fe1 Pb1 O1 5_5445 5_5455 93.7(9) 87.2(10) 103.5(8)
Fe1 Pb1 O2 5_5445 1_4545 70.2(12) 69.9(12) 70.9(13)
Fe1 Pb1 O2 5_5445 1_5565 102.0(13) 100.2(13) 103.0(13)
Fe1 Pb1 O2 5_5445 5_4445 35(2) 32(2) 37(2)
Fe1 Pb1 O2 5_5445 5_4455 92.0(16) 89.3(17) 99.4(12)
Fe1 Pb1 O2 5_5445 5_4545 89.1(16) 76.4(12) 94.7(19)
Fe1 Pb1 O2 5_5445 5_4555 146(2) 143(2) 156(2)
Fe1 Pb1 O3 5_5445 5_4445 90.7(6) 80.0(7) 96.9(6)
Fe1 Pb1 O3 5_5445 5_4545 144.6(11) 124.0(11) 156.4(11)
Fe1 Pb1 O3 5_5445 5_5445 36.3(10) 29.7(10) 50.3(10)
Fe1 Pb1 O3 5_5445 5_5545 89.4(7) 82.5(8) 98.4(9)
Fe1 Pb1 Fe1 5_5455 5_5545 110.9(5) 106.4(5) 121.8(4)
Fe1 Pb1 Fe1 5_5455 5_5555 70.0(3) 62.1(3) 72.5(4)
Fe1 Pb1 Pb1 5_5455 1_4555 123.7(5) 118.7(6) 128.7(6)
Fe1 Pb1 Pb1 5_5455 1_5455 55.0(4) 53.8(4) 59.0(4)
Fe1 Pb1 Pb1 5_5455 1_5545 126.0(4) 117.0(6) 133.6(5)
Fe1 Pb1 Pb1 5_5455 1_5565 55.6(4) 52.9(4) 57.6(4)
Fe1 Pb1 Pb1 5_5455 1_5655 125.0(5) 121.0(6) 126.2(5)
Fe1 Pb1 Pb1 5_5455 1_6555 56.3(4) 53.9(4) 58.7(4)
Fe1 Pb1 Pb1 5_5455 5_4445 108.6(3) 108.1(3) 108.8(3)
Fe1 Pb1 Pb1 5_5455 5_4545 174.2(7) 169.9(6) 176.7(7)
Fe1 Pb1 Bi1 5_5455 1_4555 123.6(5) 118.6(6) 128.3(6)
Fe1 Pb1 Bi1 5_5455 1_5455 55.0(4) 53.7(4) 59.0(4)
Fe1 Pb1 Bi1 5_5455 1_5545 126.1(4) 117.3(6) 133.6(5)
Fe1 Pb1 Bi1 5_5455 . 100(500) 0 100(1400)
Fe1 Pb1 Bi1 5_5455 1_5565 55.5(4) 52.6(4) 57.6(4)
Fe1 Pb1 Bi1 5_5455 1_5655 125.0(5) 121.1(6) 126.2(6)
Fe1 Pb1 Bi1 5_5455 1_6555 56.4(4) 53.9(4) 58.8(4)
Fe1 Pb1 Bi1 5_5455 5_4445 108.7(3) 108.2(3) 108.9(3)
Fe1 Pb1 Bi1 5_5455 5_4545 175.1(7) 170.3(6) 177.5(7)
Fe1 Pb1 Bi1 5_5455 5_5455 12.0(4) 12.0(4) 12.0(4)
Fe1 Pb1 Bi1 5_5455 5_5555 67.1(4) 67.1(4) 67.1(4)
Fe1 Pb1 O1 5_5455 1_5445 99.7(6) 96.2(7) 104.6(5)
Fe1 Pb1 O1 5_5455 1_5465 32.8(9) 32.5(9) 32.9(9)
Fe1 Pb1 O1 5_5455 1_5545 141.5(10) 138.1(11) 149.3(9)
Fe1 Pb1 O1 5_5455 1_5565 73.5(7) 72.0(6) 75.1(7)
Fe1 Pb1 O1 5_5455 5_4445 143.1(4) 139.6(5) 145.8(6)
Fe1 Pb1 O1 5_5455 5_4455 89.7(8) 71.7(8) 100.4(10)
Fe1 Pb1 O1 5_5455 5_5445 93.2(8) 88.9(9) 107.5(7)
Fe1 Pb1 O1 5_5455 5_5455 35.3(2) 32.0(2) 36.6(2)
Fe1 Pb1 O2 5_5455 1_4545 141.8(5) 140.3(6) 143.4(3)
Fe1 Pb1 O2 5_5455 5_4445 91.7(15) 90.4(16) 94.9(12)
Fe1 Pb1 O2 5_5455 5_4455 36(2) 33.3(18) 39(2)
Fe1 Pb1 O2 5_5455 5_4545 144(2) 137.8(18) 148(2)
Fe1 Pb1 O2 5_5455 5_4555 90.9(16) 76.7(12) 98.4(18)
Fe1 Pb1 O3 5_5455 5_4445 90.4(6) 82.0(7) 98.6(5)
Fe1 Pb1 O3 5_5455 5_4545 145.2(11) 125.1(11) 161.9(11)
Fe1 Pb1 O3 5_5455 5_5445 36.8(10) 28.6(9) 51.9(10)
Fe1 Pb1 O3 5_5455 5_5545 90.4(7) 79.7(8) 105.3(7)
Fe1 Pb1 Fe1 5_5545 5_5555 73.1(3) 68.6(3) 82.8(3)
Fe1 Pb1 Pb1 5_5545 1_4555 126.2(4) 119.3(6) 127.9(2)
Fe1 Pb1 Pb1 5_5545 1_5455 124.2(5) 122.4(4) 126.0(6)
Fe1 Pb1 Pb1 5_5545 1_5545 53.8(4) 47.1(4) 56.7(4)
Fe1 Pb1 Pb1 5_5545 1_5565 128.0(4) 125.0(3) 135.9(3)
Fe1 Pb1 Pb1 5_5545 1_5655 55.8(4) 54.0(4) 57.6(4)
Fe1 Pb1 Pb1 5_5545 1_6555 54.7(4) 51.9(3) 63.6(4)
Fe1 Pb1 Pb1 5_5545 5_4445 105.3(5) 104.6(5) 106.7(6)
Fe1 Pb1 Pb1 5_5545 5_4545 68.8(5) 67.8(4) 70.7(5)
Fe1 Pb1 Pb1 5_5545 5_5455 104.7(6) 102.9(5) 105.5(6)
Fe1 Pb1 Pb1 5_5545 5_5555 67.7(5) 67.1(4) 68.1(5)
Fe1 Pb1 Bi1 5_5545 1_4555 126.3(4) 119.9(5) 127.9(2)
Fe1 Pb1 Bi1 5_5545 1_5455 124.2(5) 121.5(4) 126.1(6)
Fe1 Pb1 Bi1 5_5545 1_5545 53.8(4) 47.4(4) 56.6(4)
Fe1 Pb1 Bi1 5_5545 . 90(190) 0 147(9)
Fe1 Pb1 Bi1 5_5545 1_5565 128.0(4) 125.0(3) 135.9(3)
Fe1 Pb1 Bi1 5_5545 1_5655 55.8(4) 54.0(4) 57.6(4)
Fe1 Pb1 Bi1 5_5545 1_6555 54.7(4) 51.9(3) 63.8(4)
Fe1 Pb1 Bi1 5_5545 5_4445 105.0(5) 104.2(5) 107.0(6)
Fe1 Pb1 Bi1 5_5545 5_4545 68.6(5) 67.5(4) 71.1(5)
Fe1 Pb1 Bi1 5_5545 5_5455 105.3(6) 103.2(5) 106.2(6)
Fe1 Pb1 Bi1 5_5545 5_5555 68.1(5) 67.2(5) 68.7(5)
Fe1 Pb1 O1 5_5545 1_5445 73.1(6) 72.1(6) 75.7(8)
Fe1 Pb1 O1 5_5545 1_5465 142.8(10) 139.5(9) 144.2(11)
Fe1 Pb1 O1 5_5545 1_5545 31.3(9) 30.3(8) 33.5(9)
Fe1 Pb1 O1 5_5545 1_5565 102.0(6) 99.8(7) 102.9(6)
Fe1 Pb1 O1 5_5545 5_4445 87.3(9) 70.9(8) 95.8(11)
Fe1 Pb1 O1 5_5545 5_4455 144.1(3) 140.5(5) 146.2(3)
Fe1 Pb1 O1 5_5545 5_5445 34.7(2) 33.3(3) 36.6(3)
Fe1 Pb1 O1 5_5545 5_5455 93.7(9) 87.2(10) 103.5(8)
Fe1 Pb1 O2 5_5545 1_4545 70.2(12) 69.9(12) 70.9(13)
Fe1 Pb1 O2 5_5545 1_5565 102.0(13) 100.2(13) 103.0(13)
Fe1 Pb1 O2 5_5545 5_4445 89.1(16) 76.4(12) 94.7(19)
Fe1 Pb1 O2 5_5545 5_4455 146(2) 143(2) 156(2)
Fe1 Pb1 O2 5_5545 5_4545 35(2) 32(2) 37(2)
Fe1 Pb1 O2 5_5545 5_4555 92.0(16) 89.3(17) 99.4(12)
Fe1 Pb1 O3 5_5545 5_4445 144.6(11) 124.0(11) 156.4(11)
Fe1 Pb1 O3 5_5545 5_4545 90.7(6) 80.0(7) 96.9(6)
Fe1 Pb1 O3 5_5545 5_5445 89.4(7) 82.5(8) 98.4(9)
Fe1 Pb1 O3 5_5545 5_5545 36.3(10) 29.7(10) 50.3(10)
Fe1 Pb1 Pb1 5_5555 1_4555 123.7(5) 118.7(6) 128.7(6)
Fe1 Pb1 Pb1 5_5555 1_5455 125.0(5) 121.0(6) 126.2(5)
Fe1 Pb1 Pb1 5_5555 1_5545 126.0(4) 117.0(6) 133.6(5)
Fe1 Pb1 Pb1 5_5555 1_5565 55.6(4) 52.9(4) 57.6(4)
Fe1 Pb1 Pb1 5_5555 1_5655 55.0(4) 53.8(4) 59.0(4)
Fe1 Pb1 Pb1 5_5555 1_6555 56.3(4) 53.9(4) 58.7(4)
Fe1 Pb1 Pb1 5_5555 5_4445 174.2(7) 169.9(6) 176.7(7)
Fe1 Pb1 Pb1 5_5555 5_4545 108.6(3) 108.1(3) 108.8(3)
Fe1 Pb1 Bi1 5_5555 1_4555 123.6(5) 118.6(6) 128.3(6)
Fe1 Pb1 Bi1 5_5555 1_5455 125.0(5) 121.1(6) 126.2(6)
Fe1 Pb1 Bi1 5_5555 1_5545 126.1(4) 117.3(6) 133.6(5)
Fe1 Pb1 Bi1 5_5555 . 100(500) 0 100(1400)
Fe1 Pb1 Bi1 5_5555 1_5565 55.5(4) 52.6(4) 57.6(4)
Fe1 Pb1 Bi1 5_5555 1_5655 55.0(4) 53.7(4) 59.0(4)
Fe1 Pb1 Bi1 5_5555 1_6555 56.4(4) 53.9(4) 58.8(4)
Fe1 Pb1 Bi1 5_5555 5_4445 175.1(7) 170.3(6) 177.5(7)
Fe1 Pb1 Bi1 5_5555 5_4545 108.7(3) 108.2(3) 108.9(3)
Fe1 Pb1 Bi1 5_5555 5_5455 67.1(4) 67.1(4) 67.1(4)
Fe1 Pb1 Bi1 5_5555 5_5555 12.0(4) 12.0(4) 12.0(4)
Fe1 Pb1 O1 5_5555 1_5445 141.5(10) 138.1(11) 149.3(9)
Fe1 Pb1 O1 5_5555 1_5465 73.5(7) 72.0(6) 75.1(7)
Fe1 Pb1 O1 5_5555 1_5545 99.7(6) 96.2(7) 104.6(5)
Fe1 Pb1 O1 5_5555 1_5565 32.8(9) 32.5(9) 32.9(9)
Fe1 Pb1 O1 5_5555 5_4445 143.1(4) 139.6(5) 145.8(6)
Fe1 Pb1 O1 5_5555 5_4455 89.7(8) 71.7(8) 100.4(10)
Fe1 Pb1 O1 5_5555 5_5445 93.2(8) 88.9(9) 107.5(7)
Fe1 Pb1 O1 5_5555 5_5455 35.3(2) 32.0(2) 36.6(2)
Fe1 Pb1 O2 5_5555 1_4545 141.8(5) 140.3(6) 143.4(3)
Fe1 Pb1 O2 5_5555 5_4445 144(2) 137.8(18) 148(2)
Fe1 Pb1 O2 5_5555 5_4455 90.9(16) 76.7(12) 98.4(18)
Fe1 Pb1 O2 5_5555 5_4545 91.7(15) 90.4(16) 94.9(12)
Fe1 Pb1 O2 5_5555 5_4555 36(2) 33.3(18) 39(2)
Fe1 Pb1 O3 5_5555 5_4445 145.2(11) 125.1(11) 161.9(11)
Fe1 Pb1 O3 5_5555 5_4545 90.4(6) 82.0(7) 98.6(5)
Fe1 Pb1 O3 5_5555 5_5445 90.4(7) 79.7(8) 105.3(7)
Fe1 Pb1 O3 5_5555 5_5545 36.8(10) 28.6(9) 51.9(10)
Pb1 Pb1 Pb1 1_4555 1_5455 90.0(5) 90.0(5) 90.0(5)
Pb1 Pb1 Pb1 1_4555 1_5545 92.8(5) 91.6(6) 95.7(6)
Pb1 Pb1 Pb1 1_4555 1_5565 87.8(5) 80.9(5) 93.2(6)
Pb1 Pb1 Pb1 1_4555 1_5655 90.0(5) 90.0(5) 90.0(5)
Pb1 Pb1 Pb1 1_4555 1_6555 177.5(6) 174.8(7) 180.0(5)
Pb1 Pb1 Pb1 1_4555 5_5455 128.8(5) 127.8(6) 130.7(5)
Pb1 Pb1 Pb1 1_4555 5_5555 128.8(5) 127.8(6) 130.7(5)
Pb1 Pb1 Bi1 1_4555 1_4555 0.1(5) 0.0(5) 0.8(4)
Pb1 Pb1 Bi1 1_4555 1_5455 90.1(5) 89.9(5) 90.5(4)
Pb1 Pb1 Bi1 1_4555 1_5545 92.7(5) 91.6(6) 95.2(6)
Pb1 Pb1 Bi1 1_4555 . 100(600) 0 200(1800)
Pb1 Pb1 Bi1 1_4555 1_5565 87.9(5) 81.4(5) 93.3(6)
Pb1 Pb1 Bi1 1_4555 1_5655 90.1(5) 89.9(5) 90.5(4)
Pb1 Pb1 Bi1 1_4555 1_6555 177.6(6) 174.8(7) 180.0(5)
Pb1 Pb1 Bi1 1_4555 5_4445 49.0(5) 49.0(5) 49.0(5)
Pb1 Pb1 Bi1 1_4555 5_4545 49.0(5) 49.0(5) 49.0(5)
Pb1 Pb1 Bi1 1_4555 5_5455 128.2(6) 127.2(6) 130.4(5)
Pb1 Pb1 Bi1 1_4555 5_5555 128.2(6) 127.2(6) 130.4(5)
Pb1 Pb1 O1 1_4555 1_5445 89.9(10) 88.9(10) 90.4(10)
Pb1 Pb1 O1 1_4555 1_5465 88.3(10) 86.2(10) 93.3(9)
Pb1 Pb1 O1 1_4555 1_5545 89.9(10) 88.9(10) 90.4(10)
Pb1 Pb1 O1 1_4555 1_5565 88.3(10) 86.2(10) 93.3(9)
Pb1 Pb1 O1 1_4555 5_4445 49.0(10) 40.4(12) 58.7(9)
Pb1 Pb1 O1 1_4555 5_4455 46.7(10) 37.7(10) 62.2(9)
Pb1 Pb1 O1 1_4555 5_5445 137.0(11) 118.8(10) 146.8(12)
Pb1 Pb1 O1 1_4555 5_5455 129.7(11) 116.4(10) 144.8(13)
Pb1 Pb1 O2 1_4555 1_5565 120.1(16) 117.5(16) 123.7(15)
Pb1 Pb1 O2 1_4555 5_4445 92(2) 91(2) 95(2)
Pb1 Pb1 O2 1_4555 5_4455 89(2) 85.7(18) 90(2)
Pb1 Pb1 O2 1_4555 5_4545 92(2) 91(2) 95(2)
Pb1 Pb1 O2 1_4555 5_4555 89(2) 85.7(18) 90(2)
Pb1 Pb1 O3 1_4555 5_4445 45.7(3) 43.2(3) 51.8(3)
Pb1 Pb1 O3 1_4555 5_4545 45.7(3) 43.2(3) 51.8(3)
Pb1 Pb1 O3 1_4555 5_5445 134.2(3) 131.8(5) 136.6(3)
Pb1 Pb1 O3 1_4555 5_5545 134.2(3) 131.8(5) 136.6(3)
Pb1 Pb1 Pb1 1_5455 1_5545 90.0(3) 90.0(5) 90.0(5)
Pb1 Pb1 Pb1 1_5455 1_5565 90.0(3) 90.00(17) 90.00(17)
Pb1 Pb1 Pb1 1_5455 1_5655 180.0(5) 180.0(5) 180.0(5)
Pb1 Pb1 Pb1 1_5455 1_6555 90.0(3) 90.00(18) 90.00(18)
Pb1 Pb1 Pb1 1_5455 5_4445 55.1(3) 55.1(3) 55.1(3)
Pb1 Pb1 Pb1 1_5455 5_4545 124.9(4) 124.9(4) 124.9(3)
Pb1 Pb1 Pb1 1_5455 5_5455 55.1(3) 55.1(3) 55.1(3)
Pb1 Pb1 Pb1 1_5455 5_5555 124.9(4) 124.9(4) 124.9(3)
Pb1 Pb1 Bi1 1_5455 1_4555 90.0(3) 90.0(4) 90.0(4)
Pb1 Pb1 Bi1 1_5455 1_5455 0.2(5) 0.0(5) 0.8(4)
Pb1 Pb1 Bi1 1_5455 1_5545 90.0(3) 90.0(5) 90.0(5)
Pb1 Pb1 Bi1 1_5455 . 88.1(3) 0 90.00(18)
Pb1 Pb1 Bi1 1_5455 1_5565 90.0(3) 90.00(17) 90.00(17)
Pb1 Pb1 Bi1 1_5455 1_5655 179.8(6) 179.2(5) 180.0(5)
Pb1 Pb1 Bi1 1_5455 1_6555 90.0(3) 90.00(18) 90.00(18)
Pb1 Pb1 Bi1 1_5455 5_4445 55.1(3) 55.1(4) 55.2(3)
Pb1 Pb1 Bi1 1_5455 5_4545 124.9(4) 124.8(4) 124.9(6)
Pb1 Pb1 Bi1 1_5455 5_5455 55.1(3) 55.1(4) 55.2(3)
Pb1 Pb1 Bi1 1_5455 5_5555 124.9(4) 124.8(4) 124.9(6)
Pb1 Pb1 O1 1_5455 1_5445 58.7(4) 57.1(5) 59.3(3)
Pb1 Pb1 O1 1_5455 1_5465 58.7(4) 57.1(5) 59.3(3)
Pb1 Pb1 O1 1_5455 1_5545 121.3(5) 120.7(4) 122.9(7)
Pb1 Pb1 O1 1_5455 1_5565 121.3(5) 120.7(4) 122.9(7)
Pb1 Pb1 O1 1_5455 5_4445 90.0(3) 90.0(4) 90.0(4)
Pb1 Pb1 O1 1_5455 5_4455 90.0(3) 90.00(18) 90.00(18)
Pb1 Pb1 O1 1_5455 5_5445 90.0(3) 90.00(18) 90.00(18)
Pb1 Pb1 O1 1_5455 5_5455 90.0(3) 90.00(17) 90.00(17)
Pb1 Pb1 O2 1_5455 1_4545 90.0(2) 90.00(17) 90.00(17)
Pb1 Pb1 O2 1_5455 1_5565 90.0(2) 90.0(3) 90.0(3)
Pb1 Pb1 O2 1_5455 5_4445 44.8(11) 38.5(13) 56.1(7)
Pb1 Pb1 O2 1_5455 5_4455 44.8(11) 38.5(13) 56.1(7)
Pb1 Pb1 O2 1_5455 5_4545 135.2(12) 123.9(9) 141.5(14)
Pb1 Pb1 O2 1_5455 5_4555 135.2(12) 123.9(9) 141.5(14)
Pb1 Pb1 O3 1_5455 5_4445 45.5(3) 41.5(3) 47.3(4)
Pb1 Pb1 O3 1_5455 5_4545 134.5(5) 132.7(7) 138.5(4)
Pb1 Pb1 O3 1_5455 5_5445 45.5(3) 41.5(3) 47.3(4)
Pb1 Pb1 O3 1_5455 5_5545 134.5(5) 132.7(7) 138.5(4)
Pb1 Pb1 Pb1 1_5545 1_5565 175.8(6) 172.6(7) 180.0(5)
Pb1 Pb1 Pb1 1_5545 1_5655 90.0(4) 90.0(5) 90.0(5)
Pb1 Pb1 Pb1 1_5545 1_6555 87.8(5) 80.9(6) 93.2(6)
Pb1 Pb1 Pb1 1_5545 5_5455 120.5(5) 118.5(5) 121.5(6)
Pb1 Pb1 Pb1 1_5545 5_5555 120.5(5) 118.5(5) 121.5(6)
Pb1 Pb1 Bi1 1_5545 1_4555 92.8(5) 91.6(5) 96.0(6)
Pb1 Pb1 Bi1 1_5545 1_5455 89.9(4) 89.3(4) 90.0(4)
Pb1 Pb1 Bi1 1_5545 1_5545 0.1(5) 0.0(5) 0.5(4)
Pb1 Pb1 Bi1 1_5545 . 100(600) 0 200(1900)
Pb1 Pb1 Bi1 1_5545 1_5565 175.9(6) 172.6(8) 180.0(5)
Pb1 Pb1 Bi1 1_5545 1_5655 89.9(4) 89.3(4) 90.0(4)
Pb1 Pb1 Bi1 1_5545 1_6555 87.7(5) 80.9(6) 92.4(6)
Pb1 Pb1 Bi1 1_5545 5_5455 121.2(5) 118.8(5) 122.3(6)
Pb1 Pb1 Bi1 1_5545 5_5555 121.2(5) 118.8(5) 122.3(6)
Pb1 Pb1 O1 1_5545 1_5465 148.6(3) 147.0(4) 149.3(3)
Pb1 Pb1 O1 1_5545 1_5565 148.6(3) 147.0(4) 149.3(3)
Pb1 Pb1 O1 1_5545 5_4445 45.1(10) 37.4(9) 51.6(12)
Pb1 Pb1 O1 1_5545 5_4455 140.7(10) 133.5(12) 153.9(9)
Pb1 Pb1 O1 1_5545 5_5445 46.4(10) 29.1(9) 54.8(10)
Pb1 Pb1 O1 1_5545 5_5455 139.7(11) 122.6(13) 151.6(10)
Pb1 Pb1 O2 1_5545 1_5565 148.0(16) 144.5(15) 150.5(16)
Pb1 Pb1 O2 1_5545 5_4445 45.3(11) 34.0(7) 51.7(13)
Pb1 Pb1 O2 1_5545 5_4455 137.3(10) 129.8(13) 146.0(7)
Pb1 Pb1 O2 1_5545 5_4545 45.3(11) 34.0(7) 51.7(13)
Pb1 Pb1 O2 1_5545 5_4555 137.3(10) 129.8(13) 146.0(7)
Pb1 Pb1 O3 1_5545 5_4445 93.4(10) 82.8(11) 105.0(10)
Pb1 Pb1 O3 1_5545 5_4545 93.4(10) 82.8(11) 105.0(10)
Pb1 Pb1 O3 1_5545 5_5445 92.6(10) 77.1(10) 105.0(10)
Pb1 Pb1 O3 1_5545 5_5545 92.6(10) 77.1(10) 105.0(10)
Pb1 Pb1 Pb1 1_5565 1_5655 90.0(4) 90.0(4) 90.0(4)
Pb1 Pb1 Pb1 1_5565 1_6555 92.8(5) 91.6(5) 95.7(6)
Pb1 Pb1 Pb1 1_5565 5_4445 120.5(5) 118.5(5) 121.5(6)
Pb1 Pb1 Pb1 1_5565 5_4545 120.5(5) 118.5(5) 121.5(6)
Pb1 Pb1 Bi1 1_5565 1_4555 87.7(5) 80.9(6) 92.4(6)
Pb1 Pb1 Bi1 1_5565 1_5455 89.9(4) 89.3(4) 90.0(4)
Pb1 Pb1 Bi1 1_5565 1_5545 175.9(6) 172.6(8) 180.0(5)
Pb1 Pb1 Bi1 1_5565 . 100(600) 0 200(1900)
Pb1 Pb1 Bi1 1_5565 1_5565 0.1(5) 0.0(5) 0.5(4)
Pb1 Pb1 Bi1 1_5565 1_5655 89.9(4) 89.3(4) 90.0(4)
Pb1 Pb1 Bi1 1_5565 1_6555 92.8(5) 91.6(5) 96.0(6)
Pb1 Pb1 Bi1 1_5565 5_4445 121.2(5) 118.8(5) 122.3(6)
Pb1 Pb1 Bi1 1_5565 5_4545 121.2(5) 118.8(5) 122.3(6)
Pb1 Pb1 O1 1_5565 1_5445 148.6(3) 147.0(4) 149.3(3)
Pb1 Pb1 O1 1_5565 1_5545 148.6(3) 147.0(4) 149.3(3)
Pb1 Pb1 O1 1_5565 5_4445 139.7(11) 122.6(13) 151.6(10)
Pb1 Pb1 O1 1_5565 5_4455 46.4(10) 29.1(9) 54.8(10)
Pb1 Pb1 O1 1_5565 5_5445 140.7(10) 133.5(12) 153.9(9)
Pb1 Pb1 O1 1_5565 5_5455 45.1(10) 37.4(9) 51.6(12)
Pb1 Pb1 O2 1_5565 1_4545 148.0(16) 144.5(15) 150.5(16)
Pb1 Pb1 O2 1_5565 5_4445 137.3(10) 129.8(13) 146.0(7)
Pb1 Pb1 O2 1_5565 5_4455 45.3(11) 34.0(7) 51.7(13)
Pb1 Pb1 O2 1_5565 5_4545 137.3(10) 129.8(13) 146.0(7)
Pb1 Pb1 O2 1_5565 5_4555 45.3(11) 34.0(7) 51.7(13)
Pb1 Pb1 O3 1_5565 5_4445 92.6(10) 77.1(10) 105.0(10)
Pb1 Pb1 O3 1_5565 5_4545 92.6(10) 77.1(10) 105.0(10)
Pb1 Pb1 O3 1_5565 5_5445 93.4(10) 82.8(11) 105.0(10)
Pb1 Pb1 O3 1_5565 5_5545 93.4(10) 82.8(11) 105.0(10)
Pb1 Pb1 Pb1 1_5655 1_6555 90.0(3) 90.00(18) 90.00(18)
Pb1 Pb1 Pb1 1_5655 5_4445 124.9(4) 124.9(4) 124.9(3)
Pb1 Pb1 Pb1 1_5655 5_4545 55.1(3) 55.1(3) 55.1(3)
Pb1 Pb1 Pb1 1_5655 5_5455 124.9(4) 124.9(4) 124.9(3)
Pb1 Pb1 Pb1 1_5655 5_5555 55.1(3) 55.1(3) 55.1(3)
Pb1 Pb1 Bi1 1_5655 1_4555 90.0(3) 90.0(4) 90.0(4)
Pb1 Pb1 Bi1 1_5655 1_5455 179.8(6) 179.2(5) 180.0(5)
Pb1 Pb1 Bi1 1_5655 1_5545 90.0(3) 90.0(5) 90.0(5)
Pb1 Pb1 Bi1 1_5655 . 88.1(3) 0 90.00(18)
Pb1 Pb1 Bi1 1_5655 1_5565 90.0(3) 90.00(17) 90.00(17)
Pb1 Pb1 Bi1 1_5655 1_5655 0.2(5) 0.0(5) 0.8(4)
Pb1 Pb1 Bi1 1_5655 1_6555 90.0(3) 90.00(18) 90.00(18)
Pb1 Pb1 Bi1 1_5655 5_4445 124.9(4) 124.8(4) 124.9(6)
Pb1 Pb1 Bi1 1_5655 5_4545 55.1(3) 55.1(4) 55.2(3)
Pb1 Pb1 Bi1 1_5655 5_5455 124.9(4) 124.8(4) 124.9(6)
Pb1 Pb1 Bi1 1_5655 5_5555 55.1(3) 55.1(4) 55.2(3)
Pb1 Pb1 O1 1_5655 1_5445 121.3(5) 120.7(4) 122.9(7)
Pb1 Pb1 O1 1_5655 1_5465 121.3(5) 120.7(4) 122.9(7)
Pb1 Pb1 O1 1_5655 1_5545 58.7(4) 57.1(5) 59.3(3)
Pb1 Pb1 O1 1_5655 1_5565 58.7(4) 57.1(5) 59.3(3)
Pb1 Pb1 O1 1_5655 5_4445 90.0(3) 90.0(4) 90.0(4)
Pb1 Pb1 O1 1_5655 5_4455 90.0(3) 90.00(18) 90.00(18)
Pb1 Pb1 O1 1_5655 5_5445 90.0(3) 90.00(18) 90.00(18)
Pb1 Pb1 O1 1_5655 5_5455 90.0(3) 90.00(17) 90.00(17)
Pb1 Pb1 O2 1_5655 1_4545 90.0(2) 90.00(17) 90.00(17)
Pb1 Pb1 O2 1_5655 1_5565 90.0(2) 90.0(3) 90.0(3)
Pb1 Pb1 O2 1_5655 5_4445 135.2(12) 123.9(9) 141.5(14)
Pb1 Pb1 O2 1_5655 5_4455 135.2(12) 123.9(9) 141.5(14)
Pb1 Pb1 O2 1_5655 5_4545 44.8(11) 38.5(13) 56.1(7)
Pb1 Pb1 O2 1_5655 5_4555 44.8(11) 38.5(13) 56.1(7)
Pb1 Pb1 O3 1_5655 5_4445 134.5(5) 132.7(7) 138.5(4)
Pb1 Pb1 O3 1_5655 5_4545 45.5(3) 41.5(3) 47.3(4)
Pb1 Pb1 O3 1_5655 5_5445 134.5(5) 132.7(7) 138.5(4)
Pb1 Pb1 O3 1_5655 5_5545 45.5(3) 41.5(3) 47.3(4)
Pb1 Pb1 Pb1 1_6555 5_4445 128.8(5) 127.8(6) 130.7(5)
Pb1 Pb1 Pb1 1_6555 5_4545 128.8(5) 127.8(6) 130.7(5)
Pb1 Pb1 Bi1 1_6555 1_4555 177.6(6) 174.8(7) 180.0(5)
Pb1 Pb1 Bi1 1_6555 1_5455 90.1(5) 89.9(5) 90.5(4)
Pb1 Pb1 Bi1 1_6555 1_5545 87.9(5) 81.4(5) 93.3(6)
Pb1 Pb1 Bi1 1_6555 . 100(600) 0 200(1800)
Pb1 Pb1 Bi1 1_6555 1_5565 92.7(5) 91.6(6) 95.2(6)
Pb1 Pb1 Bi1 1_6555 1_5655 90.1(5) 89.9(5) 90.5(4)
Pb1 Pb1 Bi1 1_6555 1_6555 0.1(5) 0.0(5) 0.8(4)
Pb1 Pb1 Bi1 1_6555 5_4445 128.2(6) 127.2(6) 130.4(5)
Pb1 Pb1 Bi1 1_6555 5_4545 128.2(6) 127.2(6) 130.4(5)
Pb1 Pb1 Bi1 1_6555 5_5455 49.0(5) 49.0(5) 49.0(5)
Pb1 Pb1 Bi1 1_6555 5_5555 49.0(5) 49.0(5) 49.0(5)
Pb1 Pb1 O1 1_6555 1_5445 88.3(10) 86.2(10) 93.3(9)
Pb1 Pb1 O1 1_6555 1_5465 89.9(10) 88.9(10) 90.4(10)
Pb1 Pb1 O1 1_6555 1_5545 88.3(10) 86.2(10) 93.3(9)
Pb1 Pb1 O1 1_6555 1_5565 89.9(10) 88.9(10) 90.4(10)
Pb1 Pb1 O1 1_6555 5_4445 129.7(11) 116.4(10) 144.8(13)
Pb1 Pb1 O1 1_6555 5_4455 137.0(11) 118.8(10) 146.8(12)
Pb1 Pb1 O1 1_6555 5_5445 46.7(10) 37.7(10) 62.2(9)
Pb1 Pb1 O1 1_6555 5_5455 49.0(10) 40.4(12) 58.7(9)
Pb1 Pb1 O2 1_6555 1_4545 120.1(16) 117.5(16) 123.7(15)
Pb1 Pb1 O2 1_6555 5_4445 89(2) 85.7(18) 90(2)
Pb1 Pb1 O2 1_6555 5_4455 92(2) 91(2) 95(2)
Pb1 Pb1 O2 1_6555 5_4545 89(2) 85.7(18) 90(2)
Pb1 Pb1 O2 1_6555 5_4555 92(2) 91(2) 95(2)
Pb1 Pb1 O3 1_6555 5_4445 134.2(3) 131.8(5) 136.6(3)
Pb1 Pb1 O3 1_6555 5_4545 134.2(3) 131.8(5) 136.6(3)
Pb1 Pb1 O3 1_6555 5_5445 45.7(3) 43.2(3) 51.8(3)
Pb1 Pb1 O3 1_6555 5_5545 45.7(3) 43.2(3) 51.8(3)
Pb1 Pb1 Pb1 5_4445 5_4545 69.7(4) 69.7(4) 69.8(3)
Pb1 Pb1 Bi1 5_4445 1_5455 55.1(4) 55.1(4) 55.2(4)
Pb1 Pb1 Bi1 5_4445 . 90(40) 90(70) 90(30)
Pb1 Pb1 Bi1 5_4445 1_5655 124.9(5) 124.9(5) 124.9(5)
Pb1 Pb1 Bi1 5_4445 1_6555 128.8(4) 127.8(5) 130.8(4)
Pb1 Pb1 Bi1 5_4445 5_4445 0.6(5) 0.4(5) 0.9(5)
Pb1 Pb1 Bi1 5_4445 5_4545 69.7(4) 69.7(4) 69.8(3)
Pb1 Pb1 O1 5_4445 1_5445 41.7(9) 40.7(9) 43.2(9)
Pb1 Pb1 O1 5_4445 1_5545 80.7(6) 80.3(6) 81.8(7)
Pb1 Pb1 O1 5_4445 5_4455 77.3(8) 76.1(8) 77.9(8)
Pb1 Pb1 O1 5_4445 5_5445 82.0(7) 81.4(7) 83.2(8)
Pb1 Pb1 O1 5_4445 5_5455 145.02(19) 144.6(3) 145.14(16)
Pb1 Pb1 O2 5_4445 1_4545 39.4(7) 39.1(7) 40.1(7)
Pb1 Pb1 O2 5_4445 5_4455 80.3(18) 78.6(18) 81.2(18)
Pb1 Pb1 O2 5_4445 5_4555 136(2) 134(2) 138(3)
Pb1 Pb1 O3 5_4445 5_5445 83.5(6) 81.7(6) 85.7(6)
Pb1 Pb1 O3 5_4445 5_5545 135.4(11) 134.8(11) 136.5(11)
Pb1 Pb1 Bi1 5_4545 1_5455 124.9(5) 124.9(5) 124.9(5)
Pb1 Pb1 Bi1 5_4545 . 90(40) 90(70) 90(30)
Pb1 Pb1 Bi1 5_4545 1_5655 55.1(4) 55.1(4) 55.2(4)
Pb1 Pb1 Bi1 5_4545 1_6555 128.8(4) 127.8(5) 130.8(4)
Pb1 Pb1 Bi1 5_4545 5_4445 69.7(4) 69.7(4) 69.8(3)
Pb1 Pb1 Bi1 5_4545 5_4545 0.6(5) 0.4(5) 0.9(5)
Pb1 Pb1 O1 5_4545 1_5445 80.7(6) 80.3(6) 81.8(7)
Pb1 Pb1 O1 5_4545 1_5545 41.7(9) 40.7(9) 43.2(9)
Pb1 Pb1 O1 5_4545 5_4455 77.3(8) 76.1(8) 77.9(8)
Pb1 Pb1 O1 5_4545 5_5445 82.0(7) 81.4(7) 83.2(8)
Pb1 Pb1 O1 5_4545 5_5455 145.02(19) 144.6(3) 145.14(16)
Pb1 Pb1 O2 5_4545 1_4545 39.4(7) 39.1(7) 40.1(7)
Pb1 Pb1 O2 5_4545 5_4455 136(2) 134(2) 138(3)
Pb1 Pb1 O2 5_4545 5_4555 80.3(18) 78.6(18) 81.2(18)
Pb1 Pb1 O3 5_4545 5_5445 135.4(11) 134.8(11) 136.5(11)
Pb1 Pb1 O3 5_4545 5_5545 83.5(6) 81.7(6) 85.7(6)
Pb1 Pb1 Pb1 5_5455 5_5555 69.7(4) 69.7(4) 69.8(3)
Pb1 Pb1 Bi1 5_5455 1_4555 128.8(4) 127.8(5) 130.8(4)
Pb1 Pb1 Bi1 5_5455 1_5455 55.1(4) 55.1(4) 55.2(4)
Pb1 Pb1 Bi1 5_5455 . 90(40) 90(70) 90(30)
Pb1 Pb1 Bi1 5_5455 1_5655 124.9(5) 124.9(5) 124.9(5)
Pb1 Pb1 Bi1 5_5455 5_5455 0.6(5) 0.4(5) 0.9(5)
Pb1 Pb1 Bi1 5_5455 5_5555 69.7(4) 69.7(4) 69.8(3)
Pb1 Pb1 O1 5_5455 1_5465 41.7(9) 40.7(9) 43.2(9)
Pb1 Pb1 O1 5_5455 1_5565 80.7(6) 80.3(6) 81.8(7)
Pb1 Pb1 O1 5_5455 5_4445 145.02(19) 144.6(3) 145.14(16)
Pb1 Pb1 O1 5_5455 5_4455 82.0(7) 81.4(7) 83.2(8)
Pb1 Pb1 O1 5_5455 5_5445 77.3(8) 76.1(8) 77.9(8)
Pb1 Pb1 O2 5_5455 1_5565 39.4(7) 39.1(7) 40.1(7)
Pb1 Pb1 O2 5_5455 5_4445 80.3(18) 78.6(18) 81.2(18)
Pb1 Pb1 O2 5_5455 5_4545 136(2) 134(2) 138(3)
Pb1 Pb1 O3 5_5455 5_4445 83.5(6) 81.7(6) 85.7(6)
Pb1 Pb1 O3 5_5455 5_4545 135.4(11) 134.8(11) 136.5(11)
Pb1 Pb1 Bi1 5_5555 1_4555 128.8(4) 127.8(5) 130.8(4)
Pb1 Pb1 Bi1 5_5555 1_5455 124.9(5) 124.9(5) 124.9(5)
Pb1 Pb1 Bi1 5_5555 . 90(40) 90(70) 90(30)
Pb1 Pb1 Bi1 5_5555 1_5655 55.1(4) 55.1(4) 55.2(4)
Pb1 Pb1 Bi1 5_5555 5_5455 69.7(4) 69.7(4) 69.8(3)
Pb1 Pb1 Bi1 5_5555 5_5555 0.6(5) 0.4(5) 0.9(5)
Pb1 Pb1 O1 5_5555 1_5465 80.7(6) 80.3(6) 81.8(7)
Pb1 Pb1 O1 5_5555 1_5565 41.7(9) 40.7(9) 43.2(9)
Pb1 Pb1 O1 5_5555 5_4445 145.02(19) 144.6(3) 145.14(16)
Pb1 Pb1 O1 5_5555 5_4455 82.0(7) 81.4(7) 83.2(8)
Pb1 Pb1 O1 5_5555 5_5445 77.3(8) 76.1(8) 77.9(8)
Pb1 Pb1 O2 5_5555 1_5565 39.4(7) 39.1(7) 40.1(7)
Pb1 Pb1 O2 5_5555 5_4445 136(2) 134(2) 138(3)
Pb1 Pb1 O2 5_5555 5_4545 80.3(18) 78.6(18) 81.2(18)
Pb1 Pb1 O3 5_5555 5_4445 135.4(11) 134.8(11) 136.5(11)
Pb1 Pb1 O3 5_5555 5_4545 83.5(6) 81.7(6) 85.7(6)
Bi1 Pb1 Bi1 1_4555 1_5455 90.1(5) 89.8(5) 90.5(4)
Bi1 Pb1 Bi1 1_4555 1_5545 92.7(5) 91.6(5) 95.5(6)
Bi1 Pb1 Bi1 1_4555 . 100(600) 0 200(1800)
Bi1 Pb1 Bi1 1_4555 1_5565 87.8(5) 81.4(5) 92.4(6)
Bi1 Pb1 Bi1 1_4555 1_5655 90.1(5) 89.8(5) 90.5(4)
Bi1 Pb1 Bi1 1_4555 1_6555 177.7(6) 175.6(7) 180.0(5)
Bi1 Pb1 Bi1 1_4555 5_4445 49.5(5) 49.5(5) 49.5(5)
Bi1 Pb1 Bi1 1_4555 5_4545 49.5(5) 49.5(5) 49.5(5)
Bi1 Pb1 Bi1 1_4555 5_5455 128.2(6) 127.2(6) 130.5(5)
Bi1 Pb1 Bi1 1_4555 5_5555 128.2(6) 127.2(6) 130.5(5)
Bi1 Pb1 O1 1_4555 1_5445 90.4(10) 89.6(10) 90.8(10)
Bi1 Pb1 O1 1_4555 1_5465 88.3(10) 86.1(10) 93.4(9)
Bi1 Pb1 O1 1_4555 1_5545 90.4(10) 89.6(10) 90.8(10)
Bi1 Pb1 O1 1_4555 1_5565 88.3(10) 86.1(10) 93.4(9)
Bi1 Pb1 O1 1_4555 5_4445 49.1(10) 40.4(12) 59.3(9)
Bi1 Pb1 O1 1_4555 5_4455 46.6(10) 37.3(10) 62.3(9)
Bi1 Pb1 O1 1_4555 5_5445 137.1(11) 119.6(10) 146.8(12)
Bi1 Pb1 O1 1_4555 5_5455 129.6(11) 116.4(10) 144.0(13)
Bi1 Pb1 O2 1_4555 1_5565 120.1(16) 117.5(16) 123.9(15)
Bi1 Pb1 O2 1_4555 5_4445 92(2) 91(2) 95(2)
Bi1 Pb1 O2 1_4555 5_4455 89(2) 85.7(18) 90(2)
Bi1 Pb1 O2 1_4555 5_4545 92(2) 91(2) 95(2)
Bi1 Pb1 O2 1_4555 5_4555 89(2) 85.7(18) 90(2)
Bi1 Pb1 O3 1_4555 5_4445 45.8(3) 43.2(3) 51.9(4)
Bi1 Pb1 O3 1_4555 5_4545 45.8(3) 43.2(3) 51.9(4)
Bi1 Pb1 O3 1_4555 5_5445 134.3(3) 131.8(5) 136.6(3)
Bi1 Pb1 O3 1_4555 5_5545 134.3(3) 131.8(5) 136.6(3)
Bi1 Pb1 Bi1 1_5455 1_5545 89.9(3) 89.30(17) 90.0(3)
Bi1 Pb1 Bi1 1_5455 . 87.9(3) 0 89.988(7)
Bi1 Pb1 Bi1 1_5455 1_5565 89.9(3) 89.30(17) 90.0(3)
Bi1 Pb1 Bi1 1_5455 1_5655 179.6(6) 178.3(5) 180.0(5)
Bi1 Pb1 Bi1 1_5455 1_6555 90.1(3) 89.8(4) 90.50(18)
Bi1 Pb1 Bi1 1_5455 5_4445 55.2(3) 55.1(4) 55.2(3)
Bi1 Pb1 Bi1 1_5455 5_4545 124.9(4) 124.9(4) 124.9(3)
Bi1 Pb1 Bi1 1_5455 5_5455 55.2(3) 55.1(4) 55.2(3)
Bi1 Pb1 Bi1 1_5455 5_5555 124.9(4) 124.9(4) 124.9(3)
Bi1 Pb1 O1 1_5455 1_5445 59.0(4) 57.1(5) 59.7(3)
Bi1 Pb1 O1 1_5455 1_5465 59.0(4) 57.1(5) 59.7(3)
Bi1 Pb1 O1 1_5455 1_5545 121.6(5) 121.0(5) 123.0(7)
Bi1 Pb1 O1 1_5455 1_5565 121.6(5) 121.0(5) 123.0(7)
Bi1 Pb1 O1 1_5455 5_4445 90.0(3) 89.89(17) 90.1(4)
Bi1 Pb1 O1 1_5455 5_4455 90.0(3) 89.19(18) 90.84(17)
Bi1 Pb1 O1 1_5455 5_5445 90.0(3) 89.19(18) 90.84(17)
Bi1 Pb1 O1 1_5455 5_5455 90.0(3) 89.89(17) 90.1(4)
Bi1 Pb1 O2 1_5455 1_4545 90.2(2) 90.1(3) 90.29(17)
Bi1 Pb1 O2 1_5455 1_5565 90.2(2) 90.1(3) 90.29(17)
Bi1 Pb1 O2 1_5455 5_4445 44.7(11) 38.1(13) 56.1(7)
Bi1 Pb1 O2 1_5455 5_4455 44.7(11) 38.1(13) 56.1(7)
Bi1 Pb1 O2 1_5455 5_4545 135.1(12) 123.9(9) 141.2(14)
Bi1 Pb1 O2 1_5455 5_4555 135.1(12) 123.9(9) 141.2(14)
Bi1 Pb1 O3 1_5455 5_4445 45.6(3) 42.2(3) 47.2(4)
Bi1 Pb1 O3 1_5455 5_4545 134.6(5) 132.6(7) 139.2(4)
Bi1 Pb1 O3 1_5455 5_5445 45.6(3) 42.2(3) 47.2(4)
Bi1 Pb1 O3 1_5455 5_5545 134.6(5) 132.6(7) 139.2(4)
Bi1 Pb1 Bi1 1_5545 . 100(600) 0.0(5) 200(1900)
Bi1 Pb1 Bi1 1_5545 1_5565 176.1(6) 173.1(8) 180.0(5)
Bi1 Pb1 Bi1 1_5545 1_5655 89.9(4) 89.3(4) 90.0(4)
Bi1 Pb1 Bi1 1_5545 1_6555 87.8(5) 81.4(6) 92.4(6)
Bi1 Pb1 Bi1 1_5545 5_5455 121.2(5) 118.8(5) 122.3(6)
Bi1 Pb1 Bi1 1_5545 5_5555 121.2(5) 118.8(5) 122.3(6)
Bi1 Pb1 O1 1_5545 1_5465 148.6(3) 147.0(4) 149.3(3)
Bi1 Pb1 O1 1_5545 1_5565 148.6(3) 147.0(4) 149.3(3)
Bi1 Pb1 O1 1_5545 5_4445 45.0(10) 36.9(9) 51.5(12)
Bi1 Pb1 O1 1_5545 5_4455 140.6(10) 133.1(12) 153.9(9)
Bi1 Pb1 O1 1_5545 5_5445 46.5(10) 29.6(9) 54.9(10)
Bi1 Pb1 O1 1_5545 5_5455 139.8(11) 123.0(13) 151.7(10)
Bi1 Pb1 O2 1_5545 1_5565 148.0(16) 144.5(15) 150.5(16)
Bi1 Pb1 O2 1_5545 5_4445 45.3(11) 34.0(7) 51.7(13)
Bi1 Pb1 O2 1_5545 5_4455 137.3(10) 129.8(13) 146.0(7)
Bi1 Pb1 O2 1_5545 5_4545 45.3(11) 34.0(7) 51.7(13)
Bi1 Pb1 O2 1_5545 5_4555 137.3(10) 129.8(13) 146.0(7)
Bi1 Pb1 O3 1_5545 5_4445 93.3(10) 82.5(11) 105.0(10)
Bi1 Pb1 O3 1_5545 5_4545 93.3(10) 82.5(11) 105.0(10)
Bi1 Pb1 O3 1_5545 5_5445 92.6(10) 77.4(10) 105.0(10)
Bi1 Pb1 O3 1_5545 5_5545 92.6(10) 77.4(10) 105.0(10)
Bi1 Pb1 Bi1 . 1_5565 100(300) 0 200(1700)
Bi1 Pb1 Bi1 . 1_5655 87.9(4) 0 90.0(4)
Bi1 Pb1 Bi1 . 1_6555 100(400) 0 200(1700)
Bi1 Pb1 Bi1 . 5_4445 90(30) 90(70) 92(18)
Bi1 Pb1 Bi1 . 5_4545 90(30) 90(70) 92(18)
Bi1 Pb1 Bi1 . 5_5455 90(30) 90(70) 92(18)
Bi1 Pb1 Bi1 . 5_5555 90(30) 90(70) 92(18)
Bi1 Pb1 O1 . 1_5445 130(100) 100(400) 130(30)
Bi1 Pb1 O1 . 1_5465 130(100) 100(400) 130(30)
Bi1 Pb1 O1 . 1_5545 130(100) 100(400) 130(30)
Bi1 Pb1 O1 . 1_5565 130(100) 100(400) 130(30)
Bi1 Pb1 O1 . 5_4445 100(400) 0 100(1700)
Bi1 Pb1 O1 . 5_4455 100(300) 0 170(30)
Bi1 Pb1 O1 . 5_5445 100(300) 0 170(30)
Bi1 Pb1 O1 . 5_5455 100(400) 0 100(1700)
Bi1 Pb1 O2 . 1_4545 110(30) 110(12) 110(30)
Bi1 Pb1 O2 . 1_5565 110(30) 110(12) 110(30)
Bi1 Pb1 O2 . 5_4445 80(160) 0 130(130)
Bi1 Pb1 O2 . 5_4455 80(160) 0 130(130)
Bi1 Pb1 O2 . 5_4545 80(160) 0 130(130)
Bi1 Pb1 O2 . 5_4555 80(160) 0 130(130)
Bi1 Pb1 O3 . 5_4445 100(200) 0 140(90)
Bi1 Pb1 O3 . 5_4545 100(200) 0 140(90)
Bi1 Pb1 O3 . 5_5445 100(200) 0 140(90)
Bi1 Pb1 O3 . 5_5545 100(200) 0 140(90)
Bi1 Pb1 Bi1 1_5565 1_5655 89.9(4) 89.3(4) 90.0(4)
Bi1 Pb1 Bi1 1_5565 1_6555 92.7(5) 91.6(5) 95.5(6)
Bi1 Pb1 Bi1 1_5565 5_4445 121.2(5) 118.8(5) 122.3(6)
Bi1 Pb1 Bi1 1_5565 5_4545 121.2(5) 118.8(5) 122.3(6)
Bi1 Pb1 O1 1_5565 1_5445 148.6(3) 147.0(4) 149.3(3)
Bi1 Pb1 O1 1_5565 1_5545 148.6(3) 147.0(4) 149.3(3)
Bi1 Pb1 O1 1_5565 5_4445 139.8(11) 123.0(13) 151.7(10)
Bi1 Pb1 O1 1_5565 5_4455 46.5(10) 29.6(9) 54.9(10)
Bi1 Pb1 O1 1_5565 5_5445 140.6(10) 133.1(12) 153.9(9)
Bi1 Pb1 O1 1_5565 5_5455 45.0(10) 36.9(9) 51.5(12)
Bi1 Pb1 O2 1_5565 1_4545 148.0(16) 144.5(15) 150.5(16)
Bi1 Pb1 O2 1_5565 5_4445 137.3(10) 129.8(13) 146.0(7)
Bi1 Pb1 O2 1_5565 5_4455 45.3(11) 34.0(7) 51.7(13)
Bi1 Pb1 O2 1_5565 5_4545 137.3(10) 129.8(13) 146.0(7)
Bi1 Pb1 O2 1_5565 5_4555 45.3(11) 34.0(7) 51.7(13)
Bi1 Pb1 O3 1_5565 5_4445 92.6(10) 77.4(10) 105.0(10)
Bi1 Pb1 O3 1_5565 5_4545 92.6(10) 77.4(10) 105.0(10)
Bi1 Pb1 O3 1_5565 5_5445 93.3(10) 82.5(11) 105.0(10)
Bi1 Pb1 O3 1_5565 5_5545 93.3(10) 82.5(11) 105.0(10)
Bi1 Pb1 Bi1 1_5655 1_6555 90.1(3) 89.8(4) 90.50(18)
Bi1 Pb1 Bi1 1_5655 5_4445 124.9(4) 124.9(4) 124.9(3)
Bi1 Pb1 Bi1 1_5655 5_4545 55.2(3) 55.1(4) 55.2(3)
Bi1 Pb1 Bi1 1_5655 5_5455 124.9(4) 124.9(4) 124.9(3)
Bi1 Pb1 Bi1 1_5655 5_5555 55.2(3) 55.1(4) 55.2(3)
Bi1 Pb1 O1 1_5655 1_5445 121.6(5) 121.0(5) 123.0(7)
Bi1 Pb1 O1 1_5655 1_5465 121.6(5) 121.0(5) 123.0(7)
Bi1 Pb1 O1 1_5655 1_5545 59.0(4) 57.1(5) 59.7(3)
Bi1 Pb1 O1 1_5655 1_5565 59.0(4) 57.1(5) 59.7(3)
Bi1 Pb1 O1 1_5655 5_4445 90.0(3) 89.89(17) 90.1(4)
Bi1 Pb1 O1 1_5655 5_4455 90.0(3) 89.19(18) 90.84(17)
Bi1 Pb1 O1 1_5655 5_5445 90.0(3) 89.19(18) 90.84(17)
Bi1 Pb1 O1 1_5655 5_5455 90.0(3) 89.89(17) 90.1(4)
Bi1 Pb1 O2 1_5655 1_4545 90.2(2) 90.1(3) 90.29(17)
Bi1 Pb1 O2 1_5655 1_5565 90.2(2) 90.1(3) 90.29(17)
Bi1 Pb1 O2 1_5655 5_4445 135.1(12) 123.9(9) 141.2(14)
Bi1 Pb1 O2 1_5655 5_4455 135.1(12) 123.9(9) 141.2(14)
Bi1 Pb1 O2 1_5655 5_4545 44.7(11) 38.1(13) 56.1(7)
Bi1 Pb1 O2 1_5655 5_4555 44.7(11) 38.1(13) 56.1(7)
Bi1 Pb1 O3 1_5655 5_4445 134.6(5) 132.6(7) 139.2(4)
Bi1 Pb1 O3 1_5655 5_4545 45.6(3) 42.2(3) 47.2(4)
Bi1 Pb1 O3 1_5655 5_5445 134.6(5) 132.6(7) 139.2(4)
Bi1 Pb1 O3 1_5655 5_5545 45.6(3) 42.2(3) 47.2(4)
Bi1 Pb1 Bi1 1_6555 5_4445 128.2(6) 127.2(6) 130.5(5)
Bi1 Pb1 Bi1 1_6555 5_4545 128.2(6) 127.2(6) 130.5(5)
Bi1 Pb1 Bi1 1_6555 5_5455 49.5(5) 49.5(5) 49.5(5)
Bi1 Pb1 Bi1 1_6555 5_5555 49.5(5) 49.5(5) 49.5(5)
Bi1 Pb1 O1 1_6555 1_5445 88.3(10) 86.1(10) 93.4(9)
Bi1 Pb1 O1 1_6555 1_5465 90.4(10) 89.6(10) 90.8(10)
Bi1 Pb1 O1 1_6555 1_5545 88.3(10) 86.1(10) 93.4(9)
Bi1 Pb1 O1 1_6555 1_5565 90.4(10) 89.6(10) 90.8(10)
Bi1 Pb1 O1 1_6555 5_4445 129.6(11) 116.4(10) 144.0(13)
Bi1 Pb1 O1 1_6555 5_4455 137.1(11) 119.6(10) 146.8(12)
Bi1 Pb1 O1 1_6555 5_5445 46.6(10) 37.3(10) 62.3(9)
Bi1 Pb1 O1 1_6555 5_5455 49.1(10) 40.4(12) 59.3(9)
Bi1 Pb1 O2 1_6555 1_4545 120.1(16) 117.5(16) 123.9(15)
Bi1 Pb1 O2 1_6555 5_4445 89(2) 85.7(18) 90(2)
Bi1 Pb1 O2 1_6555 5_4455 92(2) 91(2) 95(2)
Bi1 Pb1 O2 1_6555 5_4545 89(2) 85.7(18) 90(2)
Bi1 Pb1 O2 1_6555 5_4555 92(2) 91(2) 95(2)
Bi1 Pb1 O3 1_6555 5_4445 134.3(3) 131.8(5) 136.6(3)
Bi1 Pb1 O3 1_6555 5_4545 134.3(3) 131.8(5) 136.6(3)
Bi1 Pb1 O3 1_6555 5_5445 45.8(3) 43.2(3) 51.9(4)
Bi1 Pb1 O3 1_6555 5_5545 45.8(3) 43.2(3) 51.9(4)
Bi1 Pb1 Bi1 5_4445 5_4545 69.7(4) 69.7(4) 69.8(4)
Bi1 Pb1 O1 5_4445 1_5445 41.4(9) 40.4(9) 43.2(9)
Bi1 Pb1 O1 5_4445 1_5545 80.6(6) 79.9(6) 82.1(7)
Bi1 Pb1 O1 5_4445 5_4445 40.3(4) 40.3(4) 40.3(4)
Bi1 Pb1 O1 5_4445 5_4455 77.9(8) 76.5(8) 78.6(9)
Bi1 Pb1 O1 5_4445 5_5445 81.7(8) 80.9(7) 83.4(8)
Bi1 Pb1 O1 5_4445 5_5455 145.04(19) 144.7(3) 145.15(16)
Bi1 Pb1 O2 5_4445 1_4545 39.1(7) 38.9(6) 39.5(7)
Bi1 Pb1 O2 5_4445 5_4455 80.8(18) 78.8(18) 81.8(18)
Bi1 Pb1 O2 5_4445 5_4555 137(2) 134(2) 139(3)
Bi1 Pb1 O3 5_4445 5_4445 17.0(9) 17.0(9) 17.0(9)
Bi1 Pb1 O3 5_4445 5_4545 79.6(7) 79.6(7) 79.6(7)
Bi1 Pb1 O3 5_4445 5_5445 83.6(6) 81.5(6) 86.3(6)
Bi1 Pb1 O3 5_4445 5_5545 135.1(11) 134.4(11) 136.8(11)
Bi1 Pb1 O1 5_4545 1_5445 80.6(6) 79.9(6) 82.1(7)
Bi1 Pb1 O1 5_4545 1_5545 41.4(9) 40.4(9) 43.2(9)
Bi1 Pb1 O1 5_4545 5_4445 40.3(4) 40.3(4) 40.3(4)
Bi1 Pb1 O1 5_4545 5_4455 77.9(8) 76.5(8) 78.6(9)
Bi1 Pb1 O1 5_4545 5_5445 81.7(8) 80.9(7) 83.4(8)
Bi1 Pb1 O1 5_4545 5_5455 145.04(19) 144.7(3) 145.15(16)
Bi1 Pb1 O2 5_4545 1_4545 39.1(7) 38.9(6) 39.5(7)
Bi1 Pb1 O2 5_4545 5_4455 137(2) 134(2) 139(3)
Bi1 Pb1 O2 5_4545 5_4555 80.8(18) 78.8(18) 81.8(18)
Bi1 Pb1 O3 5_4545 5_4445 79.6(7) 79.6(7) 79.6(7)
Bi1 Pb1 O3 5_4545 5_4545 17.0(9) 17.0(9) 17.0(9)
Bi1 Pb1 O3 5_4545 5_5445 135.1(11) 134.4(11) 136.8(11)
Bi1 Pb1 O3 5_4545 5_5545 83.6(6) 81.5(6) 86.3(6)
Bi1 Pb1 Bi1 5_5455 5_5555 69.7(4) 69.7(4) 69.8(4)
Bi1 Pb1 O1 5_5455 1_5465 41.4(9) 40.4(9) 43.2(9)
Bi1 Pb1 O1 5_5455 1_5565 80.6(6) 79.9(6) 82.1(7)
Bi1 Pb1 O1 5_5455 5_4445 145.04(19) 144.7(3) 145.15(16)
Bi1 Pb1 O1 5_5455 5_4455 81.7(8) 80.9(7) 83.4(8)
Bi1 Pb1 O1 5_5455 5_5445 77.9(8) 76.5(8) 78.6(9)
Bi1 Pb1 O1 5_5455 5_5455 40.3(4) 40.3(4) 40.3(4)
Bi1 Pb1 O2 5_5455 1_5565 39.1(7) 38.9(6) 39.5(7)
Bi1 Pb1 O2 5_5455 5_4445 80.8(18) 78.8(18) 81.8(18)
Bi1 Pb1 O2 5_5455 5_4545 137(2) 134(2) 139(3)
Bi1 Pb1 O3 5_5455 5_4445 83.6(6) 81.5(6) 86.3(6)
Bi1 Pb1 O3 5_5455 5_4545 135.1(11) 134.4(11) 136.8(11)
Bi1 Pb1 O3 5_5455 5_5445 17.0(9) 17.0(9) 17.0(9)
Bi1 Pb1 O3 5_5455 5_5545 79.6(7) 79.6(7) 79.6(7)
Bi1 Pb1 O1 5_5555 1_5465 80.6(6) 79.9(6) 82.1(7)
Bi1 Pb1 O1 5_5555 1_5565 41.4(9) 40.4(9) 43.2(9)
Bi1 Pb1 O1 5_5555 5_4445 145.04(19) 144.7(3) 145.15(16)
Bi1 Pb1 O1 5_5555 5_4455 81.7(8) 80.9(7) 83.4(8)
Bi1 Pb1 O1 5_5555 5_5445 77.9(8) 76.5(8) 78.6(9)
Bi1 Pb1 O1 5_5555 5_5455 40.3(4) 40.3(4) 40.3(4)
Bi1 Pb1 O2 5_5555 1_5565 39.1(7) 38.9(6) 39.5(7)
Bi1 Pb1 O2 5_5555 5_4445 137(2) 134(2) 139(3)
Bi1 Pb1 O2 5_5555 5_4545 80.8(18) 78.8(18) 81.8(18)
Bi1 Pb1 O3 5_5555 5_4445 135.1(11) 134.4(11) 136.8(11)
Bi1 Pb1 O3 5_5555 5_4545 83.6(6) 81.5(6) 86.3(6)
Bi1 Pb1 O3 5_5555 5_5445 79.6(7) 79.6(7) 79.6(7)
Bi1 Pb1 O3 5_5555 5_5545 17.0(9) 17.0(9) 17.0(9)
O1 Pb1 O1 1_5445 1_5545 62.6(4) 61.4(4) 65.9(5)
O1 Pb1 O1 1_5445 5_4445 43.5(6) 42.3(6) 44.6(6)
O1 Pb1 O1 1_5445 5_4455 120.1(10) 116.8(10) 121.5(10)
O1 Pb1 O1 1_5445 5_5445 42.8(7) 41.7(7) 45.4(6)
O1 Pb1 O1 1_5445 5_5455 122.7(11) 120.0(11) 129.0(12)
O1 Pb1 O2 1_5445 1_4545 42.1(11) 41.9(11) 42.4(11)
O1 Pb1 O2 1_5445 5_4455 97.4(13) 96.7(13) 97.7(13)
O1 Pb1 O2 1_5445 5_4555 159.7(14) 158.1(15) 162.6(14)
O1 Pb1 O3 1_5445 5_4445 56.8(9) 56.5(9) 56.9(9)
O1 Pb1 O3 1_5445 5_4545 100.6(11) 98.5(10) 102.6(11)
O1 Pb1 O3 1_5445 5_5445 57.0(10) 56.2(11) 58.9(9)
O1 Pb1 O3 1_5445 5_5545 100.9(11) 99.6(10) 102.9(11)
O1 Pb1 O1 1_5465 1_5565 62.6(4) 61.4(4) 65.9(5)
O1 Pb1 O1 1_5465 5_4445 122.7(11) 120.0(11) 129.0(12)
O1 Pb1 O1 1_5465 5_4455 42.8(7) 41.7(7) 45.4(6)
O1 Pb1 O1 1_5465 5_5445 120.1(10) 116.8(10) 121.5(10)
O1 Pb1 O1 1_5465 5_5455 43.5(6) 42.3(6) 44.6(6)
O1 Pb1 O2 1_5465 1_5565 42.1(11) 41.9(11) 42.4(11)
O1 Pb1 O2 1_5465 5_4445 97.4(13) 96.7(13) 97.7(13)
O1 Pb1 O2 1_5465 5_4545 159.7(14) 158.1(15) 162.6(14)
O1 Pb1 O3 1_5465 5_4445 57.0(10) 56.2(11) 58.9(9)
O1 Pb1 O3 1_5465 5_4545 100.9(11) 99.6(10) 102.9(11)
O1 Pb1 O3 1_5465 5_5445 56.8(9) 56.5(9) 56.9(9)
O1 Pb1 O3 1_5465 5_5545 100.6(11) 98.5(10) 102.6(11)
O1 Pb1 O1 1_5545 5_4445 43.5(6) 42.3(6) 44.6(6)
O1 Pb1 O1 1_5545 5_4455 120.1(10) 116.8(10) 121.5(10)
O1 Pb1 O1 1_5545 5_5445 42.8(7) 41.7(7) 45.4(6)
O1 Pb1 O1 1_5545 5_5455 122.7(11) 120.0(11) 129.0(12)
O1 Pb1 O2 1_5545 1_4545 42.1(11) 41.9(11) 42.4(11)
O1 Pb1 O2 1_5545 5_4455 159.7(14) 158.1(15) 162.6(14)
O1 Pb1 O2 1_5545 5_4555 97.4(13) 96.7(13) 97.7(13)
O1 Pb1 O3 1_5545 5_4445 100.6(11) 98.5(10) 102.6(11)
O1 Pb1 O3 1_5545 5_4545 56.8(9) 56.5(9) 56.9(9)
O1 Pb1 O3 1_5545 5_5445 100.9(11) 99.6(10) 102.9(11)
O1 Pb1 O3 1_5545 5_5545 57.0(10) 56.2(11) 58.9(9)
O1 Pb1 O1 1_5565 5_4445 122.7(11) 120.0(11) 129.0(12)
O1 Pb1 O1 1_5565 5_4455 42.8(7) 41.7(7) 45.4(6)
O1 Pb1 O1 1_5565 5_5445 120.1(10) 116.8(10) 121.5(10)
O1 Pb1 O1 1_5565 5_5455 43.5(6) 42.3(6) 44.6(6)
O1 Pb1 O2 1_5565 1_5565 42.1(11) 41.9(11) 42.4(11)
O1 Pb1 O2 1_5565 5_4445 159.7(14) 158.1(15) 162.6(14)
O1 Pb1 O2 1_5565 5_4545 97.4(13) 96.7(13) 97.7(13)
O1 Pb1 O3 1_5565 5_4445 100.9(11) 99.6(10) 102.9(11)
O1 Pb1 O3 1_5565 5_4545 57.0(10) 56.2(11) 58.9(9)
O1 Pb1 O3 1_5565 5_5445 100.6(11) 98.5(10) 102.6(11)
O1 Pb1 O3 1_5565 5_5545 56.8(9) 56.5(9) 56.9(9)
O1 Pb1 O1 5_4445 5_4455 95.7(12) 93.0(10) 105.7(14)
O1 Pb1 O1 5_4445 5_5445 88.0(12) 60.4(9) 106.4(13)
O1 Pb1 O1 5_4445 5_5455 165.6(12) 156.8(14) 180.0(5)
O1 Pb1 O2 5_4445 1_5565 161.8(18) 158.0(18) 167.2(19)
O1 Pb1 O2 5_4445 5_4445 60.1(19) 46.2(14) 70(2)
O1 Pb1 O2 5_4445 5_4455 122.7(18) 119.6(17) 124.2(18)
O1 Pb1 O2 5_4445 5_4545 60.1(19) 46.2(14) 70(2)
O1 Pb1 O2 5_4445 5_4555 122.7(18) 119.6(17) 124.2(18)
O1 Pb1 O3 5_4445 5_4445 62.0(9) 56.3(9) 73.6(11)
O1 Pb1 O3 5_4445 5_4545 62.0(9) 56.3(9) 73.6(11)
O1 Pb1 O3 5_4445 5_5445 117.9(9) 99.0(10) 134.4(7)
O1 Pb1 O3 5_4445 5_5545 117.9(9) 99.0(10) 134.4(7)
O1 Pb1 O1 5_4455 5_5445 164.2(12) 153.5(10) 180.0(5)
O1 Pb1 O1 5_4455 5_5455 88.0(12) 60.4(10) 106.4(15)
O1 Pb1 O2 5_4455 1_4545 94.2(17) 91.9(16) 95.8(18)
O1 Pb1 O2 5_4455 1_5565 60.6(15) 60.1(15) 61.6(15)
O1 Pb1 O2 5_4455 5_4445 122.2(19) 121.1(19) 126.4(17)
O1 Pb1 O2 5_4455 5_4455 60(2) 45.8(15) 67(2)
O1 Pb1 O2 5_4455 5_4545 122.2(19) 121.1(19) 126.4(17)
O1 Pb1 O2 5_4455 5_4555 60(2) 45.8(15) 67(2)
O1 Pb1 O3 5_4455 5_4445 61.0(9) 57.5(10) 65.6(10)
O1 Pb1 O3 5_4455 5_4545 61.0(9) 57.5(10) 65.6(10)
O1 Pb1 O3 5_4455 5_5445 119.8(9) 98.4(10) 132.8(7)
O1 Pb1 O3 5_4455 5_5545 119.8(9) 98.4(10) 132.8(7)
O1 Pb1 O1 5_5445 5_5455 95.7(12) 93.0(13) 105.7(13)
O1 Pb1 O2 5_5445 1_4545 60.6(15) 60.1(15) 61.6(15)
O1 Pb1 O2 5_5445 1_5565 94.2(17) 91.9(16) 95.8(18)
O1 Pb1 O2 5_5445 5_4445 60(2) 45.8(15) 67(2)
O1 Pb1 O2 5_5445 5_4455 122.2(19) 121.1(19) 126.4(17)
O1 Pb1 O2 5_5445 5_4545 60(2) 45.8(15) 67(2)
O1 Pb1 O2 5_5445 5_4555 122.2(19) 121.1(19) 126.4(17)
O1 Pb1 O3 5_5445 5_4445 119.8(9) 98.4(10) 132.8(7)
O1 Pb1 O3 5_5445 5_4545 119.8(9) 98.4(10) 132.8(7)
O1 Pb1 O3 5_5445 5_5445 61.0(9) 57.5(10) 65.6(10)
O1 Pb1 O3 5_5445 5_5545 61.0(9) 57.5(10) 65.6(10)
O1 Pb1 O2 5_5455 1_4545 161.8(18) 158.0(18) 167.2(19)
O1 Pb1 O2 5_5455 5_4445 122.7(18) 119.6(17) 124.2(18)
O1 Pb1 O2 5_5455 5_4455 60.1(19) 46.2(14) 70(2)
O1 Pb1 O2 5_5455 5_4545 122.7(18) 119.6(17) 124.2(18)
O1 Pb1 O2 5_5455 5_4555 60.1(19) 46.2(14) 70(2)
O1 Pb1 O3 5_5455 5_4445 117.9(9) 99.0(10) 134.4(7)
O1 Pb1 O3 5_5455 5_4545 117.9(9) 99.0(10) 134.4(7)
O1 Pb1 O3 5_5455 5_5445 62.0(9) 56.3(9) 73.6(11)
O1 Pb1 O3 5_5455 5_5545 62.0(9) 56.3(9) 73.6(11)
O2 Pb1 O2 1_4545 5_4455 119.7(19) 117.7(19) 121.3(18)
O2 Pb1 O2 1_4545 5_4555 119.7(19) 117.7(19) 121.3(18)
O2 Pb1 O3 1_4545 5_5445 98.3(13) 98.1(13) 99.0(13)
O2 Pb1 O3 1_4545 5_5545 98.3(13) 98.1(13) 99.0(13)
O2 Pb1 O2 1_5565 5_4445 119.7(19) 117.7(19) 121.3(18)
O2 Pb1 O2 1_5565 5_4545 119.7(19) 117.7(19) 121.3(18)
O2 Pb1 O3 1_5565 5_4445 98.3(13) 98.1(13) 99.0(13)
O2 Pb1 O3 1_5565 5_4545 98.3(13) 98.1(13) 99.0(13)
O2 Pb1 O2 5_4445 5_4455 94.8(11) 94.1(10) 96.1(13)
O2 Pb1 O2 5_4445 5_4545 90.4(13) 67.7(9) 103.0(18)
O2 Pb1 O2 5_4445 5_4555 171.3(11) 163.8(15) 180.0(5)
O2 Pb1 O3 5_4445 5_4445 62.5(14) 57.5(13) 67.9(18)
O2 Pb1 O3 5_4445 5_4545 122.6(14) 104.6(14) 142.1(18)
O2 Pb1 O3 5_4445 5_5445 62.9(12) 58.4(13) 66.7(18)
O2 Pb1 O3 5_4445 5_5545 121.3(14) 103.4(14) 132.2(18)
O2 Pb1 O2 5_4455 5_4545 171.3(11) 163.8(10) 180.0(5)
O2 Pb1 O2 5_4455 5_4555 90.4(13) 67.7(9) 103.0(18)
O2 Pb1 O3 5_4455 5_4445 62.9(12) 58.4(13) 66.7(18)
O2 Pb1 O3 5_4455 5_4545 121.3(14) 103.4(14) 132.2(18)
O2 Pb1 O3 5_4455 5_5445 62.5(14) 57.5(13) 67.9(18)
O2 Pb1 O3 5_4455 5_5545 122.6(14) 104.6(14) 142.1(18)
O2 Pb1 O2 5_4545 5_4555 94.8(11) 94.1(10) 96.1(13)
O2 Pb1 O3 5_4545 5_4445 122.6(14) 104.6(14) 142.1(18)
O2 Pb1 O3 5_4545 5_4545 62.5(14) 57.5(13) 67.9(18)
O2 Pb1 O3 5_4545 5_5445 121.3(14) 103.4(14) 132.2(18)
O2 Pb1 O3 5_4545 5_5545 62.9(12) 58.4(13) 66.7(18)
O2 Pb1 O3 5_4555 5_4445 121.3(14) 103.4(14) 132.2(18)
O2 Pb1 O3 5_4555 5_4545 62.9(12) 58.4(13) 66.7(18)
O2 Pb1 O3 5_4555 5_5445 122.6(14) 104.6(14) 142.1(18)
O2 Pb1 O3 5_4555 5_5545 62.5(14) 57.5(13) 67.9(18)
O3 Pb1 O3 5_4445 5_4545 89.0(5) 85.4(6) 97.0(5)
O3 Pb1 O3 5_4445 5_5445 89.2(3) 87.5(4) 90.44(16)
O3 Pb1 O3 5_4445 5_5545 165.4(12) 153.7(13) 180.0(5)
O3 Pb1 O3 5_4545 5_5445 165.4(12) 153.7(13) 180.0(5)
O3 Pb1 O3 5_4545 5_5545 89.2(3) 87.5(4) 90.44(16)
O3 Pb1 O3 5_5445 5_5545 89.0(5) 85.4(6) 97.0(5)
Fe1 Bi1 Fe1 1_4555 1_5545 97.7(4) 95.4(3) 100.4(5)
Fe1 Bi1 Fe1 1_4555 . 66.6(12) 66.6(12) 66.6(12)
Fe1 Bi1 Fe1 1_4555 5_4455 47.5(3) 45.9(2) 48.3(3)
Fe1 Bi1 Fe1 1_4555 5_4555 47.5(3) 45.9(2) 48.3(3)
Fe1 Bi1 Fe1 1_4555 5_5445 126.2(4) 124.6(3) 128.1(4)
Fe1 Bi1 Fe1 1_4555 5_5455 117.0(4) 113.0(3) 119.7(5)
Fe1 Bi1 Fe1 1_4555 5_5545 126.2(4) 124.6(3) 128.1(4)
Fe1 Bi1 Fe1 1_4555 5_5555 117.0(4) 113.0(3) 119.7(5)
Fe1 Bi1 Pb1 1_4555 1_5455 90.4(4) 90.2(5) 90.6(4)
Fe1 Bi1 Pb1 1_4555 . 140(50) 140(30) 140(80)
Fe1 Bi1 Pb1 1_4555 1_5655 90.4(4) 90.2(5) 90.6(4)
Fe1 Bi1 Pb1 1_4555 1_6555 171.6(5) 169.2(5) 172.8(6)
Fe1 Bi1 Pb1 1_4555 5_4445 57.6(5) 56.7(4) 58.0(5)
Fe1 Bi1 Pb1 1_4555 5_4545 57.6(5) 56.7(4) 58.0(5)
Fe1 Bi1 Pb1 1_4555 5_5445 124.4(5) 124.4(5) 124.4(5)
Fe1 Bi1 Pb1 1_4555 5_5545 124.4(5) 124.4(5) 124.4(5)
Fe1 Bi1 Bi1 1_4555 1_5455 90.0(4) 90.0(4) 90.0(4)
Fe1 Bi1 Bi1 1_4555 1_5655 90.0(4) 90.0(4) 90.0(4)
Fe1 Bi1 Bi1 1_4555 1_6555 171.5(5) 168.9(5) 172.8(6)
Fe1 Bi1 Bi1 1_4555 5_4445 58.1(5) 57.0(4) 58.7(5)
Fe1 Bi1 Bi1 1_4555 5_4545 58.1(5) 57.0(4) 58.7(5)
Fe1 Bi1 Bi1 1_4555 5_5445 124.9(5) 124.9(5) 124.9(5)
Fe1 Bi1 Bi1 1_4555 5_5545 124.9(5) 124.9(5) 124.9(5)
Fe1 Bi1 O1 1_4555 1_5445 97.4(9) 95.5(9) 99.4(9)
Fe1 Bi1 O1 1_4555 1_5455 76.5(13) 76.5(13) 76.5(13)
Fe1 Bi1 O1 1_4555 1_5545 97.4(9) 95.5(9) 99.4(9)
Fe1 Bi1 O1 1_4555 . 76.5(13) 76.5(13) 76.5(13)
Fe1 Bi1 O1 1_4555 5_4455 25.4(9) 24.4(9) 25.8(10)
Fe1 Bi1 O1 1_4555 5_5445 129.1(9) 128.3(8) 130.6(9)
Fe1 Bi1 O1 1_4555 5_5455 130.0(13) 125.4(13) 132.5(13)
Fe1 Bi1 O2 1_4555 1_4545 68.6(15) 66.7(15) 70.3(16)
Fe1 Bi1 O2 1_4555 1_5545 127.2(16) 127.2(16) 127.2(16)
Fe1 Bi1 O2 1_4555 5_4455 81(2) 79(2) 82(2)
Fe1 Bi1 O2 1_4555 5_4555 81(2) 79(2) 82(2)
Fe1 Bi1 O3 1_4555 1_5545 89.0(8) 89.0(8) 89.0(8)
Fe1 Bi1 O3 1_4555 5_5445 133.4(3) 131.2(2) 135.4(3)
Fe1 Bi1 O3 1_4555 5_5545 133.4(3) 131.2(2) 135.4(3)
Fe1 Bi1 Fe1 1_5545 . 162.0(13) 162.0(13) 162.0(13)
Fe1 Bi1 Fe1 1_5545 5_4445 49.0(3) 47.6(3) 50.4(4)
Fe1 Bi1 Fe1 1_5545 5_4455 125.7(4) 122.9(3) 127.0(5)
Fe1 Bi1 Fe1 1_5545 5_4545 49.0(3) 47.6(3) 50.4(4)
Fe1 Bi1 Fe1 1_5545 5_4555 125.7(4) 122.9(3) 127.0(5)
Fe1 Bi1 Fe1 1_5545 5_5445 47.7(3) 47.4(3) 48.5(4)
Fe1 Bi1 Fe1 1_5545 5_5455 124.0(5) 119.1(6) 131.9(3)
Fe1 Bi1 Fe1 1_5545 5_5545 47.7(3) 47.4(3) 48.5(4)
Fe1 Bi1 Fe1 1_5545 5_5555 124.0(5) 119.1(6) 131.9(3)
Fe1 Bi1 Pb1 1_5545 1_4555 90.6(6) 88.5(6) 92.5(6)
Fe1 Bi1 Pb1 1_5545 1_5455 89.7(4) 89.4(4) 90.0(5)
Fe1 Bi1 Pb1 1_5545 . 40(160) 40(80) 0(600)
Fe1 Bi1 Pb1 1_5545 1_5565 176.8(6) 172.6(5) 180.0(5)
Fe1 Bi1 Pb1 1_5545 1_5655 89.7(4) 89.4(4) 90.0(5)
Fe1 Bi1 Pb1 1_5545 1_6555 88.2(5) 83.8(6) 95.4(5)
Fe1 Bi1 Pb1 1_5545 5_4445 57.0(5) 56.2(4) 59.0(5)
Fe1 Bi1 Pb1 1_5545 5_4545 57.0(5) 56.2(4) 59.0(5)
Fe1 Bi1 Pb1 1_5545 5_5445 58.2(5) 58.2(5) 58.2(5)
Fe1 Bi1 Pb1 1_5545 5_5545 58.2(5) 58.2(5) 58.2(5)
Fe1 Bi1 Bi1 1_5545 1_4555 91.2(6) 89.3(6) 92.8(6)
Fe1 Bi1 Bi1 1_5545 1_5455 90.0(4) 90.0(4) 90.0(4)
Fe1 Bi1 Bi1 1_5545 1_5565 176.8(6) 172.6(5) 179.9(6)
Fe1 Bi1 Bi1 1_5545 1_5655 90.0(4) 90.0(4) 90.0(4)
Fe1 Bi1 Bi1 1_5545 1_6555 88.3(5) 83.8(6) 95.7(5)
Fe1 Bi1 Bi1 1_5545 5_4445 56.9(5) 55.8(4) 59.3(5)
Fe1 Bi1 Bi1 1_5545 5_4545 56.9(5) 55.8(4) 59.3(5)
Fe1 Bi1 Bi1 1_5545 5_5445 57.6(5) 57.6(5) 57.6(5)
Fe1 Bi1 Bi1 1_5545 5_5545 57.6(5) 57.6(5) 57.6(5)
Fe1 Bi1 O1 1_5545 1_5445 31.2(3) 30.5(3) 33.0(4)
Fe1 Bi1 O1 1_5545 1_5455 126.1(7) 126.1(7) 126.1(7)
Fe1 Bi1 O1 1_5545 1_5545 31.2(3) 30.5(3) 33.0(4)
Fe1 Bi1 O1 1_5545 . 126.1(7) 126.1(7) 126.1(7)
Fe1 Bi1 O1 1_5545 5_4445 32.0(9) 30.0(9) 33.9(9)
Fe1 Bi1 O1 1_5545 5_4455 125.4(11) 119.8(9) 130.2(13)
Fe1 Bi1 O1 1_5545 5_5445 30.8(8) 30.2(8) 32.2(8)
Fe1 Bi1 O1 1_5545 5_5455 129.4(13) 124.9(13) 139.2(13)
Fe1 Bi1 O2 1_5545 1_4545 29.1(15) 28.7(15) 30.1(15)
Fe1 Bi1 O2 1_5545 1_5545 31.8(16) 31.8(16) 31.8(16)
Fe1 Bi1 O2 1_5545 5_4455 128.2(13) 127.1(13) 129.6(13)
Fe1 Bi1 O2 1_5545 5_4555 128.2(13) 127.1(13) 129.6(13)
Fe1 Bi1 O3 1_5545 1_5545 6.4(8) 6.4(8) 6.4(8)
Fe1 Bi1 O3 1_5545 5_4445 78.1(10) 76.1(10) 80.1(11)
Fe1 Bi1 O3 1_5545 5_4545 78.1(10) 76.1(10) 80.1(11)
Fe1 Bi1 O3 1_5545 5_5445 77.5(10) 77.0(10) 78.4(10)
Fe1 Bi1 O3 1_5545 5_5545 77.5(10) 77.0(10) 78.4(10)
Fe1 Bi1 Fe1 . 1_5565 162.0(8) 162.0(8) 162.0(8)
Fe1 Bi1 Fe1 . 5_4445 60.3(5) 60.3(5) 60.3(5)
Fe1 Bi1 Fe1 . 5_4455 44.3(4) 44.3(4) 44.3(4)
Fe1 Bi1 Fe1 . 5_4545 60.3(5) 60.3(5) 60.3(5)
Fe1 Bi1 Fe1 . 5_4555 44.3(4) 44.3(4) 44.3(4)
Fe1 Bi1 Fe1 . 5_5445 44.3(4) 44.3(4) 44.3(4)
Fe1 Bi1 Fe1 . 5_5455 60.3(5) 60.3(5) 60.3(5)
Fe1 Bi1 Fe1 . 5_5545 44.3(4) 44.3(4) 44.3(4)
Fe1 Bi1 Fe1 . 5_5555 60.3(5) 60.3(5) 60.3(5)
Fe1 Bi1 Pb1 . 1_4555 102.6(8) 102.6(8) 102.6(8)
Fe1 Bi1 Pb1 . 1_6555 102.6(8) 102.6(8) 102.6(8)
Fe1 Bi1 Pb1 . 5_4445 110.0(7) 110.0(7) 110.0(7)
Fe1 Bi1 Pb1 . 5_4455 131.4(5) 131.4(5) 131.4(5)
Fe1 Bi1 Pb1 . 5_4545 110.0(7) 110.0(7) 110.0(7)
Fe1 Bi1 Pb1 . 5_4555 131.4(5) 131.4(5) 131.4(5)
Fe1 Bi1 Pb1 . 5_5445 131.4(5) 131.4(5) 131.4(5)
Fe1 Bi1 Pb1 . 5_5455 110.0(7) 110.0(7) 110.0(7)
Fe1 Bi1 Pb1 . 5_5545 131.4(5) 131.4(5) 131.4(5)
Fe1 Bi1 Pb1 . 5_5555 110.0(7) 110.0(7) 110.0(7)
Fe1 Bi1 Bi1 . 1_4555 102.3(8) 102.3(8) 102.3(8)
Fe1 Bi1 Bi1 . 1_5455 90.0(4) 90.0(4) 90.0(4)
Fe1 Bi1 Bi1 . 1_5655 90.0(4) 90.0(4) 90.0(4)
Fe1 Bi1 Bi1 . 1_6555 102.3(8) 102.3(8) 102.3(8)
Fe1 Bi1 Bi1 . 5_4445 110.2(7) 110.2(7) 110.2(7)
Fe1 Bi1 Bi1 . 5_4455 132.1(5) 132.1(5) 132.1(5)
Fe1 Bi1 Bi1 . 5_4545 110.2(7) 110.2(7) 110.2(7)
Fe1 Bi1 Bi1 . 5_4555 132.1(5) 132.1(5) 132.1(5)
Fe1 Bi1 Bi1 . 5_5445 132.1(5) 132.1(5) 132.1(5)
Fe1 Bi1 Bi1 . 5_5455 110.2(7) 110.2(7) 110.2(7)
Fe1 Bi1 Bi1 . 5_5545 132.1(5) 132.1(5) 132.1(5)
Fe1 Bi1 Bi1 . 5_5555 110.2(7) 110.2(7) 110.2(7)
Fe1 Bi1 O1 . 1_5445 145.0(6) 145.0(6) 145.0(6)
Fe1 Bi1 O1 . 1_5455 52.0(7) 52.0(7) 52.0(7)
Fe1 Bi1 O1 . 1_5465 145.0(6) 145.0(6) 145.0(6)
Fe1 Bi1 O1 . 1_5545 145.0(6) 145.0(6) 145.0(6)
Fe1 Bi1 O1 . . 52.0(7) 52.0(7) 52.0(7)
Fe1 Bi1 O1 . 1_5565 145.0(6) 145.0(6) 145.0(6)
Fe1 Bi1 O1 . 5_4445 58.8(14) 58.8(14) 58.8(14)
Fe1 Bi1 O1 . 5_4455 42.2(10) 42.2(10) 42.2(10)
Fe1 Bi1 O1 . 5_5445 42.2(10) 42.2(10) 42.2(10)
Fe1 Bi1 O1 . 5_5455 58.8(14) 58.8(14) 58.8(14)
Fe1 Bi1 O2 . 1_4545 133.3(16) 133.3(16) 133.3(16)
Fe1 Bi1 O2 . 1_4565 166.2(17) 166.2(17) 166.2(17)
Fe1 Bi1 O2 . 1_5545 166.2(17) 166.2(17) 166.2(17)
Fe1 Bi1 O2 . 1_5565 133.3(16) 133.3(16) 133.3(16)
Fe1 Bi1 O3 . 1_5545 155.6(12) 155.6(12) 155.6(12)
Fe1 Bi1 O3 . . 155.6(12) 155.6(12) 155.6(12)
Fe1 Bi1 Fe1 1_5565 1_6555 97.7(4) 95.4(3) 100.4(5)
Fe1 Bi1 Fe1 1_5565 5_4445 124.0(5) 119.1(6) 131.9(3)
Fe1 Bi1 Fe1 1_5565 5_4455 47.7(3) 47.4(3) 48.5(4)
Fe1 Bi1 Fe1 1_5565 5_4545 124.0(5) 119.1(6) 131.9(3)
Fe1 Bi1 Fe1 1_5565 5_4555 47.7(3) 47.4(3) 48.5(4)
Fe1 Bi1 Fe1 1_5565 5_5445 125.7(4) 122.9(3) 127.0(5)
Fe1 Bi1 Fe1 1_5565 5_5455 49.0(3) 47.6(3) 50.4(4)
Fe1 Bi1 Fe1 1_5565 5_5545 125.7(4) 122.9(3) 127.0(5)
Fe1 Bi1 Fe1 1_5565 5_5555 49.0(3) 47.6(3) 50.4(4)
Fe1 Bi1 Pb1 1_5565 1_4555 88.2(5) 83.8(6) 95.4(5)
Fe1 Bi1 Pb1 1_5565 1_5455 89.7(4) 89.4(4) 90.0(5)
Fe1 Bi1 Pb1 1_5565 1_5545 176.8(6) 172.6(5) 180.0(5)
Fe1 Bi1 Pb1 1_5565 . 40(160) 40(80) 0(600)
Fe1 Bi1 Pb1 1_5565 1_5655 89.7(4) 89.4(4) 90.0(5)
Fe1 Bi1 Pb1 1_5565 1_6555 90.6(6) 88.5(6) 92.5(6)
Fe1 Bi1 Pb1 1_5565 5_4455 58.2(5) 58.2(5) 58.2(5)
Fe1 Bi1 Pb1 1_5565 5_4555 58.2(5) 58.2(5) 58.2(5)
Fe1 Bi1 Pb1 1_5565 5_5455 57.0(5) 56.2(4) 59.0(5)
Fe1 Bi1 Pb1 1_5565 5_5555 57.0(5) 56.2(4) 59.0(5)
Fe1 Bi1 Bi1 1_5565 1_4555 88.3(5) 83.8(6) 95.7(5)
Fe1 Bi1 Bi1 1_5565 1_5455 90.0(4) 90.0(5) 90.0(5)
Fe1 Bi1 Bi1 1_5565 1_5545 176.8(6) 172.6(5) 179.9(6)
Fe1 Bi1 Bi1 1_5565 1_5655 90.0(4) 90.0(5) 90.0(5)
Fe1 Bi1 Bi1 1_5565 1_6555 91.2(6) 89.3(6) 92.8(6)
Fe1 Bi1 Bi1 1_5565 5_4455 57.6(5) 57.6(5) 57.6(5)
Fe1 Bi1 Bi1 1_5565 5_4555 57.6(5) 57.6(5) 57.6(5)
Fe1 Bi1 Bi1 1_5565 5_5455 56.9(5) 55.8(4) 59.3(5)
Fe1 Bi1 Bi1 1_5565 5_5555 56.9(5) 55.8(4) 59.3(5)
Fe1 Bi1 O1 1_5565 1_5455 126.1(7) 126.1(7) 126.1(7)
Fe1 Bi1 O1 1_5565 1_5465 31.2(3) 30.5(3) 33.0(4)
Fe1 Bi1 O1 1_5565 . 126.1(7) 126.1(7) 126.1(7)
Fe1 Bi1 O1 1_5565 1_5565 31.2(3) 30.5(3) 33.0(4)
Fe1 Bi1 O1 1_5565 5_4445 129.4(13) 124.9(13) 139.2(13)
Fe1 Bi1 O1 1_5565 5_4455 30.8(8) 30.2(8) 32.2(8)
Fe1 Bi1 O1 1_5565 5_5445 125.4(11) 119.8(9) 130.2(13)
Fe1 Bi1 O1 1_5565 5_5455 32.0(9) 30.0(9) 33.9(9)
Fe1 Bi1 O2 1_5565 1_4565 31.8(16) 31.8(16) 31.8(16)
Fe1 Bi1 O2 1_5565 1_5565 29.1(15) 28.7(15) 30.1(15)
Fe1 Bi1 O2 1_5565 5_4445 128.2(13) 127.1(13) 129.6(13)
Fe1 Bi1 O2 1_5565 5_4545 128.2(13) 127.1(13) 129.6(13)
Fe1 Bi1 O3 1_5565 . 6.4(8) 6.4(8) 6.4(8)
Fe1 Bi1 O3 1_5565 5_4445 77.5(10) 77.0(10) 78.4(10)
Fe1 Bi1 O3 1_5565 5_4545 77.5(10) 77.0(10) 78.4(10)
Fe1 Bi1 O3 1_5565 5_5445 78.1(10) 76.1(10) 80.1(11)
Fe1 Bi1 O3 1_5565 5_5545 78.1(10) 76.1(10) 80.1(11)
Fe1 Bi1 Fe1 1_6555 5_4445 117.0(4) 113.0(3) 119.7(5)
Fe1 Bi1 Fe1 1_6555 5_4455 126.2(4) 124.6(3) 128.1(4)
Fe1 Bi1 Fe1 1_6555 5_4545 117.0(4) 113.0(3) 119.7(5)
Fe1 Bi1 Fe1 1_6555 5_4555 126.2(4) 124.6(3) 128.1(4)
Fe1 Bi1 Fe1 1_6555 5_5445 47.5(3) 45.9(2) 48.3(3)
Fe1 Bi1 Fe1 1_6555 5_5545 47.5(3) 45.9(2) 48.3(3)
Fe1 Bi1 Pb1 1_6555 1_4555 171.6(5) 169.2(5) 172.8(6)
Fe1 Bi1 Pb1 1_6555 1_5455 90.4(4) 90.2(5) 90.6(4)
Fe1 Bi1 Pb1 1_6555 . 140(50) 140(30) 140(80)
Fe1 Bi1 Pb1 1_6555 1_5655 90.4(4) 90.2(5) 90.6(4)
Fe1 Bi1 Pb1 1_6555 5_4455 124.4(5) 124.4(5) 124.4(5)
Fe1 Bi1 Pb1 1_6555 5_4555 124.4(5) 124.4(5) 124.4(5)
Fe1 Bi1 Pb1 1_6555 5_5455 57.6(5) 56.7(4) 58.0(5)
Fe1 Bi1 Pb1 1_6555 5_5555 57.6(5) 56.7(4) 58.0(5)
Fe1 Bi1 Bi1 1_6555 1_4555 171.5(5) 168.9(5) 172.8(6)
Fe1 Bi1 Bi1 1_6555 1_5455 90.0(4) 90.0(5) 90.0(5)
Fe1 Bi1 Bi1 1_6555 1_5655 90.0(4) 90.0(5) 90.0(5)
Fe1 Bi1 Bi1 1_6555 5_4455 124.9(5) 124.9(5) 124.9(5)
Fe1 Bi1 Bi1 1_6555 5_4555 124.9(5) 124.9(5) 124.9(5)
Fe1 Bi1 Bi1 1_6555 5_5455 58.1(5) 57.0(4) 58.7(5)
Fe1 Bi1 Bi1 1_6555 5_5555 58.1(5) 57.0(4) 58.7(5)
Fe1 Bi1 O1 1_6555 1_5455 76.5(13) 76.5(13) 76.5(13)
Fe1 Bi1 O1 1_6555 1_5465 97.4(9) 95.5(9) 99.4(9)
Fe1 Bi1 O1 1_6555 . 76.5(13) 76.5(13) 76.5(13)
Fe1 Bi1 O1 1_6555 1_5565 97.4(9) 95.5(9) 99.4(9)
Fe1 Bi1 O1 1_6555 5_4445 130.0(13) 125.4(13) 132.5(13)
Fe1 Bi1 O1 1_6555 5_4455 129.1(9) 128.3(8) 130.6(9)
Fe1 Bi1 O1 1_6555 5_5445 25.4(9) 24.4(9) 25.8(10)
Fe1 Bi1 O2 1_6555 1_4565 127.2(16) 127.2(16) 127.2(16)
Fe1 Bi1 O2 1_6555 1_5565 68.6(15) 66.7(15) 70.3(16)
Fe1 Bi1 O2 1_6555 5_4445 81(2) 79(2) 82(2)
Fe1 Bi1 O2 1_6555 5_4545 81(2) 79(2) 82(2)
Fe1 Bi1 O3 1_6555 . 89.0(8) 89.0(8) 89.0(8)
Fe1 Bi1 O3 1_6555 5_4445 133.4(3) 131.2(2) 135.4(3)
Fe1 Bi1 O3 1_6555 5_4545 133.4(3) 131.2(2) 135.4(3)
Fe1 Bi1 Fe1 5_4445 5_4455 73.0(3) 68.6(3) 82.2(3)
Fe1 Bi1 Fe1 5_4445 5_4545 70.1(3) 62.0(3) 72.5(3)
Fe1 Bi1 Fe1 5_4445 5_4555 110.7(5) 106.5(5) 120.6(4)
Fe1 Bi1 Fe1 5_4445 5_5445 70.0(3) 62.3(3) 73.5(4)
Fe1 Bi1 Fe1 5_4445 5_5455 109.81(18) 108.90(19) 111.92(19)
Fe1 Bi1 Fe1 5_4445 5_5545 107.9(5) 95.1(5) 114.0(6)
Fe1 Bi1 Fe1 5_4445 5_5555 172.7(6) 169.0(7) 180.0(5)
Fe1 Bi1 Pb1 5_4445 1_4555 56.3(4) 53.9(4) 58.9(4)
Fe1 Bi1 Pb1 5_4445 1_5455 55.0(4) 53.8(4) 58.9(4)
Fe1 Bi1 Pb1 5_4445 1_5545 55.6(4) 52.8(3) 57.6(4)
Fe1 Bi1 Pb1 5_4445 . 100(500) 0 100(1400)
Fe1 Bi1 Pb1 5_4445 1_5565 126.0(4) 116.9(6) 133.9(5)
Fe1 Bi1 Pb1 5_4445 1_5655 125.0(5) 120.9(6) 126.3(5)
Fe1 Bi1 Pb1 5_4445 1_6555 123.7(5) 118.5(6) 129.0(5)
Fe1 Bi1 Pb1 5_4445 5_4455 73.8(5) 73.8(5) 73.8(5)
Fe1 Bi1 Pb1 5_4445 5_4555 120.9(6) 120.9(6) 120.9(6)
Fe1 Bi1 Pb1 5_4445 5_5455 108.6(3) 108.0(3) 108.8(3)
Fe1 Bi1 Pb1 5_4445 5_5555 174.5(6) 169.2(6) 177.3(7)
Fe1 Bi1 Bi1 5_4445 1_4555 56.4(4) 53.9(4) 58.8(4)
Fe1 Bi1 Bi1 5_4445 1_5455 54.9(4) 53.7(4) 59.0(4)
Fe1 Bi1 Bi1 5_4445 1_5545 55.5(4) 52.6(4) 57.6(4)
Fe1 Bi1 Bi1 5_4445 1_5565 126.1(4) 117.3(6) 133.9(5)
Fe1 Bi1 Bi1 5_4445 1_5655 125.1(5) 121.0(6) 126.3(5)
Fe1 Bi1 Bi1 5_4445 1_6555 123.6(5) 118.5(6) 128.5(5)
Fe1 Bi1 Bi1 5_4445 5_4445 11.9(4) 11.9(4) 11.9(4)
Fe1 Bi1 Bi1 5_4445 5_4455 74.3(5) 74.3(5) 74.3(5)
Fe1 Bi1 Bi1 5_4445 5_4545 67.1(4) 67.1(4) 67.1(4)
Fe1 Bi1 Bi1 5_4445 5_4555 120.6(6) 120.6(6) 120.6(6)
Fe1 Bi1 Bi1 5_4445 5_5455 108.7(3) 108.0(3) 108.9(3)
Fe1 Bi1 Bi1 5_4445 5_5555 175.4(6) 169.5(6) 178.1(6)
Fe1 Bi1 O1 5_4445 1_5445 32.7(9) 32.5(9) 32.9(9)
Fe1 Bi1 O1 5_4445 1_5455 39.1(13) 39.1(13) 39.1(13)
Fe1 Bi1 O1 5_4445 1_5465 99.9(6) 96.1(7) 105.2(5)
Fe1 Bi1 O1 5_4445 1_5545 73.4(7) 71.8(6) 75.1(7)
Fe1 Bi1 O1 5_4445 . 98.7(9) 98.7(9) 98.7(9)
Fe1 Bi1 O1 5_4445 1_5565 141.6(10) 137.9(11) 150.3(9)
Fe1 Bi1 O1 5_4445 5_4445 35.4(2) 31.9(2) 36.7(2)
Fe1 Bi1 O1 5_4445 5_4455 93.0(8) 89.1(10) 106.4(7)
Fe1 Bi1 O1 5_4445 5_5445 89.9(8) 71.5(8) 100.5(10)
Fe1 Bi1 O1 5_4445 5_5455 143.1(4) 139.4(5) 145.6(6)
Fe1 Bi1 O2 5_4445 1_4565 109.1(12) 109.1(12) 109.1(12)
Fe1 Bi1 O2 5_4445 1_5565 141.7(5) 140.0(7) 143.6(2)
Fe1 Bi1 O2 5_4445 5_4445 36(2) 33.3(18) 39(2)
Fe1 Bi1 O2 5_4445 5_4455 91.7(15) 90.4(16) 94.9(12)
Fe1 Bi1 O2 5_4445 5_4545 91.0(16) 76.8(12) 98.7(18)
Fe1 Bi1 O2 5_4445 5_4555 144(2) 137.8(18) 148(2)
Fe1 Bi1 O3 5_4445 . 135.6(5) 135.6(5) 135.6(5)
Fe1 Bi1 O3 5_4445 5_4445 36.7(10) 28.5(9) 51.9(10)
Fe1 Bi1 O3 5_4445 5_4545 90.4(7) 79.7(8) 104.8(7)
Fe1 Bi1 O3 5_4445 5_5445 90.4(6) 81.8(7) 98.7(5)
Fe1 Bi1 O3 5_4445 5_5545 145.2(11) 124.7(11) 162.4(11)
Fe1 Bi1 Fe1 5_4455 5_4545 110.7(5) 106.5(5) 120.6(4)
Fe1 Bi1 Fe1 5_4455 5_4555 68.3(3) 64.6(2) 72.0(4)
Fe1 Bi1 Fe1 5_4455 5_5445 111.40(18) 110.44(16) 113.06(17)
Fe1 Bi1 Fe1 5_4455 5_5455 70.0(4) 62.3(4) 73.5(4)
Fe1 Bi1 Fe1 5_4455 5_5545 175.6(4) 169.9(4) 180.0(5)
Fe1 Bi1 Fe1 5_4455 5_5555 107.9(5) 95.1(5) 114.0(6)
Fe1 Bi1 Pb1 5_4455 1_4555 54.6(4) 52.0(3) 62.8(4)
Fe1 Bi1 Pb1 5_4455 1_5455 55.8(4) 54.0(4) 58.0(4)
Fe1 Bi1 Pb1 5_4455 1_5545 128.0(4) 125.0(3) 135.9(3)
Fe1 Bi1 Pb1 5_4455 . 90(190) 0 146(6)
Fe1 Bi1 Pb1 5_4455 1_5565 53.8(4) 47.0(4) 56.6(4)
Fe1 Bi1 Pb1 5_4455 1_5655 124.2(5) 122.2(5) 126.0(7)
Fe1 Bi1 Pb1 5_4455 1_6555 126.3(4) 119.2(6) 127.9(2)
Fe1 Bi1 Pb1 5_4455 5_4445 67.9(5) 66.7(4) 68.5(5)
Fe1 Bi1 Pb1 5_4455 5_4545 104.9(5) 102.5(5) 106.0(6)
Fe1 Bi1 Pb1 5_4455 5_5445 105.2(4) 105.2(4) 105.2(4)
Fe1 Bi1 Pb1 5_4455 5_5455 68.4(5) 67.3(4) 70.4(5)
Fe1 Bi1 Pb1 5_4455 5_5545 169.0(4) 169.0(4) 169.0(4)
Fe1 Bi1 Pb1 5_4455 5_5555 104.5(5) 103.7(5) 106.3(6)
Fe1 Bi1 Bi1 5_4455 1_4555 54.6(4) 52.0(3) 63.0(4)
Fe1 Bi1 Bi1 5_4455 1_5455 55.8(4) 54.0(4) 57.7(4)
Fe1 Bi1 Bi1 5_4455 1_5545 127.9(4) 125.0(3) 135.9(3)
Fe1 Bi1 Bi1 5_4455 1_5565 53.9(4) 47.4(4) 56.6(4)
Fe1 Bi1 Bi1 5_4455 1_5655 124.2(5) 122.3(4) 126.0(6)
Fe1 Bi1 Bi1 5_4455 1_6555 126.3(4) 119.8(5) 127.8(2)
Fe1 Bi1 Bi1 5_4455 5_4445 68.2(5) 66.9(4) 69.1(5)
Fe1 Bi1 Bi1 5_4455 5_4545 105.5(6) 102.7(5) 106.7(6)
Fe1 Bi1 Bi1 5_4455 5_5445 106.0(4) 106.0(4) 106.0(4)
Fe1 Bi1 Bi1 5_4455 5_5455 68.3(5) 66.9(4) 70.9(5)
Fe1 Bi1 Bi1 5_4455 5_5545 169.7(4) 169.7(4) 169.7(4)
Fe1 Bi1 Bi1 5_4455 5_5555 104.4(5) 103.3(5) 106.7(6)
Fe1 Bi1 O1 5_4455 1_5445 102.0(6) 99.9(7) 102.9(6)
Fe1 Bi1 O1 5_4455 1_5455 31.0(13) 31.0(13) 31.0(13)
Fe1 Bi1 O1 5_4455 1_5465 31.1(9) 30.0(8) 33.4(9)
Fe1 Bi1 O1 5_4455 1_5545 142.6(10) 138.6(9) 144.3(11)
Fe1 Bi1 O1 5_4455 . 89.2(10) 89.2(10) 89.2(10)
Fe1 Bi1 O1 5_4455 1_5565 72.7(6) 71.6(6) 75.7(8)
Fe1 Bi1 O1 5_4455 5_4445 93.6(9) 87.2(10) 103.6(8)
Fe1 Bi1 O1 5_4455 5_4455 34.7(2) 33.1(2) 36.6(3)
Fe1 Bi1 O1 5_4455 5_5445 144.1(3) 140.7(5) 146.2(3)
Fe1 Bi1 O1 5_4455 5_5455 87.5(9) 70.6(8) 95.9(11)
Fe1 Bi1 O2 5_4455 1_4545 101.9(13) 99.5(13) 103.1(13)
Fe1 Bi1 O2 5_4455 1_5545 143.4(7) 143.4(7) 143.4(7)
Fe1 Bi1 O2 5_4455 1_5565 69.8(12) 69.4(12) 70.6(13)
Fe1 Bi1 O2 5_4455 5_4445 91.9(16) 89.3(17) 99.4(12)
Fe1 Bi1 O2 5_4455 5_4455 35(2) 33(2) 37(2)
Fe1 Bi1 O2 5_4455 5_4545 145(2) 143(2) 154(2)
Fe1 Bi1 O2 5_4455 5_4555 89.3(16) 76.4(12) 94.8(19)
Fe1 Bi1 O3 5_4455 1_5545 117.8(7) 117.8(7) 117.8(7)
Fe1 Bi1 O3 5_4455 5_4445 36.3(10) 29.6(10) 50.5(10)
Fe1 Bi1 O3 5_4455 5_4545 89.2(7) 82.3(8) 98.6(9)
Fe1 Bi1 O3 5_4455 5_5445 90.7(6) 79.8(7) 97.1(6)
Fe1 Bi1 O3 5_4455 5_5545 144.7(11) 123.6(11) 157.2(10)
Fe1 Bi1 Fe1 5_4545 5_4555 73.0(3) 68.6(3) 82.2(3)
Fe1 Bi1 Fe1 5_4545 5_5445 107.9(5) 95.1(5) 114.0(6)
Fe1 Bi1 Fe1 5_4545 5_5455 172.7(6) 169.0(7) 180.0(5)
Fe1 Bi1 Fe1 5_4545 5_5545 70.0(3) 62.3(3) 73.5(4)
Fe1 Bi1 Fe1 5_4545 5_5555 109.81(18) 108.90(19) 111.92(19)
Fe1 Bi1 Pb1 5_4545 1_4555 56.3(4) 53.9(4) 58.9(4)
Fe1 Bi1 Pb1 5_4545 1_5455 125.0(5) 120.9(6) 126.3(5)
Fe1 Bi1 Pb1 5_4545 1_5545 55.6(4) 52.8(3) 57.6(4)
Fe1 Bi1 Pb1 5_4545 . 100(500) 0 100(1400)
Fe1 Bi1 Pb1 5_4545 1_5565 126.0(4) 116.9(6) 133.9(5)
Fe1 Bi1 Pb1 5_4545 1_5655 55.0(4) 53.8(4) 58.9(4)
Fe1 Bi1 Pb1 5_4545 1_6555 123.7(5) 118.5(6) 129.0(5)
Fe1 Bi1 Pb1 5_4545 5_4455 120.9(6) 120.9(6) 120.9(6)
Fe1 Bi1 Pb1 5_4545 5_4555 73.8(5) 73.8(5) 73.8(5)
Fe1 Bi1 Pb1 5_4545 5_5455 174.5(6) 169.2(6) 177.3(7)
Fe1 Bi1 Pb1 5_4545 5_5555 108.6(3) 108.0(3) 108.8(3)
Fe1 Bi1 Bi1 5_4545 1_4555 56.4(4) 53.9(4) 58.8(4)
Fe1 Bi1 Bi1 5_4545 1_5455 125.1(5) 121.0(6) 126.3(5)
Fe1 Bi1 Bi1 5_4545 1_5545 55.5(4) 52.6(4) 57.6(4)
Fe1 Bi1 Bi1 5_4545 1_5565 126.1(4) 117.3(6) 133.9(5)
Fe1 Bi1 Bi1 5_4545 1_5655 54.9(4) 53.7(4) 59.0(4)
Fe1 Bi1 Bi1 5_4545 1_6555 123.6(5) 118.5(6) 128.5(5)
Fe1 Bi1 Bi1 5_4545 5_4445 67.1(4) 67.1(4) 67.1(4)
Fe1 Bi1 Bi1 5_4545 5_4455 120.6(6) 120.6(6) 120.6(6)
Fe1 Bi1 Bi1 5_4545 5_4545 11.9(4) 11.9(4) 11.9(4)
Fe1 Bi1 Bi1 5_4545 5_4555 74.3(5) 74.3(5) 74.3(5)
Fe1 Bi1 Bi1 5_4545 5_5455 175.4(6) 169.5(6) 178.1(6)
Fe1 Bi1 Bi1 5_4545 5_5555 108.7(3) 108.0(3) 108.9(3)
Fe1 Bi1 O1 5_4545 1_5445 73.4(7) 71.8(6) 75.1(7)
Fe1 Bi1 O1 5_4545 1_5455 98.7(9) 98.7(9) 98.7(9)
Fe1 Bi1 O1 5_4545 1_5465 141.6(10) 137.9(11) 150.3(9)
Fe1 Bi1 O1 5_4545 1_5545 32.7(9) 32.5(9) 32.9(9)
Fe1 Bi1 O1 5_4545 . 39.1(13) 39.1(13) 39.1(13)
Fe1 Bi1 O1 5_4545 1_5565 99.9(6) 96.1(7) 105.2(5)
Fe1 Bi1 O1 5_4545 5_4445 35.4(2) 31.9(2) 36.7(2)
Fe1 Bi1 O1 5_4545 5_4455 93.0(8) 89.1(10) 106.4(7)
Fe1 Bi1 O1 5_4545 5_5445 89.9(8) 71.5(8) 100.5(10)
Fe1 Bi1 O1 5_4545 5_5455 143.1(4) 139.4(5) 145.6(6)
Fe1 Bi1 O2 5_4545 1_4565 109.1(12) 109.1(12) 109.1(12)
Fe1 Bi1 O2 5_4545 1_5565 141.7(5) 140.0(7) 143.6(2)
Fe1 Bi1 O2 5_4545 5_4445 91.0(16) 76.8(12) 98.7(18)
Fe1 Bi1 O2 5_4545 5_4455 144(2) 137.8(18) 148(2)
Fe1 Bi1 O2 5_4545 5_4545 36(2) 33.3(18) 39(2)
Fe1 Bi1 O2 5_4545 5_4555 91.7(15) 90.4(16) 94.9(12)
Fe1 Bi1 O3 5_4545 . 135.6(5) 135.6(5) 135.6(5)
Fe1 Bi1 O3 5_4545 5_4445 90.4(7) 79.7(8) 104.8(7)
Fe1 Bi1 O3 5_4545 5_4545 36.7(10) 28.5(9) 51.9(10)
Fe1 Bi1 O3 5_4545 5_5445 145.2(11) 124.7(11) 162.4(11)
Fe1 Bi1 O3 5_4545 5_5545 90.4(6) 81.8(7) 98.7(5)
Fe1 Bi1 Fe1 5_4555 5_5445 175.6(4) 169.9(4) 180.0(5)
Fe1 Bi1 Fe1 5_4555 5_5455 107.9(5) 95.1(5) 114.0(6)
Fe1 Bi1 Fe1 5_4555 5_5545 111.40(18) 110.44(16) 113.06(17)
Fe1 Bi1 Fe1 5_4555 5_5555 70.0(4) 62.3(4) 73.5(4)
Fe1 Bi1 Pb1 5_4555 1_4555 54.6(4) 52.0(3) 62.8(4)
Fe1 Bi1 Pb1 5_4555 1_5455 124.2(5) 122.2(5) 126.0(7)
Fe1 Bi1 Pb1 5_4555 1_5545 128.0(4) 125.0(3) 135.9(3)
Fe1 Bi1 Pb1 5_4555 . 90(190) 0 146(6)
Fe1 Bi1 Pb1 5_4555 1_5565 53.8(4) 47.0(4) 56.6(4)
Fe1 Bi1 Pb1 5_4555 1_5655 55.8(4) 54.0(4) 58.0(4)
Fe1 Bi1 Pb1 5_4555 1_6555 126.3(4) 119.2(6) 127.9(2)
Fe1 Bi1 Pb1 5_4555 5_4445 104.9(5) 102.5(5) 106.0(6)
Fe1 Bi1 Pb1 5_4555 5_4545 67.9(5) 66.7(4) 68.5(5)
Fe1 Bi1 Pb1 5_4555 5_5445 169.0(4) 169.0(4) 169.0(4)
Fe1 Bi1 Pb1 5_4555 5_5455 104.5(5) 103.7(5) 106.3(6)
Fe1 Bi1 Pb1 5_4555 5_5545 105.2(4) 105.2(4) 105.2(4)
Fe1 Bi1 Pb1 5_4555 5_5555 68.4(5) 67.3(4) 70.4(5)
Fe1 Bi1 Bi1 5_4555 1_4555 54.6(4) 52.0(3) 63.0(4)
Fe1 Bi1 Bi1 5_4555 1_5455 124.2(5) 122.3(4) 126.0(6)
Fe1 Bi1 Bi1 5_4555 1_5545 127.9(4) 125.0(3) 135.9(3)
Fe1 Bi1 Bi1 5_4555 1_5565 53.9(4) 47.4(4) 56.6(4)
Fe1 Bi1 Bi1 5_4555 1_5655 55.8(4) 54.0(4) 57.7(4)
Fe1 Bi1 Bi1 5_4555 1_6555 126.3(4) 119.8(5) 127.8(2)
Fe1 Bi1 Bi1 5_4555 5_4445 105.5(6) 102.7(5) 106.7(6)
Fe1 Bi1 Bi1 5_4555 5_4545 68.2(5) 66.9(4) 69.1(5)
Fe1 Bi1 Bi1 5_4555 5_5445 169.7(4) 169.7(4) 169.7(4)
Fe1 Bi1 Bi1 5_4555 5_5455 104.4(5) 103.3(5) 106.7(6)
Fe1 Bi1 Bi1 5_4555 5_5545 106.0(4) 106.0(4) 106.0(4)
Fe1 Bi1 Bi1 5_4555 5_5555 68.3(5) 66.9(4) 70.9(5)
Fe1 Bi1 O1 5_4555 1_5445 142.6(10) 138.6(9) 144.3(11)
Fe1 Bi1 O1 5_4555 1_5455 89.2(10) 89.2(10) 89.2(10)
Fe1 Bi1 O1 5_4555 1_5465 72.7(6) 71.6(6) 75.7(8)
Fe1 Bi1 O1 5_4555 1_5545 102.0(6) 99.9(7) 102.9(6)
Fe1 Bi1 O1 5_4555 . 31.0(13) 31.0(13) 31.0(13)
Fe1 Bi1 O1 5_4555 1_5565 31.1(9) 30.0(8) 33.4(9)
Fe1 Bi1 O1 5_4555 5_4445 93.6(9) 87.2(10) 103.6(8)
Fe1 Bi1 O1 5_4555 5_4455 34.7(2) 33.1(2) 36.6(3)
Fe1 Bi1 O1 5_4555 5_5445 144.1(3) 140.7(5) 146.2(3)
Fe1 Bi1 O1 5_4555 5_5455 87.5(9) 70.6(8) 95.9(11)
Fe1 Bi1 O2 5_4555 1_4545 101.9(13) 99.5(13) 103.1(13)
Fe1 Bi1 O2 5_4555 1_5545 143.4(7) 143.4(7) 143.4(7)
Fe1 Bi1 O2 5_4555 1_5565 69.8(12) 69.4(12) 70.6(13)
Fe1 Bi1 O2 5_4555 5_4445 145(2) 143(2) 154(2)
Fe1 Bi1 O2 5_4555 5_4455 89.3(16) 76.4(12) 94.8(19)
Fe1 Bi1 O2 5_4555 5_4545 91.9(16) 89.3(17) 99.4(12)
Fe1 Bi1 O2 5_4555 5_4555 35(2) 33(2) 37(2)
Fe1 Bi1 O3 5_4555 1_5545 117.8(7) 117.8(7) 117.8(7)
Fe1 Bi1 O3 5_4555 5_4445 89.2(7) 82.3(8) 98.6(9)
Fe1 Bi1 O3 5_4555 5_4545 36.3(10) 29.6(10) 50.5(10)
Fe1 Bi1 O3 5_4555 5_5445 144.7(11) 123.6(11) 157.2(10)
Fe1 Bi1 O3 5_4555 5_5545 90.7(6) 79.8(7) 97.1(6)
Fe1 Bi1 Fe1 5_5445 5_5455 73.0(3) 68.6(3) 82.2(3)
Fe1 Bi1 Fe1 5_5445 5_5545 68.3(3) 64.6(2) 72.0(4)
Fe1 Bi1 Fe1 5_5445 5_5555 110.7(5) 106.5(5) 120.6(4)
Fe1 Bi1 Pb1 5_5445 1_4555 126.3(4) 119.2(6) 127.9(2)
Fe1 Bi1 Pb1 5_5445 1_5455 55.8(4) 54.0(4) 58.0(4)
Fe1 Bi1 Pb1 5_5445 1_5545 53.8(4) 47.0(4) 56.6(4)
Fe1 Bi1 Pb1 5_5445 . 90(190) 0 146(6)
Fe1 Bi1 Pb1 5_5445 1_5565 128.0(4) 125.0(3) 135.9(3)
Fe1 Bi1 Pb1 5_5445 1_5655 124.2(5) 122.2(5) 126.0(7)
Fe1 Bi1 Pb1 5_5445 1_6555 54.6(4) 52.0(3) 62.8(4)
Fe1 Bi1 Pb1 5_5445 5_4445 68.4(5) 67.3(4) 70.4(5)
Fe1 Bi1 Pb1 5_5445 5_4455 105.2(4) 105.2(4) 105.2(4)
Fe1 Bi1 Pb1 5_5445 5_4545 104.5(5) 103.7(5) 106.3(6)
Fe1 Bi1 Pb1 5_5445 5_4555 169.0(4) 169.0(4) 169.0(4)
Fe1 Bi1 Pb1 5_5445 5_5455 67.9(5) 66.7(4) 68.5(5)
Fe1 Bi1 Pb1 5_5445 5_5555 104.9(5) 102.5(5) 106.0(6)
Fe1 Bi1 Bi1 5_5445 1_4555 126.3(4) 119.8(5) 127.8(2)
Fe1 Bi1 Bi1 5_5445 1_5455 55.8(4) 54.0(4) 57.7(4)
Fe1 Bi1 Bi1 5_5445 1_5545 53.9(4) 47.4(4) 56.6(4)
Fe1 Bi1 Bi1 5_5445 1_5565 127.9(4) 125.0(3) 135.9(3)
Fe1 Bi1 Bi1 5_5445 1_5655 124.2(5) 122.3(4) 126.0(6)
Fe1 Bi1 Bi1 5_5445 1_6555 54.6(4) 52.0(3) 63.0(4)
Fe1 Bi1 Bi1 5_5445 5_4445 68.3(5) 66.9(4) 70.9(5)
Fe1 Bi1 Bi1 5_5445 5_4455 106.0(4) 106.0(4) 106.0(4)
Fe1 Bi1 Bi1 5_5445 5_4545 104.4(5) 103.3(5) 106.7(6)
Fe1 Bi1 Bi1 5_5445 5_4555 169.7(4) 169.7(4) 169.7(4)
Fe1 Bi1 Bi1 5_5445 5_5455 68.2(5) 66.9(4) 69.1(5)
Fe1 Bi1 Bi1 5_5445 5_5555 105.5(6) 102.7(5) 106.7(6)
Fe1 Bi1 O1 5_5445 1_5445 31.1(9) 30.0(8) 33.4(9)
Fe1 Bi1 O1 5_5445 1_5455 31.0(13) 31.0(13) 31.0(13)
Fe1 Bi1 O1 5_5445 1_5465 102.0(6) 99.9(7) 102.9(6)
Fe1 Bi1 O1 5_5445 1_5545 72.7(6) 71.6(6) 75.7(8)
Fe1 Bi1 O1 5_5445 . 89.2(10) 89.2(10) 89.2(10)
Fe1 Bi1 O1 5_5445 1_5565 142.6(10) 138.6(9) 144.3(11)
Fe1 Bi1 O1 5_5445 5_4445 87.5(9) 70.6(8) 95.9(11)
Fe1 Bi1 O1 5_5445 5_4455 144.1(3) 140.7(5) 146.2(3)
Fe1 Bi1 O1 5_5445 5_5445 34.7(2) 33.1(2) 36.6(3)
Fe1 Bi1 O1 5_5445 5_5455 93.6(9) 87.2(10) 103.6(8)
Fe1 Bi1 O2 5_5445 1_4545 69.8(12) 69.4(12) 70.6(13)
Fe1 Bi1 O2 5_5445 1_4565 143.4(7) 143.4(7) 143.4(7)
Fe1 Bi1 O2 5_5445 1_5565 101.9(13) 99.5(13) 103.1(13)
Fe1 Bi1 O2 5_5445 5_4445 35(2) 33(2) 37(2)
Fe1 Bi1 O2 5_5445 5_4455 91.9(16) 89.3(17) 99.4(12)
Fe1 Bi1 O2 5_5445 5_4545 89.3(16) 76.4(12) 94.8(19)
Fe1 Bi1 O2 5_5445 5_4555 145(2) 143(2) 154(2)
Fe1 Bi1 O3 5_5445 . 117.8(7) 117.8(7) 117.8(7)
Fe1 Bi1 O3 5_5445 5_4445 90.7(6) 79.8(7) 97.1(6)
Fe1 Bi1 O3 5_5445 5_4545 144.7(11) 123.6(11) 157.2(10)
Fe1 Bi1 O3 5_5445 5_5445 36.3(10) 29.6(10) 50.5(10)
Fe1 Bi1 O3 5_5445 5_5545 89.2(7) 82.3(8) 98.6(9)
Fe1 Bi1 Fe1 5_5455 5_5545 110.7(5) 106.5(5) 120.6(4)
Fe1 Bi1 Fe1 5_5455 5_5555 70.1(3) 62.0(3) 72.5(3)
Fe1 Bi1 Pb1 5_5455 1_4555 123.7(5) 118.5(6) 129.0(5)
Fe1 Bi1 Pb1 5_5455 1_5455 55.0(4) 53.8(4) 58.9(4)
Fe1 Bi1 Pb1 5_5455 1_5545 126.0(4) 116.9(6) 133.9(5)
Fe1 Bi1 Pb1 5_5455 . 100(500) 0 100(1400)
Fe1 Bi1 Pb1 5_5455 1_5565 55.6(4) 52.8(3) 57.6(4)
Fe1 Bi1 Pb1 5_5455 1_5655 125.0(5) 120.9(6) 126.3(5)
Fe1 Bi1 Pb1 5_5455 1_6555 56.3(4) 53.9(4) 58.9(4)
Fe1 Bi1 Pb1 5_5455 5_4445 108.6(3) 108.0(3) 108.8(3)
Fe1 Bi1 Pb1 5_5455 5_4545 174.5(6) 169.2(6) 177.3(7)
Fe1 Bi1 Pb1 5_5455 5_5445 73.8(5) 73.8(5) 73.8(5)
Fe1 Bi1 Pb1 5_5455 5_5545 120.9(6) 120.9(6) 120.9(6)
Fe1 Bi1 Bi1 5_5455 1_4555 123.6(5) 118.5(6) 128.5(5)
Fe1 Bi1 Bi1 5_5455 1_5455 54.9(4) 53.7(4) 59.0(4)
Fe1 Bi1 Bi1 5_5455 1_5545 126.1(4) 117.3(6) 133.9(5)
Fe1 Bi1 Bi1 5_5455 1_5565 55.5(4) 52.6(4) 57.6(4)
Fe1 Bi1 Bi1 5_5455 1_5655 125.1(5) 121.0(6) 126.3(5)
Fe1 Bi1 Bi1 5_5455 1_6555 56.4(4) 53.9(4) 58.8(4)
Fe1 Bi1 Bi1 5_5455 5_4445 108.7(3) 108.0(3) 108.9(3)
Fe1 Bi1 Bi1 5_5455 5_4545 175.4(6) 169.5(6) 178.1(6)
Fe1 Bi1 Bi1 5_5455 5_5445 74.3(5) 74.3(5) 74.3(5)
Fe1 Bi1 Bi1 5_5455 5_5455 11.9(4) 11.9(4) 11.9(4)
Fe1 Bi1 Bi1 5_5455 5_5545 120.6(6) 120.6(6) 120.6(6)
Fe1 Bi1 Bi1 5_5455 5_5555 67.1(4) 67.1(4) 67.1(4)
Fe1 Bi1 O1 5_5455 1_5445 99.9(6) 96.1(7) 105.2(5)
Fe1 Bi1 O1 5_5455 1_5455 39.1(13) 39.1(13) 39.1(13)
Fe1 Bi1 O1 5_5455 1_5465 32.7(9) 32.5(9) 32.9(9)
Fe1 Bi1 O1 5_5455 1_5545 141.6(10) 137.9(11) 150.3(9)
Fe1 Bi1 O1 5_5455 . 98.7(9) 98.7(9) 98.7(9)
Fe1 Bi1 O1 5_5455 1_5565 73.4(7) 71.8(6) 75.1(7)
Fe1 Bi1 O1 5_5455 5_4445 143.1(4) 139.4(5) 145.6(6)
Fe1 Bi1 O1 5_5455 5_4455 89.9(8) 71.5(8) 100.5(10)
Fe1 Bi1 O1 5_5455 5_5445 93.0(8) 89.1(10) 106.4(7)
Fe1 Bi1 O1 5_5455 5_5455 35.4(2) 31.9(2) 36.7(2)
Fe1 Bi1 O2 5_5455 1_4545 141.7(5) 140.0(7) 143.6(2)
Fe1 Bi1 O2 5_5455 1_5545 109.1(12) 109.1(12) 109.1(12)
Fe1 Bi1 O2 5_5455 5_4445 91.7(15) 90.4(16) 94.9(12)
Fe1 Bi1 O2 5_5455 5_4455 36(2) 33.3(18) 39(2)
Fe1 Bi1 O2 5_5455 5_4545 144(2) 137.8(18) 148(2)
Fe1 Bi1 O2 5_5455 5_4555 91.0(16) 76.8(12) 98.7(18)
Fe1 Bi1 O3 5_5455 1_5545 135.6(5) 135.6(5) 135.6(5)
Fe1 Bi1 O3 5_5455 5_4445 90.4(6) 81.8(7) 98.7(5)
Fe1 Bi1 O3 5_5455 5_4545 145.2(11) 124.7(11) 162.4(11)
Fe1 Bi1 O3 5_5455 5_5445 36.7(10) 28.5(9) 51.9(10)
Fe1 Bi1 O3 5_5455 5_5545 90.4(7) 79.7(8) 104.8(7)
Fe1 Bi1 Fe1 5_5545 5_5555 73.0(3) 68.6(3) 82.2(3)
Fe1 Bi1 Pb1 5_5545 1_4555 126.3(4) 119.2(6) 127.9(2)
Fe1 Bi1 Pb1 5_5545 1_5455 124.2(5) 122.2(5) 126.0(7)
Fe1 Bi1 Pb1 5_5545 1_5545 53.8(4) 47.0(4) 56.6(4)
Fe1 Bi1 Pb1 5_5545 . 90(190) 0 146(6)
Fe1 Bi1 Pb1 5_5545 1_5565 128.0(4) 125.0(3) 135.9(3)
Fe1 Bi1 Pb1 5_5545 1_5655 55.8(4) 54.0(4) 58.0(4)
Fe1 Bi1 Pb1 5_5545 1_6555 54.6(4) 52.0(3) 62.8(4)
Fe1 Bi1 Pb1 5_5545 5_4445 104.5(5) 103.7(5) 106.3(6)
Fe1 Bi1 Pb1 5_5545 5_4455 169.0(4) 169.0(4) 169.0(4)
Fe1 Bi1 Pb1 5_5545 5_4545 68.4(5) 67.3(4) 70.4(5)
Fe1 Bi1 Pb1 5_5545 5_4555 105.2(4) 105.2(4) 105.2(4)
Fe1 Bi1 Pb1 5_5545 5_5455 104.9(5) 102.5(5) 106.0(6)
Fe1 Bi1 Pb1 5_5545 5_5555 67.9(5) 66.7(4) 68.5(5)
Fe1 Bi1 Bi1 5_5545 1_4555 126.3(4) 119.8(5) 127.8(2)
Fe1 Bi1 Bi1 5_5545 1_5455 124.2(5) 122.3(4) 126.0(6)
Fe1 Bi1 Bi1 5_5545 1_5545 53.9(4) 47.4(4) 56.6(4)
Fe1 Bi1 Bi1 5_5545 1_5565 127.9(4) 125.0(3) 135.9(3)
Fe1 Bi1 Bi1 5_5545 1_5655 55.8(4) 54.0(4) 57.7(4)
Fe1 Bi1 Bi1 5_5545 1_6555 54.6(4) 52.0(3) 63.0(4)
Fe1 Bi1 Bi1 5_5545 5_4445 104.4(5) 103.3(5) 106.7(6)
Fe1 Bi1 Bi1 5_5545 5_4455 169.7(4) 169.7(4) 169.7(4)
Fe1 Bi1 Bi1 5_5545 5_4545 68.3(5) 66.9(4) 70.9(5)
Fe1 Bi1 Bi1 5_5545 5_4555 106.0(4) 106.0(4) 106.0(4)
Fe1 Bi1 Bi1 5_5545 5_5455 105.5(6) 102.7(5) 106.7(6)
Fe1 Bi1 Bi1 5_5545 5_5555 68.2(5) 66.9(4) 69.1(5)
Fe1 Bi1 O1 5_5545 1_5445 72.7(6) 71.6(6) 75.7(8)
Fe1 Bi1 O1 5_5545 1_5455 89.2(10) 89.2(10) 89.2(10)
Fe1 Bi1 O1 5_5545 1_5465 142.6(10) 138.6(9) 144.3(11)
Fe1 Bi1 O1 5_5545 1_5545 31.1(9) 30.0(8) 33.4(9)
Fe1 Bi1 O1 5_5545 . 31.0(13) 31.0(13) 31.0(13)
Fe1 Bi1 O1 5_5545 1_5565 102.0(6) 99.9(7) 102.9(6)
Fe1 Bi1 O1 5_5545 5_4445 87.5(9) 70.6(8) 95.9(11)
Fe1 Bi1 O1 5_5545 5_4455 144.1(3) 140.7(5) 146.2(3)
Fe1 Bi1 O1 5_5545 5_5445 34.7(2) 33.1(2) 36.6(3)
Fe1 Bi1 O1 5_5545 5_5455 93.6(9) 87.2(10) 103.6(8)
Fe1 Bi1 O2 5_5545 1_4545 69.8(12) 69.4(12) 70.6(13)
Fe1 Bi1 O2 5_5545 1_4565 143.4(7) 143.4(7) 143.4(7)
Fe1 Bi1 O2 5_5545 1_5565 101.9(13) 99.5(13) 103.1(13)
Fe1 Bi1 O2 5_5545 5_4445 89.3(16) 76.4(12) 94.8(19)
Fe1 Bi1 O2 5_5545 5_4455 145(2) 143(2) 154(2)
Fe1 Bi1 O2 5_5545 5_4545 35(2) 33(2) 37(2)
Fe1 Bi1 O2 5_5545 5_4555 91.9(16) 89.3(17) 99.4(12)
Fe1 Bi1 O3 5_5545 . 117.8(7) 117.8(7) 117.8(7)
Fe1 Bi1 O3 5_5545 5_4445 144.7(11) 123.6(11) 157.2(10)
Fe1 Bi1 O3 5_5545 5_4545 90.7(6) 79.8(7) 97.1(6)
Fe1 Bi1 O3 5_5545 5_5445 89.2(7) 82.3(8) 98.6(9)
Fe1 Bi1 O3 5_5545 5_5545 36.3(10) 29.6(10) 50.5(10)
Fe1 Bi1 Pb1 5_5555 1_4555 123.7(5) 118.5(6) 129.0(5)
Fe1 Bi1 Pb1 5_5555 1_5455 125.0(5) 120.9(6) 126.3(5)
Fe1 Bi1 Pb1 5_5555 1_5545 126.0(4) 116.9(6) 133.9(5)
Fe1 Bi1 Pb1 5_5555 . 100(500) 0 100(1400)
Fe1 Bi1 Pb1 5_5555 1_5565 55.6(4) 52.8(3) 57.6(4)
Fe1 Bi1 Pb1 5_5555 1_5655 55.0(4) 53.8(4) 58.9(4)
Fe1 Bi1 Pb1 5_5555 1_6555 56.3(4) 53.9(4) 58.9(4)
Fe1 Bi1 Pb1 5_5555 5_4445 174.5(6) 169.2(6) 177.3(7)
Fe1 Bi1 Pb1 5_5555 5_4545 108.6(3) 108.0(3) 108.8(3)
Fe1 Bi1 Pb1 5_5555 5_5445 120.9(6) 120.9(6) 120.9(6)
Fe1 Bi1 Pb1 5_5555 5_5545 73.8(5) 73.8(5) 73.8(5)
Fe1 Bi1 Bi1 5_5555 1_4555 123.6(5) 118.5(6) 128.5(5)
Fe1 Bi1 Bi1 5_5555 1_5455 125.1(5) 121.0(6) 126.3(5)
Fe1 Bi1 Bi1 5_5555 1_5545 126.1(4) 117.3(6) 133.9(5)
Fe1 Bi1 Bi1 5_5555 1_5565 55.5(4) 52.6(4) 57.6(4)
Fe1 Bi1 Bi1 5_5555 1_5655 54.9(4) 53.7(4) 59.0(4)
Fe1 Bi1 Bi1 5_5555 1_6555 56.4(4) 53.9(4) 58.8(4)
Fe1 Bi1 Bi1 5_5555 5_4445 175.4(6) 169.5(6) 178.1(6)
Fe1 Bi1 Bi1 5_5555 5_4545 108.7(3) 108.0(3) 108.9(3)
Fe1 Bi1 Bi1 5_5555 5_5445 120.6(6) 120.6(6) 120.6(6)
Fe1 Bi1 Bi1 5_5555 5_5455 67.1(4) 67.1(4) 67.1(4)
Fe1 Bi1 Bi1 5_5555 5_5545 74.3(5) 74.3(5) 74.3(5)
Fe1 Bi1 Bi1 5_5555 5_5555 11.9(4) 11.9(4) 11.9(4)
Fe1 Bi1 O1 5_5555 1_5445 141.6(10) 137.9(11) 150.3(9)
Fe1 Bi1 O1 5_5555 1_5455 98.7(9) 98.7(9) 98.7(9)
Fe1 Bi1 O1 5_5555 1_5465 73.4(7) 71.8(6) 75.1(7)
Fe1 Bi1 O1 5_5555 1_5545 99.9(6) 96.1(7) 105.2(5)
Fe1 Bi1 O1 5_5555 . 39.1(13) 39.1(13) 39.1(13)
Fe1 Bi1 O1 5_5555 1_5565 32.7(9) 32.5(9) 32.9(9)
Fe1 Bi1 O1 5_5555 5_4445 143.1(4) 139.4(5) 145.6(6)
Fe1 Bi1 O1 5_5555 5_4455 89.9(8) 71.5(8) 100.5(10)
Fe1 Bi1 O1 5_5555 5_5445 93.0(8) 89.1(10) 106.4(7)
Fe1 Bi1 O1 5_5555 5_5455 35.4(2) 31.9(2) 36.7(2)
Fe1 Bi1 O2 5_5555 1_4545 141.7(5) 140.0(7) 143.6(2)
Fe1 Bi1 O2 5_5555 1_5545 109.1(12) 109.1(12) 109.1(12)
Fe1 Bi1 O2 5_5555 5_4445 144(2) 137.8(18) 148(2)
Fe1 Bi1 O2 5_5555 5_4455 91.0(16) 76.8(12) 98.7(18)
Fe1 Bi1 O2 5_5555 5_4545 91.7(15) 90.4(16) 94.9(12)
Fe1 Bi1 O2 5_5555 5_4555 36(2) 33.3(18) 39(2)
Fe1 Bi1 O3 5_5555 1_5545 135.6(5) 135.6(5) 135.6(5)
Fe1 Bi1 O3 5_5555 5_4445 145.2(11) 124.7(11) 162.4(11)
Fe1 Bi1 O3 5_5555 5_4545 90.4(6) 81.8(7) 98.7(5)
Fe1 Bi1 O3 5_5555 5_5445 90.4(7) 79.7(8) 104.8(7)
Fe1 Bi1 O3 5_5555 5_5545 36.7(10) 28.5(9) 51.9(10)
Pb1 Bi1 Pb1 1_4555 1_5455 89.9(5) 89.5(4) 90.1(5)
Pb1 Bi1 Pb1 1_4555 1_5545 92.8(5) 91.6(6) 95.7(6)
Pb1 Bi1 Pb1 1_4555 . 100(600) 0 200(1800)
Pb1 Bi1 Pb1 1_4555 1_5565 87.8(5) 80.9(5) 93.6(6)
Pb1 Bi1 Pb1 1_4555 1_5655 89.9(5) 89.5(4) 90.1(5)
Pb1 Bi1 Pb1 1_4555 1_6555 177.5(6) 174.4(7) 180.0(5)
Pb1 Bi1 Pb1 1_4555 5_4455 62.3(5) 62.3(5) 62.3(5)
Pb1 Bi1 Pb1 1_4555 5_4555 62.3(5) 62.3(5) 62.3(5)
Pb1 Bi1 Pb1 1_4555 5_5455 128.3(5) 127.2(6) 130.8(5)
Pb1 Bi1 Pb1 1_4555 5_5555 128.3(5) 127.2(6) 130.8(5)
Pb1 Bi1 Bi1 1_4555 1_4555 0.1(5) 0.0(5) 0.8(4)
Pb1 Bi1 Bi1 1_4555 1_5455 90.0(5) 90.0(5) 90.0(5)
Pb1 Bi1 Bi1 1_4555 1_5545 92.7(5) 91.6(6) 95.3(6)
Pb1 Bi1 Bi1 1_4555 1_5565 87.9(5) 81.4(5) 93.6(6)
Pb1 Bi1 Bi1 1_4555 1_5655 90.0(5) 90.0(5) 90.0(5)
Pb1 Bi1 Bi1 1_4555 1_6555 177.6(6) 174.4(7) 180.0(5)
Pb1 Bi1 Bi1 1_4555 5_4445 49.0(5) 49.0(5) 49.0(5)
Pb1 Bi1 Bi1 1_4555 5_4455 61.9(5) 61.9(5) 61.9(5)
Pb1 Bi1 Bi1 1_4555 5_4545 49.0(5) 49.0(5) 49.0(5)
Pb1 Bi1 Bi1 1_4555 5_4555 61.9(5) 61.9(5) 61.9(5)
Pb1 Bi1 Bi1 1_4555 5_5455 127.8(5) 126.6(6) 130.6(5)
Pb1 Bi1 Bi1 1_4555 5_5555 127.8(5) 126.6(6) 130.6(5)
Pb1 Bi1 O1 1_4555 1_5445 89.9(10) 88.9(9) 90.4(10)
Pb1 Bi1 O1 1_4555 1_5455 97.1(13) 97.1(13) 97.1(13)
Pb1 Bi1 O1 1_4555 1_5465 88.3(10) 86.0(10) 93.8(9)
Pb1 Bi1 O1 1_4555 1_5545 89.9(10) 88.9(9) 90.4(10)
Pb1 Bi1 O1 1_4555 . 97.1(13) 97.1(13) 97.1(13)
Pb1 Bi1 O1 1_4555 1_5565 88.3(10) 86.0(10) 93.8(9)
Pb1 Bi1 O1 1_4555 5_4445 48.8(10) 40.2(12) 58.7(9)
Pb1 Bi1 O1 1_4555 5_4455 46.6(10) 37.7(11) 61.3(9)
Pb1 Bi1 O1 1_4555 5_5445 137.3(11) 118.6(10) 147.1(12)
Pb1 Bi1 O1 1_4555 5_5455 129.7(11) 116.0(10) 145.4(13)
Pb1 Bi1 O2 1_4555 1_4565 63.6(16) 63.6(16) 63.6(16)
Pb1 Bi1 O2 1_4555 1_5565 119.8(16) 116.9(16) 124.2(15)
Pb1 Bi1 O2 1_4555 5_4445 92(2) 91(2) 95(2)
Pb1 Bi1 O2 1_4555 5_4455 89(2) 85.7(18) 90(2)
Pb1 Bi1 O2 1_4555 5_4545 92(2) 91(2) 95(2)
Pb1 Bi1 O2 1_4555 5_4555 89(2) 85.7(18) 90(2)
Pb1 Bi1 O3 1_4555 . 101.9(9) 101.9(9) 101.9(9)
Pb1 Bi1 O3 1_4555 5_4445 45.7(3) 43.2(3) 51.2(3)
Pb1 Bi1 O3 1_4555 5_4545 45.7(3) 43.2(3) 51.2(3)
Pb1 Bi1 O3 1_4555 5_5445 134.2(3) 131.7(5) 136.6(3)
Pb1 Bi1 O3 1_4555 5_5545 134.2(3) 131.7(5) 136.6(3)
Pb1 Bi1 Pb1 1_5455 1_5545 90.1(3) 90.0(3) 90.70(17)
Pb1 Bi1 Pb1 1_5455 . 87.9(3) 0 89.988(7)
Pb1 Bi1 Pb1 1_5455 1_5565 90.1(3) 90.0(3) 90.70(17)
Pb1 Bi1 Pb1 1_5455 1_5655 179.6(6) 178.3(5) 180.0(5)
Pb1 Bi1 Pb1 1_5455 1_6555 89.9(3) 89.49(18) 90.1(4)
Pb1 Bi1 Pb1 1_5455 5_4445 55.1(3) 55.1(3) 55.1(3)
Pb1 Bi1 Pb1 1_5455 5_4545 124.8(4) 124.8(4) 124.9(5)
Pb1 Bi1 Pb1 1_5455 5_5455 55.1(3) 55.1(3) 55.1(3)
Pb1 Bi1 Pb1 1_5455 5_5555 124.8(4) 124.8(4) 124.9(5)
Pb1 Bi1 Bi1 1_5455 1_4555 89.9(3) 89.49(18) 90.2(4)
Pb1 Bi1 Bi1 1_5455 1_5455 0.2(5) 0.0(5) 0.8(4)
Pb1 Bi1 Bi1 1_5455 1_5545 90.1(3) 90.0(3) 90.70(17)
Pb1 Bi1 Bi1 1_5455 1_5565 90.1(3) 90.0(3) 90.70(17)
Pb1 Bi1 Bi1 1_5455 1_5655 179.8(6) 179.2(5) 180.0(5)
Pb1 Bi1 Bi1 1_5455 1_6555 89.9(3) 89.49(18) 90.2(4)
Pb1 Bi1 Bi1 1_5455 5_4445 55.1(3) 55.1(3) 55.1(3)
Pb1 Bi1 Bi1 1_5455 5_4545 124.8(4) 124.8(4) 124.9(6)
Pb1 Bi1 Bi1 1_5455 5_5455 55.1(3) 55.1(3) 55.1(3)
Pb1 Bi1 Bi1 1_5455 5_5555 124.8(4) 124.8(4) 124.9(6)
Pb1 Bi1 O1 1_5455 1_5445 58.5(4) 57.1(5) 59.1(3)
Pb1 Bi1 O1 1_5455 1_5465 58.5(4) 57.1(5) 59.1(3)
Pb1 Bi1 O1 1_5455 1_5545 120.9(5) 120.0(4) 122.9(7)
Pb1 Bi1 O1 1_5455 1_5565 120.9(5) 120.0(4) 122.9(7)
Pb1 Bi1 O1 1_5455 5_4445 90.0(3) 89.9(4) 90.09(17)
Pb1 Bi1 O1 1_5455 5_4455 90.0(3) 89.16(18) 90.80(18)
Pb1 Bi1 O1 1_5455 5_5445 90.0(3) 89.16(18) 90.80(18)
Pb1 Bi1 O1 1_5455 5_5455 90.0(3) 89.9(4) 90.09(17)
Pb1 Bi1 O2 1_5455 1_4545 89.8(2) 89.70(17) 89.9(3)
Pb1 Bi1 O2 1_5455 1_5565 89.8(2) 89.70(17) 89.9(3)
Pb1 Bi1 O2 1_5455 5_4445 44.8(11) 38.4(14) 56.1(7)
Pb1 Bi1 O2 1_5455 5_4455 44.8(11) 38.4(14) 56.1(7)
Pb1 Bi1 O2 1_5455 5_4545 135.4(12) 123.8(9) 142.7(14)
Pb1 Bi1 O2 1_5455 5_4555 135.4(12) 123.8(9) 142.7(14)
Pb1 Bi1 O3 1_5455 5_4445 45.5(3) 41.6(3) 47.3(4)
Pb1 Bi1 O3 1_5455 5_4545 134.3(5) 132.8(7) 137.0(4)
Pb1 Bi1 O3 1_5455 5_5445 45.5(3) 41.6(3) 47.3(4)
Pb1 Bi1 O3 1_5455 5_5545 134.3(5) 132.8(7) 137.0(4)
Pb1 Bi1 Pb1 1_5545 . 100(600) 0 200(1900)
Pb1 Bi1 Pb1 1_5545 1_5565 175.9(6) 172.6(7) 180.0(5)
Pb1 Bi1 Pb1 1_5545 1_5655 90.1(4) 90.0(4) 90.7(4)
Pb1 Bi1 Pb1 1_5545 1_6555 87.8(5) 80.9(6) 93.6(6)
Pb1 Bi1 Pb1 1_5545 5_4455 126.1(5) 126.1(5) 126.1(5)
Pb1 Bi1 Pb1 1_5545 5_4555 126.1(5) 126.1(5) 126.1(5)
Pb1 Bi1 Pb1 1_5545 5_5455 120.9(5) 118.2(5) 122.1(6)
Pb1 Bi1 Pb1 1_5545 5_5555 120.9(5) 118.2(5) 122.1(6)
Pb1 Bi1 Bi1 1_5545 1_4555 92.8(5) 91.6(5) 96.0(6)
Pb1 Bi1 Bi1 1_5545 1_5455 90.0(4) 90.0(5) 90.0(5)
Pb1 Bi1 Bi1 1_5545 1_5545 0.1(5) 0.0(5) 0.5(4)
Pb1 Bi1 Bi1 1_5545 1_5565 176.0(6) 172.6(8) 180.0(5)
Pb1 Bi1 Bi1 1_5545 1_5655 90.0(4) 90.0(5) 90.0(5)
Pb1 Bi1 Bi1 1_5545 1_6555 87.7(5) 80.9(6) 92.8(6)
Pb1 Bi1 Bi1 1_5545 5_4455 126.7(5) 126.7(5) 126.7(5)
Pb1 Bi1 Bi1 1_5545 5_4555 126.7(5) 126.7(5) 126.7(5)
Pb1 Bi1 Bi1 1_5545 5_5455 121.5(5) 118.5(5) 122.9(6)
Pb1 Bi1 Bi1 1_5545 5_5555 121.5(5) 118.5(5) 122.9(6)
Pb1 Bi1 O1 1_5545 1_5455 52.6(7) 52.6(7) 52.6(7)
Pb1 Bi1 O1 1_5545 1_5465 148.7(3) 147.0(4) 149.5(3)
Pb1 Bi1 O1 1_5545 . 52.6(7) 52.6(7) 52.6(7)
Pb1 Bi1 O1 1_5545 1_5565 148.7(3) 147.0(4) 149.5(3)
Pb1 Bi1 O1 1_5545 5_4445 45.3(11) 37.4(9) 51.8(12)
Pb1 Bi1 O1 1_5545 5_4455 140.6(10) 133.5(12) 153.4(9)
Pb1 Bi1 O1 1_5545 5_5445 46.7(10) 29.1(9) 55.1(10)
Pb1 Bi1 O1 1_5545 5_5455 139.7(11) 122.6(13) 152.0(10)
Pb1 Bi1 O2 1_5545 1_4565 155.6(16) 155.6(16) 155.6(16)
Pb1 Bi1 O2 1_5545 1_5565 148.1(16) 143.9(15) 151.0(16)
Pb1 Bi1 O2 1_5545 5_4445 45.4(11) 34.0(7) 52.3(13)
Pb1 Bi1 O2 1_5545 5_4455 137.3(10) 129.8(13) 146.0(7)
Pb1 Bi1 O2 1_5545 5_4545 45.4(11) 34.0(7) 52.3(13)
Pb1 Bi1 O2 1_5545 5_4555 137.3(10) 129.8(13) 146.0(7)
Pb1 Bi1 O3 1_5545 . 166.2(9) 166.2(9) 166.2(9)
Pb1 Bi1 O3 1_5545 5_4445 93.5(10) 82.8(11) 105.6(10)
Pb1 Bi1 O3 1_5545 5_4545 93.5(10) 82.8(11) 105.6(10)
Pb1 Bi1 O3 1_5545 5_5445 92.6(10) 77.1(10) 105.4(10)
Pb1 Bi1 O3 1_5545 5_5545 92.6(10) 77.1(10) 105.4(10)
Pb1 Bi1 Pb1 . 1_5565 100(400) 0 200(1700)
Pb1 Bi1 Pb1 . 1_5655 87.9(4) 0 90.0(4)
Pb1 Bi1 Pb1 . 1_6555 100(400) 0 200(1700)
Pb1 Bi1 Pb1 . 5_4445 90(30) 87(18) 90(50)
Pb1 Bi1 Pb1 . 5_4545 90(30) 87(18) 90(50)
Pb1 Bi1 Pb1 . 5_5455 90(30) 87(18) 90(50)
Pb1 Bi1 Pb1 . 5_5555 90(30) 87(18) 90(50)
Pb1 Bi1 Bi1 . 1_4555 100(400) 0 200(1700)
Pb1 Bi1 Bi1 . 1_5455 88.1(4) 0 90.0(4)
Pb1 Bi1 Bi1 . 1_5545 100(300) 0 180.0(5)
Pb1 Bi1 Bi1 . 1_5565 100(300) 0 180.0(5)
Pb1 Bi1 Bi1 . 1_5655 88.1(4) 0 90.0(4)
Pb1 Bi1 Bi1 . 1_6555 100(400) 0 200(1700)
Pb1 Bi1 Bi1 . 5_4445 90(30) 87(18) 90(70)
Pb1 Bi1 Bi1 . 5_4545 90(30) 87(18) 90(70)
Pb1 Bi1 Bi1 . 5_5455 90(30) 87(18) 90(70)
Pb1 Bi1 Bi1 . 5_5555 90(30) 87(18) 90(70)
Pb1 Bi1 O1 . 1_5445 50(100) 50(30) 100(400)
Pb1 Bi1 O1 . 1_5465 50(100) 50(30) 100(400)
Pb1 Bi1 O1 . 1_5545 50(100) 50(30) 100(400)
Pb1 Bi1 O1 . 1_5565 50(100) 50(30) 100(400)
Pb1 Bi1 O1 . 5_4445 100(400) 0 100(1700)
Pb1 Bi1 O1 . 5_4455 100(300) 0 200(600)
Pb1 Bi1 O1 . 5_5445 100(300) 0 200(600)
Pb1 Bi1 O1 . 5_5455 100(400) 0 100(1700)
Pb1 Bi1 O2 . 1_4545 70(30) 70(30) 69(12)
Pb1 Bi1 O2 . 1_5565 70(30) 70(30) 69(12)
Pb1 Bi1 O2 . 5_4445 100(160) 0 150(140)
Pb1 Bi1 O2 . 5_4455 100(160) 0 150(140)
Pb1 Bi1 O2 . 5_4545 100(160) 0 150(140)
Pb1 Bi1 O2 . 5_4555 100(160) 0 150(140)
Pb1 Bi1 O3 . 5_4445 100(200) 0 100(800)
Pb1 Bi1 O3 . 5_4545 100(200) 0 100(800)
Pb1 Bi1 O3 . 5_5445 100(200) 0 100(800)
Pb1 Bi1 O3 . 5_5545 100(200) 0 100(800)
Pb1 Bi1 Pb1 1_5565 1_5655 90.1(4) 90.0(4) 90.7(4)
Pb1 Bi1 Pb1 1_5565 1_6555 92.8(5) 91.6(5) 95.7(6)
Pb1 Bi1 Pb1 1_5565 5_4445 120.9(5) 118.2(5) 122.1(6)
Pb1 Bi1 Pb1 1_5565 5_4545 120.9(5) 118.2(5) 122.1(6)
Pb1 Bi1 Pb1 1_5565 5_5445 126.1(5) 126.1(5) 126.1(5)
Pb1 Bi1 Pb1 1_5565 5_5545 126.1(5) 126.1(5) 126.1(5)
Pb1 Bi1 Bi1 1_5565 1_4555 87.7(5) 80.9(6) 92.8(6)
Pb1 Bi1 Bi1 1_5565 1_5455 90.0(4) 90.0(4) 90.0(4)
Pb1 Bi1 Bi1 1_5565 1_5545 176.0(6) 172.6(8) 180.0(5)
Pb1 Bi1 Bi1 1_5565 1_5565 0.1(5) 0.0(5) 0.5(4)
Pb1 Bi1 Bi1 1_5565 1_5655 90.0(4) 90.0(4) 90.0(4)
Pb1 Bi1 Bi1 1_5565 1_6555 92.8(5) 91.6(5) 96.0(6)
Pb1 Bi1 Bi1 1_5565 5_4445 121.5(5) 118.5(5) 122.9(6)
Pb1 Bi1 Bi1 1_5565 5_4545 121.5(5) 118.5(5) 122.9(6)
Pb1 Bi1 Bi1 1_5565 5_5445 126.7(5) 126.7(5) 126.7(5)
Pb1 Bi1 Bi1 1_5565 5_5545 126.7(5) 126.7(5) 126.7(5)
Pb1 Bi1 O1 1_5565 1_5445 148.7(3) 147.0(4) 149.5(3)
Pb1 Bi1 O1 1_5565 1_5455 52.6(7) 52.6(7) 52.6(7)
Pb1 Bi1 O1 1_5565 1_5545 148.7(3) 147.0(4) 149.5(3)
Pb1 Bi1 O1 1_5565 . 52.6(7) 52.6(7) 52.6(7)
Pb1 Bi1 O1 1_5565 5_4445 139.7(11) 122.6(13) 152.0(10)
Pb1 Bi1 O1 1_5565 5_4455 46.7(10) 29.1(9) 55.1(10)
Pb1 Bi1 O1 1_5565 5_5445 140.6(10) 133.5(12) 153.4(9)
Pb1 Bi1 O1 1_5565 5_5455 45.3(11) 37.4(9) 51.8(12)
Pb1 Bi1 O2 1_5565 1_4545 148.1(16) 143.9(15) 151.0(16)
Pb1 Bi1 O2 1_5565 1_5545 155.6(16) 155.6(16) 155.6(16)
Pb1 Bi1 O2 1_5565 5_4445 137.3(10) 129.8(13) 146.0(7)
Pb1 Bi1 O2 1_5565 5_4455 45.4(11) 34.0(7) 52.3(13)
Pb1 Bi1 O2 1_5565 5_4545 137.3(10) 129.8(13) 146.0(7)
Pb1 Bi1 O2 1_5565 5_4555 45.4(11) 34.0(7) 52.3(13)
Pb1 Bi1 O3 1_5565 1_5545 166.2(9) 166.2(9) 166.2(9)
Pb1 Bi1 O3 1_5565 5_4445 92.6(10) 77.1(10) 105.4(10)
Pb1 Bi1 O3 1_5565 5_4545 92.6(10) 77.1(10) 105.4(10)
Pb1 Bi1 O3 1_5565 5_5445 93.5(10) 82.8(11) 105.6(10)
Pb1 Bi1 O3 1_5565 5_5545 93.5(10) 82.8(11) 105.6(10)
Pb1 Bi1 Pb1 1_5655 1_6555 89.9(3) 89.49(18) 90.1(4)
Pb1 Bi1 Pb1 1_5655 5_4445 124.8(4) 124.8(4) 124.9(5)
Pb1 Bi1 Pb1 1_5655 5_4545 55.1(3) 55.1(3) 55.1(3)
Pb1 Bi1 Pb1 1_5655 5_5455 124.8(4) 124.8(4) 124.9(5)
Pb1 Bi1 Pb1 1_5655 5_5555 55.1(3) 55.1(3) 55.1(3)
Pb1 Bi1 Bi1 1_5655 1_4555 89.9(3) 89.49(18) 90.2(4)
Pb1 Bi1 Bi1 1_5655 1_5455 179.8(6) 179.2(5) 180.0(5)
Pb1 Bi1 Bi1 1_5655 1_5545 90.1(3) 90.0(3) 90.70(17)
Pb1 Bi1 Bi1 1_5655 1_5565 90.1(3) 90.0(3) 90.70(17)
Pb1 Bi1 Bi1 1_5655 1_5655 0.2(5) 0.0(5) 0.8(4)
Pb1 Bi1 Bi1 1_5655 1_6555 89.9(3) 89.49(18) 90.2(4)
Pb1 Bi1 Bi1 1_5655 5_4445 124.8(4) 124.8(4) 124.9(6)
Pb1 Bi1 Bi1 1_5655 5_4545 55.1(3) 55.1(3) 55.1(3)
Pb1 Bi1 Bi1 1_5655 5_5455 124.8(4) 124.8(4) 124.9(6)
Pb1 Bi1 Bi1 1_5655 5_5555 55.1(3) 55.1(3) 55.1(3)
Pb1 Bi1 O1 1_5655 1_5445 120.9(5) 120.0(4) 122.9(7)
Pb1 Bi1 O1 1_5655 1_5465 120.9(5) 120.0(4) 122.9(7)
Pb1 Bi1 O1 1_5655 1_5545 58.5(4) 57.1(5) 59.1(3)
Pb1 Bi1 O1 1_5655 1_5565 58.5(4) 57.1(5) 59.1(3)
Pb1 Bi1 O1 1_5655 5_4445 90.0(3) 89.9(4) 90.09(17)
Pb1 Bi1 O1 1_5655 5_4455 90.0(3) 89.16(18) 90.80(18)
Pb1 Bi1 O1 1_5655 5_5445 90.0(3) 89.16(18) 90.80(18)
Pb1 Bi1 O1 1_5655 5_5455 90.0(3) 89.9(4) 90.09(17)
Pb1 Bi1 O2 1_5655 1_4545 89.8(2) 89.70(17) 89.9(3)
Pb1 Bi1 O2 1_5655 1_5565 89.8(2) 89.70(17) 89.9(3)
Pb1 Bi1 O2 1_5655 5_4445 135.4(12) 123.8(9) 142.7(14)
Pb1 Bi1 O2 1_5655 5_4455 135.4(12) 123.8(9) 142.7(14)
Pb1 Bi1 O2 1_5655 5_4545 44.8(11) 38.4(14) 56.1(7)
Pb1 Bi1 O2 1_5655 5_4555 44.8(11) 38.4(14) 56.1(7)
Pb1 Bi1 O3 1_5655 5_4445 134.3(5) 132.8(7) 137.0(4)
Pb1 Bi1 O3 1_5655 5_4545 45.5(3) 41.6(3) 47.3(4)
Pb1 Bi1 O3 1_5655 5_5445 134.3(5) 132.8(7) 137.0(4)
Pb1 Bi1 O3 1_5655 5_5545 45.5(3) 41.6(3) 47.3(4)
Pb1 Bi1 Pb1 1_6555 5_4445 128.3(5) 127.2(6) 130.8(5)
Pb1 Bi1 Pb1 1_6555 5_4545 128.3(5) 127.2(6) 130.8(5)
Pb1 Bi1 Pb1 1_6555 5_5445 62.3(5) 62.3(5) 62.3(5)
Pb1 Bi1 Pb1 1_6555 5_5545 62.3(5) 62.3(5) 62.3(5)
Pb1 Bi1 Bi1 1_6555 1_4555 177.6(6) 174.4(7) 180.0(5)
Pb1 Bi1 Bi1 1_6555 1_5455 90.0(5) 90.0(4) 90.0(4)
Pb1 Bi1 Bi1 1_6555 1_5545 87.9(5) 81.4(5) 93.6(6)
Pb1 Bi1 Bi1 1_6555 1_5565 92.7(5) 91.6(6) 95.3(6)
Pb1 Bi1 Bi1 1_6555 1_5655 90.0(5) 90.0(4) 90.0(4)
Pb1 Bi1 Bi1 1_6555 1_6555 0.1(5) 0.0(5) 0.8(4)
Pb1 Bi1 Bi1 1_6555 5_4445 127.8(5) 126.6(6) 130.6(5)
Pb1 Bi1 Bi1 1_6555 5_4545 127.8(5) 126.6(6) 130.6(5)
Pb1 Bi1 Bi1 1_6555 5_5445 61.9(5) 61.9(5) 61.9(5)
Pb1 Bi1 Bi1 1_6555 5_5455 49.0(5) 49.0(5) 49.0(5)
Pb1 Bi1 Bi1 1_6555 5_5545 61.9(5) 61.9(5) 61.9(5)
Pb1 Bi1 Bi1 1_6555 5_5555 49.0(5) 49.0(5) 49.0(5)
Pb1 Bi1 O1 1_6555 1_5445 88.3(10) 86.0(10) 93.8(9)
Pb1 Bi1 O1 1_6555 1_5455 97.1(13) 97.1(13) 97.1(13)
Pb1 Bi1 O1 1_6555 1_5465 89.9(10) 88.9(9) 90.4(10)
Pb1 Bi1 O1 1_6555 1_5545 88.3(10) 86.0(10) 93.8(9)
Pb1 Bi1 O1 1_6555 . 97.1(13) 97.1(13) 97.1(13)
Pb1 Bi1 O1 1_6555 1_5565 89.9(10) 88.9(9) 90.4(10)
Pb1 Bi1 O1 1_6555 5_4445 129.7(11) 116.0(10) 145.4(13)
Pb1 Bi1 O1 1_6555 5_4455 137.3(11) 118.6(10) 147.1(12)
Pb1 Bi1 O1 1_6555 5_5445 46.6(10) 37.7(11) 61.3(9)
Pb1 Bi1 O1 1_6555 5_5455 48.8(10) 40.2(12) 58.7(9)
Pb1 Bi1 O2 1_6555 1_4545 119.8(16) 116.9(16) 124.2(15)
Pb1 Bi1 O2 1_6555 1_5545 63.6(16) 63.6(16) 63.6(16)
Pb1 Bi1 O2 1_6555 5_4445 89(2) 85.7(18) 90(2)
Pb1 Bi1 O2 1_6555 5_4455 92(2) 91(2) 95(2)
Pb1 Bi1 O2 1_6555 5_4545 89(2) 85.7(18) 90(2)
Pb1 Bi1 O2 1_6555 5_4555 92(2) 91(2) 95(2)
Pb1 Bi1 O3 1_6555 1_5545 101.9(9) 101.9(9) 101.9(9)
Pb1 Bi1 O3 1_6555 5_4445 134.2(3) 131.7(5) 136.6(3)
Pb1 Bi1 O3 1_6555 5_4545 134.2(3) 131.7(5) 136.6(3)
Pb1 Bi1 O3 1_6555 5_5445 45.7(3) 43.2(3) 51.2(3)
Pb1 Bi1 O3 1_6555 5_5545 45.7(3) 43.2(3) 51.2(3)
Pb1 Bi1 Pb1 5_4445 5_4545 69.7(4) 69.7(3) 69.8(3)
Pb1 Bi1 Pb1 5_4445 5_5445 68.5(6) 68.5(6) 68.5(6)
Pb1 Bi1 Pb1 5_4445 5_5545 113.9(6) 113.9(6) 113.9(6)
Pb1 Bi1 Bi1 5_4445 1_5455 55.1(4) 55.1(4) 55.2(4)
Pb1 Bi1 Bi1 5_4445 1_5655 124.9(5) 124.8(5) 124.9(5)
Pb1 Bi1 Bi1 5_4445 1_6555 128.4(4) 127.2(5) 131.0(4)
Pb1 Bi1 Bi1 5_4445 5_4445 0.6(5) 0.3(6) 0.9(5)
Pb1 Bi1 Bi1 5_4445 5_4545 69.7(4) 69.7(3) 69.8(3)
Pb1 Bi1 Bi1 5_4445 5_5445 68.9(6) 68.9(6) 68.9(6)
Pb1 Bi1 Bi1 5_4445 5_5545 113.5(6) 113.5(6) 113.5(6)
Pb1 Bi1 O1 5_4445 1_5445 41.3(9) 40.4(9) 43.1(9)
Pb1 Bi1 O1 5_4445 1_5455 76.6(10) 76.6(10) 76.6(10)
Pb1 Bi1 O1 5_4445 1_5545 80.3(6) 79.8(6) 81.6(7)
Pb1 Bi1 O1 5_4445 . 132.0(14) 132.0(14) 132.0(14)
Pb1 Bi1 O1 5_4445 5_4455 77.4(8) 75.7(8) 78.2(8)
Pb1 Bi1 O1 5_4445 5_5445 81.5(7) 80.8(7) 82.8(8)
Pb1 Bi1 O1 5_4445 5_5455 145.0(2) 144.5(3) 145.16(17)
Pb1 Bi1 O2 5_4445 1_4545 39.3(7) 39.0(7) 40.0(7)
Pb1 Bi1 O2 5_4445 1_5545 81.2(13) 81.2(13) 81.2(13)
Pb1 Bi1 O2 5_4445 5_4455 80.5(18) 79.0(18) 81.4(18)
Pb1 Bi1 O2 5_4445 5_4555 137(2) 135(2) 139(3)
Pb1 Bi1 O3 5_4445 1_5545 51.7(6) 51.7(6) 51.7(6)
Pb1 Bi1 O3 5_4445 5_5445 83.2(6) 81.2(6) 85.5(6)
Pb1 Bi1 O3 5_4445 5_5545 134.3(11) 133.7(11) 135.9(11)
Pb1 Bi1 Pb1 5_4455 5_4555 84.7(4) 84.7(4) 84.7(4)
Pb1 Bi1 Pb1 5_4455 5_5455 68.5(4) 68.5(4) 68.5(4)
Pb1 Bi1 Pb1 5_4455 5_5555 113.9(5) 113.9(5) 113.9(5)
Pb1 Bi1 Bi1 5_4455 1_4555 62.4(3) 62.4(3) 62.4(3)
Pb1 Bi1 Bi1 5_4455 1_5455 47.7(4) 47.7(4) 47.7(4)
Pb1 Bi1 Bi1 5_4455 1_5655 132.3(5) 132.3(5) 132.3(5)
Pb1 Bi1 Bi1 5_4455 5_4455 0.8(4) 0.8(4) 0.8(4)
Pb1 Bi1 Bi1 5_4455 5_4555 83.9(4) 83.9(4) 83.9(4)
Pb1 Bi1 Bi1 5_4455 5_5455 68.3(4) 68.3(4) 68.3(4)
Pb1 Bi1 Bi1 5_4455 5_5555 113.7(5) 113.7(5) 113.7(5)
Pb1 Bi1 O1 5_4455 1_5455 82.7(9) 82.7(9) 82.7(9)
Pb1 Bi1 O1 5_4455 1_5465 36.2(8) 36.2(8) 36.2(8)
Pb1 Bi1 O1 5_4455 . 159.1(14) 159.1(14) 159.1(14)
Pb1 Bi1 O1 5_4455 1_5565 83.5(6) 83.5(6) 83.5(6)
Pb1 Bi1 O1 5_4455 5_4445 93.5(10) 93.5(10) 93.5(10)
Pb1 Bi1 O1 5_4455 5_5445 135.4(3) 135.4(3) 135.4(3)
Pb1 Bi1 O2 5_4455 1_4565 43.8(4) 43.8(4) 43.8(4)
Pb1 Bi1 O2 5_4455 1_5565 77.7(11) 77.7(11) 77.7(11)
Pb1 Bi1 O3 5_4455 . 62.2(5) 62.2(5) 62.2(5)
Pb1 Bi1 Pb1 5_4545 5_5445 113.9(6) 113.9(6) 113.9(6)
Pb1 Bi1 Pb1 5_4545 5_5545 68.5(6) 68.5(6) 68.5(6)
Pb1 Bi1 Bi1 5_4545 1_5455 124.9(5) 124.8(5) 124.9(5)
Pb1 Bi1 Bi1 5_4545 1_5655 55.1(4) 55.1(4) 55.2(4)
Pb1 Bi1 Bi1 5_4545 1_6555 128.4(4) 127.2(5) 131.0(4)
Pb1 Bi1 Bi1 5_4545 5_4445 69.7(4) 69.7(3) 69.8(3)
Pb1 Bi1 Bi1 5_4545 5_4545 0.6(5) 0.3(6) 0.9(5)
Pb1 Bi1 Bi1 5_4545 5_5445 113.5(6) 113.5(6) 113.5(6)
Pb1 Bi1 Bi1 5_4545 5_5545 68.9(6) 68.9(6) 68.9(6)
Pb1 Bi1 O1 5_4545 1_5445 80.3(6) 79.8(6) 81.6(7)
Pb1 Bi1 O1 5_4545 1_5455 132.0(14) 132.0(14) 132.0(14)
Pb1 Bi1 O1 5_4545 1_5545 41.3(9) 40.4(9) 43.1(9)
Pb1 Bi1 O1 5_4545 . 76.6(10) 76.6(10) 76.6(10)
Pb1 Bi1 O1 5_4545 5_4455 77.4(8) 75.7(8) 78.2(8)
Pb1 Bi1 O1 5_4545 5_5445 81.5(7) 80.8(7) 82.8(8)
Pb1 Bi1 O1 5_4545 5_5455 145.0(2) 144.5(3) 145.16(17)
Pb1 Bi1 O2 5_4545 1_4545 39.3(7) 39.0(7) 40.0(7)
Pb1 Bi1 O2 5_4545 1_5545 81.2(13) 81.2(13) 81.2(13)
Pb1 Bi1 O2 5_4545 5_4455 137(2) 135(2) 139(3)
Pb1 Bi1 O2 5_4545 5_4555 80.5(18) 79.0(18) 81.4(18)
Pb1 Bi1 O3 5_4545 1_5545 51.7(6) 51.7(6) 51.7(6)
Pb1 Bi1 O3 5_4545 5_5445 134.3(11) 133.7(11) 135.9(11)
Pb1 Bi1 O3 5_4545 5_5545 83.2(6) 81.2(6) 85.5(6)
Pb1 Bi1 Pb1 5_4555 5_5455 113.9(5) 113.9(5) 113.9(5)
Pb1 Bi1 Pb1 5_4555 5_5555 68.5(4) 68.5(4) 68.5(4)
Pb1 Bi1 Bi1 5_4555 1_4555 62.4(3) 62.4(3) 62.4(3)
Pb1 Bi1 Bi1 5_4555 1_5455 132.3(5) 132.3(5) 132.3(5)
Pb1 Bi1 Bi1 5_4555 1_5655 47.7(4) 47.7(4) 47.7(4)
Pb1 Bi1 Bi1 5_4555 5_4455 83.9(4) 83.9(4) 83.9(4)
Pb1 Bi1 Bi1 5_4555 5_4555 0.8(4) 0.8(4) 0.8(4)
Pb1 Bi1 Bi1 5_4555 5_5455 113.7(5) 113.7(5) 113.7(5)
Pb1 Bi1 Bi1 5_4555 5_5555 68.3(4) 68.3(4) 68.3(4)
Pb1 Bi1 O1 5_4555 1_5455 159.1(14) 159.1(14) 159.1(14)
Pb1 Bi1 O1 5_4555 1_5465 83.5(6) 83.5(6) 83.5(6)
Pb1 Bi1 O1 5_4555 . 82.7(9) 82.7(9) 82.7(9)
Pb1 Bi1 O1 5_4555 1_5565 36.2(8) 36.2(8) 36.2(8)
Pb1 Bi1 O1 5_4555 5_4445 93.5(10) 93.5(10) 93.5(10)
Pb1 Bi1 O1 5_4555 5_5445 135.4(3) 135.4(3) 135.4(3)
Pb1 Bi1 O2 5_4555 1_4565 43.8(4) 43.8(4) 43.8(4)
Pb1 Bi1 O2 5_4555 1_5565 77.7(11) 77.7(11) 77.7(11)
Pb1 Bi1 O3 5_4555 . 62.2(5) 62.2(5) 62.2(5)
Pb1 Bi1 Pb1 5_5445 5_5545 84.7(4) 84.7(4) 84.7(4)
Pb1 Bi1 Bi1 5_5445 1_5455 47.7(4) 47.7(4) 47.7(4)
Pb1 Bi1 Bi1 5_5445 1_5655 132.3(5) 132.3(5) 132.3(5)
Pb1 Bi1 Bi1 5_5445 1_6555 62.4(3) 62.4(3) 62.4(3)
Pb1 Bi1 Bi1 5_5445 5_4445 68.3(4) 68.3(4) 68.3(4)
Pb1 Bi1 Bi1 5_5445 5_4545 113.7(5) 113.7(5) 113.7(5)
Pb1 Bi1 Bi1 5_5445 5_5445 0.8(4) 0.8(4) 0.8(4)
Pb1 Bi1 Bi1 5_5445 5_5545 83.9(4) 83.9(4) 83.9(4)
Pb1 Bi1 O1 5_5445 1_5445 36.2(8) 36.2(8) 36.2(8)
Pb1 Bi1 O1 5_5445 1_5455 82.7(9) 82.7(9) 82.7(9)
Pb1 Bi1 O1 5_5445 1_5545 83.5(6) 83.5(6) 83.5(6)
Pb1 Bi1 O1 5_5445 . 159.1(14) 159.1(14) 159.1(14)
Pb1 Bi1 O1 5_5445 5_4455 135.4(3) 135.4(3) 135.4(3)
Pb1 Bi1 O1 5_5445 5_5455 93.5(10) 93.5(10) 93.5(10)
Pb1 Bi1 O2 5_5445 1_4545 77.7(11) 77.7(11) 77.7(11)
Pb1 Bi1 O2 5_5445 1_5545 43.8(4) 43.8(4) 43.8(4)
Pb1 Bi1 O3 5_5445 1_5545 62.2(5) 62.2(5) 62.2(5)
Pb1 Bi1 Pb1 5_5455 5_5555 69.7(4) 69.7(3) 69.8(3)
Pb1 Bi1 Bi1 5_5455 1_4555 128.4(4) 127.2(5) 131.0(4)
Pb1 Bi1 Bi1 5_5455 1_5455 55.1(4) 55.1(4) 55.2(4)
Pb1 Bi1 Bi1 5_5455 1_5655 124.9(5) 124.8(5) 124.9(5)
Pb1 Bi1 Bi1 5_5455 5_4455 68.9(6) 68.9(6) 68.9(6)
Pb1 Bi1 Bi1 5_5455 5_4555 113.5(6) 113.5(6) 113.5(6)
Pb1 Bi1 Bi1 5_5455 5_5455 0.6(5) 0.3(6) 0.9(5)
Pb1 Bi1 Bi1 5_5455 5_5555 69.7(4) 69.7(3) 69.8(3)
Pb1 Bi1 O1 5_5455 1_5455 76.6(10) 76.6(10) 76.6(10)
Pb1 Bi1 O1 5_5455 1_5465 41.3(9) 40.4(9) 43.1(9)
Pb1 Bi1 O1 5_5455 . 132.0(14) 132.0(14) 132.0(14)
Pb1 Bi1 O1 5_5455 1_5565 80.3(6) 79.8(6) 81.6(7)
Pb1 Bi1 O1 5_5455 5_4445 145.0(2) 144.5(3) 145.16(17)
Pb1 Bi1 O1 5_5455 5_4455 81.5(7) 80.8(7) 82.8(8)
Pb1 Bi1 O1 5_5455 5_5445 77.4(8) 75.7(8) 78.2(8)
Pb1 Bi1 O2 5_5455 1_4565 81.2(13) 81.2(13) 81.2(13)
Pb1 Bi1 O2 5_5455 1_5565 39.3(7) 39.0(7) 40.0(7)
Pb1 Bi1 O2 5_5455 5_4445 80.5(18) 79.0(18) 81.4(18)
Pb1 Bi1 O2 5_5455 5_4545 137(2) 135(2) 139(3)
Pb1 Bi1 O3 5_5455 . 51.7(6) 51.7(6) 51.7(6)
Pb1 Bi1 O3 5_5455 5_4445 83.2(6) 81.2(6) 85.5(6)
Pb1 Bi1 O3 5_5455 5_4545 134.3(11) 133.7(11) 135.9(11)
Pb1 Bi1 Bi1 5_5545 1_5455 132.3(5) 132.3(5) 132.3(5)
Pb1 Bi1 Bi1 5_5545 1_5655 47.7(4) 47.7(4) 47.7(4)
Pb1 Bi1 Bi1 5_5545 1_6555 62.4(3) 62.4(3) 62.4(3)
Pb1 Bi1 Bi1 5_5545 5_4445 113.7(5) 113.7(5) 113.7(5)
Pb1 Bi1 Bi1 5_5545 5_4545 68.3(4) 68.3(4) 68.3(4)
Pb1 Bi1 Bi1 5_5545 5_5445 83.9(4) 83.9(4) 83.9(4)
Pb1 Bi1 Bi1 5_5545 5_5545 0.8(4) 0.8(4) 0.8(4)
Pb1 Bi1 O1 5_5545 1_5445 83.5(6) 83.5(6) 83.5(6)
Pb1 Bi1 O1 5_5545 1_5455 159.1(14) 159.1(14) 159.1(14)
Pb1 Bi1 O1 5_5545 1_5545 36.2(8) 36.2(8) 36.2(8)
Pb1 Bi1 O1 5_5545 . 82.7(9) 82.7(9) 82.7(9)
Pb1 Bi1 O1 5_5545 5_4455 135.4(3) 135.4(3) 135.4(3)
Pb1 Bi1 O1 5_5545 5_5455 93.5(10) 93.5(10) 93.5(10)
Pb1 Bi1 O2 5_5545 1_4545 77.7(11) 77.7(11) 77.7(11)
Pb1 Bi1 O2 5_5545 1_5545 43.8(4) 43.8(4) 43.8(4)
Pb1 Bi1 O3 5_5545 1_5545 62.2(5) 62.2(5) 62.2(5)
Pb1 Bi1 Bi1 5_5555 1_4555 128.4(4) 127.2(5) 131.0(4)
Pb1 Bi1 Bi1 5_5555 1_5455 124.9(5) 124.8(5) 124.9(5)
Pb1 Bi1 Bi1 5_5555 1_5655 55.1(4) 55.1(4) 55.2(4)
Pb1 Bi1 Bi1 5_5555 5_4455 113.5(6) 113.5(6) 113.5(6)
Pb1 Bi1 Bi1 5_5555 5_4555 68.9(6) 68.9(6) 68.9(6)
Pb1 Bi1 Bi1 5_5555 5_5455 69.7(4) 69.7(3) 69.8(3)
Pb1 Bi1 Bi1 5_5555 5_5555 0.6(5) 0.3(6) 0.9(5)
Pb1 Bi1 O1 5_5555 1_5455 132.0(14) 132.0(14) 132.0(14)
Pb1 Bi1 O1 5_5555 1_5465 80.3(6) 79.8(6) 81.6(7)
Pb1 Bi1 O1 5_5555 . 76.6(10) 76.6(10) 76.6(10)
Pb1 Bi1 O1 5_5555 1_5565 41.3(9) 40.4(9) 43.1(9)
Pb1 Bi1 O1 5_5555 5_4445 145.0(2) 144.5(3) 145.16(17)
Pb1 Bi1 O1 5_5555 5_4455 81.5(7) 80.8(7) 82.8(8)
Pb1 Bi1 O1 5_5555 5_5445 77.4(8) 75.7(8) 78.2(8)
Pb1 Bi1 O2 5_5555 1_4565 81.2(13) 81.2(13) 81.2(13)
Pb1 Bi1 O2 5_5555 1_5565 39.3(7) 39.0(7) 40.0(7)
Pb1 Bi1 O2 5_5555 5_4445 137(2) 135(2) 139(3)
Pb1 Bi1 O2 5_5555 5_4545 80.5(18) 79.0(18) 81.4(18)
Pb1 Bi1 O3 5_5555 . 51.7(6) 51.7(6) 51.7(6)
Pb1 Bi1 O3 5_5555 5_4445 134.3(11) 133.7(11) 135.9(11)
Pb1 Bi1 O3 5_5555 5_4545 83.2(6) 81.2(6) 85.5(6)
Bi1 Bi1 Bi1 1_4555 1_5455 90.0(5) 90.0(5) 90.0(5)
Bi1 Bi1 Bi1 1_4555 1_5545 92.7(5) 91.6(6) 95.5(6)
Bi1 Bi1 Bi1 1_4555 1_5565 87.8(5) 81.3(5) 92.8(6)
Bi1 Bi1 Bi1 1_4555 1_5655 90.0(5) 90.0(5) 90.0(5)
Bi1 Bi1 Bi1 1_4555 1_6555 177.7(6) 175.2(7) 180.0(5)
Bi1 Bi1 Bi1 1_4555 5_4445 49.6(5) 49.6(5) 49.6(5)
Bi1 Bi1 Bi1 1_4555 5_4455 62.1(5) 62.1(5) 62.1(5)
Bi1 Bi1 Bi1 1_4555 5_4545 49.6(5) 49.6(5) 49.6(5)
Bi1 Bi1 Bi1 1_4555 5_4555 62.1(5) 62.1(5) 62.1(5)
Bi1 Bi1 Bi1 1_4555 5_5455 127.8(5) 126.6(6) 130.7(5)
Bi1 Bi1 Bi1 1_4555 5_5555 127.8(5) 126.6(6) 130.7(5)
Bi1 Bi1 O1 1_4555 1_5445 90.4(10) 89.6(9) 90.8(10)
Bi1 Bi1 O1 1_4555 1_5455 96.9(13) 96.9(13) 96.9(13)
Bi1 Bi1 O1 1_4555 1_5465 88.3(10) 86.0(10) 94.0(9)
Bi1 Bi1 O1 1_4555 1_5545 90.4(10) 89.6(9) 90.8(10)
Bi1 Bi1 O1 1_4555 . 96.9(13) 96.9(13) 96.9(13)
Bi1 Bi1 O1 1_4555 1_5565 88.3(10) 86.0(10) 94.0(9)
Bi1 Bi1 O1 1_4555 5_4445 48.9(10) 40.2(12) 59.3(9)
Bi1 Bi1 O1 1_4555 5_4455 46.5(10) 37.3(11) 61.5(9)
Bi1 Bi1 O1 1_4555 5_5445 137.4(11) 119.4(10) 147.1(12)
Bi1 Bi1 O1 1_4555 5_5455 129.6(11) 115.9(10) 144.6(13)
Bi1 Bi1 O2 1_4555 1_4565 63.9(16) 63.9(16) 63.9(16)
Bi1 Bi1 O2 1_4555 1_5565 119.9(16) 116.9(16) 124.4(15)
Bi1 Bi1 O2 1_4555 5_4445 92(2) 91(2) 95(2)
Bi1 Bi1 O2 1_4555 5_4455 89(2) 85.7(18) 90(2)
Bi1 Bi1 O2 1_4555 5_4545 92(2) 91(2) 95(2)
Bi1 Bi1 O2 1_4555 5_4555 89(2) 85.7(18) 90(2)
Bi1 Bi1 O3 1_4555 . 102.1(9) 102.1(9) 102.1(9)
Bi1 Bi1 O3 1_4555 5_4445 45.7(3) 43.2(3) 51.3(3)
Bi1 Bi1 O3 1_4555 5_4545 45.7(3) 43.2(3) 51.3(3)
Bi1 Bi1 O3 1_4555 5_5445 134.2(3) 131.7(5) 136.6(3)
Bi1 Bi1 O3 1_4555 5_5545 134.2(3) 131.7(5) 136.6(3)
Bi1 Bi1 Bi1 1_5455 1_5545 90.0(3) 90.0(5) 90.0(5)
Bi1 Bi1 Bi1 1_5455 1_5565 90.0(3) 90.00(15) 90.00(15)
Bi1 Bi1 Bi1 1_5455 1_5655 180.0(5) 180.0(5) 180.0(5)
Bi1 Bi1 Bi1 1_5455 1_6555 90.0(3) 90.00(17) 90.00(17)
Bi1 Bi1 Bi1 1_5455 5_4445 55.1(3) 55.1(3) 55.2(3)
Bi1 Bi1 Bi1 1_5455 5_4455 48.5(4) 48.5(4) 48.5(4)
Bi1 Bi1 Bi1 1_5455 5_4545 124.9(4) 124.8(4) 124.9(3)
Bi1 Bi1 Bi1 1_5455 5_4555 131.5(4) 131.5(4) 131.5(4)
Bi1 Bi1 Bi1 1_5455 5_5445 48.5(4) 48.5(4) 48.5(4)
Bi1 Bi1 Bi1 1_5455 5_5455 55.1(3) 55.1(3) 55.2(3)
Bi1 Bi1 Bi1 1_5455 5_5545 131.5(4) 131.5(4) 131.5(4)
Bi1 Bi1 Bi1 1_5455 5_5555 124.9(4) 124.8(4) 124.9(3)
Bi1 Bi1 O1 1_5455 1_5445 58.8(4) 57.1(5) 59.5(3)
Bi1 Bi1 O1 1_5455 1_5455 38.0(7) 38.0(7) 38.0(7)
Bi1 Bi1 O1 1_5455 1_5465 58.8(4) 57.1(5) 59.5(3)
Bi1 Bi1 O1 1_5455 1_5545 121.2(5) 120.5(4) 122.9(7)
Bi1 Bi1 O1 1_5455 . 142.0(7) 142.0(7) 142.0(7)
Bi1 Bi1 O1 1_5455 1_5565 121.2(5) 120.5(4) 122.9(7)
Bi1 Bi1 O1 1_5455 5_4445 90.0(3) 90.0(4) 90.0(4)
Bi1 Bi1 O1 1_5455 5_4455 90.0(3) 90.00(17) 90.00(17)
Bi1 Bi1 O1 1_5455 5_5445 90.0(3) 90.00(18) 90.00(18)
Bi1 Bi1 O1 1_5455 5_5455 90.0(3) 90.00(15) 90.00(15)
Bi1 Bi1 O2 1_5455 1_4545 90.0(2) 90.00(15) 90.00(15)
Bi1 Bi1 O2 1_5455 1_4565 90.00(16) 90.00(16) 90.00(16)
Bi1 Bi1 O2 1_5455 1_5545 90.00(16) 90.00(16) 90.00(16)
Bi1 Bi1 O2 1_5455 1_5565 90.0(2) 90.0(3) 90.0(3)
Bi1 Bi1 O2 1_5455 5_4445 44.7(11) 38.0(14) 56.1(7)
Bi1 Bi1 O2 1_5455 5_4455 44.7(11) 38.0(14) 56.1(7)
Bi1 Bi1 O2 1_5455 5_4545 135.3(12) 123.9(9) 142.0(14)
Bi1 Bi1 O2 1_5455 5_4555 135.3(12) 123.9(9) 142.0(14)
Bi1 Bi1 O3 1_5455 1_5545 90.00(15) 90.00(15) 90.00(15)
Bi1 Bi1 O3 1_5455 . 90.00(15) 90.00(15) 90.00(15)
Bi1 Bi1 O3 1_5455 5_4445 45.6(3) 42.3(3) 47.2(4)
Bi1 Bi1 O3 1_5455 5_4545 134.4(5) 132.8(7) 137.7(4)
Bi1 Bi1 O3 1_5455 5_5445 45.6(3) 42.3(3) 47.2(4)
Bi1 Bi1 O3 1_5455 5_5545 134.4(5) 132.8(7) 137.7(4)
Bi1 Bi1 Bi1 1_5545 1_5565 176.1(6) 173.0(8) 180.0(5)
Bi1 Bi1 Bi1 1_5545 1_5655 90.0(4) 90.0(5) 90.0(5)
Bi1 Bi1 Bi1 1_5545 1_6555 87.8(5) 81.3(6) 92.8(6)
Bi1 Bi1 Bi1 1_5545 5_4455 126.7(5) 126.7(5) 126.7(5)
Bi1 Bi1 Bi1 1_5545 5_4555 126.7(5) 126.7(5) 126.7(5)
Bi1 Bi1 Bi1 1_5545 5_5455 121.6(5) 118.5(5) 122.9(6)
Bi1 Bi1 Bi1 1_5545 5_5555 121.6(5) 118.5(5) 122.9(6)
Bi1 Bi1 O1 1_5545 1_5455 52.6(7) 52.6(7) 52.6(7)
Bi1 Bi1 O1 1_5545 1_5465 148.7(3) 147.0(4) 149.5(3)
Bi1 Bi1 O1 1_5545 . 52.6(7) 52.6(7) 52.6(7)
Bi1 Bi1 O1 1_5545 1_5565 148.7(3) 147.0(4) 149.5(3)
Bi1 Bi1 O1 1_5545 5_4445 45.2(11) 36.9(9) 51.8(12)
Bi1 Bi1 O1 1_5545 5_4455 140.5(10) 133.1(12) 153.4(9)
Bi1 Bi1 O1 1_5545 5_5445 46.8(10) 29.6(9) 55.1(10)
Bi1 Bi1 O1 1_5545 5_5455 139.8(11) 123.0(13) 152.1(10)
Bi1 Bi1 O2 1_5545 1_4565 155.6(16) 155.6(16) 155.6(16)
Bi1 Bi1 O2 1_5545 1_5565 148.1(16) 143.9(15) 151.0(16)
Bi1 Bi1 O2 1_5545 5_4445 45.4(11) 34.0(7) 52.3(13)
Bi1 Bi1 O2 1_5545 5_4455 137.3(10) 129.8(13) 146.0(7)
Bi1 Bi1 O2 1_5545 5_4545 45.4(11) 34.0(7) 52.3(13)
Bi1 Bi1 O2 1_5545 5_4555 137.3(10) 129.8(13) 146.0(7)
Bi1 Bi1 O3 1_5545 . 166.2(9) 166.2(9) 166.2(9)
Bi1 Bi1 O3 1_5545 5_4445 93.4(10) 82.5(11) 105.6(10)
Bi1 Bi1 O3 1_5545 5_4545 93.4(10) 82.5(11) 105.6(10)
Bi1 Bi1 O3 1_5545 5_5445 92.7(10) 77.4(10) 105.4(10)
Bi1 Bi1 O3 1_5545 5_5545 92.7(10) 77.4(10) 105.4(10)
Bi1 Bi1 Bi1 1_5565 1_5655 90.0(4) 90.0(4) 90.0(4)
Bi1 Bi1 Bi1 1_5565 1_6555 92.7(5) 91.6(5) 95.5(6)
Bi1 Bi1 Bi1 1_5565 5_4445 121.6(5) 118.5(5) 122.9(6)
Bi1 Bi1 Bi1 1_5565 5_4545 121.6(5) 118.5(5) 122.9(6)
Bi1 Bi1 Bi1 1_5565 5_5445 126.7(5) 126.7(5) 126.7(5)
Bi1 Bi1 Bi1 1_5565 5_5545 126.7(5) 126.7(5) 126.7(5)
Bi1 Bi1 O1 1_5565 1_5445 148.7(3) 147.0(4) 149.5(3)
Bi1 Bi1 O1 1_5565 1_5455 52.6(7) 52.6(7) 52.6(7)
Bi1 Bi1 O1 1_5565 1_5545 148.7(3) 147.0(4) 149.5(3)
Bi1 Bi1 O1 1_5565 . 52.6(7) 52.6(7) 52.6(7)
Bi1 Bi1 O1 1_5565 5_4445 139.8(11) 123.0(13) 152.1(10)
Bi1 Bi1 O1 1_5565 5_4455 46.8(10) 29.6(9) 55.1(10)
Bi1 Bi1 O1 1_5565 5_5445 140.5(10) 133.1(12) 153.4(9)
Bi1 Bi1 O1 1_5565 5_5455 45.2(11) 36.9(9) 51.8(12)
Bi1 Bi1 O2 1_5565 1_4545 148.1(16) 143.9(15) 151.0(16)
Bi1 Bi1 O2 1_5565 1_5545 155.6(16) 155.6(16) 155.6(16)
Bi1 Bi1 O2 1_5565 5_4445 137.3(10) 129.8(13) 146.0(7)
Bi1 Bi1 O2 1_5565 5_4455 45.4(11) 34.0(7) 52.3(13)
Bi1 Bi1 O2 1_5565 5_4545 137.3(10) 129.8(13) 146.0(7)
Bi1 Bi1 O2 1_5565 5_4555 45.4(11) 34.0(7) 52.3(13)
Bi1 Bi1 O3 1_5565 1_5545 166.2(9) 166.2(9) 166.2(9)
Bi1 Bi1 O3 1_5565 5_4445 92.7(10) 77.4(10) 105.4(10)
Bi1 Bi1 O3 1_5565 5_4545 92.7(10) 77.4(10) 105.4(10)
Bi1 Bi1 O3 1_5565 5_5445 93.4(10) 82.5(11) 105.6(10)
Bi1 Bi1 O3 1_5565 5_5545 93.4(10) 82.5(11) 105.6(10)
Bi1 Bi1 Bi1 1_5655 1_6555 90.0(3) 90.00(17) 90.00(17)
Bi1 Bi1 Bi1 1_5655 5_4445 124.9(4) 124.8(4) 124.9(3)
Bi1 Bi1 Bi1 1_5655 5_4455 131.5(4) 131.5(4) 131.5(4)
Bi1 Bi1 Bi1 1_5655 5_4545 55.1(3) 55.1(3) 55.2(3)
Bi1 Bi1 Bi1 1_5655 5_4555 48.5(4) 48.5(4) 48.5(4)
Bi1 Bi1 Bi1 1_5655 5_5445 131.5(4) 131.5(4) 131.5(4)
Bi1 Bi1 Bi1 1_5655 5_5455 124.9(4) 124.8(4) 124.9(3)
Bi1 Bi1 Bi1 1_5655 5_5545 48.5(4) 48.5(4) 48.5(4)
Bi1 Bi1 Bi1 1_5655 5_5555 55.1(3) 55.1(3) 55.2(3)
Bi1 Bi1 O1 1_5655 1_5445 121.2(5) 120.5(4) 122.9(7)
Bi1 Bi1 O1 1_5655 1_5455 142.0(7) 142.0(7) 142.0(7)
Bi1 Bi1 O1 1_5655 1_5465 121.2(5) 120.5(4) 122.9(7)
Bi1 Bi1 O1 1_5655 1_5545 58.8(4) 57.1(5) 59.5(3)
Bi1 Bi1 O1 1_5655 . 38.0(7) 38.0(7) 38.0(7)
Bi1 Bi1 O1 1_5655 1_5565 58.8(4) 57.1(5) 59.5(3)
Bi1 Bi1 O1 1_5655 5_4445 90.0(3) 90.0(4) 90.0(4)
Bi1 Bi1 O1 1_5655 5_4455 90.0(3) 90.00(17) 90.00(17)
Bi1 Bi1 O1 1_5655 5_5445 90.0(3) 90.00(18) 90.00(18)
Bi1 Bi1 O1 1_5655 5_5455 90.0(3) 90.00(15) 90.00(15)
Bi1 Bi1 O2 1_5655 1_4545 90.0(2) 90.00(15) 90.00(15)
Bi1 Bi1 O2 1_5655 1_4565 90.00(16) 90.00(16) 90.00(16)
Bi1 Bi1 O2 1_5655 1_5545 90.00(16) 90.00(16) 90.00(16)
Bi1 Bi1 O2 1_5655 1_5565 90.0(2) 90.0(3) 90.0(3)
Bi1 Bi1 O2 1_5655 5_4445 135.3(12) 123.9(9) 142.0(14)
Bi1 Bi1 O2 1_5655 5_4455 135.3(12) 123.9(9) 142.0(14)
Bi1 Bi1 O2 1_5655 5_4545 44.7(11) 38.0(14) 56.1(7)
Bi1 Bi1 O2 1_5655 5_4555 44.7(11) 38.0(14) 56.1(7)
Bi1 Bi1 O3 1_5655 1_5545 90.00(15) 90.00(15) 90.00(15)
Bi1 Bi1 O3 1_5655 . 90.00(15) 90.00(15) 90.00(15)
Bi1 Bi1 O3 1_5655 5_4445 134.4(5) 132.8(7) 137.7(4)
Bi1 Bi1 O3 1_5655 5_4545 45.6(3) 42.3(3) 47.2(4)
Bi1 Bi1 O3 1_5655 5_5445 134.4(5) 132.8(7) 137.7(4)
Bi1 Bi1 O3 1_5655 5_5545 45.6(3) 42.3(3) 47.2(4)
Bi1 Bi1 Bi1 1_6555 5_4445 127.8(5) 126.6(6) 130.7(5)
Bi1 Bi1 Bi1 1_6555 5_4545 127.8(5) 126.6(6) 130.7(5)
Bi1 Bi1 Bi1 1_6555 5_5445 62.1(5) 62.1(5) 62.1(5)
Bi1 Bi1 Bi1 1_6555 5_5455 49.6(5) 49.6(5) 49.6(5)
Bi1 Bi1 Bi1 1_6555 5_5545 62.1(5) 62.1(5) 62.1(5)
Bi1 Bi1 Bi1 1_6555 5_5555 49.6(5) 49.6(5) 49.6(5)
Bi1 Bi1 O1 1_6555 1_5445 88.3(10) 86.0(10) 94.0(9)
Bi1 Bi1 O1 1_6555 1_5455 96.9(13) 96.9(13) 96.9(13)
Bi1 Bi1 O1 1_6555 1_5465 90.4(10) 89.6(9) 90.8(10)
Bi1 Bi1 O1 1_6555 1_5545 88.3(10) 86.0(10) 94.0(9)
Bi1 Bi1 O1 1_6555 . 96.9(13) 96.9(13) 96.9(13)
Bi1 Bi1 O1 1_6555 1_5565 90.4(10) 89.6(9) 90.8(10)
Bi1 Bi1 O1 1_6555 5_4445 129.6(11) 115.9(10) 144.6(13)
Bi1 Bi1 O1 1_6555 5_4455 137.4(11) 119.4(10) 147.1(12)
Bi1 Bi1 O1 1_6555 5_5445 46.5(10) 37.3(11) 61.5(9)
Bi1 Bi1 O1 1_6555 5_5455 48.9(10) 40.2(12) 59.3(9)
Bi1 Bi1 O2 1_6555 1_4545 119.9(16) 116.9(16) 124.4(15)
Bi1 Bi1 O2 1_6555 1_5545 63.9(16) 63.9(16) 63.9(16)
Bi1 Bi1 O2 1_6555 5_4445 89(2) 85.7(18) 90(2)
Bi1 Bi1 O2 1_6555 5_4455 92(2) 91(2) 95(2)
Bi1 Bi1 O2 1_6555 5_4545 89(2) 85.7(18) 90(2)
Bi1 Bi1 O2 1_6555 5_4555 92(2) 91(2) 95(2)
Bi1 Bi1 O3 1_6555 1_5545 102.1(9) 102.1(9) 102.1(9)
Bi1 Bi1 O3 1_6555 5_4445 134.2(3) 131.7(5) 136.6(3)
Bi1 Bi1 O3 1_6555 5_4545 134.2(3) 131.7(5) 136.6(3)
Bi1 Bi1 O3 1_6555 5_5445 45.7(3) 43.2(3) 51.3(3)
Bi1 Bi1 O3 1_6555 5_5545 45.7(3) 43.2(3) 51.3(3)
Bi1 Bi1 Bi1 5_4445 5_4545 69.7(4) 69.6(4) 69.8(3)
Bi1 Bi1 Bi1 5_4445 5_5445 68.7(6) 68.7(6) 68.7(6)
Bi1 Bi1 Bi1 5_4445 5_5545 113.2(6) 113.2(6) 113.2(6)
Bi1 Bi1 O1 5_4445 1_5445 41.0(9) 40.1(9) 43.1(9)
Bi1 Bi1 O1 5_4445 1_5455 76.7(10) 76.7(10) 76.7(10)
Bi1 Bi1 O1 5_4445 1_5545 80.2(6) 79.5(6) 81.9(7)
Bi1 Bi1 O1 5_4445 . 132.2(14) 132.2(14) 132.2(14)
Bi1 Bi1 O1 5_4445 5_4445 40.3(4) 40.3(4) 40.3(4)
Bi1 Bi1 O1 5_4445 5_4455 78.0(8) 75.9(8) 78.9(9)
Bi1 Bi1 O1 5_4445 5_5445 81.2(7) 80.3(7) 83.2(8)
Bi1 Bi1 O1 5_4445 5_5455 145.0(2) 144.6(3) 145.16(17)
Bi1 Bi1 O2 5_4445 1_4545 39.0(7) 38.7(6) 39.5(7)
Bi1 Bi1 O2 5_4445 1_5545 80.9(13) 80.9(13) 80.9(13)
Bi1 Bi1 O2 5_4445 5_4455 81.0(18) 79.2(18) 81.9(18)
Bi1 Bi1 O2 5_4445 5_4555 138(2) 136(2) 139(3)
Bi1 Bi1 O3 5_4445 1_5545 51.5(6) 51.5(6) 51.5(6)
Bi1 Bi1 O3 5_4445 5_4445 16.9(9) 16.9(9) 16.9(9)
Bi1 Bi1 O3 5_4445 5_4545 79.6(7) 79.6(7) 79.6(7)
Bi1 Bi1 O3 5_4445 5_5445 83.3(6) 81.0(6) 86.1(6)
Bi1 Bi1 O3 5_4445 5_5545 134.2(11) 133.2(11) 136.3(11)
Bi1 Bi1 Bi1 5_4455 5_4555 83.0(4) 83.0(4) 83.0(4)
Bi1 Bi1 Bi1 5_4455 5_5455 68.7(4) 68.7(4) 68.7(4)
Bi1 Bi1 Bi1 5_4455 5_5555 113.2(5) 113.2(5) 113.2(5)
Bi1 Bi1 O1 5_4455 1_5455 83.5(9) 83.5(9) 83.5(9)
Bi1 Bi1 O1 5_4455 1_5465 36.1(8) 36.1(8) 36.1(8)
Bi1 Bi1 O1 5_4455 . 158.7(13) 158.7(13) 158.7(13)
Bi1 Bi1 O1 5_4455 1_5565 82.8(6) 82.8(6) 82.8(6)
Bi1 Bi1 O1 5_4455 5_4445 93.6(10) 93.6(10) 93.6(10)
Bi1 Bi1 O1 5_4455 5_5445 136.1(3) 136.1(3) 136.1(3)
Bi1 Bi1 O2 5_4455 1_4565 43.0(4) 43.0(4) 43.0(4)
Bi1 Bi1 O2 5_4455 1_5565 77.4(11) 77.4(11) 77.4(11)
Bi1 Bi1 O3 5_4455 . 61.8(5) 61.8(5) 61.8(5)
Bi1 Bi1 Bi1 5_4545 5_5445 113.2(6) 113.2(6) 113.2(6)
Bi1 Bi1 Bi1 5_4545 5_5545 68.7(6) 68.7(6) 68.7(6)
Bi1 Bi1 O1 5_4545 1_5445 80.2(6) 79.5(6) 81.9(7)
Bi1 Bi1 O1 5_4545 1_5455 132.2(14) 132.2(14) 132.2(14)
Bi1 Bi1 O1 5_4545 1_5545 41.0(9) 40.1(9) 43.1(9)
Bi1 Bi1 O1 5_4545 . 76.7(10) 76.7(10) 76.7(10)
Bi1 Bi1 O1 5_4545 5_4445 40.3(4) 40.3(4) 40.3(4)
Bi1 Bi1 O1 5_4545 5_4455 78.0(8) 75.9(8) 78.9(9)
Bi1 Bi1 O1 5_4545 5_5445 81.2(7) 80.3(7) 83.2(8)
Bi1 Bi1 O1 5_4545 5_5455 145.0(2) 144.6(3) 145.16(17)
Bi1 Bi1 O2 5_4545 1_4545 39.0(7) 38.7(6) 39.5(7)
Bi1 Bi1 O2 5_4545 1_5545 80.9(13) 80.9(13) 80.9(13)
Bi1 Bi1 O2 5_4545 5_4455 138(2) 136(2) 139(3)
Bi1 Bi1 O2 5_4545 5_4555 81.0(18) 79.2(18) 81.9(18)
Bi1 Bi1 O3 5_4545 1_5545 51.5(6) 51.5(6) 51.5(6)
Bi1 Bi1 O3 5_4545 5_4445 79.6(7) 79.6(7) 79.6(7)
Bi1 Bi1 O3 5_4545 5_4545 16.9(9) 16.9(9) 16.9(9)
Bi1 Bi1 O3 5_4545 5_5445 134.2(11) 133.2(11) 136.3(11)
Bi1 Bi1 O3 5_4545 5_5545 83.3(6) 81.0(6) 86.1(6)
Bi1 Bi1 Bi1 5_4555 5_5455 113.2(5) 113.2(5) 113.2(5)
Bi1 Bi1 Bi1 5_4555 5_5555 68.7(4) 68.7(4) 68.7(4)
Bi1 Bi1 O1 5_4555 1_5455 158.7(13) 158.7(13) 158.7(13)
Bi1 Bi1 O1 5_4555 1_5465 82.8(6) 82.8(6) 82.8(6)
Bi1 Bi1 O1 5_4555 . 83.5(9) 83.5(9) 83.5(9)
Bi1 Bi1 O1 5_4555 1_5565 36.1(8) 36.1(8) 36.1(8)
Bi1 Bi1 O1 5_4555 5_4445 93.6(10) 93.6(10) 93.6(10)
Bi1 Bi1 O1 5_4555 5_5445 136.1(3) 136.1(3) 136.1(3)
Bi1 Bi1 O2 5_4555 1_4565 43.0(4) 43.0(4) 43.0(4)
Bi1 Bi1 O2 5_4555 1_5565 77.4(11) 77.4(11) 77.4(11)
Bi1 Bi1 O3 5_4555 . 61.8(5) 61.8(5) 61.8(5)
Bi1 Bi1 Bi1 5_5445 5_5545 83.0(4) 83.0(4) 83.0(4)
Bi1 Bi1 O1 5_5445 1_5445 36.1(8) 36.1(8) 36.1(8)
Bi1 Bi1 O1 5_5445 1_5455 83.5(9) 83.5(9) 83.5(9)
Bi1 Bi1 O1 5_5445 1_5545 82.8(6) 82.8(6) 82.8(6)
Bi1 Bi1 O1 5_5445 . 158.7(13) 158.7(13) 158.7(13)
Bi1 Bi1 O1 5_5445 5_4455 136.1(3) 136.1(3) 136.1(3)
Bi1 Bi1 O1 5_5445 5_5455 93.6(10) 93.6(10) 93.6(10)
Bi1 Bi1 O2 5_5445 1_4545 77.4(11) 77.4(11) 77.4(11)
Bi1 Bi1 O2 5_5445 1_5545 43.0(4) 43.0(4) 43.0(4)
Bi1 Bi1 O3 5_5445 1_5545 61.8(5) 61.8(5) 61.8(5)
Bi1 Bi1 Bi1 5_5455 5_5555 69.7(4) 69.6(4) 69.8(3)
Bi1 Bi1 O1 5_5455 1_5455 76.7(10) 76.7(10) 76.7(10)
Bi1 Bi1 O1 5_5455 1_5465 41.0(9) 40.1(9) 43.1(9)
Bi1 Bi1 O1 5_5455 . 132.2(14) 132.2(14) 132.2(14)
Bi1 Bi1 O1 5_5455 1_5565 80.2(6) 79.5(6) 81.9(7)
Bi1 Bi1 O1 5_5455 5_4445 145.0(2) 144.6(3) 145.16(17)
Bi1 Bi1 O1 5_5455 5_4455 81.2(7) 80.3(7) 83.2(8)
Bi1 Bi1 O1 5_5455 5_5445 78.0(8) 75.9(8) 78.9(9)
Bi1 Bi1 O1 5_5455 5_5455 40.3(4) 40.3(4) 40.3(4)
Bi1 Bi1 O2 5_5455 1_4565 80.9(13) 80.9(13) 80.9(13)
Bi1 Bi1 O2 5_5455 1_5565 39.0(7) 38.7(6) 39.5(7)
Bi1 Bi1 O2 5_5455 5_4445 81.0(18) 79.2(18) 81.9(18)
Bi1 Bi1 O2 5_5455 5_4545 138(2) 136(2) 139(3)
Bi1 Bi1 O3 5_5455 . 51.5(6) 51.5(6) 51.5(6)
Bi1 Bi1 O3 5_5455 5_4445 83.3(6) 81.0(6) 86.1(6)
Bi1 Bi1 O3 5_5455 5_4545 134.2(11) 133.2(11) 136.3(11)
Bi1 Bi1 O3 5_5455 5_5445 16.9(9) 16.9(9) 16.9(9)
Bi1 Bi1 O3 5_5455 5_5545 79.6(7) 79.6(7) 79.6(7)
Bi1 Bi1 O1 5_5545 1_5445 82.8(6) 82.8(6) 82.8(6)
Bi1 Bi1 O1 5_5545 1_5455 158.7(13) 158.7(13) 158.7(13)
Bi1 Bi1 O1 5_5545 1_5545 36.1(8) 36.1(8) 36.1(8)
Bi1 Bi1 O1 5_5545 . 83.5(9) 83.5(9) 83.5(9)
Bi1 Bi1 O1 5_5545 5_4455 136.1(3) 136.1(3) 136.1(3)
Bi1 Bi1 O1 5_5545 5_5455 93.6(10) 93.6(10) 93.6(10)
Bi1 Bi1 O2 5_5545 1_4545 77.4(11) 77.4(11) 77.4(11)
Bi1 Bi1 O2 5_5545 1_5545 43.0(4) 43.0(4) 43.0(4)
Bi1 Bi1 O3 5_5545 1_5545 61.8(5) 61.8(5) 61.8(5)
Bi1 Bi1 O1 5_5555 1_5455 132.2(14) 132.2(14) 132.2(14)
Bi1 Bi1 O1 5_5555 1_5465 80.2(6) 79.5(6) 81.9(7)
Bi1 Bi1 O1 5_5555 . 76.7(10) 76.7(10) 76.7(10)
Bi1 Bi1 O1 5_5555 1_5565 41.0(9) 40.1(9) 43.1(9)
Bi1 Bi1 O1 5_5555 5_4445 145.0(2) 144.6(3) 145.16(17)
Bi1 Bi1 O1 5_5555 5_4455 81.2(7) 80.3(7) 83.2(8)
Bi1 Bi1 O1 5_5555 5_5445 78.0(8) 75.9(8) 78.9(9)
Bi1 Bi1 O1 5_5555 5_5455 40.3(4) 40.3(4) 40.3(4)
Bi1 Bi1 O2 5_5555 1_4565 80.9(13) 80.9(13) 80.9(13)
Bi1 Bi1 O2 5_5555 1_5565 39.0(7) 38.7(6) 39.5(7)
Bi1 Bi1 O2 5_5555 5_4445 138(2) 136(2) 139(3)
Bi1 Bi1 O2 5_5555 5_4545 81.0(18) 79.2(18) 81.9(18)
Bi1 Bi1 O3 5_5555 . 51.5(6) 51.5(6) 51.5(6)
Bi1 Bi1 O3 5_5555 5_4445 134.2(11) 133.2(11) 136.3(11)
Bi1 Bi1 O3 5_5555 5_4545 83.3(6) 81.0(6) 86.1(6)
Bi1 Bi1 O3 5_5555 5_5445 79.6(7) 79.6(7) 79.6(7)
Bi1 Bi1 O3 5_5555 5_5545 16.9(9) 16.9(9) 16.9(9)
O1 Bi1 O1 1_5445 1_5455 95.8(7) 95.8(7) 95.8(7)
O1 Bi1 O1 1_5445 1_5545 62.3(4) 61.0(4) 65.8(5)
O1 Bi1 O1 1_5445 . 156.0(9) 156.0(9) 156.0(9)
O1 Bi1 O1 1_5445 5_4445 43.4(6) 42.2(6) 44.6(6)
O1 Bi1 O1 1_5445 5_4455 119.9(10) 116.1(10) 121.6(10)
O1 Bi1 O1 1_5445 5_5445 42.6(7) 41.5(7) 45.4(6)
O1 Bi1 O1 1_5445 5_5455 122.7(11) 119.8(11) 129.7(12)
O1 Bi1 O2 1_5445 1_4545 41.9(11) 41.7(11) 42.3(11)
O1 Bi1 O2 1_5445 1_5545 42.6(12) 42.6(12) 42.6(12)
O1 Bi1 O2 1_5445 5_4455 97.2(13) 96.7(13) 97.5(13)
O1 Bi1 O2 1_5445 5_4555 159.3(14) 157.4(15) 162.5(14)
O1 Bi1 O3 1_5445 1_5545 31.8(3) 31.8(3) 31.8(3)
O1 Bi1 O3 1_5445 5_4445 56.7(9) 56.4(9) 56.9(9)
O1 Bi1 O3 1_5445 5_4545 100.5(11) 98.3(10) 102.6(11)
O1 Bi1 O3 1_5445 5_5445 56.7(10) 55.5(11) 58.8(9)
O1 Bi1 O3 1_5445 5_5545 100.2(11) 99.0(10) 102.8(11)
O1 Bi1 O1 1_5455 1_5465 95.8(4) 95.8(4) 95.8(4)
O1 Bi1 O1 1_5455 1_5545 156.0(6) 156.0(6) 156.0(6)
O1 Bi1 O1 1_5455 . 104.0(8) 104.0(8) 104.0(8)
O1 Bi1 O1 1_5455 1_5565 156.0(6) 156.0(6) 156.0(6)
O1 Bi1 O1 1_5455 5_4445 70.8(8) 70.8(8) 70.8(8)
O1 Bi1 O1 1_5455 5_4455 63.3(6) 63.3(6) 63.3(6)
O1 Bi1 O1 1_5455 5_5445 63.3(6) 63.3(6) 63.3(6)
O1 Bi1 O1 1_5455 5_5455 70.8(8) 70.8(8) 70.8(8)
O1 Bi1 O2 1_5455 1_4545 115.5(8) 115.5(8) 115.5(8)
O1 Bi1 O2 1_5455 1_4565 126.5(5) 126.5(5) 126.5(5)
O1 Bi1 O2 1_5455 1_5545 126.5(5) 126.5(5) 126.5(5)
O1 Bi1 O2 1_5455 1_5565 115.5(8) 115.5(8) 115.5(8)
O1 Bi1 O3 1_5455 1_5545 124.4(4) 124.4(4) 124.4(4)
O1 Bi1 O3 1_5455 . 124.4(4) 124.4(4) 124.4(4)
O1 Bi1 O1 1_5465 . 156.0(9) 156.0(9) 156.0(9)
O1 Bi1 O1 1_5465 1_5565 62.3(4) 61.0(4) 65.8(5)
O1 Bi1 O1 1_5465 5_4445 122.7(11) 119.8(11) 129.7(12)
O1 Bi1 O1 1_5465 5_4455 42.6(7) 41.5(7) 45.4(6)
O1 Bi1 O1 1_5465 5_5445 119.9(10) 116.1(10) 121.6(10)
O1 Bi1 O1 1_5465 5_5455 43.4(6) 42.2(6) 44.6(6)
O1 Bi1 O2 1_5465 1_4565 42.6(12) 42.6(12) 42.6(12)
O1 Bi1 O2 1_5465 1_5565 41.9(11) 41.7(11) 42.3(11)
O1 Bi1 O2 1_5465 5_4445 97.2(13) 96.7(13) 97.5(13)
O1 Bi1 O2 1_5465 5_4545 159.3(14) 157.4(15) 162.5(14)
O1 Bi1 O3 1_5465 . 31.8(3) 31.8(3) 31.8(3)
O1 Bi1 O3 1_5465 5_4445 56.7(10) 55.5(11) 58.8(9)
O1 Bi1 O3 1_5465 5_4545 100.2(11) 99.0(10) 102.8(11)
O1 Bi1 O3 1_5465 5_5445 56.7(9) 56.4(9) 56.9(9)
O1 Bi1 O3 1_5465 5_5545 100.5(11) 98.3(10) 102.6(11)
O1 Bi1 O1 1_5545 . 95.8(7) 95.8(7) 95.8(7)
O1 Bi1 O1 1_5545 5_4445 43.4(6) 42.2(6) 44.6(6)
O1 Bi1 O1 1_5545 5_4455 119.9(10) 116.1(10) 121.6(10)
O1 Bi1 O1 1_5545 5_5445 42.6(7) 41.5(7) 45.4(6)
O1 Bi1 O1 1_5545 5_5455 122.7(11) 119.8(11) 129.7(12)
O1 Bi1 O2 1_5545 1_4545 41.9(11) 41.7(11) 42.3(11)
O1 Bi1 O2 1_5545 1_5545 42.6(12) 42.6(12) 42.6(12)
O1 Bi1 O2 1_5545 5_4455 159.3(14) 157.4(15) 162.5(14)
O1 Bi1 O2 1_5545 5_4555 97.2(13) 96.7(13) 97.5(13)
O1 Bi1 O3 1_5545 1_5545 31.8(3) 31.8(3) 31.8(3)
O1 Bi1 O3 1_5545 5_4445 100.5(11) 98.3(10) 102.6(11)
O1 Bi1 O3 1_5545 5_4545 56.7(9) 56.4(9) 56.9(9)
O1 Bi1 O3 1_5545 5_5445 100.2(11) 99.0(10) 102.8(11)
O1 Bi1 O3 1_5545 5_5545 56.7(10) 55.5(11) 58.8(9)
O1 Bi1 O1 . 1_5565 95.8(4) 95.8(4) 95.8(4)
O1 Bi1 O1 . 5_4445 70.8(8) 70.8(8) 70.8(8)
O1 Bi1 O1 . 5_4455 63.3(6) 63.3(6) 63.3(6)
O1 Bi1 O1 . 5_5445 63.3(6) 63.3(6) 63.3(6)
O1 Bi1 O1 . 5_5455 70.8(8) 70.8(8) 70.8(8)
O1 Bi1 O2 . 1_4545 115.5(8) 115.5(8) 115.5(8)
O1 Bi1 O2 . 1_4565 126.5(5) 126.5(5) 126.5(5)
O1 Bi1 O2 . 1_5545 126.5(5) 126.5(5) 126.5(5)
O1 Bi1 O2 . 1_5565 115.5(8) 115.5(8) 115.5(8)
O1 Bi1 O3 . 1_5545 124.4(4) 124.4(4) 124.4(4)
O1 Bi1 O3 . . 124.4(4) 124.4(4) 124.4(4)
O1 Bi1 O1 1_5565 5_4445 122.7(11) 119.8(11) 129.7(12)
O1 Bi1 O1 1_5565 5_4455 42.6(7) 41.5(7) 45.4(6)
O1 Bi1 O1 1_5565 5_5445 119.9(10) 116.1(10) 121.6(10)
O1 Bi1 O1 1_5565 5_5455 43.4(6) 42.2(6) 44.6(6)
O1 Bi1 O2 1_5565 1_4565 42.6(12) 42.6(12) 42.6(12)
O1 Bi1 O2 1_5565 1_5565 41.9(11) 41.7(11) 42.3(11)
O1 Bi1 O2 1_5565 5_4445 159.3(14) 157.4(15) 162.5(14)
O1 Bi1 O2 1_5565 5_4545 97.2(13) 96.7(13) 97.5(13)
O1 Bi1 O3 1_5565 . 31.8(3) 31.8(3) 31.8(3)
O1 Bi1 O3 1_5565 5_4445 100.2(11) 99.0(10) 102.8(11)
O1 Bi1 O3 1_5565 5_4545 56.7(10) 55.5(11) 58.8(9)
O1 Bi1 O3 1_5565 5_5445 100.5(11) 98.3(10) 102.6(11)
O1 Bi1 O3 1_5565 5_5545 56.7(9) 56.4(9) 56.9(9)
O1 Bi1 O1 5_4445 5_4455 95.6(12) 93.1(10) 104.1(14)
O1 Bi1 O1 5_4445 5_5445 88.5(12) 60.2(9) 106.9(13)
O1 Bi1 O1 5_4445 5_5455 165.5(12) 156.2(13) 180.0(5)
O1 Bi1 O2 5_4445 1_4565 107.4(19) 107.4(19) 107.4(19)
O1 Bi1 O2 5_4445 1_5565 161.4(18) 157.2(18) 168.0(18)
O1 Bi1 O2 5_4445 5_4445 60.2(19) 46.2(14) 70(2)
O1 Bi1 O2 5_4445 5_4455 122.7(18) 119.5(17) 124.2(18)
O1 Bi1 O2 5_4445 5_4545 60.2(19) 46.2(14) 70(2)
O1 Bi1 O2 5_4445 5_4555 122.7(18) 119.5(17) 124.2(18)
O1 Bi1 O3 5_4445 . 145.6(14) 145.6(14) 145.6(14)
O1 Bi1 O3 5_4445 5_4445 61.9(9) 56.3(9) 73.0(11)
O1 Bi1 O3 5_4445 5_4545 61.9(9) 56.3(9) 73.0(11)
O1 Bi1 O3 5_4445 5_5445 117.9(9) 98.7(10) 134.6(7)
O1 Bi1 O3 5_4445 5_5545 117.9(9) 98.7(10) 134.6(7)
O1 Bi1 O1 5_4455 5_5445 164.2(12) 153.2(10) 180.0(5)
O1 Bi1 O1 5_4455 5_5455 88.5(12) 60.2(10) 106.9(15)
O1 Bi1 O2 5_4455 1_4545 94.0(16) 91.1(15) 96.0(18)
O1 Bi1 O2 5_4455 1_5545 151.6(16) 151.6(16) 151.6(16)
O1 Bi1 O2 5_4455 1_5565 60.1(15) 59.7(15) 60.9(15)
O1 Bi1 O2 5_4455 5_4445 122.0(19) 121.1(19) 125.3(18)
O1 Bi1 O2 5_4455 5_4455 61(2) 45.8(15) 67(2)
O1 Bi1 O2 5_4455 5_4545 122.0(19) 121.1(19) 125.3(18)
O1 Bi1 O2 5_4455 5_4555 61(2) 45.8(15) 67(2)
O1 Bi1 O3 5_4455 1_5545 113.4(9) 113.4(9) 113.4(9)
O1 Bi1 O3 5_4455 5_4445 60.9(9) 57.4(10) 65.8(10)
O1 Bi1 O3 5_4455 5_4545 60.9(9) 57.4(10) 65.8(10)
O1 Bi1 O3 5_4455 5_5445 119.9(9) 98.1(10) 133.1(7)
O1 Bi1 O3 5_4455 5_5545 119.9(9) 98.1(10) 133.1(7)
O1 Bi1 O1 5_5445 5_5455 95.6(12) 93.1(13) 104.1(13)
O1 Bi1 O2 5_5445 1_4545 60.1(15) 59.7(15) 60.9(15)
O1 Bi1 O2 5_5445 1_4565 151.6(16) 151.6(16) 151.6(16)
O1 Bi1 O2 5_5445 1_5565 94.0(16) 91.1(15) 96.0(18)
O1 Bi1 O2 5_5445 5_4445 61(2) 45.8(15) 67(2)
O1 Bi1 O2 5_5445 5_4455 122.0(19) 121.1(19) 125.3(18)
O1 Bi1 O2 5_5445 5_4545 61(2) 45.8(15) 67(2)
O1 Bi1 O2 5_5445 5_4555 122.0(19) 121.1(19) 125.3(18)
O1 Bi1 O3 5_5445 . 113.4(9) 113.4(9) 113.4(9)
O1 Bi1 O3 5_5445 5_4445 119.9(9) 98.1(10) 133.1(7)
O1 Bi1 O3 5_5445 5_4545 119.9(9) 98.1(10) 133.1(7)
O1 Bi1 O3 5_5445 5_5445 60.9(9) 57.4(10) 65.8(10)
O1 Bi1 O3 5_5445 5_5545 60.9(9) 57.4(10) 65.8(10)
O1 Bi1 O2 5_5455 1_4545 161.4(18) 157.2(18) 168.0(18)
O1 Bi1 O2 5_5455 1_5545 107.4(19) 107.4(19) 107.4(19)
O1 Bi1 O2 5_5455 5_4445 122.7(18) 119.5(17) 124.2(18)
O1 Bi1 O2 5_5455 5_4455 60.2(19) 46.2(14) 70(2)
O1 Bi1 O2 5_5455 5_4545 122.7(18) 119.5(17) 124.2(18)
O1 Bi1 O2 5_5455 5_4555 60.2(19) 46.2(14) 70(2)
O1 Bi1 O3 5_5455 1_5545 145.6(14) 145.6(14) 145.6(14)
O1 Bi1 O3 5_5455 5_4445 117.9(9) 98.7(10) 134.6(7)
O1 Bi1 O3 5_5455 5_4545 117.9(9) 98.7(10) 134.6(7)
O1 Bi1 O3 5_5455 5_5445 61.9(9) 56.3(9) 73.0(11)
O1 Bi1 O3 5_5455 5_5545 61.9(9) 56.3(9) 73.0(11)
O2 Bi1 O2 1_4545 1_5545 61(2) 61(2) 61(2)
O2 Bi1 O2 1_4545 5_4455 119.8(19) 117.9(19) 121.3(18)
O2 Bi1 O2 1_4545 5_4555 119.8(19) 117.9(19) 121.3(18)
O2 Bi1 O3 1_4545 1_5545 22.3(14) 22.3(14) 22.3(14)
O2 Bi1 O3 1_4545 5_5445 97.6(13) 97.2(13) 98.5(13)
O2 Bi1 O3 1_4545 5_5545 97.6(13) 97.2(13) 98.5(13)
O2 Bi1 O2 1_4565 1_5565 60.5(18) 60.5(18) 60.5(18)
O2 Bi1 O3 1_4565 . 38.2(13) 38.2(13) 38.2(13)
O2 Bi1 O3 1_5545 1_5545 38.2(13) 38.2(13) 38.2(13)
O2 Bi1 O2 1_5565 5_4445 119.8(19) 117.9(19) 121.3(18)
O2 Bi1 O2 1_5565 5_4545 119.8(19) 117.9(19) 121.3(18)
O2 Bi1 O3 1_5565 . 22.3(14) 22.3(14) 22.3(14)
O2 Bi1 O3 1_5565 5_4445 97.6(13) 97.2(13) 98.5(13)
O2 Bi1 O3 1_5565 5_4545 97.6(13) 97.2(13) 98.5(13)
O2 Bi1 O2 5_4445 5_4455 94.8(11) 94.1(10) 96.1(9)
O2 Bi1 O2 5_4445 5_4545 90.6(13) 67.7(9) 104.1(18)
O2 Bi1 O2 5_4445 5_4555 171.3(11) 163.8(15) 180.0(5)
O2 Bi1 O3 5_4445 5_4445 62.5(14) 57.5(13) 67.9(18)
O2 Bi1 O3 5_4445 5_4545 122.6(14) 104.6(14) 142.0(18)
O2 Bi1 O3 5_4445 5_5445 62.9(12) 58.4(13) 66.9(18)
O2 Bi1 O3 5_4445 5_5545 121.3(14) 103.4(14) 133(2)
O2 Bi1 O2 5_4455 5_4545 171.3(11) 163.8(15) 180.0(5)
O2 Bi1 O2 5_4455 5_4555 90.6(13) 67.7(9) 104.1(18)
O2 Bi1 O3 5_4455 5_4445 62.9(12) 58.4(13) 66.9(18)
O2 Bi1 O3 5_4455 5_4545 121.3(14) 103.4(14) 133(2)
O2 Bi1 O3 5_4455 5_5445 62.5(14) 57.5(13) 67.9(18)
O2 Bi1 O3 5_4455 5_5545 122.6(14) 104.6(14) 142.0(18)
O2 Bi1 O2 5_4545 5_4555 94.8(11) 94.1(10) 96.1(9)
O2 Bi1 O3 5_4545 5_4445 122.6(14) 104.6(14) 142.0(18)
O2 Bi1 O3 5_4545 5_4545 62.5(14) 57.5(13) 67.9(18)
O2 Bi1 O3 5_4545 5_5445 121.3(14) 103.4(14) 133(2)
O2 Bi1 O3 5_4545 5_5545 62.9(12) 58.4(13) 66.9(18)
O2 Bi1 O3 5_4555 5_4445 121.3(14) 103.4(14) 133(2)
O2 Bi1 O3 5_4555 5_4545 62.9(12) 58.4(13) 66.9(18)
O2 Bi1 O3 5_4555 5_5445 122.6(14) 104.6(14) 142.0(18)
O2 Bi1 O3 5_4555 5_5545 62.5(14) 57.5(13) 67.9(18)
O3 Bi1 O3 5_4445 5_4545 88.9(5) 85.5(6) 95.4(5)
O3 Bi1 O3 5_4445 5_5445 89.2(3) 87.4(4) 90.44(16)
O3 Bi1 O3 5_4445 5_5545 165.4(12) 153.2(14) 180.0(5)
O3 Bi1 O3 5_4545 5_5445 165.4(12) 153.2(14) 180.0(5)
O3 Bi1 O3 5_4545 5_5545 89.2(3) 87.4(4) 90.44(16)
O3 Bi1 O3 5_5445 5_5545 88.9(5) 85.5(6) 95.4(5)
Fe1 O1 Fe1 . 1_5655 155.4(11) 141.2(8) 180.0(5)
Fe1 O1 Fe1 . 5_4545 97.0(9) 91.8(6) 98.9(11)
Fe1 O1 Fe1 . 5_4555 98.0(6) 96.1(7) 99.8(6)
Fe1 O1 Fe1 . 5_5545 98.0(6) 96.1(7) 99.8(6)
Fe1 O1 Fe1 . 5_5555 97.0(9) 91.8(6) 98.9(11)
Fe1 O1 Pb1 . 1_5545 76.3(5) 74.0(7) 77.4(4)
Fe1 O1 Pb1 . 1_5565 76.3(5) 74.0(7) 77.4(4)
Fe1 O1 Pb1 . 1_5645 139.1(7) 136.5(11) 142.1(5)
Fe1 O1 Pb1 . 1_5665 139.1(7) 136.5(11) 142.1(5)
Fe1 O1 Pb1 . 5_4545 85.7(6) 74.6(5) 102.1(12)
Fe1 O1 Pb1 . 5_4555 87.0(7) 71.5(4) 99.9(8)
Fe1 O1 Pb1 . 5_5545 87.0(7) 71.5(4) 99.9(8)
Fe1 O1 Pb1 . 5_5555 85.7(6) 74.6(5) 102.1(12)
Fe1 O1 Bi1 . 1_5545 76.5(5) 74.4(7) 77.4(4)
Fe1 O1 Bi1 . . 18.6(5) 18.6(5) 18.6(5)
Fe1 O1 Bi1 . 1_5565 76.5(5) 74.4(7) 77.4(4)
Fe1 O1 Bi1 . 1_5645 139.0(7) 136.1(11) 142.0(5)
Fe1 O1 Bi1 . 1_5655 122.6(8) 122.6(8) 122.6(8)
Fe1 O1 Bi1 . 1_5665 139.0(7) 136.1(11) 142.0(5)
Fe1 O1 Bi1 . 5_4545 86.0(6) 74.6(5) 102.6(12)
Fe1 O1 Bi1 . 5_4555 87.0(7) 71.6(4) 99.8(8)
Fe1 O1 Bi1 . 5_5545 87.0(7) 71.6(4) 99.8(8)
Fe1 O1 Bi1 . 5_5555 86.0(6) 74.6(5) 102.6(12)
Fe1 O1 O1 . 1_4555 90.2(9) 87.4(15) 93.0(15)
Fe1 O1 O1 . 1_5455 12.3(6) 0.0(5) 19.4(6)
Fe1 O1 O1 . 1_5655 167.7(10) 160.6(8) 180.0(5)
Fe1 O1 O1 . 1_6555 90.2(9) 87.4(15) 93.0(15)
Fe1 O1 O1 . 5_4445 47.6(9) 44.7(8) 49.5(11)
Fe1 O1 O1 . 5_4455 49.3(9) 47.5(9) 50.8(9)
Fe1 O1 O1 . 5_4545 135.7(16) 129.7(12) 138(2)
Fe1 O1 O1 . 5_4555 134.7(11) 133.2(12) 136.5(11)
Fe1 O1 O1 . 5_5445 49.3(9) 47.5(9) 50.8(9)
Fe1 O1 O1 . 5_5455 47.6(9) 44.7(8) 49.5(11)
Fe1 O1 O1 . 5_5545 134.7(11) 133.2(12) 136.5(11)
Fe1 O1 O1 . 5_5555 135.7(16) 129.7(12) 138(2)
Fe1 O1 O2 . 1_4555 45.9(16) 43.6(18) 48.4(17)
Fe1 O1 O2 . 1_4655 133(2) 130(2) 137(3)
Fe1 O1 O2 . . 45.9(16) 43.6(18) 48.4(17)
Fe1 O1 O2 . 1_5655 133(2) 130(2) 137(3)
Fe1 O1 O2 . 5_3545 89.9(7) 86.9(6) 92.1(9)
Fe1 O1 O2 . 5_5555 89.9(7) 86.9(6) 92.1(9)
Fe1 O1 O3 . 1_5545 43.5(7) 33.2(6) 62.5(8)
Fe1 O1 O3 . . 43.5(7) 33.2(6) 62.5(8)
Fe1 O1 O3 . 1_5645 126.2(10) 108.3(7) 146.2(14)
Fe1 O1 O3 . 1_5655 126.2(10) 108.3(7) 146.2(14)
Fe1 O1 O3 . 5_4535 104.2(7) 101.6(5) 105.2(8)
Fe1 O1 O3 . 5_4555 106.1(5) 104.7(6) 107.6(5)
Fe1 O1 O3 . 5_5535 106.1(5) 104.7(6) 107.6(5)
Fe1 O1 O3 . 5_5555 104.2(7) 101.6(5) 105.2(8)
Fe1 O1 Fe1 1_5655 5_4545 97.0(9) 91.8(6) 98.9(11)
Fe1 O1 Fe1 1_5655 5_4555 98.0(6) 96.1(7) 99.8(6)
Fe1 O1 Fe1 1_5655 5_5545 98.0(6) 96.1(7) 99.8(6)
Fe1 O1 Fe1 1_5655 5_5555 97.0(9) 91.8(6) 98.9(11)
Fe1 O1 Pb1 1_5655 1_5545 139.1(7) 136.5(11) 142.1(5)
Fe1 O1 Pb1 1_5655 1_5565 139.1(7) 136.5(11) 142.1(5)
Fe1 O1 Pb1 1_5655 1_5645 76.3(5) 74.0(7) 77.4(4)
Fe1 O1 Pb1 1_5655 1_5665 76.3(5) 74.0(7) 77.4(4)
Fe1 O1 Pb1 1_5655 5_4545 85.7(6) 74.6(5) 102.1(12)
Fe1 O1 Pb1 1_5655 5_4555 87.0(7) 71.5(4) 99.9(8)
Fe1 O1 Pb1 1_5655 5_5545 87.0(7) 71.5(4) 99.9(8)
Fe1 O1 Pb1 1_5655 5_5555 85.7(6) 74.6(5) 102.1(12)
Fe1 O1 Bi1 1_5655 1_5545 139.0(7) 136.1(11) 142.0(5)
Fe1 O1 Bi1 1_5655 . 122.6(8) 122.6(8) 122.6(8)
Fe1 O1 Bi1 1_5655 1_5565 139.0(7) 136.1(11) 142.0(5)
Fe1 O1 Bi1 1_5655 1_5645 76.5(5) 74.4(7) 77.4(4)
Fe1 O1 Bi1 1_5655 1_5655 18.6(5) 18.6(5) 18.6(5)
Fe1 O1 Bi1 1_5655 1_5665 76.5(5) 74.4(7) 77.4(4)
Fe1 O1 Bi1 1_5655 5_4545 86.0(6) 74.6(5) 102.6(12)
Fe1 O1 Bi1 1_5655 5_4555 87.0(7) 71.6(4) 99.8(8)
Fe1 O1 Bi1 1_5655 5_5545 87.0(7) 71.6(4) 99.8(8)
Fe1 O1 Bi1 1_5655 5_5555 86.0(6) 74.6(5) 102.6(12)
Fe1 O1 O1 1_5655 1_4555 90.2(9) 87.4(15) 93.0(15)
Fe1 O1 O1 1_5655 1_5455 167.7(10) 160.6(8) 180.0(5)
Fe1 O1 O1 1_5655 1_5655 12.3(6) 0.0(5) 19.4(6)
Fe1 O1 O1 1_5655 1_6555 90.2(9) 87.4(15) 93.0(15)
Fe1 O1 O1 1_5655 5_4445 135.7(16) 129.7(12) 138(2)
Fe1 O1 O1 1_5655 5_4455 134.7(11) 133.2(12) 136.5(11)
Fe1 O1 O1 1_5655 5_4545 47.6(9) 44.7(8) 49.5(11)
Fe1 O1 O1 1_5655 5_4555 49.3(9) 47.5(9) 50.8(9)
Fe1 O1 O1 1_5655 5_5445 134.7(11) 133.2(12) 136.5(11)
Fe1 O1 O1 1_5655 5_5455 135.7(16) 129.7(12) 138(2)
Fe1 O1 O1 1_5655 5_5545 49.3(9) 47.5(9) 50.8(9)
Fe1 O1 O1 1_5655 5_5555 47.6(9) 44.7(8) 49.5(11)
Fe1 O1 O2 1_5655 1_4555 133(2) 130(2) 137(3)
Fe1 O1 O2 1_5655 1_4655 45.9(16) 43.6(18) 48.4(17)
Fe1 O1 O2 1_5655 . 133(2) 130(2) 137(3)
Fe1 O1 O2 1_5655 1_5655 45.9(16) 43.6(18) 48.4(17)
Fe1 O1 O2 1_5655 5_3545 89.9(7) 86.9(6) 92.1(9)
Fe1 O1 O2 1_5655 5_5555 89.9(7) 86.9(6) 92.1(9)
Fe1 O1 O3 1_5655 1_5545 126.2(10) 108.3(7) 146.2(14)
Fe1 O1 O3 1_5655 . 126.2(10) 108.3(7) 146.2(14)
Fe1 O1 O3 1_5655 1_5645 43.5(7) 33.2(6) 62.5(8)
Fe1 O1 O3 1_5655 1_5655 43.5(7) 33.2(6) 62.5(8)
Fe1 O1 O3 1_5655 5_4535 104.2(7) 101.6(5) 105.2(8)
Fe1 O1 O3 1_5655 5_4555 106.1(5) 104.7(6) 107.6(5)
Fe1 O1 O3 1_5655 5_5535 106.1(5) 104.7(6) 107.6(5)
Fe1 O1 O3 1_5655 5_5555 104.2(7) 101.6(5) 105.2(8)
Fe1 O1 Fe1 5_4545 5_5545 140.0(9) 137.4(9) 143.7(9)
Fe1 O1 Pb1 5_4545 1_5545 69.9(7) 67.5(8) 74.5(6)
Fe1 O1 Pb1 5_4545 1_5645 69.9(7) 67.5(8) 74.5(6)
Fe1 O1 Pb1 5_4545 5_4555 82.7(10) 78.1(7) 84.8(10)
Fe1 O1 Pb1 5_4545 5_5545 120.0(12) 119.4(12) 120.9(10)
Fe1 O1 Pb1 5_4545 5_5555 147.8(12) 136.8(8) 153.4(17)
Fe1 O1 Bi1 5_4545 1_5545 70.1(7) 67.9(8) 74.6(6)
Fe1 O1 Bi1 5_4545 . 92.6(8) 92.6(8) 92.6(8)
Fe1 O1 Bi1 5_4545 1_5645 70.1(7) 67.9(8) 74.6(6)
Fe1 O1 Bi1 5_4545 1_5655 92.6(8) 92.6(8) 92.6(8)
Fe1 O1 Bi1 5_4545 5_4545 22.0(8) 22.0(8) 22.0(8)
Fe1 O1 Bi1 5_4545 5_4555 82.6(10) 77.9(7) 84.8(10)
Fe1 O1 Bi1 5_4545 5_5545 120.2(12) 119.7(13) 121.3(10)
Fe1 O1 Bi1 5_4545 5_5555 147.8(12) 136.6(8) 153.5(17)
Fe1 O1 O1 5_4545 1_4555 22.8(8) 22.1(9) 23.2(8)
Fe1 O1 O1 5_4545 1_5455 90.0(9) 90.0(8) 90.0(8)
Fe1 O1 O1 5_4545 1_5655 90.0(9) 90.0(8) 90.0(8)
Fe1 O1 O1 5_4545 1_6555 157.9(11) 154.6(13) 166.0(9)
Fe1 O1 O1 5_4545 5_4445 49.5(10) 47.4(9) 50.4(10)
Fe1 O1 O1 5_4545 5_4545 49.5(10) 47.4(9) 50.4(10)
Fe1 O1 O1 5_4545 5_5445 130.5(9) 129.4(9) 131.5(9)
Fe1 O1 O1 5_4545 5_5545 130.5(9) 129.4(9) 131.5(9)
Fe1 O1 O2 5_4545 . 130.5(16) 130.2(15) 131.2(16)
Fe1 O1 O2 5_4545 1_5655 130.5(16) 130.2(15) 131.2(16)
Fe1 O1 O2 5_4545 5_3545 18.6(12) 14.8(12) 21.8(12)
Fe1 O1 O3 5_4545 . 109.3(9) 100.9(6) 112.6(12)
Fe1 O1 O3 5_4545 1_5655 109.3(9) 100.9(6) 112.6(12)
Fe1 O1 O3 5_4545 5_4535 30.8(6) 29.8(6) 32.7(7)
Fe1 O1 O3 5_4545 5_5535 106.5(8) 104.5(8) 109.0(8)
Fe1 O1 Fe1 5_4555 5_5555 140.0(9) 137.4(9) 143.7(8)
Fe1 O1 Pb1 5_4555 1_5565 74.0(6) 73.4(6) 75.3(6)
Fe1 O1 Pb1 5_4555 1_5665 74.0(6) 73.4(6) 75.3(6)
Fe1 O1 Pb1 5_4555 5_4545 77.8(7) 75.7(7) 79.5(6)
Fe1 O1 Pb1 5_4555 5_5545 138.7(8) 138.2(8) 138.9(8)
Fe1 O1 Bi1 5_4555 . 109.1(8) 109.1(8) 109.1(8)
Fe1 O1 Bi1 5_4555 1_5565 73.9(6) 73.3(6) 75.3(6)
Fe1 O1 Bi1 5_4555 1_5655 109.1(8) 109.1(8) 109.1(8)
Fe1 O1 Bi1 5_4555 1_5665 73.9(6) 73.3(6) 75.3(6)
Fe1 O1 Bi1 5_4555 5_4545 78.0(7) 75.7(7) 79.7(6)
Fe1 O1 Bi1 5_4555 5_5545 138.8(7) 138.4(7) 139.0(8)
Fe1 O1 O1 5_4555 1_4555 21.5(6) 20.3(6) 22.3(6)
Fe1 O1 O1 5_4555 1_5455 90.0(9) 90.0(9) 90.0(9)
Fe1 O1 O1 5_4555 1_5655 90.0(9) 90.0(9) 90.0(9)
Fe1 O1 O1 5_4555 5_4455 48.7(9) 48.5(9) 49.0(9)
Fe1 O1 O1 5_4555 5_4555 48.7(9) 48.5(9) 49.0(9)
Fe1 O1 O1 5_4555 5_5455 128.8(10) 127.7(10) 130.5(9)
Fe1 O1 O1 5_4555 5_5555 128.8(10) 127.7(10) 130.5(9)
Fe1 O1 O2 5_4555 5_5555 157.5(13) 157.1(13) 158.5(12)
Fe1 O1 O3 5_4555 1_5545 105.8(6) 103.8(6) 107.7(6)
Fe1 O1 O3 5_4555 1_5645 105.8(6) 103.8(6) 107.7(6)
Fe1 O1 O3 5_4555 5_4555 33.6(6) 32.9(6) 34.7(6)
Fe1 O1 O3 5_4555 5_5555 109.2(8) 107.5(8) 111.8(8)
Fe1 O1 Pb1 5_5545 1_5545 74.0(6) 73.4(6) 75.3(6)
Fe1 O1 Pb1 5_5545 1_5645 74.0(6) 73.4(6) 75.3(6)
Fe1 O1 Pb1 5_5545 5_4555 138.7(8) 138.2(8) 138.9(8)
Fe1 O1 Pb1 5_5545 5_5555 77.8(7) 75.7(7) 79.5(6)
Fe1 O1 Bi1 5_5545 1_5545 73.9(6) 73.3(6) 75.3(6)
Fe1 O1 Bi1 5_5545 . 109.1(8) 109.1(8) 109.1(8)
Fe1 O1 Bi1 5_5545 1_5645 73.9(6) 73.3(6) 75.3(6)
Fe1 O1 Bi1 5_5545 1_5655 109.1(8) 109.1(8) 109.1(8)
Fe1 O1 Bi1 5_5545 5_4555 138.8(7) 138.4(7) 139.0(8)
Fe1 O1 Bi1 5_5545 5_5555 78.0(7) 75.7(7) 79.7(6)
Fe1 O1 O1 5_5545 1_5455 90.0(9) 90.0(9) 90.0(9)
Fe1 O1 O1 5_5545 1_5655 90.0(9) 90.0(9) 90.0(9)
Fe1 O1 O1 5_5545 1_6555 21.5(6) 20.3(6) 22.3(6)
Fe1 O1 O1 5_5545 5_4445 128.8(10) 127.7(10) 130.5(9)
Fe1 O1 O1 5_5545 5_4545 128.8(10) 127.7(10) 130.5(9)
Fe1 O1 O1 5_5545 5_5445 48.7(9) 48.5(9) 49.0(9)
Fe1 O1 O1 5_5545 5_5545 48.7(9) 48.5(9) 49.0(9)
Fe1 O1 O2 5_5545 5_3545 157.5(13) 157.1(13) 158.5(12)
Fe1 O1 O3 5_5545 . 105.8(6) 103.8(6) 107.7(6)
Fe1 O1 O3 5_5545 1_5655 105.8(6) 103.8(6) 107.7(6)
Fe1 O1 O3 5_5545 5_4535 109.2(8) 107.5(8) 111.8(8)
Fe1 O1 O3 5_5545 5_5535 33.6(6) 32.9(6) 34.7(6)
Fe1 O1 Pb1 5_5555 1_5565 69.9(7) 67.5(8) 74.5(6)
Fe1 O1 Pb1 5_5555 1_5665 69.9(7) 67.5(8) 74.5(6)
Fe1 O1 Pb1 5_5555 5_4545 147.8(12) 136.8(8) 153.4(17)
Fe1 O1 Pb1 5_5555 5_4555 120.0(12) 119.4(12) 120.9(10)
Fe1 O1 Pb1 5_5555 5_5545 82.7(10) 78.1(7) 84.8(10)
Fe1 O1 Bi1 5_5555 . 92.6(8) 92.6(8) 92.6(8)
Fe1 O1 Bi1 5_5555 1_5565 70.1(7) 67.9(8) 74.6(6)
Fe1 O1 Bi1 5_5555 1_5655 92.6(8) 92.6(8) 92.6(8)
Fe1 O1 Bi1 5_5555 1_5665 70.1(7) 67.9(8) 74.6(6)
Fe1 O1 Bi1 5_5555 5_4545 147.8(12) 136.6(8) 153.5(17)
Fe1 O1 Bi1 5_5555 5_4555 120.2(12) 119.7(13) 121.3(10)
Fe1 O1 Bi1 5_5555 5_5545 82.6(10) 77.9(7) 84.8(10)
Fe1 O1 Bi1 5_5555 5_5555 22.0(8) 22.0(8) 22.0(8)
Fe1 O1 O1 5_5555 1_4555 157.9(11) 154.6(13) 166.0(9)
Fe1 O1 O1 5_5555 1_5455 90.0(9) 90.0(10) 90.0(10)
Fe1 O1 O1 5_5555 1_5655 90.0(9) 90.0(10) 90.0(10)
Fe1 O1 O1 5_5555 1_6555 22.8(8) 22.1(9) 23.2(8)
Fe1 O1 O1 5_5555 5_4455 130.5(9) 129.4(9) 131.5(9)
Fe1 O1 O1 5_5555 5_4555 130.5(9) 129.4(9) 131.5(9)
Fe1 O1 O1 5_5555 5_5455 49.5(10) 47.4(9) 50.4(10)
Fe1 O1 O1 5_5555 5_5555 49.5(10) 47.4(9) 50.4(10)
Fe1 O1 O2 5_5555 1_4555 130.5(16) 130.2(15) 131.2(16)
Fe1 O1 O2 5_5555 1_4655 130.5(16) 130.2(15) 131.2(16)
Fe1 O1 O2 5_5555 5_5555 18.6(12) 14.8(12) 21.8(12)
Fe1 O1 O3 5_5555 1_5545 109.3(9) 100.9(6) 112.6(12)
Fe1 O1 O3 5_5555 1_5645 109.3(9) 100.9(6) 112.6(12)
Fe1 O1 O3 5_5555 5_4555 106.5(8) 104.5(8) 109.0(8)
Fe1 O1 O3 5_5555 5_5555 30.8(6) 29.8(6) 32.7(7)
Pb1 O1 Pb1 1_5545 1_5645 62.9(4) 61.4(4) 66.7(4)
Pb1 O1 Pb1 1_5545 5_4555 137.0(7) 134.2(11) 138.2(6)
Pb1 O1 Pb1 1_5545 5_5545 61.0(7) 60.5(6) 62.1(7)
Pb1 O1 Pb1 1_5545 5_5555 134.9(8) 133.1(11) 137.4(5)
Pb1 O1 Bi1 1_5545 1_5545 0.3(4) 0.0(5) 0.7(4)
Pb1 O1 Bi1 1_5545 . 93.7(5) 93.7(5) 93.7(5)
Pb1 O1 Bi1 1_5545 1_5645 62.7(4) 61.2(4) 66.7(4)
Pb1 O1 Bi1 1_5545 1_5655 158.6(7) 158.6(7) 158.6(7)
Pb1 O1 Bi1 1_5545 5_4545 50.2(7) 50.2(7) 50.2(7)
Pb1 O1 Bi1 1_5545 5_4555 136.9(7) 134.2(11) 138.2(6)
Pb1 O1 Bi1 1_5545 5_5545 61.2(7) 60.8(6) 62.2(7)
Pb1 O1 Bi1 1_5545 5_5555 134.9(8) 133.1(11) 137.5(5)
Pb1 O1 O1 1_5545 1_4555 87.2(8) 86.3(9) 87.7(8)
Pb1 O1 O1 1_5545 1_5455 58.6(6) 56.7(6) 59.3(6)
Pb1 O1 O1 1_5545 1_5655 121.4(7) 120.7(7) 123.3(6)
Pb1 O1 O1 1_5545 1_6555 91.4(8) 90.3(7) 93.8(7)
Pb1 O1 O1 1_5545 5_4445 64.1(9) 63.9(9) 64.4(9)
Pb1 O1 O1 1_5545 5_4545 108.9(10) 108.1(12) 110.5(9)
Pb1 O1 O1 1_5545 5_5445 67.4(8) 67.2(8) 67.6(8)
Pb1 O1 O1 1_5545 5_5545 112.3(10) 111.3(10) 114.2(10)
Pb1 O1 O2 1_5545 . 70.2(15) 68.8(15) 71.7(15)
Pb1 O1 O2 1_5545 1_5655 112.8(18) 111.5(17) 114.8(19)
Pb1 O1 O2 1_5545 5_3545 87.1(11) 86.8(10) 87.4(11)
Pb1 O1 O3 1_5545 . 110.1(6) 109.0(6) 110.7(6)
Pb1 O1 O3 1_5545 1_5655 172.6(7) 171.2(9) 174.5(6)
Pb1 O1 O3 1_5545 5_4535 46.0(5) 42.7(5) 49.8(5)
Pb1 O1 O3 1_5545 5_5535 47.8(5) 47.4(5) 48.6(5)
Pb1 O1 Pb1 1_5565 1_5665 62.9(4) 61.4(4) 66.7(4)
Pb1 O1 Pb1 1_5565 5_4545 134.9(8) 133.1(11) 137.4(5)
Pb1 O1 Pb1 1_5565 5_4555 61.0(7) 60.5(6) 62.1(7)
Pb1 O1 Pb1 1_5565 5_5545 137.0(7) 134.2(11) 138.2(6)
Pb1 O1 Bi1 1_5565 . 93.7(5) 93.7(5) 93.7(5)
Pb1 O1 Bi1 1_5565 1_5565 0.3(4) 0.0(5) 0.7(4)
Pb1 O1 Bi1 1_5565 1_5655 158.6(7) 158.6(7) 158.6(7)
Pb1 O1 Bi1 1_5565 1_5665 62.7(4) 61.2(4) 66.7(4)
Pb1 O1 Bi1 1_5565 5_4545 134.9(8) 133.1(11) 137.5(5)
Pb1 O1 Bi1 1_5565 5_4555 61.2(7) 60.8(6) 62.2(7)
Pb1 O1 Bi1 1_5565 5_5545 136.9(7) 134.2(11) 138.2(6)
Pb1 O1 Bi1 1_5565 5_5555 50.2(7) 50.2(7) 50.2(7)
Pb1 O1 O1 1_5565 1_4555 91.4(8) 90.3(7) 93.8(7)
Pb1 O1 O1 1_5565 1_5455 58.6(6) 56.7(6) 59.3(6)
Pb1 O1 O1 1_5565 1_5655 121.4(7) 120.7(7) 123.3(6)
Pb1 O1 O1 1_5565 1_6555 87.2(8) 86.3(9) 87.7(8)
Pb1 O1 O1 1_5565 5_4455 67.4(8) 67.2(8) 67.6(8)
Pb1 O1 O1 1_5565 5_4555 112.3(10) 111.3(10) 114.2(10)
Pb1 O1 O1 1_5565 5_5455 64.1(9) 63.9(9) 64.4(9)
Pb1 O1 O1 1_5565 5_5555 108.9(10) 108.1(12) 110.5(9)
Pb1 O1 O2 1_5565 1_4555 70.2(15) 68.8(15) 71.7(15)
Pb1 O1 O2 1_5565 1_4655 112.8(18) 111.5(17) 114.8(19)
Pb1 O1 O2 1_5565 5_5555 87.1(11) 86.8(10) 87.4(11)
Pb1 O1 O3 1_5565 1_5545 110.1(6) 109.0(6) 110.7(6)
Pb1 O1 O3 1_5565 1_5645 172.6(7) 171.2(9) 174.5(6)
Pb1 O1 O3 1_5565 5_4555 47.8(5) 47.4(5) 48.6(5)
Pb1 O1 O3 1_5565 5_5555 46.0(5) 42.7(5) 49.8(5)
Pb1 O1 Pb1 1_5645 5_4555 137.0(7) 134.2(11) 138.2(6)
Pb1 O1 Pb1 1_5645 5_5545 61.0(7) 60.5(6) 62.1(7)
Pb1 O1 Pb1 1_5645 5_5555 134.9(8) 133.1(11) 137.4(5)
Pb1 O1 Bi1 1_5645 1_5545 62.7(4) 61.2(4) 66.7(4)
Pb1 O1 Bi1 1_5645 . 158.6(7) 158.6(7) 158.6(7)
Pb1 O1 Bi1 1_5645 1_5645 0.3(4) 0.0(5) 0.7(4)
Pb1 O1 Bi1 1_5645 1_5655 93.7(5) 93.7(5) 93.7(5)
Pb1 O1 Bi1 1_5645 5_4545 50.2(7) 50.2(7) 50.2(7)
Pb1 O1 Bi1 1_5645 5_4555 136.9(7) 134.2(11) 138.2(6)
Pb1 O1 Bi1 1_5645 5_5545 61.2(7) 60.8(6) 62.2(7)
Pb1 O1 Bi1 1_5645 5_5555 134.9(8) 133.1(11) 137.5(5)
Pb1 O1 O1 1_5645 1_4555 87.2(8) 86.3(9) 87.7(8)
Pb1 O1 O1 1_5645 1_5455 121.4(7) 120.7(7) 123.3(6)
Pb1 O1 O1 1_5645 1_5655 58.6(6) 56.7(6) 59.3(6)
Pb1 O1 O1 1_5645 1_6555 91.4(8) 90.3(7) 93.8(7)
Pb1 O1 O1 1_5645 5_4445 108.9(10) 108.1(12) 110.5(9)
Pb1 O1 O1 1_5645 5_4545 64.1(9) 63.9(9) 64.4(9)
Pb1 O1 O1 1_5645 5_5445 112.3(10) 111.3(10) 114.2(10)
Pb1 O1 O1 1_5645 5_5545 67.4(8) 67.2(8) 67.6(8)
Pb1 O1 O2 1_5645 . 112.8(18) 111.5(17) 114.8(19)
Pb1 O1 O2 1_5645 1_5655 70.2(15) 68.8(15) 71.7(15)
Pb1 O1 O2 1_5645 5_3545 87.1(11) 86.8(10) 87.4(11)
Pb1 O1 O3 1_5645 . 172.6(7) 171.2(9) 174.5(6)
Pb1 O1 O3 1_5645 1_5655 110.1(6) 109.0(6) 110.7(6)
Pb1 O1 O3 1_5645 5_4535 46.0(5) 42.7(5) 49.8(5)
Pb1 O1 O3 1_5645 5_5535 47.8(5) 47.4(5) 48.6(5)
Pb1 O1 Pb1 1_5665 5_4545 134.9(8) 133.1(11) 137.4(5)
Pb1 O1 Pb1 1_5665 5_4555 61.0(7) 60.5(6) 62.1(7)
Pb1 O1 Pb1 1_5665 5_5545 137.0(7) 134.2(11) 138.2(6)
Pb1 O1 Bi1 1_5665 . 158.6(7) 158.6(7) 158.6(7)
Pb1 O1 Bi1 1_5665 1_5565 62.7(4) 61.2(4) 66.7(4)
Pb1 O1 Bi1 1_5665 1_5655 93.7(5) 93.7(5) 93.7(5)
Pb1 O1 Bi1 1_5665 1_5665 0.3(4) 0.0(5) 0.7(4)
Pb1 O1 Bi1 1_5665 5_4545 134.9(8) 133.1(11) 137.5(5)
Pb1 O1 Bi1 1_5665 5_4555 61.2(7) 60.8(6) 62.2(7)
Pb1 O1 Bi1 1_5665 5_5545 136.9(7) 134.2(11) 138.2(6)
Pb1 O1 Bi1 1_5665 5_5555 50.2(7) 50.2(7) 50.2(7)
Pb1 O1 O1 1_5665 1_4555 91.4(8) 90.3(7) 93.8(7)
Pb1 O1 O1 1_5665 1_5455 121.4(7) 120.7(7) 123.3(6)
Pb1 O1 O1 1_5665 1_5655 58.6(6) 56.7(6) 59.3(6)
Pb1 O1 O1 1_5665 1_6555 87.2(8) 86.3(9) 87.7(8)
Pb1 O1 O1 1_5665 5_4455 112.3(10) 111.3(10) 114.2(10)
Pb1 O1 O1 1_5665 5_4555 67.4(8) 67.2(8) 67.6(8)
Pb1 O1 O1 1_5665 5_5455 108.9(10) 108.1(12) 110.5(9)
Pb1 O1 O1 1_5665 5_5555 64.1(9) 63.9(9) 64.4(9)
Pb1 O1 O2 1_5665 1_4555 112.8(18) 111.5(17) 114.8(19)
Pb1 O1 O2 1_5665 1_4655 70.2(15) 68.8(15) 71.7(15)
Pb1 O1 O2 1_5665 5_5555 87.1(11) 86.8(10) 87.4(11)
Pb1 O1 O3 1_5665 1_5545 172.6(7) 171.2(9) 174.5(6)
Pb1 O1 O3 1_5665 1_5645 110.1(6) 109.0(6) 110.7(6)
Pb1 O1 O3 1_5665 5_4555 47.8(5) 47.4(5) 48.6(5)
Pb1 O1 O3 1_5665 5_5555 46.0(5) 42.7(5) 49.8(5)
Pb1 O1 Pb1 5_4545 5_4555 88.1(11) 84.2(8) 102.2(17)
Pb1 O1 Pb1 5_4545 5_5545 84.2(8) 58.8(6) 101.6(11)
Pb1 O1 Pb1 5_4545 5_5555 175.9(12) 174.0(16) 180.0(5)
Pb1 O1 Bi1 5_4545 . 63.1(6) 63.1(6) 63.1(6)
Pb1 O1 Bi1 5_4545 1_5565 134.8(8) 132.9(11) 137.4(5)
Pb1 O1 Bi1 5_4545 1_5655 63.1(6) 63.1(6) 63.1(6)
Pb1 O1 Bi1 5_4545 1_5665 134.8(8) 132.9(11) 137.4(5)
Pb1 O1 Bi1 5_4545 5_4545 0.2(6) 0.0(5) 1.5(7)
Pb1 O1 Bi1 5_4545 5_4555 88.1(11) 84.3(8) 102.2(17)
Pb1 O1 Bi1 5_4545 5_5545 84.3(8) 58.9(5) 101.5(11)
Pb1 O1 Bi1 5_4545 5_5555 175.6(12) 173.3(18) 180.0(5)
Pb1 O1 O1 5_4545 1_4555 45.0(8) 37.1(8) 57.2(7)
Pb1 O1 O1 5_4545 1_5455 90.0(8) 90.0(7) 90.0(7)
Pb1 O1 O1 5_4545 1_5655 90.0(8) 90.0(7) 90.0(7)
Pb1 O1 O1 5_4545 1_6555 137.4(10) 128.8(10) 142.4(8)
Pb1 O1 O1 5_4545 5_4455 69.0(8) 67.9(9) 69.9(8)
Pb1 O1 O1 5_4545 5_4555 69.0(8) 67.9(9) 69.9(8)
Pb1 O1 O1 5_4545 5_5455 115.8(9) 112.0(8) 118.3(10)
Pb1 O1 O1 5_4545 5_5555 115.8(9) 112.0(8) 118.3(10)
Pb1 O1 O2 5_4545 1_4555 58.9(16) 56.2(15) 66.2(15)
Pb1 O1 O2 5_4545 1_4655 58.9(16) 56.2(15) 66.2(15)
Pb1 O1 O2 5_4545 . 122.2(15) 117.5(17) 125.0(15)
Pb1 O1 O2 5_4545 1_5655 122.2(15) 117.5(17) 125.0(15)
Pb1 O1 O2 5_4545 5_5555 125.6(13) 122.1(12) 128.5(14)
Pb1 O1 O3 5_4545 1_5545 56.8(5) 48.0(5) 64.7(6)
Pb1 O1 O3 5_4545 . 120.0(9) 117.5(4) 126.3(14)
Pb1 O1 O3 5_4545 1_5645 56.8(5) 48.0(5) 64.7(6)
Pb1 O1 O3 5_4545 1_5655 120.0(9) 117.5(4) 126.3(14)
Pb1 O1 O3 5_4545 5_4555 111.4(8) 108.6(9) 114.1(8)
Pb1 O1 O3 5_4545 5_5555 175.3(11) 168.7(8) 179.9(11)
Pb1 O1 Pb1 5_4555 5_5545 165.1(11) 154.6(9) 180.0(5)
Pb1 O1 Pb1 5_4555 5_5555 84.2(8) 58.8(5) 101.6(11)
Pb1 O1 Bi1 5_4555 1_5545 137.2(7) 134.9(11) 138.4(6)
Pb1 O1 Bi1 5_4555 . 53.7(6) 53.7(6) 53.7(6)
Pb1 O1 Bi1 5_4555 1_5565 60.6(6) 60.3(5) 61.4(7)
Pb1 O1 Bi1 5_4555 1_5645 137.2(7) 134.9(11) 138.4(6)
Pb1 O1 Bi1 5_4555 1_5655 53.7(6) 53.7(6) 53.7(6)
Pb1 O1 Bi1 5_4555 1_5665 60.6(6) 60.3(5) 61.4(7)
Pb1 O1 Bi1 5_4555 5_4545 88.3(11) 84.3(9) 103.1(18)
Pb1 O1 Bi1 5_4555 5_4555 0.0(5) 0.0(5) 0.4(6)
Pb1 O1 Bi1 5_4555 5_5545 165.0(11) 154.2(10) 180.0(5)
Pb1 O1 Bi1 5_4555 5_5555 84.7(8) 58.5(5) 102.1(12)
Pb1 O1 O1 5_4555 1_4555 46.5(8) 35.1(7) 62.0(8)
Pb1 O1 O1 5_4555 1_5455 90.0(8) 90.0(7) 90.0(7)
Pb1 O1 O1 5_4555 1_5655 90.0(8) 90.0(7) 90.0(7)
Pb1 O1 O1 5_4555 1_6555 130.7(9) 116.0(7) 142.7(11)
Pb1 O1 O1 5_4555 5_4445 72.9(10) 69.9(12) 74.3(10)
Pb1 O1 O1 5_4555 5_4545 72.9(10) 69.9(12) 74.3(10)
Pb1 O1 O1 5_4555 5_5445 110.4(9) 109.7(9) 110.7(9)
Pb1 O1 O1 5_4555 5_5455 121.3(11) 120.6(11) 122.8(12)
Pb1 O1 O1 5_4555 5_5545 110.4(9) 109.7(9) 110.7(9)
Pb1 O1 O1 5_4555 5_5555 121.3(11) 120.6(11) 122.8(12)
Pb1 O1 O2 5_4555 1_4555 59.6(17) 54.7(17) 68.7(19)
Pb1 O1 O2 5_4555 1_4655 59.6(17) 54.7(17) 68.7(19)
Pb1 O1 O2 5_4555 . 117.6(16) 110.2(17) 124.2(17)
Pb1 O1 O2 5_4555 1_5655 117.6(16) 110.2(17) 124.2(17)
Pb1 O1 O2 5_4555 5_3545 63.6(12) 63.0(13) 64.0(12)
Pb1 O1 O2 5_4555 5_5555 141.9(13) 141.9(13) 142.0(13)
Pb1 O1 O3 5_4555 1_5545 119.8(9) 113.4(13) 129.1(11)
Pb1 O1 O3 5_4555 . 55.6(6) 44.4(4) 63.1(8)
Pb1 O1 O3 5_4555 1_5645 119.8(9) 113.4(13) 129.1(11)
Pb1 O1 O3 5_4555 1_5655 55.6(6) 44.4(4) 63.1(8)
Pb1 O1 O3 5_4555 5_4535 113.5(10) 110.0(8) 114.8(12)
Pb1 O1 O3 5_4555 5_5535 172.3(8) 171.6(9) 172.9(8)
Pb1 O1 O3 5_4555 5_5555 89.2(9) 87.6(10) 91.1(7)
Pb1 O1 Pb1 5_5545 5_5555 88.1(11) 84.2(9) 102.2(18)
Pb1 O1 Bi1 5_5545 1_5545 60.6(6) 60.3(5) 61.4(7)
Pb1 O1 Bi1 5_5545 . 53.7(6) 53.7(6) 53.7(6)
Pb1 O1 Bi1 5_5545 1_5565 137.2(7) 134.9(11) 138.4(6)
Pb1 O1 Bi1 5_5545 1_5645 60.6(6) 60.3(5) 61.4(7)
Pb1 O1 Bi1 5_5545 1_5655 53.7(6) 53.7(6) 53.7(6)
Pb1 O1 Bi1 5_5545 1_5665 137.2(7) 134.9(11) 138.4(6)
Pb1 O1 Bi1 5_5545 5_4545 84.7(8) 58.5(5) 102.1(12)
Pb1 O1 Bi1 5_5545 5_4555 165.0(11) 154.2(10) 180.0(5)
Pb1 O1 Bi1 5_5545 5_5545 0.0(5) 0.0(5) 0.4(6)
Pb1 O1 Bi1 5_5545 5_5555 88.3(11) 84.3(9) 103.1(18)
Pb1 O1 O1 5_5545 1_4555 130.7(9) 116.0(7) 142.7(11)
Pb1 O1 O1 5_5545 1_5455 90.0(8) 90.0(7) 90.0(7)
Pb1 O1 O1 5_5545 1_5655 90.0(8) 90.0(7) 90.0(7)
Pb1 O1 O1 5_5545 1_6555 46.5(8) 35.1(7) 62.0(8)
Pb1 O1 O1 5_5545 5_4445 121.3(11) 120.6(11) 122.8(12)
Pb1 O1 O1 5_5545 5_4455 110.4(9) 109.7(9) 110.7(9)
Pb1 O1 O1 5_5545 5_4545 121.3(11) 120.6(11) 122.8(12)
Pb1 O1 O1 5_5545 5_4555 110.4(9) 109.7(9) 110.7(9)
Pb1 O1 O1 5_5545 5_5455 72.9(10) 69.9(12) 74.3(10)
Pb1 O1 O1 5_5545 5_5555 72.9(10) 69.9(12) 74.3(10)
Pb1 O1 O2 5_5545 1_4555 117.6(16) 110.2(17) 124.2(17)
Pb1 O1 O2 5_5545 1_4655 117.6(16) 110.2(17) 124.2(17)
Pb1 O1 O2 5_5545 . 59.6(17) 54.7(17) 68.7(19)
Pb1 O1 O2 5_5545 1_5655 59.6(17) 54.7(17) 68.7(19)
Pb1 O1 O2 5_5545 5_3545 141.9(13) 141.9(13) 142.0(13)
Pb1 O1 O2 5_5545 5_5555 63.6(12) 63.0(13) 64.0(12)
Pb1 O1 O3 5_5545 1_5545 55.6(6) 44.4(4) 63.1(8)
Pb1 O1 O3 5_5545 . 119.8(9) 113.4(13) 129.1(11)
Pb1 O1 O3 5_5545 1_5645 55.6(6) 44.4(4) 63.1(8)
Pb1 O1 O3 5_5545 1_5655 119.8(9) 113.4(13) 129.1(11)
Pb1 O1 O3 5_5545 5_4535 89.2(9) 87.6(10) 91.1(7)
Pb1 O1 O3 5_5545 5_4555 172.3(8) 171.6(9) 172.9(8)
Pb1 O1 O3 5_5545 5_5555 113.5(10) 110.0(8) 114.8(12)
Pb1 O1 Bi1 5_5555 1_5545 134.8(8) 132.9(11) 137.4(5)
Pb1 O1 Bi1 5_5555 . 63.1(6) 63.1(6) 63.1(6)
Pb1 O1 Bi1 5_5555 1_5645 134.8(8) 132.9(11) 137.4(5)
Pb1 O1 Bi1 5_5555 1_5655 63.1(6) 63.1(6) 63.1(6)
Pb1 O1 Bi1 5_5555 5_4545 175.6(12) 173.3(18) 180.0(5)
Pb1 O1 Bi1 5_5555 5_4555 84.3(8) 58.9(5) 101.5(11)
Pb1 O1 Bi1 5_5555 5_5545 88.1(11) 84.3(8) 102.2(17)
Pb1 O1 Bi1 5_5555 5_5555 0.2(6) 0.0(5) 1.5(7)
Pb1 O1 O1 5_5555 1_4555 137.4(10) 128.8(10) 142.4(8)
Pb1 O1 O1 5_5555 1_5455 90.0(8) 90.0(7) 90.0(7)
Pb1 O1 O1 5_5555 1_5655 90.0(8) 90.0(7) 90.0(7)
Pb1 O1 O1 5_5555 1_6555 45.0(8) 37.1(8) 57.2(7)
Pb1 O1 O1 5_5555 5_4445 115.8(9) 112.0(8) 118.3(10)
Pb1 O1 O1 5_5555 5_4545 115.8(9) 112.0(8) 118.3(10)
Pb1 O1 O1 5_5555 5_5445 69.0(8) 67.9(9) 69.9(8)
Pb1 O1 O1 5_5555 5_5545 69.0(8) 67.9(9) 69.9(8)
Pb1 O1 O2 5_5555 1_4555 122.2(15) 117.5(17) 125.0(15)
Pb1 O1 O2 5_5555 1_4655 122.2(15) 117.5(17) 125.0(15)
Pb1 O1 O2 5_5555 . 58.9(16) 56.2(15) 66.2(15)
Pb1 O1 O2 5_5555 1_5655 58.9(16) 56.2(15) 66.2(15)
Pb1 O1 O2 5_5555 5_3545 125.6(13) 122.1(12) 128.5(14)
Pb1 O1 O3 5_5555 1_5545 120.0(9) 117.5(4) 126.3(14)
Pb1 O1 O3 5_5555 . 56.8(5) 48.0(5) 64.7(6)
Pb1 O1 O3 5_5555 1_5645 120.0(9) 117.5(4) 126.3(14)
Pb1 O1 O3 5_5555 1_5655 56.8(5) 48.0(5) 64.7(6)
Pb1 O1 O3 5_5555 5_4535 175.3(11) 168.7(8) 179.9(11)
Pb1 O1 O3 5_5555 5_5535 111.4(8) 108.6(9) 114.1(8)
Bi1 O1 Bi1 1_5545 . 93.7(5) 93.7(5) 93.7(5)
Bi1 O1 Bi1 1_5545 1_5645 62.5(4) 60.9(4) 66.7(4)
Bi1 O1 Bi1 1_5545 1_5655 158.6(7) 158.6(7) 158.6(7)
Bi1 O1 Bi1 1_5545 5_4545 50.5(7) 50.5(7) 50.5(7)
Bi1 O1 Bi1 1_5545 5_4555 137.2(7) 134.9(11) 138.4(6)
Bi1 O1 Bi1 1_5545 5_5545 60.8(7) 60.5(6) 61.5(7)
Bi1 O1 Bi1 1_5545 5_5555 134.8(8) 132.8(11) 137.5(5)
Bi1 O1 O1 1_5545 1_4555 87.6(8) 86.9(9) 87.9(8)
Bi1 O1 O1 1_5545 1_5455 58.7(6) 56.7(6) 59.5(6)
Bi1 O1 O1 1_5545 1_5655 121.3(7) 120.5(7) 123.3(6)
Bi1 O1 O1 1_5545 1_6555 91.1(8) 90.0(8) 93.8(7)
Bi1 O1 O1 1_5545 5_4445 64.4(9) 64.1(9) 65.1(9)
Bi1 O1 O1 1_5545 5_4545 109.0(10) 108.3(12) 110.5(9)
Bi1 O1 O1 1_5545 5_5445 67.4(8) 67.2(8) 67.6(8)
Bi1 O1 O1 1_5545 5_5545 112.2(10) 111.1(10) 114.2(10)
Bi1 O1 O2 1_5545 . 70.1(15) 68.7(15) 71.5(15)
Bi1 O1 O2 1_5545 1_5655 112.4(18) 111.2(17) 114.1(19)
Bi1 O1 O2 1_5545 5_3545 87.2(11) 86.8(10) 87.6(11)
Bi1 O1 O3 1_5545 . 110.2(6) 109.0(6) 110.8(6)
Bi1 O1 O3 1_5545 1_5655 172.4(7) 170.8(9) 174.5(6)
Bi1 O1 O3 1_5545 5_4535 46.1(5) 43.0(5) 49.9(5)
Bi1 O1 O3 1_5545 5_5535 47.7(5) 47.3(5) 48.6(5)
Bi1 O1 Bi1 . 1_5565 93.7(3) 93.7(3) 93.7(3)
Bi1 O1 Bi1 . 1_5645 158.6(5) 158.6(5) 158.6(5)
Bi1 O1 Bi1 . 1_5655 104.0(7) 104.0(7) 104.0(7)
Bi1 O1 Bi1 . 1_5665 158.6(5) 158.6(5) 158.6(5)
Bi1 O1 Bi1 . 5_4545 63.0(4) 63.0(4) 63.0(4)
Bi1 O1 Bi1 . 5_4555 53.8(3) 53.8(3) 53.8(3)
Bi1 O1 Bi1 . 5_5545 53.8(3) 53.8(3) 53.8(3)
Bi1 O1 Bi1 . 5_5555 63.0(4) 63.0(4) 63.0(4)
Bi1 O1 O1 . 1_4555 96.0(6) 96.0(6) 96.0(6)
Bi1 O1 O1 . 1_5455 38.0(6) 38.0(6) 38.0(6)
Bi1 O1 O1 . 1_5655 142.0(7) 142.0(7) 142.0(7)
Bi1 O1 O1 . 1_6555 96.0(6) 96.0(6) 96.0(6)
Bi1 O1 O1 . 5_4445 50.2(8) 50.2(8) 50.2(8)
Bi1 O1 O1 . 5_4455 61.9(9) 61.9(9) 61.9(9)
Bi1 O1 O1 . 5_4545 119.1(11) 119.1(11) 119.1(11)
Bi1 O1 O1 . 5_4555 131.6(10) 131.6(10) 131.6(10)
Bi1 O1 O1 . 5_5445 61.9(9) 61.9(9) 61.9(9)
Bi1 O1 O1 . 5_5455 50.2(8) 50.2(8) 50.2(8)
Bi1 O1 O1 . 5_5545 131.6(10) 131.6(10) 131.6(10)
Bi1 O1 O1 . 5_5555 119.1(11) 119.1(11) 119.1(11)
Bi1 O1 O2 . 5_3545 83.5(8) 83.5(8) 83.5(8)
Bi1 O1 O2 . 5_5555 83.5(8) 83.5(8) 83.5(8)
Bi1 O1 O3 . 1_5545 15.9(5) 15.9(5) 15.9(5)
Bi1 O1 O3 . . 15.9(5) 15.9(5) 15.9(5)
Bi1 O1 O3 . 1_5645 89.9(7) 89.9(7) 89.9(7)
Bi1 O1 O3 . 1_5655 89.9(7) 89.9(7) 89.9(7)
Bi1 O1 O3 . 5_4535 111.3(6) 111.3(6) 111.3(6)
Bi1 O1 O3 . 5_4555 124.5(4) 124.5(4) 124.5(4)
Bi1 O1 O3 . 5_5535 124.5(4) 124.5(4) 124.5(4)
Bi1 O1 O3 . 5_5555 111.3(6) 111.3(6) 111.3(6)
Bi1 O1 Bi1 1_5565 1_5655 158.6(7) 158.6(7) 158.6(7)
Bi1 O1 Bi1 1_5565 1_5665 62.5(4) 60.9(4) 66.7(4)
Bi1 O1 Bi1 1_5565 5_4545 134.8(8) 132.8(11) 137.5(5)
Bi1 O1 Bi1 1_5565 5_4555 60.8(7) 60.5(6) 61.5(7)
Bi1 O1 Bi1 1_5565 5_5545 137.2(7) 134.9(11) 138.4(6)
Bi1 O1 Bi1 1_5565 5_5555 50.5(7) 50.5(7) 50.5(7)
Bi1 O1 O1 1_5565 1_4555 91.1(8) 90.0(8) 93.8(7)
Bi1 O1 O1 1_5565 1_5455 58.7(6) 56.7(6) 59.5(6)
Bi1 O1 O1 1_5565 1_5655 121.3(7) 120.5(7) 123.3(6)
Bi1 O1 O1 1_5565 1_6555 87.6(8) 86.9(9) 87.9(8)
Bi1 O1 O1 1_5565 5_4455 67.4(8) 67.2(8) 67.6(8)
Bi1 O1 O1 1_5565 5_4555 112.2(10) 111.1(10) 114.2(10)
Bi1 O1 O1 1_5565 5_5455 64.4(9) 64.1(9) 65.1(9)
Bi1 O1 O1 1_5565 5_5555 109.0(10) 108.3(12) 110.5(9)
Bi1 O1 O2 1_5565 1_4555 70.1(15) 68.7(15) 71.5(15)
Bi1 O1 O2 1_5565 1_4655 112.4(18) 111.2(17) 114.1(19)
Bi1 O1 O2 1_5565 5_5555 87.2(11) 86.8(10) 87.6(11)
Bi1 O1 O3 1_5565 1_5545 110.2(6) 109.0(6) 110.8(6)
Bi1 O1 O3 1_5565 1_5645 172.4(7) 170.8(9) 174.5(6)
Bi1 O1 O3 1_5565 5_4555 47.7(5) 47.3(5) 48.6(5)
Bi1 O1 O3 1_5565 5_5555 46.1(5) 43.0(5) 49.9(5)
Bi1 O1 Bi1 1_5645 1_5655 93.7(5) 93.7(5) 93.7(5)
Bi1 O1 Bi1 1_5645 5_4545 50.5(7) 50.5(7) 50.5(7)
Bi1 O1 Bi1 1_5645 5_4555 137.2(7) 134.9(11) 138.4(6)
Bi1 O1 Bi1 1_5645 5_5545 60.8(7) 60.5(6) 61.5(7)
Bi1 O1 Bi1 1_5645 5_5555 134.8(8) 132.8(11) 137.5(5)
Bi1 O1 O1 1_5645 1_4555 87.6(8) 86.9(9) 87.9(8)
Bi1 O1 O1 1_5645 1_5455 121.3(7) 120.5(7) 123.3(6)
Bi1 O1 O1 1_5645 1_5655 58.7(6) 56.7(6) 59.5(6)
Bi1 O1 O1 1_5645 1_6555 91.1(8) 90.0(8) 93.8(7)
Bi1 O1 O1 1_5645 5_4445 109.0(10) 108.3(12) 110.5(9)
Bi1 O1 O1 1_5645 5_4545 64.4(9) 64.1(9) 65.1(9)
Bi1 O1 O1 1_5645 5_5445 112.2(10) 111.1(10) 114.2(10)
Bi1 O1 O1 1_5645 5_5545 67.4(8) 67.2(8) 67.6(8)
Bi1 O1 O2 1_5645 . 112.4(18) 111.2(17) 114.1(19)
Bi1 O1 O2 1_5645 1_5655 70.1(15) 68.7(15) 71.5(15)
Bi1 O1 O2 1_5645 5_3545 87.2(11) 86.8(10) 87.6(11)
Bi1 O1 O3 1_5645 . 172.4(7) 170.8(9) 174.5(6)
Bi1 O1 O3 1_5645 1_5655 110.2(6) 109.0(6) 110.8(6)
Bi1 O1 O3 1_5645 5_4535 46.1(5) 43.0(5) 49.9(5)
Bi1 O1 O3 1_5645 5_5535 47.7(5) 47.3(5) 48.6(5)
Bi1 O1 Bi1 1_5655 1_5665 93.7(3) 93.7(3) 93.7(3)
Bi1 O1 Bi1 1_5655 5_4545 63.0(4) 63.0(4) 63.0(4)
Bi1 O1 Bi1 1_5655 5_4555 53.8(3) 53.8(3) 53.8(3)
Bi1 O1 Bi1 1_5655 5_5545 53.8(3) 53.8(3) 53.8(3)
Bi1 O1 Bi1 1_5655 5_5555 63.0(4) 63.0(4) 63.0(4)
Bi1 O1 O1 1_5655 1_4555 96.0(6) 96.0(6) 96.0(6)
Bi1 O1 O1 1_5655 1_5455 142.0(7) 142.0(7) 142.0(7)
Bi1 O1 O1 1_5655 1_5655 38.0(6) 38.0(6) 38.0(6)
Bi1 O1 O1 1_5655 1_6555 96.0(6) 96.0(6) 96.0(6)
Bi1 O1 O1 1_5655 5_4445 119.1(11) 119.1(11) 119.1(11)
Bi1 O1 O1 1_5655 5_4455 131.6(10) 131.6(10) 131.6(10)
Bi1 O1 O1 1_5655 5_4545 50.2(8) 50.2(8) 50.2(8)
Bi1 O1 O1 1_5655 5_4555 61.9(9) 61.9(9) 61.9(9)
Bi1 O1 O1 1_5655 5_5445 131.6(10) 131.6(10) 131.6(10)
Bi1 O1 O1 1_5655 5_5455 119.1(11) 119.1(11) 119.1(11)
Bi1 O1 O1 1_5655 5_5545 61.9(9) 61.9(9) 61.9(9)
Bi1 O1 O1 1_5655 5_5555 50.2(8) 50.2(8) 50.2(8)
Bi1 O1 O2 1_5655 5_3545 83.5(8) 83.5(8) 83.5(8)
Bi1 O1 O2 1_5655 5_5555 83.5(8) 83.5(8) 83.5(8)
Bi1 O1 O3 1_5655 1_5545 89.9(7) 89.9(7) 89.9(7)
Bi1 O1 O3 1_5655 . 89.9(7) 89.9(7) 89.9(7)
Bi1 O1 O3 1_5655 1_5645 15.9(5) 15.9(5) 15.9(5)
Bi1 O1 O3 1_5655 1_5655 15.9(5) 15.9(5) 15.9(5)
Bi1 O1 O3 1_5655 5_4535 111.3(6) 111.3(6) 111.3(6)
Bi1 O1 O3 1_5655 5_4555 124.5(4) 124.5(4) 124.5(4)
Bi1 O1 O3 1_5655 5_5535 124.5(4) 124.5(4) 124.5(4)
Bi1 O1 O3 1_5655 5_5555 111.3(6) 111.3(6) 111.3(6)
Bi1 O1 Bi1 1_5665 5_4545 134.8(8) 132.8(11) 137.5(5)
Bi1 O1 Bi1 1_5665 5_4555 60.8(7) 60.5(6) 61.5(7)
Bi1 O1 Bi1 1_5665 5_5545 137.2(7) 134.9(11) 138.4(6)
Bi1 O1 Bi1 1_5665 5_5555 50.5(7) 50.5(7) 50.5(7)
Bi1 O1 O1 1_5665 1_4555 91.1(8) 90.0(8) 93.8(7)
Bi1 O1 O1 1_5665 1_5455 121.3(7) 120.5(7) 123.3(6)
Bi1 O1 O1 1_5665 1_5655 58.7(6) 56.7(6) 59.5(6)
Bi1 O1 O1 1_5665 1_6555 87.6(8) 86.9(9) 87.9(8)
Bi1 O1 O1 1_5665 5_4455 112.2(10) 111.1(10) 114.2(10)
Bi1 O1 O1 1_5665 5_4555 67.4(8) 67.2(8) 67.6(8)
Bi1 O1 O1 1_5665 5_5455 109.0(10) 108.3(12) 110.5(9)
Bi1 O1 O1 1_5665 5_5555 64.4(9) 64.1(9) 65.1(9)
Bi1 O1 O2 1_5665 1_4555 112.4(18) 111.2(17) 114.1(19)
Bi1 O1 O2 1_5665 1_4655 70.1(15) 68.7(15) 71.5(15)
Bi1 O1 O2 1_5665 5_5555 87.2(11) 86.8(10) 87.6(11)
Bi1 O1 O3 1_5665 1_5545 172.4(7) 170.8(9) 174.5(6)
Bi1 O1 O3 1_5665 1_5645 110.2(6) 109.0(6) 110.8(6)
Bi1 O1 O3 1_5665 5_4555 47.7(5) 47.3(5) 48.6(5)
Bi1 O1 O3 1_5665 5_5555 46.1(5) 43.0(5) 49.9(5)
Bi1 O1 Bi1 5_4545 5_4555 88.3(11) 84.3(8) 103.0(17)
Bi1 O1 Bi1 5_4545 5_5545 84.7(8) 58.7(5) 102.1(11)
Bi1 O1 Bi1 5_4545 5_5555 175.4(13) 173.3(16) 180.0(5)
Bi1 O1 O1 5_4545 1_4555 44.9(8) 36.9(8) 57.4(7)
Bi1 O1 O1 5_4545 1_5455 90.0(8) 90.0(7) 90.0(7)
Bi1 O1 O1 5_4545 1_5655 90.0(8) 90.0(7) 90.0(7)
Bi1 O1 O1 5_4545 1_6555 137.5(10) 128.8(10) 142.5(8)
Bi1 O1 O1 5_4545 5_4445 59.1(11) 59.1(11) 59.1(11)
Bi1 O1 O1 5_4545 5_4455 69.1(8) 67.9(9) 70.1(8)
Bi1 O1 O1 5_4545 5_4545 59.1(11) 59.1(11) 59.1(11)
Bi1 O1 O1 5_4545 5_4555 69.1(8) 67.9(9) 70.1(8)
Bi1 O1 O1 5_4545 5_5455 115.8(9) 111.9(8) 118.3(10)
Bi1 O1 O1 5_4545 5_5555 115.8(9) 111.9(8) 118.3(10)
Bi1 O1 O2 5_4545 1_4555 58.8(16) 56.1(15) 66.2(15)
Bi1 O1 O2 5_4545 1_4655 58.8(16) 56.1(15) 66.2(15)
Bi1 O1 O2 5_4545 . 122.2(15) 117.5(17) 125.1(15)
Bi1 O1 O2 5_4545 1_5655 122.2(15) 117.5(17) 125.1(15)
Bi1 O1 O2 5_4545 5_5555 125.5(13) 121.8(12) 128.5(14)
Bi1 O1 O3 5_4545 1_5545 56.9(5) 48.0(5) 64.8(6)
Bi1 O1 O3 5_4545 . 120.1(9) 117.5(4) 126.5(13)
Bi1 O1 O3 5_4545 1_5645 56.9(5) 48.0(5) 64.8(6)
Bi1 O1 O3 5_4545 1_5655 120.1(9) 117.5(4) 126.5(13)
Bi1 O1 O3 5_4545 5_4535 10.7(6) 10.7(6) 10.7(6)
Bi1 O1 O3 5_4545 5_4555 111.5(8) 108.6(9) 114.4(8)
Bi1 O1 O3 5_4545 5_5555 175.2(11) 168.5(8) 179.9(11)
Bi1 O1 Bi1 5_4555 5_5545 165.0(11) 154.2(10) 180.0(5)
Bi1 O1 Bi1 5_4555 5_5555 84.7(8) 58.7(5) 102.1(12)
Bi1 O1 O1 5_4555 1_4555 46.5(8) 34.8(7) 62.0(8)
Bi1 O1 O1 5_4555 1_5455 90.0(8) 90.0(7) 90.0(7)
Bi1 O1 O1 5_4555 1_5655 90.0(8) 90.0(7) 90.0(7)
Bi1 O1 O1 5_4555 1_6555 130.7(9) 116.1(7) 142.9(11)
Bi1 O1 O1 5_4555 5_4445 72.8(10) 69.9(12) 74.2(10)
Bi1 O1 O1 5_4555 5_4545 72.8(10) 69.9(12) 74.2(10)
Bi1 O1 O1 5_4555 5_5445 110.4(9) 109.8(9) 110.7(9)
Bi1 O1 O1 5_4555 5_5455 121.4(11) 120.8(11) 122.9(12)
Bi1 O1 O1 5_4555 5_5545 110.4(9) 109.8(9) 110.7(9)
Bi1 O1 O1 5_4555 5_5555 121.4(11) 120.8(11) 122.9(12)
Bi1 O1 O2 5_4555 1_4555 59.6(17) 54.5(17) 68.7(19)
Bi1 O1 O2 5_4555 1_4655 59.6(17) 54.5(17) 68.7(19)
Bi1 O1 O2 5_4555 . 117.6(16) 110.2(17) 124.2(17)
Bi1 O1 O2 5_4555 1_5655 117.6(16) 110.2(17) 124.2(17)
Bi1 O1 O2 5_4555 5_3545 63.5(12) 63.0(13) 63.9(12)
Bi1 O1 O2 5_4555 5_5555 142.3(13) 142.3(13) 142.3(13)
Bi1 O1 O3 5_4555 1_5545 119.8(9) 113.3(13) 129.1(11)
Bi1 O1 O3 5_4555 . 55.6(6) 44.5(4) 63.1(8)
Bi1 O1 O3 5_4555 1_5645 119.8(9) 113.3(13) 129.1(11)
Bi1 O1 O3 5_4555 1_5655 55.6(6) 44.5(4) 63.1(8)
Bi1 O1 O3 5_4555 5_4535 113.4(10) 109.8(8) 114.8(12)
Bi1 O1 O3 5_4555 5_5535 172.4(8) 171.7(9) 173.0(8)
Bi1 O1 O3 5_4555 5_5555 89.5(9) 87.7(10) 91.6(7)
Bi1 O1 Bi1 5_5545 5_5555 88.3(11) 84.3(9) 103.0(18)
Bi1 O1 O1 5_5545 1_4555 130.7(9) 116.1(7) 142.9(11)
Bi1 O1 O1 5_5545 1_5455 90.0(8) 90.0(7) 90.0(7)
Bi1 O1 O1 5_5545 1_5655 90.0(8) 90.0(7) 90.0(7)
Bi1 O1 O1 5_5545 1_6555 46.5(8) 34.8(7) 62.0(8)
Bi1 O1 O1 5_5545 5_4445 121.4(11) 120.8(11) 122.9(12)
Bi1 O1 O1 5_5545 5_4455 110.4(9) 109.8(9) 110.7(9)
Bi1 O1 O1 5_5545 5_4545 121.4(11) 120.8(11) 122.9(12)
Bi1 O1 O1 5_5545 5_4555 110.4(9) 109.8(9) 110.7(9)
Bi1 O1 O1 5_5545 5_5455 72.8(10) 69.9(12) 74.2(10)
Bi1 O1 O1 5_5545 5_5555 72.8(10) 69.9(12) 74.2(10)
Bi1 O1 O2 5_5545 1_4555 117.6(16) 110.2(17) 124.2(17)
Bi1 O1 O2 5_5545 1_4655 117.6(16) 110.2(17) 124.2(17)
Bi1 O1 O2 5_5545 . 59.6(17) 54.5(17) 68.7(19)
Bi1 O1 O2 5_5545 1_5655 59.6(17) 54.5(17) 68.7(19)
Bi1 O1 O2 5_5545 5_3545 142.3(13) 142.3(13) 142.3(13)
Bi1 O1 O2 5_5545 5_5555 63.5(12) 63.0(13) 63.9(12)
Bi1 O1 O3 5_5545 1_5545 55.6(6) 44.5(4) 63.1(8)
Bi1 O1 O3 5_5545 . 119.8(9) 113.3(13) 129.1(11)
Bi1 O1 O3 5_5545 1_5645 55.6(6) 44.5(4) 63.1(8)
Bi1 O1 O3 5_5545 1_5655 119.8(9) 113.3(13) 129.1(11)
Bi1 O1 O3 5_5545 5_4535 89.5(9) 87.7(10) 91.6(7)
Bi1 O1 O3 5_5545 5_4555 172.4(8) 171.7(9) 173.0(8)
Bi1 O1 O3 5_5545 5_5555 113.4(10) 109.8(8) 114.8(12)
Bi1 O1 O1 5_5555 1_4555 137.5(10) 128.8(10) 142.5(8)
Bi1 O1 O1 5_5555 1_5455 90.0(8) 90.0(7) 90.0(7)
Bi1 O1 O1 5_5555 1_5655 90.0(8) 90.0(7) 90.0(7)
Bi1 O1 O1 5_5555 1_6555 44.9(8) 36.9(8) 57.4(7)
Bi1 O1 O1 5_5555 5_4445 115.8(9) 111.9(8) 118.3(10)
Bi1 O1 O1 5_5555 5_4545 115.8(9) 111.9(8) 118.3(10)
Bi1 O1 O1 5_5555 5_5445 69.1(8) 67.9(9) 70.1(8)
Bi1 O1 O1 5_5555 5_5455 59.1(11) 59.1(11) 59.1(11)
Bi1 O1 O1 5_5555 5_5545 69.1(8) 67.9(9) 70.1(8)
Bi1 O1 O1 5_5555 5_5555 59.1(11) 59.1(11) 59.1(11)
Bi1 O1 O2 5_5555 1_4555 122.2(15) 117.5(17) 125.1(15)
Bi1 O1 O2 5_5555 1_4655 122.2(15) 117.5(17) 125.1(15)
Bi1 O1 O2 5_5555 . 58.8(16) 56.1(15) 66.2(15)
Bi1 O1 O2 5_5555 1_5655 58.8(16) 56.1(15) 66.2(15)
Bi1 O1 O2 5_5555 5_3545 125.5(13) 121.8(12) 128.5(14)
Bi1 O1 O3 5_5555 1_5545 120.1(9) 117.5(4) 126.5(13)
Bi1 O1 O3 5_5555 . 56.9(5) 48.0(5) 64.8(6)
Bi1 O1 O3 5_5555 1_5645 120.1(9) 117.5(4) 126.5(13)
Bi1 O1 O3 5_5555 1_5655 56.9(5) 48.0(5) 64.8(6)
Bi1 O1 O3 5_5555 5_4535 175.2(11) 168.5(8) 179.9(11)
Bi1 O1 O3 5_5555 5_5535 111.5(8) 108.6(9) 114.4(8)
Bi1 O1 O3 5_5555 5_5555 10.7(6) 10.7(6) 10.7(6)
O1 O1 O1 1_4555 1_5455 90.0(10) 90.0(8) 90.0(8)
O1 O1 O1 1_4555 1_5655 90.0(10) 90.0(8) 90.0(8)
O1 O1 O1 1_4555 1_6555 178.9(8) 177.6(10) 180.0(5)
O1 O1 O1 1_4555 5_4445 46.8(11) 45.7(11) 47.6(11)
O1 O1 O1 1_4555 5_4455 45.9(9) 45.7(9) 46.1(9)
O1 O1 O1 1_4555 5_4545 46.8(11) 45.7(11) 47.6(11)
O1 O1 O1 1_4555 5_4555 45.9(9) 45.7(9) 46.1(9)
O1 O1 O1 1_4555 5_5455 133.0(10) 132.1(11) 134.4(9)
O1 O1 O1 1_4555 5_5555 133.0(10) 132.1(11) 134.4(9)
O1 O1 O2 1_4555 1_4555 44.6(16) 43.9(15) 46.4(18)
O1 O1 O2 1_4555 1_4655 44.6(16) 43.9(15) 46.4(18)
O1 O1 O2 1_4555 . 135.4(16) 133.6(18) 136.1(15)
O1 O1 O2 1_4555 1_5655 135.4(16) 133.6(18) 136.1(15)
O1 O1 O2 1_4555 5_5555 178.3(13) 177.2(13) 179.7(12)
O1 O1 O3 1_4555 1_5545 88.6(6) 86.4(10) 90.8(9)
O1 O1 O3 1_4555 . 91.7(7) 88.5(9) 95.1(9)
O1 O1 O3 1_4555 1_5645 88.6(6) 86.4(10) 90.8(9)
O1 O1 O3 1_4555 1_5655 91.7(7) 88.5(9) 95.1(9)
O1 O1 O3 1_4555 5_4535 54.0(8) 52.8(7) 54.8(9)
O1 O1 O3 1_4555 5_4555 55.0(7) 53.1(8) 56.9(7)
O1 O1 O3 1_4555 5_5555 127.1(9) 123.4(12) 134.1(8)
O1 O1 O1 1_5455 1_5655 180.0(5) 180.0(5) 180.0(5)
O1 O1 O1 1_5455 1_6555 90.0(6) 90 90
O1 O1 O1 1_5455 5_4445 43.1(10) 42.3(10) 44.4(9)
O1 O1 O1 1_5455 5_4455 44.2(9) 44.0(9) 44.4(9)
O1 O1 O1 1_5455 5_4545 136.9(14) 135.6(10) 137.7(14)
O1 O1 O1 1_5455 5_4555 135.8(11) 135.6(11) 136.0(11)
O1 O1 O1 1_5455 5_5445 44.2(9) 44.0(9) 44.4(9)
O1 O1 O1 1_5455 5_5455 43.1(10) 42.3(10) 44.4(9)
O1 O1 O1 1_5455 5_5545 135.8(11) 135.6(11) 136.0(11)
O1 O1 O1 1_5455 5_5555 136.9(14) 135.6(10) 137.7(14)
O1 O1 O2 1_5455 1_4555 45.4(16) 43.6(18) 46.1(15)
O1 O1 O2 1_5455 1_4655 134.6(19) 133.9(15) 136(2)
O1 O1 O2 1_5455 . 45.4(16) 43.6(18) 46.1(15)
O1 O1 O2 1_5455 1_5655 134.6(19) 133.9(15) 136(2)
O1 O1 O2 1_5455 5_3545 90.0(4) 90.0(4) 90.0(4)
O1 O1 O2 1_5455 5_5555 90.0(4) 90.0(6) 90.0(6)
O1 O1 O3 1_5455 1_5545 48.7(7) 46.2(7) 52.5(6)
O1 O1 O3 1_5455 . 48.7(7) 46.2(7) 52.5(6)
O1 O1 O3 1_5455 1_5645 131.3(8) 127.5(6) 133.8(7)
O1 O1 O3 1_5455 1_5655 131.3(8) 127.5(6) 133.8(7)
O1 O1 O3 1_5455 5_4535 90.0(5) 90.0(3) 90.0(3)
O1 O1 O3 1_5455 5_4555 90.0(3) 90.0(4) 90.0(4)
O1 O1 O3 1_5455 5_5535 90.0(3) 90.0(3) 90.0(3)
O1 O1 O3 1_5455 5_5555 90.0(5) 90.0(7) 90.0(7)
O1 O1 O1 1_5655 1_6555 90.0(6) 90 90
O1 O1 O1 1_5655 5_4445 136.9(14) 135.6(10) 137.7(14)
O1 O1 O1 1_5655 5_4455 135.8(11) 135.6(11) 136.0(11)
O1 O1 O1 1_5655 5_4545 43.1(10) 42.3(10) 44.4(9)
O1 O1 O1 1_5655 5_4555 44.2(9) 44.0(9) 44.4(9)
O1 O1 O1 1_5655 5_5445 135.8(11) 135.6(11) 136.0(11)
O1 O1 O1 1_5655 5_5455 136.9(14) 135.6(10) 137.7(14)
O1 O1 O1 1_5655 5_5545 44.2(9) 44.0(9) 44.4(9)
O1 O1 O1 1_5655 5_5555 43.1(10) 42.3(10) 44.4(9)
O1 O1 O2 1_5655 1_4555 134.6(19) 133.9(15) 136(2)
O1 O1 O2 1_5655 1_4655 45.4(16) 43.6(18) 46.1(15)
O1 O1 O2 1_5655 . 134.6(19) 133.9(15) 136(2)
O1 O1 O2 1_5655 1_5655 45.4(16) 43.6(18) 46.1(15)
O1 O1 O2 1_5655 5_3545 90.0(4) 90.0(4) 90.0(4)
O1 O1 O2 1_5655 5_5555 90.0(4) 90.0(6) 90.0(6)
O1 O1 O3 1_5655 1_5545 131.3(8) 127.5(6) 133.8(7)
O1 O1 O3 1_5655 . 131.3(8) 127.5(6) 133.8(7)
O1 O1 O3 1_5655 1_5645 48.7(7) 46.2(7) 52.5(6)
O1 O1 O3 1_5655 1_5655 48.7(7) 46.2(7) 52.5(6)
O1 O1 O3 1_5655 5_4535 90.0(5) 90.0(3) 90.0(3)
O1 O1 O3 1_5655 5_4555 90.0(3) 90.0(4) 90.0(4)
O1 O1 O3 1_5655 5_5535 90.0(3) 90.0(3) 90.0(3)
O1 O1 O3 1_5655 5_5555 90.0(5) 90.0(7) 90.0(7)
O1 O1 O1 1_6555 5_4445 133.0(10) 132.1(11) 134.4(9)
O1 O1 O1 1_6555 5_4545 133.0(10) 132.1(11) 134.4(9)
O1 O1 O1 1_6555 5_5445 45.9(9) 45.7(9) 46.1(9)
O1 O1 O1 1_6555 5_5455 46.8(11) 45.7(11) 47.6(11)
O1 O1 O1 1_6555 5_5545 45.9(9) 45.7(9) 46.1(9)
O1 O1 O1 1_6555 5_5555 46.8(11) 45.7(11) 47.6(11)
O1 O1 O2 1_6555 1_4555 135.4(16) 133.6(18) 136.1(15)
O1 O1 O2 1_6555 1_4655 135.4(16) 133.6(18) 136.1(15)
O1 O1 O2 1_6555 . 44.6(16) 43.9(15) 46.4(18)
O1 O1 O2 1_6555 1_5655 44.6(16) 43.9(15) 46.4(18)
O1 O1 O2 1_6555 5_3545 178.3(13) 177.2(13) 179.7(12)
O1 O1 O3 1_6555 1_5545 91.7(7) 88.5(9) 95.1(9)
O1 O1 O3 1_6555 . 88.6(6) 86.4(10) 90.8(9)
O1 O1 O3 1_6555 1_5645 91.7(7) 88.5(9) 95.1(9)
O1 O1 O3 1_6555 1_5655 88.6(6) 86.4(10) 90.8(9)
O1 O1 O3 1_6555 5_4535 127.1(9) 123.4(12) 134.1(8)
O1 O1 O3 1_6555 5_5535 55.0(7) 53.1(8) 56.9(7)
O1 O1 O3 1_6555 5_5555 54.0(8) 52.8(7) 54.8(9)
O1 O1 O1 5_4445 5_4545 93.8(14) 91.3(12) 95.3(14)
O1 O1 O1 5_4445 5_5445 87.4(11) 86.4(10) 88.3(11)
O1 O1 O1 5_4445 5_5545 176.3(11) 175.2(12) 178.0(11)
O1 O1 O2 5_4445 . 87.9(16) 87.2(16) 89.3(16)
O1 O1 O2 5_4445 1_5655 177(2) 175.3(19) 179(2)
O1 O1 O2 5_4445 5_3545 47.0(7) 45.6(8) 47.7(6)
O1 O1 O3 5_4445 . 67.0(7) 63.8(7) 68.2(6)
O1 O1 O3 5_4445 1_5655 121.2(11) 115.4(9) 123.4(12)
O1 O1 O3 5_4445 5_4535 63.3(7) 61.1(7) 65.4(9)
O1 O1 O3 5_4445 5_5535 111.6(8) 111.0(7) 112.7(8)
O1 O1 O1 5_4455 5_4555 91.6(11) 91.3(11) 92.1(11)
O1 O1 O1 5_4455 5_5455 87.4(9) 86.4(10) 88.3(9)
O1 O1 O1 5_4455 5_5555 176.3(10) 175.2(11) 178.0(10)
O1 O1 O2 5_4455 5_5555 134.1(4) 133.9(5) 134.2(4)
O1 O1 O3 5_4455 1_5545 64.8(5) 63.2(5) 66.1(5)
O1 O1 O3 5_4455 1_5645 117.0(7) 115.8(7) 118.1(7)
O1 O1 O3 5_4455 5_4555 64.8(6) 64.2(6) 65.8(6)
O1 O1 O3 5_4455 5_5555 115.4(6) 114.1(6) 117.0(6)
O1 O1 O1 5_4545 5_5445 176.3(11) 175.2(12) 178.0(11)
O1 O1 O1 5_4545 5_5545 87.4(11) 86.4(10) 88.3(11)
O1 O1 O2 5_4545 . 177(2) 175.3(19) 179(2)
O1 O1 O2 5_4545 1_5655 87.9(16) 87.2(16) 89.3(16)
O1 O1 O2 5_4545 5_3545 47.0(7) 45.6(8) 47.7(6)
O1 O1 O3 5_4545 . 121.2(11) 115.4(9) 123.4(12)
O1 O1 O3 5_4545 1_5655 67.0(7) 63.8(7) 68.2(6)
O1 O1 O3 5_4545 5_4535 63.3(7) 61.1(7) 65.4(9)
O1 O1 O3 5_4545 5_5535 111.6(8) 111.0(7) 112.7(8)
O1 O1 O1 5_4555 5_5455 176.3(10) 175.2(11) 178.0(10)
O1 O1 O1 5_4555 5_5555 87.4(9) 86.4(10) 88.3(9)
O1 O1 O2 5_4555 5_5555 134.1(4) 133.9(5) 134.2(4)
O1 O1 O3 5_4555 1_5545 117.0(7) 115.8(7) 118.1(7)
O1 O1 O3 5_4555 1_5645 64.8(5) 63.2(5) 66.1(5)
O1 O1 O3 5_4555 5_4555 64.8(6) 64.2(6) 65.8(6)
O1 O1 O3 5_4555 5_5555 115.4(6) 114.1(6) 117.0(6)
O1 O1 O1 5_5445 5_5545 91.6(11) 91.3(11) 92.1(11)
O1 O1 O2 5_5445 5_3545 134.1(4) 133.9(5) 134.2(4)
O1 O1 O3 5_5445 . 64.8(5) 63.2(5) 66.1(5)
O1 O1 O3 5_5445 1_5655 117.0(7) 115.8(7) 118.1(7)
O1 O1 O3 5_5445 5_4535 115.4(6) 114.1(6) 117.0(6)
O1 O1 O3 5_5445 5_5535 64.8(6) 64.2(6) 65.8(6)
O1 O1 O1 5_5455 5_5555 93.8(14) 91.3(12) 95.3(14)
O1 O1 O2 5_5455 1_4555 87.9(16) 87.2(16) 89.3(16)
O1 O1 O2 5_5455 1_4655 177(2) 175.3(19) 179(2)
O1 O1 O2 5_5455 5_5555 47.0(7) 45.6(8) 47.7(6)
O1 O1 O3 5_5455 1_5545 67.0(7) 63.8(7) 68.2(6)
O1 O1 O3 5_5455 1_5645 121.2(11) 115.4(9) 123.4(12)
O1 O1 O3 5_5455 5_4555 111.6(8) 111.0(7) 112.7(8)
O1 O1 O3 5_5455 5_5555 63.3(7) 61.1(7) 65.4(9)
O1 O1 O2 5_5545 5_3545 134.1(4) 133.9(5) 134.2(4)
O1 O1 O3 5_5545 . 117.0(7) 115.8(7) 118.1(7)
O1 O1 O3 5_5545 1_5655 64.8(5) 63.2(5) 66.1(5)
O1 O1 O3 5_5545 5_4535 115.4(6) 114.1(6) 117.0(6)
O1 O1 O3 5_5545 5_5535 64.8(6) 64.2(6) 65.8(6)
O1 O1 O2 5_5555 1_4555 177(2) 175.3(19) 179(2)
O1 O1 O2 5_5555 1_4655 87.9(16) 87.2(16) 89.3(16)
O1 O1 O2 5_5555 5_5555 47.0(7) 45.6(8) 47.7(6)
O1 O1 O3 5_5555 1_5545 121.2(11) 115.4(9) 123.4(12)
O1 O1 O3 5_5555 1_5645 67.0(7) 63.8(7) 68.2(6)
O1 O1 O3 5_5555 5_4555 111.6(8) 111.0(7) 112.7(8)
O1 O1 O3 5_5555 5_5555 63.3(7) 61.1(7) 65.4(9)
O2 O1 O2 1_4555 1_4655 89(2) 87.8(15) 93(2)
O2 O1 O2 1_4555 . 91.0(18) 88.8(19) 92.2(15)
O2 O1 O2 1_4555 1_5655 178.4(18) 177.7(18) 180.0(5)
O2 O1 O2 1_4555 5_5555 134.9(12) 134.9(12) 134.9(11)
O2 O1 O3 1_4555 1_5545 60.9(10) 58.5(12) 63.2(13)
O2 O1 O3 1_4555 . 62.4(9) 60.8(5) 66.1(12)
O2 O1 O3 1_4555 1_5645 116.7(12) 112.5(18) 121.0(16)
O2 O1 O3 1_4555 1_5655 118.9(12) 118.3(5) 121.5(18)
O2 O1 O3 1_4555 5_5555 114.5(14) 114.4(15) 114.7(11)
O2 O1 O2 1_4655 . 178.4(18) 177.7(18) 180.0(5)
O2 O1 O2 1_4655 1_5655 91.0(18) 88.8(19) 92.2(15)
O2 O1 O2 1_4655 5_5555 134.9(12) 134.9(12) 134.9(11)
O2 O1 O3 1_4655 1_5545 116.7(12) 112.5(18) 121.0(16)
O2 O1 O3 1_4655 . 118.9(12) 118.3(5) 121.5(18)
O2 O1 O3 1_4655 1_5645 60.9(10) 58.5(12) 63.2(13)
O2 O1 O3 1_4655 1_5655 62.4(9) 60.8(5) 66.1(12)
O2 O1 O3 1_4655 5_5555 114.5(14) 114.4(15) 114.7(11)
O2 O1 O2 . 1_5655 89(2) 87.8(15) 93(2)
O2 O1 O2 . 5_3545 134.9(12) 134.9(12) 134.9(11)
O2 O1 O3 . 1_5545 62.4(9) 60.8(5) 66.1(12)
O2 O1 O3 . . 60.9(10) 58.5(12) 63.2(13)
O2 O1 O3 . 1_5645 118.9(12) 118.3(5) 121.5(18)
O2 O1 O3 . 1_5655 116.7(12) 112.5(18) 121.0(16)
O2 O1 O3 . 5_4535 114.5(14) 114.4(15) 114.7(11)
O2 O1 O2 1_5655 5_3545 134.9(12) 134.9(12) 134.9(11)
O2 O1 O3 1_5655 1_5545 118.9(12) 118.3(5) 121.5(18)
O2 O1 O3 1_5655 . 116.7(12) 112.5(18) 121.0(16)
O2 O1 O3 1_5655 1_5645 62.4(9) 60.8(5) 66.1(12)
O2 O1 O3 1_5655 1_5655 60.9(10) 58.5(12) 63.2(13)
O2 O1 O3 1_5655 5_4535 114.5(14) 114.4(15) 114.7(11)
O2 O1 O3 5_3545 . 92.6(9) 89.2(8) 95.0(9)
O2 O1 O3 5_3545 1_5655 92.6(9) 89.2(8) 95.0(9)
O2 O1 O3 5_3545 5_4535 49.1(11) 46.7(11) 51.6(10)
O2 O1 O3 5_3545 5_5535 124.0(12) 123.7(12) 124.5(12)
O2 O1 O3 5_5555 1_5545 92.6(9) 89.2(8) 95.0(9)
O2 O1 O3 5_5555 1_5645 92.6(9) 89.2(8) 95.0(9)
O2 O1 O3 5_5555 5_4555 124.0(12) 123.7(12) 124.5(12)
O2 O1 O3 5_5555 5_5555 49.1(11) 46.7(11) 51.6(10)
O3 O1 O3 1_5545 . 94.9(7) 93.2(7) 98.1(7)
O3 O1 O3 1_5545 1_5645 82.7(8) 75.1(6) 87.6(9)
O3 O1 O3 1_5545 1_5655 176.4(11) 174.6(17) 180.0(5)
O3 O1 O3 1_5545 5_4555 129.6(6) 127.4(7) 131.8(6)
O3 O1 O3 1_5545 5_5555 130.2(8) 124.6(6) 132.6(10)
O3 O1 O3 . 1_5645 176.4(11) 174.6(17) 180.0(5)
O3 O1 O3 . 1_5655 82.7(8) 75.1(6) 87.6(9)
O3 O1 O3 . 5_4535 130.2(8) 124.6(6) 132.6(10)
O3 O1 O3 . 5_5535 129.6(6) 127.4(7) 131.8(6)
O3 O1 O3 1_5645 1_5655 94.9(7) 93.2(7) 98.1(7)
O3 O1 O3 1_5645 5_4555 129.6(6) 127.4(7) 131.8(6)
O3 O1 O3 1_5645 5_5555 130.2(8) 124.6(6) 132.6(10)
O3 O1 O3 1_5655 5_4535 130.2(8) 124.6(6) 132.6(10)
O3 O1 O3 1_5655 5_5535 129.6(6) 127.4(7) 131.8(6)
O3 O1 O3 5_4535 5_5535 75.7(8) 74.6(8) 77.1(7)
O3 O1 O3 5_4555 5_5555 75.7(7) 74.6(7) 77.1(8)
Fe1 O2 Fe1 . 1_6555 165(2) 146(3) 179.5(4)
Fe1 O2 Pb1 . 1_5545 75(2) 71(2) 77.4(18)
Fe1 O2 Pb1 . 1_6565 131(3) 129(3) 136(2)
Fe1 O2 Pb1 . 5_5445 91.1(15) 76.9(15) 107(2)
Fe1 O2 Pb1 . 5_5455 87.7(16) 75.8(14) 93(2)
Fe1 O2 Pb1 . 5_5545 91.1(15) 76.9(15) 107(2)
Fe1 O2 Pb1 . 5_5555 87.7(16) 75.8(14) 93(2)
Fe1 O2 Bi1 . 1_5545 75(2) 72(2) 77.6(18)
Fe1 O2 Bi1 . 1_6545 135(2) 135(2) 135(2)
Fe1 O2 Bi1 . 1_6565 131(3) 128(3) 135(2)
Fe1 O2 Bi1 . 5_5445 91.0(15) 76.9(15) 106(2)
Fe1 O2 Bi1 . 5_5455 87.8(16) 75.8(14) 94(2)
Fe1 O2 Bi1 . 5_5545 91.0(15) 76.9(15) 106(2)
Fe1 O2 Bi1 . 5_5555 87.8(16) 75.8(14) 94(2)
Fe1 O2 O1 . 1_5455 45.6(13) 43.9(8) 48.0(15)
Fe1 O2 O1 . . 45.6(13) 43.9(8) 48.0(15)
Fe1 O2 O1 . 1_6455 134.8(12) 130.6(15) 135.9(8)
Fe1 O2 O1 . 1_6555 134.8(12) 130.6(15) 135.9(8)
Fe1 O2 O1 . 5_4445 19.2(12) 16.3(13) 21.2(10)
Fe1 O2 O1 . 5_6455 173(3) 168(2) 176(3)
Fe1 O2 O2 . 1_4555 6.6(12) 0.0(5) 14.7(15)
Fe1 O2 O2 . 1_5455 90.0(18) 90.0(16) 90.0(16)
Fe1 O2 O2 . 1_5655 90.0(18) 90.0(16) 90.0(16)
Fe1 O2 O2 . 1_6555 173.0(19) 161(2) 179.7(14)
Fe1 O2 O3 . 1_5545 46.5(11) 33.3(11) 62(2)
Fe1 O2 O3 . . 45.5(13) 35.0(11) 64(2)
Fe1 O2 O3 . 1_6545 135(2) 112(2) 149(3)
Fe1 O2 O3 . 1_6555 127.3(18) 113(2) 135(3)
Fe1 O2 Pb1 1_6555 1_5545 132(3) 129(3) 136(2)
Fe1 O2 Pb1 1_6555 1_6565 75(2) 70(2) 77.3(19)
Fe1 O2 Pb1 1_6555 5_5445 87.8(16) 76.1(15) 93(2)
Fe1 O2 Pb1 1_6555 5_5455 91.0(15) 76.4(14) 107(2)
Fe1 O2 Pb1 1_6555 5_5545 87.8(16) 76.1(15) 93(2)
Fe1 O2 Pb1 1_6555 5_5555 91.0(15) 76.4(14) 107(2)
Fe1 O2 Bi1 1_6555 1_5545 131(3) 128(3) 136(2)
Fe1 O2 Bi1 1_6555 1_6545 78(2) 78(2) 78(2)
Fe1 O2 Bi1 1_6555 1_6565 75(2) 71(2) 77.6(19)
Fe1 O2 Bi1 1_6555 5_5445 87.9(16) 76.1(15) 94(2)
Fe1 O2 Bi1 1_6555 5_5455 90.8(15) 76.4(14) 106(2)
Fe1 O2 Bi1 1_6555 5_5545 87.9(16) 76.1(15) 94(2)
Fe1 O2 Bi1 1_6555 5_5555 90.8(15) 76.4(14) 106(2)
Fe1 O2 O1 1_6555 1_5455 134.8(12) 130.9(15) 135.9(8)
Fe1 O2 O1 1_6555 . 134.8(12) 130.9(15) 135.9(8)
Fe1 O2 O1 1_6555 1_6455 45.7(13) 43.9(8) 48.2(14)
Fe1 O2 O1 1_6555 1_6555 45.7(13) 43.9(8) 48.2(14)
Fe1 O2 O1 1_6555 5_4445 173(3) 168(2) 176(3)
Fe1 O2 O1 1_6555 5_6455 18.9(12) 15.9(12) 21.1(11)
Fe1 O2 O2 1_6555 1_4555 173.0(19) 161(2) 179.9(13)
Fe1 O2 O2 1_6555 1_5455 90.0(18) 90.0(16) 90.0(16)
Fe1 O2 O2 1_6555 1_5655 90.0(18) 90.0(16) 90.0(16)
Fe1 O2 O2 1_6555 1_6555 6.9(12) 0.3(10) 14.3(14)
Fe1 O2 O3 1_6555 1_5545 127.5(18) 114(2) 136(3)
Fe1 O2 O3 1_6555 . 134(2) 111(2) 149(3)
Fe1 O2 O3 1_6555 1_6545 45.7(13) 35.2(11) 65(2)
Fe1 O2 O3 1_6555 1_6555 46.5(11) 33.1(11) 62(2)
Pb1 O2 Pb1 1_5545 5_5445 60.3(14) 59.6(14) 61.5(12)
Pb1 O2 Pb1 1_5545 5_5455 134.9(17) 132.9(18) 136.0(15)
Pb1 O2 Pb1 1_5545 5_5545 60.3(14) 59.6(14) 61.5(12)
Pb1 O2 Pb1 1_5545 5_5555 134.9(17) 132.9(18) 136.0(15)
Pb1 O2 Bi1 1_5545 1_5545 0.5(4) 0.3(5) 0.8(4)
Pb1 O2 Bi1 1_5545 1_6545 58.0(9) 58.0(9) 58.0(9)
Pb1 O2 Bi1 1_5545 5_5445 60.4(14) 59.6(14) 61.7(12)
Pb1 O2 Bi1 1_5545 5_5455 134.9(17) 132.9(18) 136.0(15)
Pb1 O2 Bi1 1_5545 5_5545 60.4(14) 59.6(14) 61.7(12)
Pb1 O2 Bi1 1_5545 5_5555 134.9(17) 132.9(18) 136.0(15)
Pb1 O2 O1 1_5545 1_5455 67.6(16) 66.1(16) 68.6(14)
Pb1 O2 O1 1_5545 . 67.6(16) 66.1(16) 68.6(14)
Pb1 O2 O1 1_5545 1_6455 110.4(16) 110.0(17) 111.2(14)
Pb1 O2 O1 1_5545 1_6555 110.4(16) 110.0(17) 111.2(14)
Pb1 O2 O1 1_5545 5_4445 55.7(12) 54.7(12) 56.2(11)
Pb1 O2 O2 1_5545 1_5455 90.0(15) 90.0(14) 90.0(14)
Pb1 O2 O2 1_5545 1_5655 90.0(15) 90.0(14) 90.0(14)
Pb1 O2 O2 1_5545 1_6555 121(2) 120(2) 122.0(19)
Pb1 O2 O3 1_5545 . 112(3) 110(3) 113(2)
Pb1 O2 O3 1_5545 1_6545 73.2(14) 71.5(12) 75.8(15)
Pb1 O2 O3 1_5545 1_6555 167(3) 166(3) 169(2)
Pb1 O2 Pb1 1_6565 5_5445 134.7(17) 132.6(18) 136.0(15)
Pb1 O2 Pb1 1_6565 5_5455 60.2(14) 59.6(14) 61.3(12)
Pb1 O2 Pb1 1_6565 5_5545 134.7(17) 132.6(18) 136.0(15)
Pb1 O2 Pb1 1_6565 5_5555 60.2(14) 59.6(14) 61.3(12)
Pb1 O2 Bi1 1_6565 1_6565 0.6(4) 0.3(5) 0.9(4)
Pb1 O2 Bi1 1_6565 5_5445 134.7(17) 132.6(18) 136.0(15)
Pb1 O2 Bi1 1_6565 5_5455 60.3(14) 59.6(14) 61.5(12)
Pb1 O2 Bi1 1_6565 5_5545 134.7(17) 132.6(18) 136.0(15)
Pb1 O2 Bi1 1_6565 5_5555 60.3(14) 59.6(14) 61.5(12)
Pb1 O2 O1 1_6565 1_5455 110.4(16) 109.9(17) 111.2(17)
Pb1 O2 O1 1_6565 . 110.4(16) 109.9(17) 111.2(17)
Pb1 O2 O1 1_6565 1_6455 67.5(16) 65.8(16) 68.5(14)
Pb1 O2 O1 1_6565 1_6555 67.5(16) 65.8(16) 68.5(14)
Pb1 O2 O1 1_6565 5_6455 55.6(12) 54.5(12) 56.2(11)
Pb1 O2 O2 1_6565 1_4555 121(2) 120(2) 122(2)
Pb1 O2 O2 1_6565 1_5455 90.0(15) 90.0(15) 90.0(15)
Pb1 O2 O2 1_6565 1_5655 90.0(15) 90.0(15) 90.0(15)
Pb1 O2 O3 1_6565 1_5545 167(3) 166(3) 169(2)
Pb1 O2 O3 1_6565 . 73.4(14) 71.6(13) 76.3(15)
Pb1 O2 O3 1_6565 1_6545 112(3) 109(3) 113(2)
Pb1 O2 Pb1 5_5445 5_5455 89.1(5) 86.4(4) 94.6(5)
Pb1 O2 Pb1 5_5445 5_5545 90.8(13) 68.4(10) 103(2)
Pb1 O2 Pb1 5_5445 5_5555 169.8(14) 161.3(16) 179.6(4)
Pb1 O2 Bi1 5_5445 1_5545 60.1(13) 59.2(14) 61.4(11)
Pb1 O2 Bi1 5_5445 1_6545 53.0(10) 53.0(10) 53.0(10)
Pb1 O2 Bi1 5_5445 1_6565 135.0(17) 133.0(17) 136.2(15)
Pb1 O2 Bi1 5_5445 5_5445 0.2(5) 0.0(5) 1.2(6)
Pb1 O2 Bi1 5_5445 5_5455 89.0(5) 86.4(4) 94.6(5)
Pb1 O2 Bi1 5_5445 5_5545 90.9(13) 68.4(10) 103(2)
Pb1 O2 Bi1 5_5445 5_5555 169.8(14) 160.9(16) 179.6(4)
Pb1 O2 O1 5_5445 1_5455 59.6(11) 55.8(11) 64.9(12)
Pb1 O2 O1 5_5445 . 119.4(19) 113(2) 129(2)
Pb1 O2 O1 5_5445 1_6455 60.7(10) 50.9(11) 67.7(12)
Pb1 O2 O1 5_5445 1_6555 121(2) 114(2) 122.5(8)
Pb1 O2 O1 5_5445 5_4445 92(2) 90(2) 94.4(17)
Pb1 O2 O1 5_5445 5_6455 94.4(19) 93.5(16) 95(2)
Pb1 O2 O2 5_5445 1_4555 88.5(14) 88.0(9) 90(2)
Pb1 O2 O2 5_5445 1_5455 44.6(11) 38.5(11) 55.8(11)
Pb1 O2 O2 5_5445 1_5655 135.4(17) 124.2(16) 142(2)
Pb1 O2 O2 5_5445 1_6555 90.2(15) 84.5(19) 94(2)
Pb1 O2 O3 5_5445 1_5545 57.6(8) 51.2(9) 62.5(14)
Pb1 O2 O3 5_5445 . 121.0(15) 118.3(4) 127.9(19)
Pb1 O2 O3 5_5445 1_6545 58.6(10) 49.3(9) 62.9(8)
Pb1 O2 O3 5_5445 1_6555 119.4(13) 113(2) 128(2)
Pb1 O2 Pb1 5_5455 5_5545 169.8(14) 161.3(16) 179.6(4)
Pb1 O2 Pb1 5_5455 5_5555 90.7(13) 67.9(9) 103(2)
Pb1 O2 Bi1 5_5455 1_5545 135.2(17) 133.3(17) 136.2(14)
Pb1 O2 Bi1 5_5455 1_6545 137.0(15) 137.0(15) 137.0(15)
Pb1 O2 Bi1 5_5455 1_6565 60.0(13) 59.2(14) 61.2(11)
Pb1 O2 Bi1 5_5455 5_5445 89.0(5) 86.4(4) 94.2(5)
Pb1 O2 Bi1 5_5455 5_5455 0.1(5) 0.0(5) 1.1(6)
Pb1 O2 Bi1 5_5455 5_5545 169.7(14) 160.7(16) 179.5(4)
Pb1 O2 Bi1 5_5455 5_5555 90.8(13) 67.9(9) 104(2)
Pb1 O2 O1 5_5455 1_5455 60.7(10) 50.9(11) 67.7(12)
Pb1 O2 O1 5_5455 . 120(2) 114(2) 122.5(8)
Pb1 O2 O1 5_5455 1_6455 59.6(11) 55.8(11) 64.9(12)
Pb1 O2 O1 5_5455 1_6555 119.3(19) 112.7(19) 128(2)
Pb1 O2 O1 5_5455 5_4445 94.3(19) 93.3(15) 95(2)
Pb1 O2 O1 5_5455 5_6455 92(2) 90(2) 94.0(17)
Pb1 O2 O2 5_5455 1_4555 90.3(15) 84.6(19) 94(2)
Pb1 O2 O2 5_5455 1_5455 44.6(11) 38.5(11) 56.0(11)
Pb1 O2 O2 5_5455 1_5655 135.4(16) 124.0(16) 142(2)
Pb1 O2 O2 5_5455 1_6555 88.5(14) 88.0(8) 90(2)
Pb1 O2 O3 5_5455 1_5545 119.4(13) 113.1(19) 128(2)
Pb1 O2 O3 5_5455 . 58.6(10) 49.0(9) 62.9(8)
Pb1 O2 O3 5_5455 1_6545 121.0(15) 118.3(4) 128.3(18)
Pb1 O2 O3 5_5455 1_6555 57.5(8) 50.9(8) 62.4(14)
Pb1 O2 Pb1 5_5545 5_5555 89.1(5) 86.4(4) 94.6(5)
Pb1 O2 Bi1 5_5545 1_5545 60.1(13) 59.2(14) 61.4(11)
Pb1 O2 Bi1 5_5545 1_6545 53.0(10) 53.0(10) 53.0(10)
Pb1 O2 Bi1 5_5545 1_6565 135.0(17) 133.0(17) 136.2(15)
Pb1 O2 Bi1 5_5545 5_5445 90.9(13) 68.4(10) 103(2)
Pb1 O2 Bi1 5_5545 5_5455 169.8(14) 160.9(16) 179.6(4)
Pb1 O2 Bi1 5_5545 5_5545 0.2(5) 0.0(5) 1.2(6)
Pb1 O2 Bi1 5_5545 5_5555 89.0(5) 86.4(4) 94.6(5)
Pb1 O2 O1 5_5545 1_5455 119.4(19) 113(2) 129(2)
Pb1 O2 O1 5_5545 . 59.6(11) 55.8(11) 64.9(12)
Pb1 O2 O1 5_5545 1_6455 121(2) 114(2) 122.5(8)
Pb1 O2 O1 5_5545 1_6555 60.7(10) 50.9(11) 67.7(12)
Pb1 O2 O1 5_5545 5_4445 92(2) 90(2) 94.4(17)
Pb1 O2 O1 5_5545 5_6455 94.4(19) 93.5(16) 95(2)
Pb1 O2 O2 5_5545 1_4555 88.5(14) 88.0(9) 90(2)
Pb1 O2 O2 5_5545 1_5455 135.4(17) 124.2(16) 142(2)
Pb1 O2 O2 5_5545 1_5655 44.6(11) 38.5(11) 55.8(11)
Pb1 O2 O2 5_5545 1_6555 90.2(15) 84.5(19) 94(2)
Pb1 O2 O3 5_5545 1_5545 57.6(8) 51.2(9) 62.5(14)
Pb1 O2 O3 5_5545 . 121.0(15) 118.3(4) 127.9(19)
Pb1 O2 O3 5_5545 1_6545 58.6(10) 49.3(9) 62.9(8)
Pb1 O2 O3 5_5545 1_6555 119.4(13) 113(2) 128(2)
Pb1 O2 Bi1 5_5555 1_5545 135.2(17) 133.3(17) 136.2(14)
Pb1 O2 Bi1 5_5555 1_6545 137.0(15) 137.0(15) 137.0(15)
Pb1 O2 Bi1 5_5555 1_6565 60.0(13) 59.2(14) 61.2(11)
Pb1 O2 Bi1 5_5555 5_5445 169.7(14) 160.7(16) 179.5(4)
Pb1 O2 Bi1 5_5555 5_5455 90.8(13) 67.9(9) 104(2)
Pb1 O2 Bi1 5_5555 5_5545 89.0(5) 86.4(4) 94.2(5)
Pb1 O2 Bi1 5_5555 5_5555 0.1(5) 0.0(5) 1.1(6)
Pb1 O2 O1 5_5555 1_5455 120(2) 114(2) 122.5(8)
Pb1 O2 O1 5_5555 . 60.7(10) 50.9(11) 67.7(12)
Pb1 O2 O1 5_5555 1_6455 119.3(19) 112.7(19) 128(2)
Pb1 O2 O1 5_5555 1_6555 59.6(11) 55.8(11) 64.9(12)
Pb1 O2 O1 5_5555 5_4445 94.3(19) 93.3(15) 95(2)
Pb1 O2 O1 5_5555 5_6455 92(2) 90(2) 94.0(17)
Pb1 O2 O2 5_5555 1_4555 90.3(15) 84.6(19) 94(2)
Pb1 O2 O2 5_5555 1_5455 135.4(16) 124.0(16) 142(2)
Pb1 O2 O2 5_5555 1_5655 44.6(11) 38.5(11) 56.0(11)
Pb1 O2 O2 5_5555 1_6555 88.5(14) 88.0(8) 90(2)
Pb1 O2 O3 5_5555 1_5545 119.4(13) 113.1(19) 128(2)
Pb1 O2 O3 5_5555 . 58.6(10) 49.0(9) 62.9(8)
Pb1 O2 O3 5_5555 1_6545 121.0(15) 118.3(4) 128.3(18)
Pb1 O2 O3 5_5555 1_6555 57.5(8) 50.9(8) 62.4(14)
Bi1 O2 Bi1 1_5545 1_6545 57.8(9) 57.8(9) 57.8(9)
Bi1 O2 Bi1 1_5545 5_5445 60.2(14) 59.3(14) 61.6(12)
Bi1 O2 Bi1 1_5545 5_5455 135.2(17) 133.3(18) 136.2(14)
Bi1 O2 Bi1 1_5545 5_5545 60.2(14) 59.3(14) 61.6(12)
Bi1 O2 Bi1 1_5545 5_5555 135.2(17) 133.3(18) 136.2(14)
Bi1 O2 O1 1_5545 1_5455 68.0(16) 66.6(16) 68.7(14)
Bi1 O2 O1 1_5545 . 68.0(16) 66.6(16) 68.7(14)
Bi1 O2 O1 1_5545 1_6455 110.1(16) 109.6(17) 111.1(14)
Bi1 O2 O1 1_5545 1_6555 110.1(16) 109.6(17) 111.1(14)
Bi1 O2 O1 1_5545 5_4445 56.2(12) 55.5(12) 56.5(12)
Bi1 O2 O2 1_5545 1_5455 90.0(15) 90.0(14) 90.0(14)
Bi1 O2 O2 1_5545 1_5655 90.0(15) 90.0(14) 90.0(14)
Bi1 O2 O2 1_5545 1_6555 121(2) 120(2) 121.7(19)
Bi1 O2 O3 1_5545 . 112(3) 111(3) 113(2)
Bi1 O2 O3 1_5545 1_6545 72.7(14) 71.3(12) 75.0(15)
Bi1 O2 O3 1_5545 1_6555 167(3) 166(3) 169(2)
Bi1 O2 Bi1 1_6545 5_5445 54.2(12) 54.2(12) 54.2(12)
Bi1 O2 Bi1 1_6545 5_5455 137.0(15) 137.0(15) 137.0(15)
Bi1 O2 Bi1 1_6545 5_5545 54.2(12) 54.2(12) 54.2(12)
Bi1 O2 Bi1 1_6545 5_5555 137.0(15) 137.0(15) 137.0(15)
Bi1 O2 O1 1_6545 1_5455 108.7(14) 108.7(14) 108.7(14)
Bi1 O2 O1 1_6545 . 108.7(14) 108.7(14) 108.7(14)
Bi1 O2 O1 1_6545 1_6455 72.3(16) 72.3(16) 72.3(16)
Bi1 O2 O1 1_6545 1_6555 72.3(16) 72.3(16) 72.3(16)
Bi1 O2 O1 1_6545 5_4445 114.2(15) 114.2(15) 114.2(15)
Bi1 O2 O2 1_6545 1_5455 90.0(15) 90.0(15) 90.0(15)
Bi1 O2 O2 1_6545 1_5655 90.0(15) 90.0(15) 90.0(15)
Bi1 O2 O2 1_6545 1_6555 64.0(16) 64.0(16) 64.0(16)
Bi1 O2 O3 1_6545 . 170(2) 170(2) 170(2)
Bi1 O2 O3 1_6545 1_6545 13.5(7) 13.5(7) 13.5(7)
Bi1 O2 O3 1_6545 1_6555 111(2) 111(2) 111(2)
Bi1 O2 Bi1 1_6565 5_5445 135.0(17) 133.0(17) 136.2(15)
Bi1 O2 Bi1 1_6565 5_5455 60.1(14) 59.2(14) 61.3(12)
Bi1 O2 Bi1 1_6565 5_5545 135.0(17) 133.0(17) 136.2(15)
Bi1 O2 Bi1 1_6565 5_5555 60.1(14) 59.2(14) 61.3(12)
Bi1 O2 O1 1_6565 1_5455 110.1(17) 109.6(17) 110.8(15)
Bi1 O2 O1 1_6565 . 110.1(17) 109.6(17) 110.8(15)
Bi1 O2 O1 1_6565 1_6455 67.8(16) 66.4(16) 68.7(14)
Bi1 O2 O1 1_6565 1_6555 67.8(16) 66.4(16) 68.7(14)
Bi1 O2 O1 1_6565 5_6455 56.1(12) 55.4(12) 56.5(12)
Bi1 O2 O2 1_6565 1_4555 120(2) 120(2) 121.4(19)
Bi1 O2 O2 1_6565 1_5455 90.0(15) 90.0(15) 90.0(15)
Bi1 O2 O2 1_6565 1_5655 90.0(15) 90.0(15) 90.0(15)
Bi1 O2 O3 1_6565 1_5545 166(3) 166(3) 169(2)
Bi1 O2 O3 1_6565 . 72.9(14) 71.3(13) 75.4(15)
Bi1 O2 O3 1_6565 1_6545 112(3) 110(3) 113(3)
Bi1 O2 Bi1 5_5445 5_5455 88.9(5) 86.5(4) 93.7(5)
Bi1 O2 Bi1 5_5445 5_5545 91.0(13) 68.4(10) 104(2)
Bi1 O2 Bi1 5_5445 5_5555 169.7(14) 160.7(15) 179.6(4)
Bi1 O2 O1 5_5445 1_5455 59.5(11) 55.8(11) 64.9(12)
Bi1 O2 O1 5_5445 . 119.4(19) 113(2) 128(2)
Bi1 O2 O1 5_5445 1_6455 60.7(10) 51.0(11) 67.7(12)
Bi1 O2 O1 5_5445 1_6555 121(2) 114(2) 122.5(8)
Bi1 O2 O1 5_5445 5_4445 92(2) 90(2) 93.6(17)
Bi1 O2 O1 5_5445 5_6455 94.4(19) 93.5(16) 95(2)
Bi1 O2 O2 5_5445 1_4555 88.5(14) 88.1(9) 90(2)
Bi1 O2 O2 5_5445 1_5455 44.5(11) 38.0(11) 55.8(11)
Bi1 O2 O2 5_5445 1_5655 135.5(17) 124.2(16) 142(2)
Bi1 O2 O2 5_5445 1_6555 90.3(15) 85.3(19) 94(2)
Bi1 O2 O3 5_5445 1_5545 57.6(8) 51.2(9) 62.5(14)
Bi1 O2 O3 5_5445 . 120.9(15) 118.4(4) 127.9(19)
Bi1 O2 O3 5_5445 1_6545 58.7(10) 49.3(9) 62.9(10)
Bi1 O2 O3 5_5445 1_6555 119.4(13) 113(2) 128(2)
Bi1 O2 Bi1 5_5455 5_5545 169.7(14) 160.7(16) 179.6(4)
Bi1 O2 Bi1 5_5455 5_5555 90.9(13) 67.9(9) 104(2)
Bi1 O2 O1 5_5455 1_5455 60.7(10) 51.0(11) 67.7(12)
Bi1 O2 O1 5_5455 . 121(2) 114(2) 122.5(8)
Bi1 O2 O1 5_5455 1_6455 59.4(11) 55.8(11) 64.9(12)
Bi1 O2 O1 5_5455 1_6555 119.3(19) 112.7(19) 128(3)
Bi1 O2 O1 5_5455 5_4445 94.3(19) 93.3(15) 95(2)
Bi1 O2 O1 5_5455 5_6455 91(2) 90(2) 93.3(18)
Bi1 O2 O2 5_5455 1_4555 90.4(15) 85.4(19) 94(2)
Bi1 O2 O2 5_5455 1_5455 44.5(11) 38.0(11) 56.0(11)
Bi1 O2 O2 5_5455 1_5655 135.5(17) 124.0(16) 142(2)
Bi1 O2 O2 5_5455 1_6555 88.5(14) 88.0(9) 90(2)
Bi1 O2 O3 5_5455 1_5545 119.5(13) 113.2(19) 128(2)
Bi1 O2 O3 5_5455 . 58.7(10) 49.0(9) 62.9(9)
Bi1 O2 O3 5_5455 1_6545 120.9(15) 118.4(4) 128.3(18)
Bi1 O2 O3 5_5455 1_6555 57.5(8) 50.9(8) 62.4(14)
Bi1 O2 Bi1 5_5545 5_5555 88.9(5) 86.5(4) 93.7(5)
Bi1 O2 O1 5_5545 1_5455 119.4(19) 113(2) 128(2)
Bi1 O2 O1 5_5545 . 59.5(11) 55.8(11) 64.9(12)
Bi1 O2 O1 5_5545 1_6455 121(2) 114(2) 122.5(8)
Bi1 O2 O1 5_5545 1_6555 60.7(10) 51.0(11) 67.7(12)
Bi1 O2 O1 5_5545 5_4445 92(2) 90(2) 93.6(17)
Bi1 O2 O1 5_5545 5_6455 94.4(19) 93.5(16) 95(2)
Bi1 O2 O2 5_5545 1_4555 88.5(14) 88.1(9) 90(2)
Bi1 O2 O2 5_5545 1_5455 135.5(17) 124.2(16) 142(2)
Bi1 O2 O2 5_5545 1_5655 44.5(11) 38.0(11) 55.8(11)
Bi1 O2 O2 5_5545 1_6555 90.3(15) 85.3(19) 94(2)
Bi1 O2 O3 5_5545 1_5545 57.6(8) 51.2(9) 62.5(14)
Bi1 O2 O3 5_5545 . 120.9(15) 118.4(4) 127.9(19)
Bi1 O2 O3 5_5545 1_6545 58.7(10) 49.3(9) 62.9(10)
Bi1 O2 O3 5_5545 1_6555 119.4(13) 113(2) 128(2)
Bi1 O2 O1 5_5555 1_5455 121(2) 114(2) 122.5(8)
Bi1 O2 O1 5_5555 . 60.7(10) 51.0(11) 67.7(12)
Bi1 O2 O1 5_5555 1_6455 119.3(19) 112.7(19) 128(3)
Bi1 O2 O1 5_5555 1_6555 59.4(11) 55.8(11) 64.9(12)
Bi1 O2 O1 5_5555 5_4445 94.3(19) 93.3(15) 95(2)
Bi1 O2 O1 5_5555 5_6455 91(2) 90(2) 93.3(18)
Bi1 O2 O2 5_5555 1_4555 90.4(15) 85.4(19) 94(2)
Bi1 O2 O2 5_5555 1_5455 135.5(17) 124.0(16) 142(2)
Bi1 O2 O2 5_5555 1_5655 44.5(11) 38.0(11) 56.0(11)
Bi1 O2 O2 5_5555 1_6555 88.5(14) 88.0(9) 90(2)
Bi1 O2 O3 5_5555 1_5545 119.5(13) 113.2(19) 128(2)
Bi1 O2 O3 5_5555 . 58.7(10) 49.0(9) 62.9(9)
Bi1 O2 O3 5_5555 1_6545 120.9(15) 118.4(4) 128.3(18)
Bi1 O2 O3 5_5555 1_6555 57.5(8) 50.9(8) 62.4(14)
O1 O2 O1 1_5455 . 89(2) 87.8(10) 93(3)
O1 O2 O1 1_5455 1_6455 90.8(10) 88.5(10) 91.9(8)
O1 O2 O1 1_5455 1_6555 177.6(19) 176(2) 179.8(7)
O1 O2 O1 1_5455 5_4445 45.0(14) 44.9(15) 45.1(14)
O1 O2 O1 1_5455 5_6455 134.5(14) 133.6(14) 135.3(14)
O1 O2 O2 1_5455 1_4555 44.5(8) 43.9(3) 46.4(14)
O1 O2 O2 1_5455 1_5455 45.4(16) 43.6(17) 46.1(16)
O1 O2 O2 1_5455 1_5655 135(2) 133.9(17) 136(3)
O1 O2 O2 1_5455 1_6555 135.5(8) 134.9(15) 136.1(2)
O1 O2 O3 1_5455 1_5545 60.5(10) 59.7(4) 62.3(15)
O1 O2 O3 1_5455 . 62.1(12) 58.7(12) 66.0(19)
O1 O2 O3 1_5455 1_6545 117.9(12) 114.1(15) 119.1(4)
O1 O2 O3 1_5455 1_6555 119.9(10) 116.0(16) 122.2(13)
O1 O2 O1 . 1_6455 177.6(19) 176(2) 179.8(7)
O1 O2 O1 . 1_6555 90.8(10) 88.5(10) 91.9(8)
O1 O2 O1 . 5_4445 45.0(14) 44.9(15) 45.1(14)
O1 O2 O1 . 5_6455 134.5(14) 133.6(14) 135.3(14)
O1 O2 O2 . 1_4555 44.5(8) 43.9(3) 46.4(14)
O1 O2 O2 . 1_5455 135(2) 133.9(17) 136(3)
O1 O2 O2 . 1_5655 45.4(16) 43.6(17) 46.1(16)
O1 O2 O2 . 1_6555 135.5(8) 134.9(15) 136.1(2)
O1 O2 O3 . 1_5545 60.5(10) 59.7(4) 62.3(15)
O1 O2 O3 . . 62.1(12) 58.7(12) 66.0(19)
O1 O2 O3 . 1_6545 117.9(12) 114.1(15) 119.1(4)
O1 O2 O3 . 1_6555 119.9(10) 116.0(16) 122.2(13)
O1 O2 O1 1_6455 1_6555 89(2) 87.8(11) 93(3)
O1 O2 O1 1_6455 5_4445 134.4(14) 133.5(13) 135.2(14)
O1 O2 O1 1_6455 5_6455 45.0(14) 44.9(15) 45.1(13)
O1 O2 O2 1_6455 1_4555 135.5(8) 134.9(15) 136.1(2)
O1 O2 O2 1_6455 1_5455 45.4(16) 43.5(17) 46.1(16)
O1 O2 O2 1_6455 1_5655 135(2) 133.9(17) 137(3)
O1 O2 O2 1_6455 1_6555 44.5(8) 43.9(4) 46.5(13)
O1 O2 O3 1_6455 1_5545 119.9(10) 115.9(16) 122.2(13)
O1 O2 O3 1_6455 . 117.8(12) 113.8(15) 119.1(4)
O1 O2 O3 1_6455 1_6545 62.2(12) 58.8(13) 66.0(19)
O1 O2 O3 1_6455 1_6555 60.5(10) 59.7(4) 62.4(14)
O1 O2 O1 1_6555 5_4445 134.4(14) 133.5(13) 135.2(14)
O1 O2 O1 1_6555 5_6455 45.0(14) 44.9(15) 45.1(13)
O1 O2 O2 1_6555 1_4555 135.5(8) 134.9(15) 136.1(2)
O1 O2 O2 1_6555 1_5455 135(2) 133.9(17) 137(3)
O1 O2 O2 1_6555 1_5655 45.4(16) 43.5(17) 46.1(16)
O1 O2 O2 1_6555 1_6555 44.5(8) 43.9(4) 46.5(13)
O1 O2 O3 1_6555 1_5545 119.9(10) 115.9(16) 122.2(13)
O1 O2 O3 1_6555 . 117.8(12) 113.8(15) 119.1(4)
O1 O2 O3 1_6555 1_6545 62.2(12) 58.8(13) 66.0(19)
O1 O2 O3 1_6555 1_6555 60.5(10) 59.7(4) 62.4(14)
O1 O2 O2 5_4445 1_5455 90(2) 90.0(19) 90.0(19)
O1 O2 O2 5_4445 1_5655 90(2) 90.0(19) 90.0(19)
O1 O2 O2 5_4445 1_6555 177(2) 176(2) 178.2(19)
O1 O2 O3 5_4445 . 56.2(16) 55.1(17) 56.7(16)
O1 O2 O3 5_4445 1_6545 129(2) 127.7(18) 130(2)
O1 O2 O3 5_4445 1_6555 137(2) 134.5(19) 139(2)
O1 O2 O2 5_6455 1_4555 177(2) 176(2) 177.9(19)
O1 O2 O2 5_6455 1_5455 90(2) 90(2) 90(2)
O1 O2 O2 5_6455 1_5655 90(2) 90(2) 90(2)
O1 O2 O3 5_6455 1_5545 137(2) 135.0(19) 139(2)
O1 O2 O3 5_6455 . 129(2) 127.8(19) 131(2)
O1 O2 O3 5_6455 1_6545 56.1(16) 54.8(16) 56.7(16)
O2 O2 O2 1_4555 1_5455 90.0(18) 90.0(16) 90.0(16)
O2 O2 O2 1_4555 1_5655 90.0(18) 90.0(16) 90.0(16)
O2 O2 O2 1_4555 1_6555 178.5(15) 177(2) 179.9(11)
O2 O2 O3 1_4555 1_5545 46.3(12) 44.9(11) 48.0(15)
O2 O2 O3 1_4555 . 47.7(12) 44.9(10) 53.9(17)
O2 O2 O3 1_4555 1_6545 131.1(15) 126(2) 133.7(11)
O2 O2 O3 1_4555 1_6555 133.5(14) 129(2) 138(2)
O2 O2 O2 1_5455 1_5655 180.0(5) 180.0(5) 180.0(5)
O2 O2 O2 1_5455 1_6555 90.0(10) 90.0(3) 90.0(3)
O2 O2 O3 1_5455 1_5545 90.0(8) 90.0(2) 90.0(2)
O2 O2 O3 1_5455 . 90.0(10) 90.0(3) 90.0(3)
O2 O2 O3 1_5455 1_6545 90.0(10) 90.0(3) 90.0(3)
O2 O2 O3 1_5455 1_6555 90.0(8) 90.0(2) 90.0(2)
O2 O2 O2 1_5655 1_6555 90.0(10) 90.0(3) 90.0(3)
O2 O2 O3 1_5655 1_5545 90.0(8) 90.0(2) 90.0(2)
O2 O2 O3 1_5655 . 90.0(10) 90.0(3) 90.0(3)
O2 O2 O3 1_5655 1_6545 90.0(10) 90.0(3) 90.0(3)
O2 O2 O3 1_5655 1_6555 90.0(8) 90.0(2) 90.0(2)
O2 O2 O3 1_6555 1_5545 133.6(14) 129(2) 138(2)
O2 O2 O3 1_6555 . 131.1(15) 125.6(19) 133.7(11)
O2 O2 O3 1_6555 1_6545 47.7(12) 44.9(9) 53.7(17)
O2 O2 O3 1_6555 1_6555 46.4(12) 44.9(12) 48.0(15)
O3 O2 O3 1_5545 . 94.0(17) 89.9(17) 102(3)
O3 O2 O3 1_5545 1_6545 84.8(12) 78.6(14) 87.0(8)
O3 O2 O3 1_5545 1_6555 176.4(16) 174(3) 179.7(8)
O3 O2 O3 . 1_6545 176(2) 174(3) 179.8(7)
O3 O2 O3 . 1_6555 84.7(12) 78.3(13) 87.0(7)
O3 O2 O3 1_6545 1_6555 94.1(17) 89.9(18) 101(3)
Fe1 O3 Fe1 . 1_5565 178.9(6) 178.2(6) 180.0(5)
Fe1 O3 Pb1 . 1_4555 72.1(6) 71.4(7) 73.6(6)
Fe1 O3 Pb1 . 5_4455 91.2(8) 75.3(7) 103.2(8)
Fe1 O3 Pb1 . 5_4555 91.2(8) 75.3(7) 103.2(8)
Fe1 O3 Pb1 . 5_5455 88.8(8) 77.9(8) 103.8(7)
Fe1 O3 Pb1 . 5_5555 88.8(8) 77.9(8) 103.8(7)
Fe1 O3 Bi1 . 1_4555 71.6(6) 70.9(7) 73.3(6)
Fe1 O3 Bi1 . . 10.7(15) 10.7(15) 10.7(15)
Fe1 O3 Bi1 . 1_6565 108.4(7) 107.3(7) 108.9(7)
Fe1 O3 Bi1 . 5_4455 91.3(8) 75.0(7) 104.1(8)
Fe1 O3 Bi1 . 5_4555 91.3(8) 75.0(7) 104.1(8)
Fe1 O3 Bi1 . 5_5455 88.7(8) 77.0(8) 104.1(7)
Fe1 O3 Bi1 . 5_5555 88.7(8) 77.0(8) 104.1(7)
Fe1 O3 O1 . 1_5455 41.4(6) 37.6(4) 43.8(7)
Fe1 O3 O1 . 1_5465 138.6(6) 136.1(7) 142.2(5)
Fe1 O3 O1 . . 41.4(6) 37.6(4) 43.8(7)
Fe1 O3 O1 . 1_5565 138.6(6) 136.1(7) 142.2(5)
Fe1 O3 O1 . 5_4445 33.7(10) 32.4(10) 37.1(11)
Fe1 O3 O1 . 5_4465 141.3(10) 140.2(10) 142.4(11)
Fe1 O3 O1 . 5_5445 38.3(10) 38.3(10) 38.4(9)
Fe1 O3 O1 . 5_5465 145.8(11) 142.0(10) 147.7(11)
Fe1 O3 O2 . 1_4555 42.4(19) 37.5(18) 44.6(19)
Fe1 O3 O2 . 1_4565 137.1(18) 133.6(18) 141.3(18)
Fe1 O3 O2 . . 43.0(18) 39.6(18) 44.6(18)
Fe1 O3 O2 . 1_5565 138.1(19) 136.3(18) 141.4(18)
Fe1 O3 O3 . 1_4555 89.0(8) 85.8(10) 90.7(8)
Fe1 O3 O3 . 1_5455 90.0(8) 90.0(7) 90.0(7)
Fe1 O3 O3 . 1_5655 90.0(8) 90.0(7) 90.0(7)
Fe1 O3 O3 . 1_6555 91.1(8) 90.4(7) 92.7(9)
Fe1 O3 Pb1 1_5565 1_4555 108.0(7) 106.8(7) 108.5(7)
Fe1 O3 Pb1 1_5565 5_4455 88.8(8) 77.9(8) 103.7(7)
Fe1 O3 Pb1 1_5565 5_4555 88.8(8) 77.9(8) 103.7(7)
Fe1 O3 Pb1 1_5565 5_5455 91.2(8) 75.0(7) 103.0(8)
Fe1 O3 Pb1 1_5565 5_5555 91.2(8) 75.0(7) 103.0(8)
Fe1 O3 Bi1 1_5565 1_4555 108.3(7) 106.8(7) 108.9(7)
Fe1 O3 Bi1 1_5565 . 171.0(16) 171.0(16) 171.0(16)
Fe1 O3 Bi1 1_5565 1_6565 71.5(6) 70.9(7) 72.9(6)
Fe1 O3 Bi1 1_5565 5_4455 88.7(8) 77.0(7) 103.9(7)
Fe1 O3 Bi1 1_5565 5_4555 88.7(8) 77.0(7) 103.9(7)
Fe1 O3 Bi1 1_5565 5_5455 91.2(8) 74.7(7) 103.9(8)
Fe1 O3 Bi1 1_5565 5_5555 91.2(8) 74.7(7) 103.9(8)
Fe1 O3 O1 1_5565 1_5455 138.6(6) 136.1(7) 142.2(5)
Fe1 O3 O1 1_5565 1_5465 41.3(6) 37.7(5) 43.8(7)
Fe1 O3 O1 1_5565 . 138.6(6) 136.1(7) 142.2(5)
Fe1 O3 O1 1_5565 1_5565 41.3(6) 37.7(5) 43.8(7)
Fe1 O3 O1 1_5565 5_4445 145.6(11) 141.2(10) 147.7(11)
Fe1 O3 O1 1_5565 5_4465 38.3(10) 38.2(10) 38.4(9)
Fe1 O3 O1 1_5565 5_5445 141.1(10) 139.9(10) 142.2(11)
Fe1 O3 O1 1_5565 5_5465 33.5(10) 32.4(10) 36.3(11)
Fe1 O3 O2 1_5565 1_4555 137.9(19) 136.3(18) 140.8(18)
Fe1 O3 O2 1_5565 1_4565 43.0(18) 39.7(18) 44.6(18)
Fe1 O3 O2 1_5565 . 137.0(18) 133.6(18) 141.3(19)
Fe1 O3 O2 1_5565 1_5565 42.1(19) 36.8(18) 44.6(19)
Fe1 O3 O3 1_5565 1_4555 91.1(9) 90.4(7) 92.8(10)
Fe1 O3 O3 1_5565 1_5455 90.0(8) 90.0(7) 90.0(7)
Fe1 O3 O3 1_5565 1_5655 90.0(8) 90.0(7) 90.0(7)
Fe1 O3 O3 1_5565 1_6555 88.9(8) 85.9(10) 90.7(8)
Pb1 O3 Pb1 1_4555 5_4455 55.7(5) 52.8(5) 58.5(6)
Pb1 O3 Pb1 1_4555 5_4555 55.7(5) 52.8(5) 58.5(6)
Pb1 O3 Pb1 1_4555 5_5455 135.7(4) 134.5(5) 137.2(4)
Pb1 O3 Pb1 1_4555 5_5555 135.7(4) 134.5(5) 137.2(4)
Pb1 O3 Bi1 1_4555 1_4555 0.5(4) 0.2(5) 0.8(4)
Pb1 O3 Bi1 1_4555 . 62.8(15) 62.8(15) 62.8(15)
Pb1 O3 Bi1 1_4555 5_4455 55.6(5) 52.8(5) 58.4(6)
Pb1 O3 Bi1 1_4555 5_4555 55.6(5) 52.8(5) 58.4(6)
Pb1 O3 Bi1 1_4555 5_5455 135.7(4) 134.5(5) 137.1(4)
Pb1 O3 Bi1 1_4555 5_5555 135.7(4) 134.5(5) 137.1(4)
Pb1 O3 O1 1_4555 1_5455 77.0(11) 75.9(11) 79.4(11)
Pb1 O3 O1 1_4555 1_5465 101.5(12) 100.6(12) 101.9(11)
Pb1 O3 O1 1_4555 . 77.0(11) 75.9(11) 79.4(11)
Pb1 O3 O1 1_4555 1_5565 101.5(12) 100.6(12) 101.9(11)
Pb1 O3 O1 1_4555 5_4445 39.2(10) 39.0(10) 39.5(10)
Pb1 O3 O1 1_4555 5_5445 110.6(12) 109.7(13) 111.9(10)
Pb1 O3 O2 1_4555 1_4565 64.3(18) 62.5(17) 65.5(18)
Pb1 O3 O2 1_4555 . 112(2) 111(2) 112(2)
Pb1 O3 O2 1_4555 1_5565 149(2) 147(2) 149(2)
Pb1 O3 O3 1_4555 1_5455 90.0(3) 90.0(3) 90.0(3)
Pb1 O3 O3 1_4555 1_5655 90.0(3) 90.0(3) 90.0(3)
Pb1 O3 O3 1_4555 1_6555 163.5(12) 162.9(12) 164.8(10)
Pb1 O3 Pb1 5_4455 5_4555 89.2(5) 85.5(5) 98.4(6)
Pb1 O3 Pb1 5_4455 5_5455 88.5(5) 81.8(5) 92.1(4)
Pb1 O3 Pb1 5_4455 5_5555 165.1(12) 152.2(10) 179.7(5)
Pb1 O3 Bi1 5_4455 1_4555 55.5(4) 52.2(4) 58.6(3)
Pb1 O3 Bi1 5_4455 . 96.3(11) 96.3(11) 96.3(11)
Pb1 O3 Bi1 5_4455 1_6565 135.5(4) 134.3(4) 137.0(3)
Pb1 O3 Bi1 5_4455 5_4455 0.1(5) 0.0(5) 1.1(5)
Pb1 O3 Bi1 5_4455 5_4555 89.1(5) 85.5(5) 97.5(6)
Pb1 O3 Bi1 5_4455 5_5455 88.5(5) 81.6(5) 92.1(4)
Pb1 O3 Bi1 5_4455 5_5555 165.0(12) 151.9(11) 179.6(5)
Pb1 O3 O1 5_4455 1_5455 63.5(10) 51.3(11) 75.3(8)
Pb1 O3 O1 5_4455 1_5465 61.1(10) 47.4(10) 75.2(9)
Pb1 O3 O1 5_4455 . 119.1(12) 106.6(11) 131.9(10)
Pb1 O3 O1 5_4455 1_5565 116.9(12) 108.4(14) 126.1(13)
Pb1 O3 O1 5_4455 5_4445 77.0(8) 71.1(8) 81.1(7)
Pb1 O3 O1 5_4455 5_4465 75.4(8) 74.7(9) 75.9(8)
Pb1 O3 O1 5_4455 5_5445 124.7(8) 124.0(6) 125.0(10)
Pb1 O3 O1 5_4455 5_5465 122.0(11) 119.9(10) 125.5(8)
Pb1 O3 O2 5_4455 1_4555 59.5(11) 50.9(10) 70.2(13)
Pb1 O3 O2 5_4455 1_4565 58.9(11) 51.3(10) 73.2(13)
Pb1 O3 O2 5_4455 . 118.7(13) 106.3(15) 125.8(13)
Pb1 O3 O2 5_4455 1_5565 113.7(14) 103.2(13) 119.5(13)
Pb1 O3 O3 5_4455 1_4555 45.4(2) 43.8(2) 46.9(4)
Pb1 O3 O3 5_4455 1_5455 45.4(3) 40.8(3) 47.2(4)
Pb1 O3 O3 5_4455 1_5655 134.6(4) 132.8(4) 139.2(5)
Pb1 O3 O3 5_4455 1_6555 134.3(3) 127.4(4) 136.4(3)
Pb1 O3 Pb1 5_4555 5_5455 165.1(12) 152.2(10) 179.7(5)
Pb1 O3 Pb1 5_4555 5_5555 88.5(5) 81.8(5) 92.1(4)
Pb1 O3 Bi1 5_4555 1_4555 55.5(4) 52.2(4) 58.6(3)
Pb1 O3 Bi1 5_4555 . 96.3(11) 96.3(11) 96.3(11)
Pb1 O3 Bi1 5_4555 1_6565 135.5(4) 134.3(4) 137.0(3)
Pb1 O3 Bi1 5_4555 5_4455 89.1(5) 85.5(5) 97.5(6)
Pb1 O3 Bi1 5_4555 5_4555 0.1(5) 0.0(5) 1.1(5)
Pb1 O3 Bi1 5_4555 5_5455 165.0(12) 151.9(11) 179.6(5)
Pb1 O3 Bi1 5_4555 5_5555 88.5(5) 81.6(5) 92.1(4)
Pb1 O3 O1 5_4555 1_5455 119.1(12) 106.6(11) 131.9(10)
Pb1 O3 O1 5_4555 1_5465 116.9(12) 108.4(14) 126.1(13)
Pb1 O3 O1 5_4555 . 63.5(10) 51.3(11) 75.3(8)
Pb1 O3 O1 5_4555 1_5565 61.1(10) 47.4(10) 75.2(9)
Pb1 O3 O1 5_4555 5_4445 77.0(8) 71.1(8) 81.1(7)
Pb1 O3 O1 5_4555 5_4465 75.4(8) 74.7(9) 75.9(8)
Pb1 O3 O1 5_4555 5_5445 124.7(8) 124.0(6) 125.0(10)
Pb1 O3 O1 5_4555 5_5465 122.0(11) 119.9(10) 125.5(8)
Pb1 O3 O2 5_4555 1_4555 59.5(11) 50.9(10) 70.2(13)
Pb1 O3 O2 5_4555 1_4565 58.9(11) 51.3(10) 73.2(13)
Pb1 O3 O2 5_4555 . 118.7(13) 106.3(15) 125.8(13)
Pb1 O3 O2 5_4555 1_5565 113.7(14) 103.2(13) 119.5(13)
Pb1 O3 O3 5_4555 1_4555 45.4(2) 43.8(2) 46.9(4)
Pb1 O3 O3 5_4555 1_5455 134.6(4) 132.8(4) 139.2(5)
Pb1 O3 O3 5_4555 1_5655 45.4(3) 40.8(3) 47.2(4)
Pb1 O3 O3 5_4555 1_6555 134.3(3) 127.4(4) 136.4(3)
Pb1 O3 Pb1 5_5455 5_5555 89.0(5) 85.5(5) 97.3(6)
Pb1 O3 Bi1 5_5455 1_4555 135.5(4) 134.2(4) 137.2(3)
Pb1 O3 Bi1 5_5455 . 111.3(12) 111.3(12) 111.3(12)
Pb1 O3 Bi1 5_5455 1_6565 55.5(4) 52.8(4) 58.2(3)
Pb1 O3 Bi1 5_5455 5_4455 88.5(5) 82.0(5) 92.1(4)
Pb1 O3 Bi1 5_5455 5_4555 165.0(12) 151.5(11) 179.7(5)
Pb1 O3 Bi1 5_5455 5_5455 0.1(5) 0.0(5) 1.1(5)
Pb1 O3 Bi1 5_5455 5_5555 88.9(5) 85.5(5) 96.5(6)
Pb1 O3 O1 5_5455 1_5455 61.2(10) 47.5(10) 75.3(8)
Pb1 O3 O1 5_5455 1_5465 63.4(10) 51.2(11) 75.2(8)
Pb1 O3 O1 5_5455 . 116.8(12) 108.4(14) 126.1(13)
Pb1 O3 O1 5_5455 1_5565 118.9(12) 106.1(11) 131.3(11)
Pb1 O3 O1 5_5455 5_4445 122.0(10) 119.9(10) 125.9(8)
Pb1 O3 O1 5_5455 5_4465 124.7(8) 124.2(6) 125.0(10)
Pb1 O3 O1 5_5455 5_5445 75.5(8) 74.9(9) 75.9(8)
Pb1 O3 O1 5_5455 5_5465 77.2(8) 71.9(8) 80.9(7)
Pb1 O3 O2 5_5455 1_4555 113.6(14) 103.6(13) 119.4(12)
Pb1 O3 O2 5_5455 1_4565 118.7(13) 106.0(14) 125.8(14)
Pb1 O3 O2 5_5455 . 58.8(11) 51.3(10) 73.5(13)
Pb1 O3 O2 5_5455 1_5565 59.9(11) 50.6(10) 71.0(13)
Pb1 O3 O3 5_5455 1_4555 134.4(3) 128.0(4) 136.4(2)
Pb1 O3 O3 5_5455 1_5455 45.5(3) 41.3(3) 47.2(4)
Pb1 O3 O3 5_5455 1_5655 134.5(4) 132.8(5) 138.7(5)
Pb1 O3 O3 5_5455 1_6555 45.3(2) 43.8(2) 46.9(4)
Pb1 O3 Bi1 5_5555 1_4555 135.5(4) 134.2(4) 137.2(3)
Pb1 O3 Bi1 5_5555 . 111.3(12) 111.3(12) 111.3(12)
Pb1 O3 Bi1 5_5555 1_6565 55.5(4) 52.8(4) 58.2(3)
Pb1 O3 Bi1 5_5555 5_4455 165.0(12) 151.5(11) 179.7(5)
Pb1 O3 Bi1 5_5555 5_4555 88.5(5) 82.0(5) 92.1(4)
Pb1 O3 Bi1 5_5555 5_5455 88.9(5) 85.5(5) 96.5(6)
Pb1 O3 Bi1 5_5555 5_5555 0.1(5) 0.0(5) 1.1(5)
Pb1 O3 O1 5_5555 1_5455 116.8(12) 108.4(14) 126.1(13)
Pb1 O3 O1 5_5555 1_5465 118.9(12) 106.1(11) 131.3(11)
Pb1 O3 O1 5_5555 . 61.2(10) 47.5(10) 75.3(8)
Pb1 O3 O1 5_5555 1_5565 63.4(10) 51.2(11) 75.2(8)
Pb1 O3 O1 5_5555 5_4445 122.0(10) 119.9(10) 125.9(8)
Pb1 O3 O1 5_5555 5_4465 124.7(8) 124.2(6) 125.0(10)
Pb1 O3 O1 5_5555 5_5445 75.5(8) 74.9(9) 75.9(8)
Pb1 O3 O1 5_5555 5_5465 77.2(8) 71.9(8) 80.9(7)
Pb1 O3 O2 5_5555 1_4555 113.6(14) 103.6(13) 119.4(12)
Pb1 O3 O2 5_5555 1_4565 118.7(13) 106.0(14) 125.8(14)
Pb1 O3 O2 5_5555 . 58.8(11) 51.3(10) 73.5(13)
Pb1 O3 O2 5_5555 1_5565 59.9(11) 50.6(10) 71.0(13)
Pb1 O3 O3 5_5555 1_4555 134.4(3) 128.0(4) 136.4(2)
Pb1 O3 O3 5_5555 1_5455 134.5(4) 132.8(5) 138.7(5)
Pb1 O3 O3 5_5555 1_5655 45.5(3) 41.3(3) 47.2(4)
Pb1 O3 O3 5_5555 1_6555 45.3(2) 43.8(2) 46.9(4)
Bi1 O3 Bi1 1_4555 . 62.6(15) 62.6(15) 62.6(15)
Bi1 O3 Bi1 1_4555 5_4455 55.4(5) 52.2(5) 58.5(6)
Bi1 O3 Bi1 1_4555 5_4555 55.4(5) 52.2(5) 58.5(6)
Bi1 O3 Bi1 1_4555 5_5455 135.5(4) 134.2(5) 137.1(4)
Bi1 O3 Bi1 1_4555 5_5555 135.5(4) 134.2(5) 137.1(4)
Bi1 O3 O1 1_4555 1_5455 76.5(11) 75.3(11) 79.2(11)
Bi1 O3 O1 1_4555 1_5465 101.7(12) 100.7(12) 102.2(11)
Bi1 O3 O1 1_4555 . 76.5(11) 75.3(11) 79.2(11)
Bi1 O3 O1 1_4555 1_5565 101.7(12) 100.7(12) 102.2(11)
Bi1 O3 O1 1_4555 5_4445 38.7(10) 38.5(10) 39.2(10)
Bi1 O3 O1 1_4555 5_5445 110.2(12) 109.1(13) 111.7(10)
Bi1 O3 O2 1_4555 1_4565 64.5(18) 62.3(17) 65.7(18)
Bi1 O3 O2 1_4555 . 111(2) 111(2) 112(2)
Bi1 O3 O2 1_4555 1_5565 149(2) 148(2) 150(2)
Bi1 O3 O3 1_4555 1_4555 14.0(7) 14.0(7) 14.0(7)
Bi1 O3 O3 1_4555 1_5455 90.0(3) 90.0(3) 90.0(3)
Bi1 O3 O3 1_4555 1_5655 90.0(3) 90.0(3) 90.0(3)
Bi1 O3 O3 1_4555 1_6555 163.0(12) 162.3(12) 164.5(10)
Bi1 O3 Bi1 . 5_4455 97.2(8) 97.2(8) 97.2(8)
Bi1 O3 Bi1 . 5_4555 97.2(8) 97.2(8) 97.2(8)
Bi1 O3 Bi1 . 5_5455 111.6(9) 111.6(9) 111.6(9)
Bi1 O3 Bi1 . 5_5555 111.6(9) 111.6(9) 111.6(9)
Bi1 O3 O1 . 1_5455 39.6(6) 39.6(6) 39.6(6)
Bi1 O3 O1 . 1_5465 137.1(6) 137.1(6) 137.1(6)
Bi1 O3 O1 . . 39.6(6) 39.6(6) 39.6(6)
Bi1 O3 O1 . 1_5565 137.1(6) 137.1(6) 137.1(6)
Bi1 O3 O1 . 5_4445 23.4(11) 23.4(11) 23.4(11)
Bi1 O3 O1 . 5_5445 49.1(11) 49.1(11) 49.1(11)
Bi1 O3 O2 . 1_4565 128(2) 128(2) 128(2)
Bi1 O3 O2 . 1_5565 150(2) 150(2) 150(2)
Bi1 O3 O3 . 1_5455 90.0(8) 90.0(8) 90.0(8)
Bi1 O3 O3 . 1_5655 90.0(8) 90.0(8) 90.0(8)
Bi1 O3 O3 . 1_6555 101.9(11) 101.9(11) 101.9(11)
Bi1 O3 Bi1 1_6565 5_4455 135.5(4) 134.3(5) 136.9(4)
Bi1 O3 Bi1 1_6565 5_4555 135.5(4) 134.3(5) 136.9(4)
Bi1 O3 Bi1 1_6565 5_5455 55.5(5) 52.8(5) 58.1(5)
Bi1 O3 Bi1 1_6565 5_5555 55.5(5) 52.8(5) 58.1(5)
Bi1 O3 O1 1_6565 1_5455 101.8(12) 101.0(12) 102.2(11)
Bi1 O3 O1 1_6565 1_5465 76.4(11) 75.3(11) 78.7(11)
Bi1 O3 O1 1_6565 . 101.8(12) 101.0(12) 102.2(11)
Bi1 O3 O1 1_6565 1_5565 76.4(11) 75.3(11) 78.7(11)
Bi1 O3 O1 1_6565 5_4465 109.9(12) 109.1(13) 111.2(11)
Bi1 O3 O1 1_6565 5_5465 38.7(10) 38.5(10) 39.1(10)
Bi1 O3 O2 1_6565 1_4555 149(2) 148(2) 150(2)
Bi1 O3 O2 1_6565 1_4565 111(2) 111(2) 111(2)
Bi1 O3 O2 1_6565 . 64.6(18) 62.9(17) 65.7(18)
Bi1 O3 O3 1_6565 1_4555 162.9(12) 162.3(13) 164.1(10)
Bi1 O3 O3 1_6565 1_5455 90.0(3) 90.0(3) 90.0(3)
Bi1 O3 O3 1_6565 1_5655 90.0(3) 90.0(3) 90.0(3)
Bi1 O3 Bi1 5_4455 5_4555 89.0(5) 85.5(5) 96.6(6)
Bi1 O3 Bi1 5_4455 5_5455 88.5(5) 82.0(5) 92.1(4)
Bi1 O3 Bi1 5_4455 5_5555 164.9(12) 151.2(10) 179.7(5)
Bi1 O3 O1 5_4455 1_5455 63.6(10) 51.1(11) 76.4(8)
Bi1 O3 O1 5_4455 1_5465 61.1(10) 47.0(10) 75.4(9)
Bi1 O3 O1 5_4455 . 119.2(12) 106.5(11) 132.4(10)
Bi1 O3 O1 5_4455 1_5565 116.8(12) 107.9(13) 126.2(13)
Bi1 O3 O1 5_4455 5_4445 77.2(8) 71.1(8) 81.7(7)
Bi1 O3 O1 5_4455 5_4465 75.5(8) 74.8(9) 76.1(8)
Bi1 O3 O1 5_4455 5_5445 125.5(8) 125.1(6) 125.6(9)
Bi1 O3 O1 5_4455 5_5465 122.0(11) 119.9(10) 125.7(8)
Bi1 O3 O2 5_4455 1_4555 59.5(11) 50.8(10) 70.2(13)
Bi1 O3 O2 5_4455 1_4565 58.8(11) 51.1(9) 73.2(13)
Bi1 O3 O2 5_4455 . 118.8(13) 106.0(15) 126.1(13)
Bi1 O3 O2 5_4455 1_5565 113.6(14) 102.7(13) 119.4(13)
Bi1 O3 O3 5_4455 1_4555 45.4(2) 43.8(2) 46.9(4)
Bi1 O3 O3 5_4455 1_5455 45.5(3) 41.7(3) 47.2(4)
Bi1 O3 O3 5_4455 1_5655 134.5(4) 132.8(4) 138.3(5)
Bi1 O3 O3 5_4455 1_6555 134.4(3) 127.9(4) 136.4(3)
Bi1 O3 Bi1 5_4555 5_5455 164.9(12) 151.2(10) 179.7(5)
Bi1 O3 Bi1 5_4555 5_5555 88.5(5) 82.0(5) 92.1(4)
Bi1 O3 O1 5_4555 1_5455 119.2(12) 106.5(11) 132.4(10)
Bi1 O3 O1 5_4555 1_5465 116.8(12) 107.9(13) 126.2(13)
Bi1 O3 O1 5_4555 . 63.6(10) 51.1(11) 76.4(8)
Bi1 O3 O1 5_4555 1_5565 61.1(10) 47.0(10) 75.4(9)
Bi1 O3 O1 5_4555 5_4445 77.2(8) 71.1(8) 81.7(7)
Bi1 O3 O1 5_4555 5_4465 75.5(8) 74.8(9) 76.1(8)
Bi1 O3 O1 5_4555 5_5445 125.5(8) 125.1(6) 125.6(9)
Bi1 O3 O1 5_4555 5_5465 122.0(11) 119.9(10) 125.7(8)
Bi1 O3 O2 5_4555 1_4555 59.5(11) 50.8(10) 70.2(13)
Bi1 O3 O2 5_4555 1_4565 58.8(11) 51.1(9) 73.2(13)
Bi1 O3 O2 5_4555 . 118.8(13) 106.0(15) 126.1(13)
Bi1 O3 O2 5_4555 1_5565 113.6(14) 102.7(13) 119.4(13)
Bi1 O3 O3 5_4555 1_4555 45.4(2) 43.8(2) 46.9(4)
Bi1 O3 O3 5_4555 1_5455 134.5(4) 132.8(4) 138.3(5)
Bi1 O3 O3 5_4555 1_5655 45.5(3) 41.7(3) 47.2(4)
Bi1 O3 O3 5_4555 1_6555 134.4(3) 127.9(4) 136.4(3)
Bi1 O3 Bi1 5_5455 5_5555 88.8(5) 85.5(5) 95.7(6)
Bi1 O3 O1 5_5455 1_5455 61.1(10) 47.2(10) 75.5(8)
Bi1 O3 O1 5_5455 1_5465 63.5(10) 50.9(11) 76.2(8)
Bi1 O3 O1 5_5455 . 116.7(12) 107.9(13) 126.1(13)
Bi1 O3 O1 5_5455 1_5565 119.0(12) 105.9(11) 131.8(11)
Bi1 O3 O1 5_5455 5_4445 122.1(10) 119.9(10) 126.1(8)
Bi1 O3 O1 5_5455 5_4465 125.5(8) 125.3(6) 125.6(8)
Bi1 O3 O1 5_5455 5_5445 75.7(8) 75.0(9) 76.2(8)
Bi1 O3 O1 5_5455 5_5465 77.4(8) 72.0(8) 81.5(7)
Bi1 O3 O2 5_5455 1_4555 113.5(14) 103.1(14) 119.4(12)
Bi1 O3 O2 5_5455 1_4565 118.7(13) 105.6(14) 126.1(13)
Bi1 O3 O2 5_5455 . 58.7(11) 51.1(9) 73.5(13)
Bi1 O3 O2 5_5455 1_5565 59.9(11) 50.5(10) 71.0(13)
Bi1 O3 O3 5_5455 1_4555 134.5(3) 128.4(4) 136.4(2)
Bi1 O3 O3 5_5455 1_5455 45.6(3) 42.2(3) 47.2(4)
Bi1 O3 O3 5_5455 1_5655 134.4(4) 132.8(4) 137.8(5)
Bi1 O3 O3 5_5455 1_6555 45.3(2) 43.8(2) 46.9(4)
Bi1 O3 O1 5_5555 1_5455 116.7(12) 107.9(13) 126.1(13)
Bi1 O3 O1 5_5555 1_5465 119.0(12) 105.9(11) 131.8(11)
Bi1 O3 O1 5_5555 . 61.1(10) 47.2(10) 75.5(8)
Bi1 O3 O1 5_5555 1_5565 63.5(10) 50.9(11) 76.2(8)
Bi1 O3 O1 5_5555 5_4445 122.1(10) 119.9(10) 126.1(8)
Bi1 O3 O1 5_5555 5_4465 125.5(8) 125.3(6) 125.6(8)
Bi1 O3 O1 5_5555 5_5445 75.7(8) 75.0(9) 76.2(8)
Bi1 O3 O1 5_5555 5_5465 77.4(8) 72.0(8) 81.5(7)
Bi1 O3 O2 5_5555 1_4555 113.5(14) 103.1(14) 119.4(12)
Bi1 O3 O2 5_5555 1_4565 118.7(13) 105.6(14) 126.1(13)
Bi1 O3 O2 5_5555 . 58.7(11) 51.1(9) 73.5(13)
Bi1 O3 O2 5_5555 1_5565 59.9(11) 50.5(10) 71.0(13)
Bi1 O3 O3 5_5555 1_4555 134.5(3) 128.4(4) 136.4(2)
Bi1 O3 O3 5_5555 1_5455 134.4(4) 132.8(4) 137.8(5)
Bi1 O3 O3 5_5555 1_5655 45.6(3) 42.2(3) 47.2(4)
Bi1 O3 O3 5_5555 1_6555 45.3(2) 43.8(2) 46.9(4)
O1 O3 O1 1_5455 1_5465 97.3(5) 95.8(5) 100.7(5)
O1 O3 O1 1_5455 . 82.7(9) 75.1(6) 87.6(12)
O1 O3 O1 1_5455 1_5565 175.8(10) 174.2(12) 179.9(8)
O1 O3 O1 1_5455 5_4445 49.6(8) 48.7(8) 51.2(10)
O1 O3 O1 1_5455 5_4465 126.4(9) 126.1(10) 126.5(9)
O1 O3 O1 1_5455 5_5445 50.6(7) 49.7(6) 51.4(8)
O1 O3 O1 1_5455 5_5465 126.1(8) 124.0(5) 127.8(9)
O1 O3 O2 1_5455 1_4555 57.1(13) 51.6(13) 59.3(13)
O1 O3 O2 1_5455 1_4565 123.3(12) 120.9(14) 128.7(12)
O1 O3 O2 1_5455 . 57.0(13) 52.6(13) 58.7(11)
O1 O3 O2 1_5455 1_5565 124.6(12) 122.9(10) 126.4(13)
O1 O3 O3 1_5455 1_4555 89.2(8) 86.3(10) 91.5(9)
O1 O3 O3 1_5455 1_5455 48.7(7) 46.2(7) 52.5(7)
O1 O3 O3 1_5455 1_5655 131.3(11) 127.5(9) 133.8(13)
O1 O3 O3 1_5455 1_6555 90.9(8) 88.5(7) 92.0(11)
O1 O3 O1 1_5465 . 175.8(10) 174.2(12) 179.9(8)
O1 O3 O1 1_5465 1_5565 82.6(9) 75.2(6) 87.6(12)
O1 O3 O1 1_5465 5_4445 126.0(8) 123.7(5) 128.0(9)
O1 O3 O1 1_5465 5_4465 50.7(7) 49.9(7) 51.5(9)
O1 O3 O1 1_5465 5_5445 126.3(9) 126.0(9) 126.5(9)
O1 O3 O1 1_5465 5_5465 49.4(8) 48.7(8) 50.7(10)
O1 O3 O2 1_5465 1_4555 124.6(12) 122.9(10) 126.4(13)
O1 O3 O2 1_5465 1_4565 57.0(13) 52.8(13) 58.7(11)
O1 O3 O2 1_5465 . 123.2(12) 120.9(14) 128.2(12)
O1 O3 O2 1_5465 1_5565 56.8(13) 51.1(13) 59.3(13)
O1 O3 O3 1_5465 1_4555 91.0(8) 88.8(7) 92.0(11)
O1 O3 O3 1_5465 1_5455 48.7(7) 46.2(7) 52.4(7)
O1 O3 O3 1_5465 1_5655 131.3(11) 127.6(9) 133.8(13)
O1 O3 O3 1_5465 1_6555 89.1(9) 86.3(10) 91.4(8)
O1 O3 O1 . 1_5565 97.3(5) 95.8(5) 100.7(5)
O1 O3 O1 . 5_4445 49.6(8) 48.7(8) 51.2(10)
O1 O3 O1 . 5_4465 126.4(9) 126.1(10) 126.5(9)
O1 O3 O1 . 5_5445 50.6(7) 49.7(6) 51.4(8)
O1 O3 O1 . 5_5465 126.1(8) 124.0(5) 127.8(9)
O1 O3 O2 . 1_4555 57.1(13) 51.6(13) 59.3(13)
O1 O3 O2 . 1_4565 123.3(12) 120.9(14) 128.7(12)
O1 O3 O2 . . 57.0(13) 52.6(13) 58.7(11)
O1 O3 O2 . 1_5565 124.6(12) 122.9(10) 126.4(13)
O1 O3 O3 . 1_4555 89.2(8) 86.3(10) 91.5(9)
O1 O3 O3 . 1_5455 131.3(11) 127.5(9) 133.8(13)
O1 O3 O3 . 1_5655 48.7(7) 46.2(7) 52.5(7)
O1 O3 O3 . 1_6555 90.9(8) 88.5(7) 92.0(11)
O1 O3 O1 1_5565 5_4445 126.0(8) 123.7(5) 128.0(9)
O1 O3 O1 1_5565 5_4465 50.7(7) 49.9(7) 51.5(9)
O1 O3 O1 1_5565 5_5445 126.3(9) 126.0(9) 126.5(9)
O1 O3 O1 1_5565 5_5465 49.4(8) 48.7(8) 50.7(10)
O1 O3 O2 1_5565 1_4555 124.6(12) 122.9(10) 126.4(13)
O1 O3 O2 1_5565 1_4565 57.0(13) 52.8(13) 58.7(11)
O1 O3 O2 1_5565 . 123.2(12) 120.9(14) 128.2(12)
O1 O3 O2 1_5565 1_5565 56.8(13) 51.1(13) 59.3(13)
O1 O3 O3 1_5565 1_4555 91.0(8) 88.8(7) 92.0(11)
O1 O3 O3 1_5565 1_5455 131.3(11) 127.6(9) 133.8(13)
O1 O3 O3 1_5565 1_5655 48.7(7) 46.2(7) 52.4(7)
O1 O3 O3 1_5565 1_6555 89.1(9) 86.3(10) 91.4(8)
O1 O3 O1 5_4445 5_5445 71.4(13) 70.7(13) 72.5(12)
O1 O3 O2 5_4445 1_4565 101.6(18) 96.5(18) 105(2)
O1 O3 O2 5_4445 . 75(2) 72(2) 78(2)
O1 O3 O2 5_4445 1_5565 173(2) 172(2) 175(2)
O1 O3 O3 5_4445 1_4555 51.4(8) 49.8(8) 52.6(8)
O1 O3 O3 5_4445 1_5455 90.0(7) 90.0(7) 90.0(7)
O1 O3 O3 5_4445 1_5655 90.0(7) 90.0(7) 90.0(7)
O1 O3 O3 5_4445 1_6555 125.1(12) 123.8(13) 128.2(12)
O1 O3 O1 5_4465 5_5465 71.2(12) 70.6(13) 72.1(11)
O1 O3 O2 5_4465 1_4555 101.0(19) 100.9(19) 101.1(19)
O1 O3 O2 5_4465 . 175(2) 173(2) 177.0(19)
O1 O3 O3 5_4465 1_4555 53.0(8) 52.9(8) 53.2(8)
O1 O3 O3 5_4465 1_5455 90.0(7) 90.0(7) 90.0(7)
O1 O3 O3 5_4465 1_5655 90.0(7) 90.0(7) 90.0(7)
O1 O3 O2 5_5445 1_4565 175(2) 174(2) 177.4(19)
O1 O3 O2 5_5445 1_5565 101.0(19) 100.8(19) 101.1(19)
O1 O3 O3 5_5445 1_5455 90.0(6) 90.0(6) 90.0(6)
O1 O3 O3 5_5445 1_5655 90.0(6) 90.0(6) 90.0(6)
O1 O3 O3 5_5445 1_6555 53.0(8) 52.8(8) 53.2(8)
O1 O3 O2 5_5465 1_4555 172(2) 172(2) 174(2)
O1 O3 O2 5_5465 1_4565 74(2) 72(2) 77(2)
O1 O3 O2 5_5465 . 101.7(18) 97.3(18) 105(2)
O1 O3 O3 5_5465 1_4555 124.9(12) 123.8(13) 127.4(12)
O1 O3 O3 5_5465 1_5455 90.0(7) 90.0(7) 90.0(7)
O1 O3 O3 5_5465 1_5655 90.0(7) 90.0(7) 90.0(7)
O1 O3 O3 5_5465 1_6555 51.5(8) 50.4(8) 52.4(8)
O2 O3 O2 1_4555 1_4565 95(2) 93(2) 99.5(19)
O2 O3 O2 1_4555 . 86(2) 79(2) 89.0(19)
O2 O3 O2 1_4555 1_5565 177(2) 174.4(19) 180(2)
O2 O3 O3 1_4555 1_4555 47.0(12) 45.8(10) 49.7(14)
O2 O3 O3 1_4555 1_5455 90.0(6) 90.0(5) 90.0(5)
O2 O3 O3 1_4555 1_5655 90.0(6) 90.0(5) 90.0(5)
O2 O3 O3 1_4555 1_6555 133.8(13) 128.5(16) 135.4(12)
O2 O3 O2 1_4565 . 176(2) 174(3) 179.9(18)
O2 O3 O2 1_4565 1_5565 86(2) 78(2) 89(2)
O2 O3 O3 1_4565 1_4555 48.2(12) 46.2(7) 51.7(14)
O2 O3 O3 1_4565 1_5455 90.0(6) 90.0(6) 90.0(6)
O2 O3 O3 1_4565 1_5655 90.0(6) 90.0(6) 90.0(6)
O2 O3 O3 1_4565 1_6555 132.1(14) 126(2) 135.3(13)
O2 O3 O2 . 1_5565 95(2) 92.8(18) 100(2)
O2 O3 O3 . 1_4555 132.2(14) 125.9(19) 135.3(14)
O2 O3 O3 . 1_5455 90.0(6) 90.0(5) 90.0(5)
O2 O3 O3 . 1_5655 90.0(6) 90.0(5) 90.0(5)
O2 O3 O3 . 1_6555 48.2(11) 46.3(7) 51.8(14)
O2 O3 O3 1_5565 1_4555 133.5(14) 127.9(16) 135.4(12)
O2 O3 O3 1_5565 1_5455 90.0(6) 90.0(6) 90.0(6)
O2 O3 O3 1_5565 1_5655 90.0(6) 90.0(6) 90.0(6)
O2 O3 O3 1_5565 1_6555 47.2(12) 45.8(11) 50.2(13)
O3 O3 O3 1_4555 1_5455 90.00(17) 90.00(16) 90.00(16)
O3 O3 O3 1_4555 1_5655 90.00(17) 90.00(16) 90.00(16)
O3 O3 O3 1_4555 1_6555 178.5(11) 177.1(14) 180.0(5)
O3 O3 O3 1_5455 1_5655 180.0(5) 180.0(5) 180.0(5)
O3 O3 O3 1_5455 1_6555 90.00(7) 90.00(3) 90.00(3)
O3 O3 O3 1_5655 1_6555 90.00(7) 90.00(3) 90.00(3)
loop_
_geom_bond_atom_site_label_1
_geom_bond_atom_site_label_2
_geom_bond_site_ssg_symmetry_2
_geom_bond_distance_av
_geom_bond_distance_min
_geom_bond_distance_max
Fe1 Fe1 1_4555 3.955(13) 3.868(18) 4.005(18)
Fe1 Fe1 1_5455 3.9319 3.9319 3.9319
Fe1 Fe1 1_5545 4.123(12) 3.882(14) 4.600(14)
Fe1 Fe1 1_5565 4.123(12) 3.882(14) 4.600(14)
Fe1 Fe1 1_5655 3.9319 3.9319 3.9319
Fe1 Fe1 1_6555 3.955(13) 3.868(18) 4.005(18)
Fe1 Fe1 5_4445 3.048(9) 3.011(11) 3.072(11)
Fe1 Fe1 5_4455 3.141(6) 3.129(6) 3.149(6)
Fe1 Fe1 5_4545 3.048(9) 3.011(11) 3.072(11)
Fe1 Fe1 5_4555 3.141(6) 3.129(6) 3.149(6)
Fe1 Fe1 5_5445 3.141(6) 3.129(6) 3.149(6)
Fe1 Fe1 5_5455 3.048(9) 3.011(11) 3.072(11)
Fe1 Fe1 5_5545 3.141(6) 3.129(6) 3.149(6)
Fe1 Fe1 5_5555 3.048(9) 3.011(11) 3.072(11)
Fe1 Pb1 1_4555 3.982(15) 3.90(2) 4.12(2)
Fe1 Pb1 1_5545 3.849(19) 3.66(2) 3.94(2)
Fe1 Pb1 1_5565 3.849(19) 3.66(2) 3.94(2)
Fe1 Pb1 1_6555 3.982(15) 3.90(2) 4.12(2)
Fe1 Pb1 5_4445 3.428(14) 3.327(19) 3.808(19)
Fe1 Pb1 5_4455 3.503(13) 3.34(2) 3.70(2)
Fe1 Pb1 5_4545 3.428(14) 3.327(19) 3.808(19)
Fe1 Pb1 5_4555 3.503(13) 3.34(2) 3.70(2)
Fe1 Pb1 5_5445 3.503(13) 3.34(2) 3.70(2)
Fe1 Pb1 5_5455 3.428(14) 3.327(19) 3.808(19)
Fe1 Pb1 5_5545 3.503(13) 3.34(2) 3.70(2)
Fe1 Pb1 5_5555 3.428(14) 3.327(19) 3.808(19)
Fe1 Bi1 1_4555 3.979(15) 3.88(2) 4.15(2)
Fe1 Bi1 1_5545 3.869(19) 3.67(2) 3.96(2)
Fe1 Bi1 . 0.846(9) 0.846(9) 0.846(9)
Fe1 Bi1 1_5565 3.869(19) 3.67(2) 3.96(2)
Fe1 Bi1 1_6555 3.979(15) 3.88(2) 4.15(2)
Fe1 Bi1 5_4445 3.426(14) 3.324(19) 3.811(19)
Fe1 Bi1 5_4455 3.503(13) 3.34(2) 3.66(2)
Fe1 Bi1 5_4545 3.426(14) 3.324(19) 3.811(19)
Fe1 Bi1 5_4555 3.503(13) 3.34(2) 3.66(2)
Fe1 Bi1 5_5445 3.503(13) 3.34(2) 3.66(2)
Fe1 Bi1 5_5455 3.426(14) 3.324(19) 3.811(19)
Fe1 Bi1 5_5545 3.503(13) 3.34(2) 3.66(2)
Fe1 Bi1 5_5555 3.426(14) 3.324(19) 3.811(19)
Fe1 O1 1_5455 2.024(5) 1.966(8) 2.084(8)
Fe1 O1 . 2.024(5) 1.966(8) 2.084(8)
Fe1 O1 5_4445 2.00(3) 1.94(4) 2.10(4)
Fe1 O1 5_4455 2.10(2) 2.03(2) 2.15(2)
Fe1 O1 5_5445 2.10(2) 2.03(2) 2.15(2)
Fe1 O1 5_5455 2.00(3) 1.94(4) 2.10(4)
Fe1 O2 1_4555 2.01(6) 1.92(10) 2.09(10)
Fe1 O2 . 2.01(6) 1.92(10) 2.09(10)
Fe1 O3 1_5545 2.06(3) 1.83(4) 2.70(4)
Fe1 O3 . 2.06(3) 1.83(4) 2.70(4)
Pb1 Pb1 1_4555 3.91(2) 3.60(3) 4.08(3)
Pb1 Pb1 1_5455 3.9319 3.9319 3.9319
Pb1 Pb1 1_5545 3.96(2) 3.69(2) 4.51(2)
Pb1 Pb1 1_5565 3.96(2) 3.69(2) 4.51(2)
Pb1 Pb1 1_5655 3.9319 3.9319 3.9319
Pb1 Pb1 1_6555 3.91(2) 3.60(3) 4.08(3)
Pb1 Pb1 5_4445 3.438(15) 3.437(16) 3.440(16)
Pb1 Pb1 5_4545 3.438(15) 3.437(16) 3.440(16)
Pb1 Pb1 5_5455 3.438(15) 3.437(16) 3.440(16)
Pb1 Pb1 5_5555 3.438(15) 3.437(16) 3.440(16)
Pb1 Bi1 1_4555 3.92(2) 3.62(3) 4.08(3)
Pb1 Bi1 1_5455 3.93199(6) 3.93193(18) 3.93236(18)
Pb1 Bi1 1_5545 3.96(2) 3.69(2) 4.46(2)
Pb1 Bi1 . 0.013(19) 0.00(3) 0.06(3)
Pb1 Bi1 1_5565 3.96(2) 3.69(2) 4.46(2)
Pb1 Bi1 1_5655 3.93199(6) 3.93193(18) 3.93236(18)
Pb1 Bi1 1_6555 3.92(2) 3.62(3) 4.08(3)
Pb1 Bi1 5_4445 3.439(15) 3.436(17) 3.441(17)
Pb1 Bi1 5_4545 3.439(15) 3.436(17) 3.441(17)
Pb1 Bi1 5_5455 3.439(15) 3.436(17) 3.441(17)
Pb1 Bi1 5_5555 3.439(15) 3.436(17) 3.441(17)
Pb1 O1 1_5445 3.78(2) 3.62(3) 3.85(3)
Pb1 O1 1_5465 3.78(2) 3.62(3) 3.85(3)
Pb1 O1 1_5545 3.78(2) 3.62(3) 3.85(3)
Pb1 O1 1_5565 3.78(2) 3.62(3) 3.85(3)
Pb1 O1 5_4445 2.96(3) 2.26(4) 3.75(4)
Pb1 O1 5_4455 2.99(3) 2.51(5) 3.61(5)
Pb1 O1 5_5445 2.99(3) 2.51(5) 3.61(5)
Pb1 O1 5_5455 2.96(3) 2.26(4) 3.75(4)
Pb1 O2 1_4545 3.90(7) 3.85(7) 3.94(7)
Pb1 O2 1_5565 3.90(7) 3.85(7) 3.94(7)
Pb1 O2 5_4445 2.82(3) 2.51(5) 3.53(5)
Pb1 O2 5_4455 2.82(3) 2.51(5) 3.53(5)
Pb1 O2 5_4545 2.82(3) 2.51(5) 3.53(5)
Pb1 O2 5_4555 2.82(3) 2.51(5) 3.53(5)
Pb1 O3 5_4445 2.807(11) 2.625(19) 2.900(19)
Pb1 O3 5_4545 2.807(11) 2.625(19) 2.900(19)
Pb1 O3 5_5445 2.807(11) 2.625(19) 2.900(19)
Pb1 O3 5_5545 2.807(11) 2.625(19) 2.900(19)
Bi1 Bi1 1_4555 3.91(2) 3.61(3) 4.08(3)
Bi1 Bi1 1_5455 3.9319 3.9319 3.9319
Bi1 Bi1 1_5545 3.96(2) 3.70(2) 4.49(2)
Bi1 Bi1 1_5565 3.96(2) 3.70(2) 4.49(2)
Bi1 Bi1 1_5655 3.9319 3.9319 3.9319
Bi1 Bi1 1_6555 3.91(2) 3.61(3) 4.08(3)
Bi1 Bi1 5_4445 3.440(15) 3.435(17) 3.443(17)
Bi1 Bi1 5_4455 2.966(8) 2.966(8) 2.966(8)
Bi1 Bi1 5_4545 3.440(15) 3.435(17) 3.443(17)
Bi1 Bi1 5_4555 2.966(8) 2.966(8) 2.966(8)
Bi1 Bi1 5_5445 2.966(8) 2.966(8) 2.966(8)
Bi1 Bi1 5_5455 3.440(15) 3.435(17) 3.443(17)
Bi1 Bi1 5_5545 2.966(8) 2.966(8) 2.966(8)
Bi1 Bi1 5_5555 3.440(15) 3.435(17) 3.443(17)
Bi1 O1 1_5445 3.80(2) 3.62(3) 3.88(3)
Bi1 O1 1_5455 2.495(10) 2.495(10) 2.495(10)
Bi1 O1 1_5465 3.80(2) 3.62(3) 3.88(3)
Bi1 O1 1_5545 3.80(2) 3.62(3) 3.88(3)
Bi1 O1 . 2.495(10) 2.495(10) 2.495(10)
Bi1 O1 1_5565 3.80(2) 3.62(3) 3.88(3)
Bi1 O1 5_4445 2.95(3) 2.24(4) 3.76(4)
Bi1 O1 5_4455 2.98(3) 2.50(5) 3.66(5)
Bi1 O1 5_5445 2.98(3) 2.50(5) 3.66(5)
Bi1 O1 5_5455 2.95(3) 2.24(4) 3.76(4)
Bi1 O2 1_4545 3.92(7) 3.86(7) 3.96(7)
Bi1 O2 1_4565 3.63(6) 3.63(6) 3.63(6)
Bi1 O2 1_5545 3.63(6) 3.63(6) 3.63(6)
Bi1 O2 1_5565 3.92(7) 3.86(7) 3.96(7)
Bi1 O2 5_4445 2.81(3) 2.49(5) 3.53(5)
Bi1 O2 5_4455 2.81(3) 2.49(5) 3.53(5)
Bi1 O2 5_4545 2.81(3) 2.49(5) 3.53(5)
Bi1 O2 5_4555 2.81(3) 2.49(5) 3.53(5)
Bi1 O3 1_5545 1.07(2) 1.07(2) 1.07(2)
Bi1 O3 . 1.07(2) 1.07(2) 1.07(2)
Bi1 O3 5_4445 2.811(11) 2.658(19) 2.896(19)
Bi1 O3 5_4545 2.811(11) 2.658(19) 2.896(19)
Bi1 O3 5_5445 2.811(11) 2.658(19) 2.896(19)
Bi1 O3 5_5545 2.811(11) 2.658(19) 2.896(19)
O1 O1 1_4555 3.94(4) 3.69(6) 4.07(6)
O1 O1 1_5455 3.9319 3.9319 3.9319
O1 O1 1_5655 3.9319 3.9319 3.9319
O1 O1 1_6555 3.94(4) 3.69(6) 4.07(6)
O1 O1 5_4445 2.69(3) 2.66(4) 2.75(4)
O1 O1 5_4455 2.74(2) 2.73(2) 2.75(2)
O1 O1 5_4545 2.69(3) 2.66(4) 2.75(4)
O1 O1 5_4555 2.74(2) 2.73(2) 2.75(2)
O1 O1 5_5445 2.74(2) 2.73(2) 2.75(2)
O1 O1 5_5455 2.69(3) 2.66(4) 2.75(4)
O1 O1 5_5545 2.74(2) 2.73(2) 2.75(2)
O1 O1 5_5555 2.69(3) 2.66(4) 2.75(4)
O1 O2 1_4555 2.80(5) 2.72(7) 2.84(7)
O1 O2 1_4655 2.80(5) 2.72(7) 2.84(7)
O1 O2 . 2.80(5) 2.72(7) 2.84(7)
O1 O2 1_5655 2.80(5) 2.72(7) 2.84(7)
O1 O2 5_3545 3.80(9) 3.75(10) 3.89(10)
O1 O2 5_5555 3.80(9) 3.75(10) 3.89(10)
O1 O3 1_5545 2.98(2) 2.84(4) 3.23(4)
O1 O3 . 2.98(2) 2.84(4) 3.23(4)
O1 O3 1_5645 2.98(2) 2.84(4) 3.23(4)
O1 O3 1_5655 2.98(2) 2.84(4) 3.23(4)
O1 O3 5_4535 3.26(4) 3.19(4) 3.28(4)
O1 O3 5_4555 3.19(3) 3.10(3) 3.27(3)
O1 O3 5_5535 3.19(3) 3.10(3) 3.27(3)
O1 O3 5_5555 3.26(4) 3.19(4) 3.28(4)
O2 O2 1_4555 4.00(8) 3.85(11) 4.09(11)
O2 O2 1_5455 3.9319 3.9319 3.9319
O2 O2 1_5655 3.9319 3.9319 3.9319
O2 O2 1_6555 4.00(8) 3.84(11) 4.09(11)
O2 O3 1_5545 2.97(5) 2.87(8) 3.17(8)
O2 O3 . 2.92(5) 2.85(9) 3.10(9)
O2 O3 1_6545 2.92(5) 2.85(9) 3.08(9)
O2 O3 1_6555 2.97(5) 2.87(8) 3.18(8)
O3 O3 1_4555 3.962(5) 3.961(12) 3.967(12)
O3 O3 1_5455 3.9319 3.9319 3.9319
O3 O3 1_5655 3.9319 3.9319 3.9319
O3 O3 1_6555 3.962(6) 3.961(12) 3.968(12)
loop_
_pd_proc_point_id
_pd_proc_2theta_corrected
_pd_proc_intensity_net
_pd_calc_intensity_net
_pd_proc_ls_weight
1 6.1700 1305.00 1214.90 35.60
2 6.2200 1284.00 1215.51 35.30
3 6.2700 1327.00 1216.23 35.90
4 6.3200 1284.00 1217.09 35.30
5 6.3700 1391.00 1218.18 36.60
6 6.4200 1298.00 1219.62 35.50
7 6.4700 1339.00 1221.59 35.90
8 6.5200 1334.00 1224.32 35.80
9 6.5700 1395.00 1228.18 36.70
10 6.6200 1373.00 1233.60 36.40
11 6.6700 1299.00 1241.16 35.10
12 6.7200 1386.00 1251.50 36.60
13 6.7700 1343.00 1265.37 35.70
14 6.8200 1387.00 1283.47 36.20
15 6.8700 1414.00 1306.43 36.80
16 6.9200 1413.00 1334.66 36.60
17 6.9700 1424.00 1368.22 36.70
18 7.0200 1467.00 1406.70 37.50
19 7.0700 1407.00 1449.12 36.60
20 7.1200 1495.00 1493.91 37.70
21 7.1700 1490.00 1538.88 37.70
22 7.2200 1551.00 1581.33 38.40
23 7.2700 1572.00 1618.24 38.60
24 7.3200 1575.00 1646.50 38.80
25 7.3700 1547.00 1663.39 38.40
26 7.4200 1540.00 1667.10 38.20
27 7.4700 1520.00 1657.23 38.30
28 7.5200 1521.00 1634.87 38.10
29 7.5700 1548.00 1602.36 38.50
30 7.6200 1472.00 1562.66 37.70
31 7.6700 1312.00 1518.87 35.50
32 7.7200 1424.00 1473.90 37.00
33 7.7700 1322.00 1430.22 35.80
34 7.8200 1348.00 1389.73 36.00
35 7.8700 1207.00 1353.72 34.10
36 7.9200 1169.00 1322.88 33.60
37 7.9700 1228.00 1297.41 34.50
38 8.0200 1292.00 1277.04 35.30
39 8.0700 1256.00 1261.25 35.00
40 8.1200 1228.00 1249.37 34.50
41 8.1700 1198.00 1240.66 33.80
42 8.2200 1265.00 1234.42 35.10
43 8.2700 1223.00 1230.03 34.40
44 8.3200 1203.00 1226.98 33.90
45 8.3700 1195.00 1224.87 34.20
46 8.4200 1168.00 1223.41 33.70
47 8.4700 1227.00 1222.38 34.40
48 8.5200 1195.00 1221.64 34.20
49 8.5700 1276.00 1221.08 35.20
50 8.6200 1181.00 1220.64 33.80
51 8.6700 1207.00 1220.30 34.20
52 8.7200 1187.00 1220.01 34.00
53 8.7700 1174.00 1219.76 33.50
54 8.8200 1224.00 1219.55 34.40
55 8.8700 1194.00 1219.36 34.00
56 8.9200 1163.00 1219.20 33.30
57 8.9700 1163.00 1219.06 33.50
58 9.0200 1223.00 1218.93 34.40
59 9.0700 1208.00 1218.82 34.10
60 9.1200 1220.00 1218.72 34.30
61 9.1700 1224.00 1218.63 34.30
62 9.2200 1219.00 1218.55 34.20
63 9.2700 1212.00 1218.48 34.00
64 9.3200 1154.00 1218.42 33.30
65 9.3700 1153.00 1218.37 33.40
66 9.4200 1208.00 1218.32 33.90
67 9.4700 1195.00 1218.28 33.90
68 9.5200 1106.00 1218.24 32.70
69 9.5700 1206.00 1218.21 33.90
70 9.6200 1143.00 1218.18 33.20
71 9.6700 1193.00 1218.15 33.80
72 9.7200 1126.00 1218.13 32.80
73 9.7700 1143.00 1218.11 33.20
74 9.8200 1136.00 1218.09 33.00
75 9.8700 1167.00 1218.08 33.50
76 9.9200 1192.00 1218.06 33.90
77 9.9700 1193.00 1218.05 34.10
78 10.0200 1164.00 1218.04 33.50
79 10.0700 1195.00 1218.04 34.10
80 10.1200 1139.00 1218.03 33.30
81 10.1700 1159.00 1218.05 33.70
82 10.2200 1108.00 1218.04 32.90
83 10.2700 1216.00 1218.04 34.70
84 10.3200 1197.00 1218.04 34.20
85 10.3700 1169.00 1218.04 34.20
86 10.4200 1236.00 1218.03 35.00
87 10.4700 1170.00 1218.03 34.30
88 10.5200 1059.00 1218.03 32.50
89 10.5700 1155.00 1218.03 34.30
90 10.6200 1156.00 1218.03 34.10
91 10.6700 1120.00 1218.03 33.80
92 10.7200 1241.00 1218.03 35.60
93 10.7700 1127.00 1218.03 34.10
94 10.8200 1182.00 1218.03 34.80
95 10.8700 1191.00 1218.03 35.20
96 10.9200 1158.00 1218.03 34.60
97 10.9700 1161.00 1218.03 34.80
98 11.0200 1165.00 1218.03 34.80
99 11.0700 1147.00 1218.03 34.70
100 11.1200 1187.00 1218.03 35.20
101 11.1700 1091.00 1218.03 33.90
102 11.2200 1242.00 1218.03 36.10
103 11.2700 1135.00 1218.03 34.50
104 11.3200 1151.00 1218.03 34.80
105 11.3700 1184.00 1218.03 35.40
106 11.4200 1089.00 1218.02 33.80
107 11.4700 1122.00 1218.02 34.20
108 11.5200 1199.00 1218.02 35.60
109 11.5700 1168.00 1218.02 34.90
110 11.6200 1166.00 1218.01 34.90
111 11.6700 1188.00 1218.01 35.10
112 11.7200 1202.00 1218.01 35.40
113 11.7700 1163.00 1218.00 34.50
114 11.8200 1145.00 1218.00 34.40
115 11.8700 1206.00 1217.99 35.00
116 11.9200 1221.00 1217.99 35.30
117 11.9700 1147.00 1217.98 34.10
118 12.0200 1182.00 1217.98 34.60
119 12.0700 1171.00 1217.97 34.30
120 12.1200 1178.00 1217.96 34.60
121 12.1700 1190.00 1217.96 34.20
122 12.2200 1164.00 1217.95 34.20
123 12.2700 1218.00 1217.94 34.70
124 12.3200 1220.00 1217.93 34.70
125 12.3700 1194.00 1217.93 34.20
126 12.4200 1208.00 1217.92 34.50
127 12.4700 1169.00 1217.91 33.60
128 12.5200 1166.00 1217.90 33.80
129 12.5700 1245.00 1217.89 34.60
130 12.6200 1221.00 1217.88 34.40
131 12.6700 1185.00 1217.87 33.70
132 12.7200 1182.00 1217.86 33.70
133 12.7700 1142.00 1217.85 32.90
134 12.8200 1183.00 1217.84 33.60
135 12.8700 1230.00 1217.83 34.30
136 12.9200 1212.00 1217.81 33.90
137 12.9700 1162.00 1217.80 33.30
138 13.0200 1228.00 1217.79 34.30
139 13.0700 1183.00 1217.78 33.50
140 13.1200 1213.00 1217.76 34.00
141 13.1700 1277.00 1217.75 34.70
142 13.2200 1225.00 1217.74 34.10
143 13.2700 1283.00 1217.72 34.70
144 13.3200 1228.00 1217.71 34.00
145 13.3700 1177.00 1217.70 33.40
146 13.4200 1205.00 1217.68 33.70
147 13.4700 1190.00 1217.67 33.50
148 13.5200 1229.00 1217.65 34.10
149 13.5700 1185.00 1217.64 33.50
150 13.6200 1231.00 1217.62 34.10
151 13.6700 1239.00 1217.61 34.30
152 13.7200 1214.00 1217.59 33.90
153 13.7700 1206.00 1217.58 33.70
154 13.8200 1214.00 1217.56 33.90
155 13.8700 1244.00 1217.54 34.30
156 13.9200 1259.00 1217.53 34.40
157 13.9700 1219.00 1217.51 34.00
158 14.0200 1228.00 1217.50 34.10
159 14.0700 1217.00 1217.48 33.90
160 14.1200 1228.00 1217.46 34.20
161 14.1700 1247.00 1217.45 34.30
162 14.2200 1256.00 1217.43 34.40
163 14.2700 1225.00 1217.41 34.00
164 14.3200 1175.00 1217.46 33.30
165 14.3700 1288.00 1217.44 34.90
166 14.4200 1275.00 1217.42 34.70
167 14.4700 1309.00 1217.41 35.20
168 14.5200 1281.00 1217.39 34.80
169 14.5700 1241.00 1217.38 34.20
170 14.6200 1230.00 1217.36 34.20
171 14.6700 1177.00 1217.34 33.30
172 14.7200 1241.00 1217.33 34.20
173 14.7700 1208.00 1217.31 33.70
174 14.8200 1222.00 1217.30 34.00
175 14.8700 1248.00 1217.28 34.30
176 14.9200 1246.00 1217.27 34.30
177 14.9700 1279.00 1217.25 35.00
178 15.0200 1280.00 1217.23 34.70
179 15.0700 1211.00 1217.22 33.90
180 15.1200 1281.00 1217.20 35.00
181 15.1700 1168.00 1217.19 33.20
182 15.2200 1246.00 1217.17 34.40
183 15.2700 1242.00 1217.16 34.50
184 15.3200 1247.00 1217.14 34.30
185 15.3700 1146.00 1217.13 33.00
186 15.4200 1224.00 1217.12 34.20
187 15.4700 1254.00 1217.10 34.60
188 15.5200 1227.00 1217.09 34.20
189 15.5700 1189.00 1217.08 33.80
190 15.6200 1222.00 1217.06 34.10
191 15.6700 1241.00 1217.05 34.30
192 15.7200 1233.00 1217.04 34.50
193 15.7700 1270.00 1217.03 34.80
194 15.8200 1227.00 1216.91 34.10
195 15.8700 1161.00 1216.90 33.40
196 15.9200 1226.00 1216.89 34.20
197 15.9700 1199.00 1216.89 33.80
198 16.0200 1243.00 1216.88 34.60
199 16.0700 1248.00 1216.88 34.70
200 16.1200 1250.00 1216.88 34.60
201 16.1700 1242.00 1216.88 34.60
202 16.2200 1270.00 1216.88 35.00
203 16.2700 1167.00 1216.88 33.50
204 16.3200 1264.00 1216.88 34.90
205 16.3700 1267.00 1216.88 35.30
206 16.4200 1235.00 1216.89 34.50
207 16.4700 1249.00 1216.90 35.00
208 16.5200 1323.00 1216.91 36.00
209 16.5700 1257.00 1216.92 35.00
210 16.6200 1286.00 1216.94 35.60
211 16.6700 1270.00 1216.96 35.70
212 16.7200 1200.00 1216.98 34.20
213 16.7700 1204.00 1217.00 34.70
214 16.8200 1238.00 1217.03 35.20
215 16.8700 1222.00 1217.07 35.10
216 16.9200 1247.00 1217.11 35.30
217 16.9700 1279.00 1217.16 36.20
218 17.0200 1239.00 1217.21 35.30
219 17.0700 1311.00 1217.28 36.70
220 17.1200 1256.00 1217.35 35.90
221 17.1700 1202.00 1218.14 35.20
222 17.2200 1204.00 1218.27 35.20
223 17.2700 1245.00 1218.44 36.10
224 17.3200 1239.00 1218.67 35.80
225 17.3700 1303.00 1218.98 37.00
226 17.4200 1284.00 1219.43 36.60
227 17.4700 1243.00 1220.06 36.10
228 17.5200 1238.00 1220.97 36.10
229 17.5700 1267.00 1222.24 36.50
230 17.6200 1322.00 1224.02 37.30
231 17.6700 1214.00 1226.42 35.80
232 17.7200 1270.00 1229.60 36.60
233 17.7700 1260.00 1233.68 36.50
234 17.8200 1333.00 1238.74 37.50
235 17.8700 1324.00 1244.81 37.40
236 17.9200 1338.00 1251.82 37.60
237 17.9700 1301.00 1259.60 37.10
238 18.0200 1427.00 1267.84 38.80
239 18.0700 1318.00 1276.12 37.10
240 18.1200 1481.00 1283.92 39.60
241 18.1700 1359.00 1290.63 37.70
242 18.2200 1403.00 1295.63 38.20
243 18.2700 1400.00 1298.38 38.00
244 18.3200 1379.00 1298.55 38.00
245 18.3700 1332.00 1296.12 36.80
246 18.4200 1343.00 1291.38 37.30
247 18.4700 1413.00 1284.86 38.00
248 18.5200 1324.00 1277.46 36.70
249 18.5700 1298.00 1269.24 36.30
250 18.6200 1335.00 1261.00 37.00
251 18.6700 1281.00 1253.18 35.60
252 18.7200 1306.00 1246.09 36.50
253 18.7700 1252.00 1239.94 35.40
254 18.8200 1323.00 1234.79 36.20
255 18.8700 1286.00 1230.63 35.80
256 18.9200 1233.00 1227.38 35.10
257 18.9700 1334.00 1224.92 36.20
258 19.0200 1322.00 1223.12 36.30
259 19.0700 1344.00 1221.82 36.30
260 19.1200 1321.00 1220.91 36.00
261 19.1700 1278.00 1220.28 35.40
262 19.2200 1370.00 1219.86 36.70
263 19.2700 1301.00 1219.57 35.50
264 19.3200 1234.00 1219.37 34.80
265 19.3700 1324.00 1219.23 35.80
266 19.4200 1312.00 1219.14 35.70
267 19.4700 1304.00 1219.08 35.60
268 19.5200 1304.00 1219.03 35.60
269 19.5700 1348.00 1219.00 36.10
270 19.6200 1273.00 1218.98 35.20
271 19.6700 1270.00 1218.98 34.90
272 19.7200 1276.00 1218.98 35.10
273 19.7700 1289.00 1218.99 35.20
274 19.8200 1295.00 1219.00 35.20
275 19.8700 1325.00 1219.03 35.90
276 19.9200 1328.00 1219.06 35.70
277 19.9700 1358.00 1219.09 36.30
278 20.0200 1304.00 1219.13 35.60
279 20.0700 1257.00 1219.18 34.80
280 20.1200 1272.00 1219.23 35.10
281 20.1700 1279.00 1219.29 35.00
282 20.2200 1235.00 1219.35 34.50
283 20.2700 1257.00 1219.41 34.90
284 20.3200 1269.00 1219.49 34.90
285 20.3700 1303.00 1219.56 35.40
286 20.4200 1288.00 1219.65 35.40
287 20.4700 1257.00 1219.73 34.80
288 20.5200 1351.00 1219.83 36.10
289 20.5700 1332.00 1219.93 35.80
290 20.6200 1346.00 1220.03 36.00
291 20.6700 1249.00 1220.14 34.70
292 20.7200 1286.00 1220.54 35.20
293 20.7700 1312.00 1220.66 35.50
294 20.8200 1299.00 1220.80 35.40
295 20.8700 1318.00 1220.94 35.70
296 20.9200 1272.00 1221.09 34.90
297 20.9700 1335.00 1221.24 35.90
298 21.0200 1285.00 1221.41 35.30
299 21.0700 1287.00 1221.58 35.10
300 21.1200 1268.00 1221.76 35.00
301 21.1700 1273.00 1221.95 34.90
302 21.2200 1331.00 1222.15 35.70
303 21.2700 1342.00 1222.36 35.80
304 21.3200 1322.00 1222.58 35.60
305 21.3700 1300.00 1222.82 35.40
306 21.4200 1304.00 1223.07 35.30
307 21.4700 1327.00 1223.33 35.60
308 21.5200 1291.00 1223.60 35.30
309 21.5700 1285.00 1223.90 35.10
310 21.6200 1326.00 1224.21 35.60
311 21.6700 1318.00 1224.53 35.60
312 21.7200 1335.00 1224.88 35.70
313 21.7700 1292.00 1225.25 35.10
314 21.8200 1330.00 1225.64 35.80
315 21.8700 1307.00 1226.06 35.40
316 21.9200 1338.00 1226.51 35.80
317 21.9700 1365.00 1226.98 36.40
318 22.0200 1335.00 1227.49 35.80
319 22.0700 1270.00 1228.04 35.00
320 22.1200 1310.00 1228.63 35.70
321 22.1700 1310.00 1229.26 35.70
322 22.2200 1382.00 1229.94 36.50
323 22.2700 1273.00 1230.68 35.30
324 22.3200 1397.00 1231.49 36.80
325 22.3700 1359.00 1232.36 36.30
326 22.4200 1359.00 1233.33 36.50
327 22.4700 1282.00 1234.41 35.60
328 22.5200 1289.00 1235.61 35.40
329 22.5700 1330.00 1236.98 36.30
330 22.6200 1348.00 1238.56 36.50
331 22.6700 1359.00 1240.40 36.40
332 22.7200 1346.00 1242.58 36.50
333 22.7700 1285.00 1245.19 35.90
334 22.8200 1382.00 1248.36 36.70
335 22.8700 1351.00 1252.23 36.80
336 22.9200 1325.00 1256.97 36.40
337 22.9700 1312.00 1262.89 36.10
338 23.0200 1360.00 1270.11 37.00
339 23.0700 1336.00 1279.06 36.90
340 23.1200 1340.00 1290.29 36.50
341 23.1700 1391.00 1304.63 37.60
342 23.2200 1457.00 1323.43 38.60
343 23.2700 1374.00 1348.86 37.20
344 23.3200 1495.00 1384.32 38.90
345 23.3700 1490.00 1434.90 39.30
346 23.4200 1573.00 1507.52 39.80
347 23.4700 1718.00 1611.32 42.10
348 23.5200 1891.00 1756.93 44.20
349 23.5700 1992.00 1955.41 45.20
350 23.6200 2387.00 2216.12 49.60
351 23.6700 2680.00 2544.13 52.80
352 23.7200 3182.00 2937.16 57.20
353 23.7700 3616.00 3382.92 61.30
354 23.8200 3990.00 3857.77 64.50
355 23.8700 4453.00 4327.01 68.20
356 23.9200 4811.00 4747.51 70.70
357 23.9700 5015.00 5072.78 72.40
358 24.0200 5109.00 5260.64 73.10
359 24.0700 5297.00 5283.29 74.20
360 24.1200 5188.00 5136.10 73.60
361 24.1700 4807.00 4839.37 70.90
362 24.2200 4379.00 4431.65 67.40
363 24.2700 3810.00 3959.59 62.80
364 24.3200 3237.00 3469.08 58.20
365 24.3700 2733.00 2999.14 53.20
366 24.4200 2318.00 2578.27 49.00
367 24.4700 1968.00 2223.18 45.10
368 24.5200 1833.00 1939.51 43.50
369 24.5700 1663.00 1724.13 41.30
370 24.6200 1617.00 1568.28 40.90
371 24.6700 1413.00 1460.47 37.90
372 24.7200 1418.00 1388.98 38.10
373 24.7700 1278.00 1343.42 36.00
374 24.8200 1319.00 1315.46 36.60
375 24.8700 1320.00 1298.99 36.40
376 24.9200 1347.00 1289.83 36.90
377 24.9700 1331.00 1285.40 36.30
378 25.0200 1294.00 1284.25 36.00
379 25.0700 1388.00 1285.81 37.10
380 25.1200 1379.00 1290.14 37.00
381 25.1700 1376.00 1297.80 36.70
382 25.2200 1393.00 1309.87 37.20
383 25.2700 1305.00 1327.81 35.50
384 25.3200 1417.00 1353.52 37.30
385 25.3700 1487.00 1388.97 38.10
386 25.4200 1507.00 1436.17 38.20
387 25.4700 1590.00 1496.67 39.20
388 25.5200 1683.00 1571.10 40.50
389 25.5700 1641.00 1658.74 39.60
390 25.6200 1775.00 1757.11 41.40
391 25.6700 1854.00 1861.72 42.10
392 25.7200 1881.00 1966.11 42.40
393 25.7700 2065.00 2062.07 44.30
394 25.8200 2157.00 2140.31 45.40
395 25.8700 2137.00 2191.69 44.90
396 25.9200 2031.00 2209.15 43.90
397 25.9700 2032.00 2189.90 43.90
398 26.0200 2011.00 2136.52 43.60
399 26.0700 1888.00 2055.96 42.10
400 26.1200 1781.00 1957.44 41.10
401 26.1700 1632.00 1850.37 39.00
402 26.2200 1554.00 1743.13 38.20
403 26.2700 1454.00 1642.36 36.90
404 26.3200 1422.00 1552.69 36.40
405 26.3700 1426.00 1476.68 36.80
406 26.4200 1367.00 1415.08 35.80
407 26.4700 1376.00 1367.17 36.10
408 26.5200 1368.00 1331.36 36.00
409 26.5700 1304.00 1305.55 34.90
410 26.6200 1241.00 1287.54 34.20
411 26.6700 1240.00 1275.35 34.10
412 26.7200 1243.00 1267.30 34.10
413 26.7700 1321.00 1262.12 35.20
414 26.8200 1216.00 1258.86 33.80
415 26.8700 1320.00 1256.91 35.20
416 26.9200 1238.00 1255.86 34.10
417 26.9700 1338.00 1255.49 35.60
418 27.0200 1243.00 1255.75 34.20
419 27.0700 1250.00 1256.69 34.30
420 27.1200 1294.00 1258.54 35.00
421 27.1700 1266.00 1261.68 34.40
422 27.2200 1253.00 1266.78 34.30
423 27.2700 1264.00 1274.78 34.50
424 27.3200 1307.00 1287.00 34.90
425 27.3700 1302.00 1305.16 35.00
426 27.4200 1393.00 1331.28 36.30
427 27.4700 1322.00 1367.58 35.20
428 27.5200 1317.00 1416.37 35.20
429 27.5700 1531.00 1478.70 37.80
430 27.6200 1530.00 1555.30 37.90
431 27.6700 1590.00 1645.09 38.50
432 27.7200 1733.00 1745.08 40.20
433 27.7700 1800.00 1850.11 41.10
434 27.8200 1873.00 1953.02 41.70
435 27.8700 2055.00 2044.95 43.90
436 27.9200 2010.00 2116.24 43.40
437 27.9700 2092.00 2157.94 44.40
438 28.0200 2044.00 2164.06 43.80
439 28.0700 2087.00 2133.67 44.30
440 28.1200 1967.00 2071.24 43.00
441 28.1700 1841.00 1985.02 41.50
442 28.2200 1744.00 1884.64 40.50
443 28.2700 1616.00 1779.35 38.90
444 28.3200 1476.00 1676.94 37.10
445 28.3700 1425.00 1583.24 36.60
446 28.4200 1373.00 1501.96 35.90
447 28.4700 1391.00 1434.76 36.20
448 28.5200 1297.00 1381.62 34.90
449 28.5700 1292.00 1341.31 34.90
450 28.6200 1263.00 1311.87 34.50
451 28.6700 1226.00 1291.09 33.90
452 28.7200 1226.00 1276.86 33.90
453 28.7700 1185.00 1267.35 33.50
454 28.8200 1206.00 1261.10 33.70
455 28.8700 1187.00 1257.03 33.50
456 28.9200 1176.00 1254.39 33.30
457 28.9700 1182.00 1252.71 33.50
458 29.0200 1166.00 1251.68 33.20
459 29.0700 1145.00 1251.18 33.10
460 29.1200 1197.00 1251.16 33.70
461 29.1700 1187.00 1251.71 33.60
462 29.2200 1150.00 1252.97 33.20
463 29.2700 1205.00 1255.23 33.90
464 29.3200 1227.00 1258.87 34.20
465 29.3700 1132.00 1264.39 33.00
466 29.4200 1197.00 1272.38 33.80
467 29.4700 1249.00 1283.47 34.90
468 29.5200 1272.00 1298.17 35.00
469 29.5700 1220.00 1316.80 34.60
470 29.6200 1272.00 1339.33 35.30
471 29.6700 1213.00 1365.16 34.50
472 29.7200 1268.00 1393.15 35.20
473 29.7700 1234.00 1421.51 35.10
474 29.8200 1259.00 1447.96 35.10
475 29.8700 1261.00 1469.90 35.60
476 29.9200 1254.00 1484.86 35.30
477 29.9700 1309.00 1491.04 36.30
478 30.0200 1309.00 1488.02 36.20
479 30.0700 1247.00 1477.24 35.60
480 30.1200 1313.00 1460.71 36.30
481 30.1700 1338.00 1441.66 36.80
482 30.2200 1329.00 1422.99 36.70
483 30.2700 1245.00 1407.09 35.40
484 30.3200 1340.00 1395.58 36.80
485 30.3700 1301.00 1389.15 36.50
486 30.4200 1277.00 1387.56 35.80
487 30.4700 1362.00 1389.76 37.20
488 30.5200 1311.00 1394.04 36.60
489 30.5700 1418.00 1398.32 38.00
490 30.6200 1430.00 1400.52 38.10
491 30.6700 1484.00 1398.95 38.90
492 30.7200 1426.00 1392.78 38.10
493 30.7700 1336.00 1382.19 36.70
494 30.8200 1389.00 1368.12 37.60
495 30.8700 1311.00 1351.90 36.30
496 30.9200 1260.00 1334.89 35.70
497 30.9700 1312.00 1318.29 36.50
498 31.0200 1213.00 1302.35 34.90
499 31.0700 1204.00 1289.01 34.60
500 31.1200 1208.00 1277.91 35.00
501 31.1700 1150.00 1269.08 33.60
502 31.2200 1205.00 1262.34 34.60
503 31.2700 1154.00 1257.41 33.90
504 31.3200 1179.00 1253.94 34.10
505 31.3700 1209.00 1251.60 34.50
506 31.4200 1182.00 1250.09 34.30
507 31.4700 1213.00 1249.18 34.50
508 31.5200 1170.00 1248.67 34.00
509 31.5700 1204.00 1248.44 34.40
510 31.6200 1207.00 1248.41 34.40
511 31.6700 1227.00 1248.53 34.40
512 31.7200 1185.00 1248.76 34.10
513 31.7700 1214.00 1249.10 34.10
514 31.8200 1228.00 1250.85 34.40
515 31.8700 1239.00 1251.44 34.60
516 31.9200 1205.00 1252.20 34.00
517 31.9700 1212.00 1253.18 34.00
518 32.0200 1264.00 1254.48 34.90
519 32.0700 1240.00 1256.23 34.30
520 32.1200 1143.00 1258.58 33.00
521 32.1700 1197.00 1261.71 33.70
522 32.2200 1227.00 1265.82 34.10
523 32.2700 1306.00 1271.08 35.10
524 32.3200 1238.00 1277.59 34.30
525 32.3700 1351.00 1285.38 35.60
526 32.4200 1324.00 1294.29 35.40
527 32.4700 1309.00 1304.01 35.20
528 32.5200 1370.00 1314.03 35.90
529 32.5700 1392.00 1323.66 36.20
530 32.6200 1405.00 1332.07 36.50
531 32.6700 1435.00 1338.34 36.60
532 32.7200 1423.00 1341.67 36.50
533 32.7700 1373.00 1341.59 35.90
534 32.8200 1495.00 1340.79 37.40
535 32.8700 1427.00 1334.56 36.60
536 32.9200 1348.00 1326.32 35.50
537 32.9700 1252.00 1316.98 34.00
538 33.0200 1263.00 1307.38 34.40
539 33.0700 1212.00 1298.13 33.60
540 33.1200 1238.00 1289.84 33.90
541 33.1700 1254.00 1282.75 34.10
542 33.2200 1216.00 1276.98 33.70
543 33.2700 1238.00 1272.53 33.60
544 33.3200 1251.00 1269.26 34.10
545 33.3700 1215.00 1268.65 33.60
546 33.4200 1184.00 1267.25 32.80
547 33.4700 1244.00 1266.48 34.00
548 33.5200 1234.00 1266.18 33.80
549 33.5700 1240.00 1266.22 33.60
550 33.6200 1254.00 1268.05 34.10
551 33.6700 1251.00 1268.55 33.90
552 33.7200 1245.00 1269.18 33.70
553 33.7700 1162.00 1269.92 32.70
554 33.8200 1277.00 1270.77 34.30
555 33.8700 1234.00 1271.72 33.40
556 33.9200 1265.00 1272.78 34.10
557 33.9700 1261.00 1273.98 34.10
558 34.0200 1244.00 1275.36 33.60
559 34.0700 1241.00 1276.96 33.80
560 34.1200 1254.00 1278.91 34.00
561 34.1700 1228.00 1281.36 33.30
562 34.2200 1239.00 1284.57 33.70
563 34.2700 1266.00 1288.92 34.00
564 34.3200 1235.00 1294.96 33.40
565 34.3700 1239.00 1303.43 33.70
566 34.4200 1301.00 1315.27 34.40
567 34.4700 1373.00 1331.60 35.30
568 34.5200 1293.00 1353.64 34.40
569 34.5700 1330.00 1382.57 34.70
570 34.6200 1425.00 1419.31 36.00
571 34.6700 1428.00 1464.30 36.00
572 34.7200 1527.00 1517.20 37.20
573 34.7700 1544.00 1577.00 37.40
574 34.8200 1594.00 1640.69 38.00
575 34.8700 1763.00 1704.92 40.10
576 34.9200 1766.00 1764.97 40.00
577 34.9700 1960.00 1815.30 42.30
578 35.0200 1940.00 1850.20 42.10
579 35.0700 1939.00 1865.00 42.10
580 35.1200 1965.00 1857.58 42.40
581 35.1700 1943.00 1829.21 42.20
582 35.2200 1858.00 1784.05 41.20
583 35.2700 1814.00 1727.65 40.90
584 35.3200 1717.00 1665.70 39.70
585 35.3700 1622.00 1602.90 38.70
586 35.4200 1502.00 1543.71 37.20
587 35.4700 1503.00 1490.60 37.60
588 35.5200 1506.00 1445.19 37.30
589 35.5700 1517.00 1408.05 37.80
590 35.6200 1419.00 1378.92 36.60
591 35.6700 1501.00 1356.98 37.60
592 35.7200 1367.00 1341.13 35.90
593 35.7700 1410.00 1330.14 36.90
594 35.8200 1381.00 1322.88 36.10
595 35.8700 1420.00 1318.35 37.20
596 35.9200 1356.00 1315.78 36.20
597 35.9700 1422.00 1314.58 37.40
598 36.0200 1388.00 1314.35 36.80
599 36.0700 1308.00 1314.80 36.00
600 36.1200 1376.00 1315.77 36.80
601 36.1700 1320.00 1317.14 36.20
602 36.2200 1426.00 1318.86 37.60
603 36.2700 1278.00 1320.93 36.00
604 36.3200 1353.00 1323.48 36.70
605 36.3700 1359.00 1326.37 37.30
606 36.4200 1349.00 1329.85 36.90
607 36.4700 1393.00 1334.15 37.80
608 36.5200 1390.00 1339.67 37.80
609 36.5700 1459.00 1346.94 39.10
610 36.6200 1420.00 1356.74 38.10
611 36.6700 1362.00 1370.05 37.70
612 36.7200 1502.00 1388.05 39.60
613 36.7700 1439.00 1412.02 38.80
614 36.8200 1468.00 1443.15 39.10
615 36.8700 1498.00 1482.35 39.80
616 36.9200 1623.00 1529.93 41.20
617 36.9700 1649.00 1585.30 41.70
618 37.0200 1693.00 1646.78 42.30
619 37.0700 1689.00 1711.59 42.10
620 37.1200 1763.00 1775.61 43.10
621 37.1700 1791.00 1833.70 43.40
622 37.2200 1884.00 1880.17 44.50
623 37.2700 1894.00 1909.72 44.40
624 37.3200 1836.00 1919.02 43.90
625 37.3700 1811.00 1908.03 43.40
626 37.4200 1858.00 1880.10 43.90
627 37.4700 1788.00 1840.86 43.00
628 37.5200 1830.00 1796.91 43.60
629 37.5700 1724.00 1755.05 41.90
630 37.6200 1719.00 1722.19 42.20
631 37.6700 1674.00 1705.75 41.10
632 37.7200 1692.00 1714.27 41.40
633 37.7700 1804.00 1758.08 42.50
634 37.8200 1877.00 1849.66 43.50
635 37.8700 1964.00 2003.29 44.10
636 37.9200 2199.00 2233.58 46.90
637 37.9700 2615.00 2552.66 50.60
638 38.0200 2974.00 2966.12 54.20
639 38.0700 3427.00 3468.72 58.00
640 38.1200 3873.00 4040.70 61.50
641 38.1700 4581.00 4645.76 66.60
642 38.2200 5041.00 5231.96 70.30
643 38.2700 5435.00 5735.76 72.00
644 38.3200 5708.00 6090.23 74.30
645 38.3700 6143.00 6240.67 76.90
646 38.4200 6023.00 6163.82 75.80
647 38.4700 5967.00 5879.01 75.40
648 38.5200 5549.00 5441.10 73.10
649 38.5700 5040.00 4922.67 68.70
650 38.6200 4513.00 4398.93 65.60
651 38.6700 4103.00 3939.49 62.20
652 38.7200 3738.00 3604.72 59.20
653 38.7700 3764.00 3444.78 59.30
654 38.8200 3878.00 3499.53 60.40
655 38.8700 4307.00 3798.21 63.20
656 38.9200 4842.00 4358.06 67.30
657 38.9700 5706.00 5180.72 73.30
658 39.0200 6772.00 6248.30 79.30
659 39.0700 7773.00 7519.15 84.90
660 39.1200 9167.00 8927.27 92.90
661 39.1700 10195.00 10383.70 96.80
662 39.2200 11677.00 11783.10 104.10
663 39.2700 12983.00 13016.20 109.60
664 39.3200 13801.00 13995.50 112.60
665 39.3700 14837.00 14682.60 116.80
666 39.4200 15330.00 15089.60 119.10
667 39.4700 15218.00 15249.80 118.00
668 39.5200 14982.00 15184.30 117.40
669 39.5700 14640.00 14887.10 116.20
670 39.6200 14028.00 14335.00 113.30
671 39.6700 13428.00 13517.80 110.90
672 39.7200 12766.00 12471.10 108.50
673 39.7700 11623.00 11284.40 102.90
674 39.8200 10201.00 10077.80 96.60
675 39.8700 9147.00 8968.50 92.20
676 39.9200 7903.00 8048.40 84.80
677 39.9700 7201.00 7369.26 81.90
678 40.0200 6569.00 6938.78 78.10
679 40.0700 6378.00 6715.02 76.40
680 40.1200 6415.00 6625.49 77.30
681 40.1700 6340.00 6575.77 76.60
682 40.2200 6334.00 6473.05 76.10
683 40.2700 6072.00 6251.80 75.10
684 40.3200 5830.00 5890.95 73.50
685 40.3700 5291.00 5411.29 70.10
686 40.4200 4686.00 4857.67 66.00
687 40.4700 4199.00 4280.81 63.00
688 40.5200 3415.00 3726.21 56.30
689 40.5700 2965.00 3228.25 53.00
690 40.6200 2571.00 2807.47 49.30
691 40.6700 2316.00 2471.19 46.70
692 40.7200 2122.00 2215.68 44.80
693 40.7700 1941.00 2029.72 42.90
694 40.8200 1819.00 1898.46 41.30
695 40.8700 1738.00 1806.52 40.60
696 40.9200 1727.00 1740.42 40.50
697 40.9700 1673.00 1689.92 40.00
698 41.0200 1620.00 1648.29 39.20
699 41.0700 1577.00 1613.21 38.80
700 41.1200 1624.00 1580.05 39.40
701 41.1700 1474.00 1549.68 37.40
702 41.2200 1576.00 1522.08 38.80
703 41.2700 1586.00 1497.43 39.20
704 41.3200 1529.00 1475.91 38.10
705 41.3700 1547.00 1457.55 38.70
706 41.4200 1560.00 1442.24 38.90
707 41.4700 1583.00 1429.72 39.20
708 41.5200 1488.00 1419.67 38.00
709 41.5700 1448.00 1411.70 37.70
710 41.6200 1518.00 1405.46 38.40
711 41.6700 1482.00 1400.64 37.80
712 41.7200 1491.00 1396.99 38.30
713 41.7700 1416.00 1394.34 37.10
714 41.8200 1384.00 1392.63 36.60
715 41.8700 1458.00 1391.88 38.00
716 41.9200 1355.00 1392.24 36.20
717 41.9700 1367.00 1394.32 36.60
718 42.0200 1382.00 1397.84 37.00
719 42.0700 1417.00 1403.70 37.20
720 42.1200 1420.00 1412.63 37.30
721 42.1700 1383.00 1425.46 36.80
722 42.2200 1408.00 1443.13 37.10
723 42.2700 1368.00 1466.54 36.80
724 42.3200 1411.00 1496.44 37.20
725 42.3700 1427.00 1533.27 37.70
726 42.4200 1427.00 1576.99 37.60
727 42.4700 1565.00 1626.90 39.50
728 42.5200 1528.00 1681.52 39.00
729 42.5700 1583.00 1738.49 39.80
730 42.6200 1626.00 1794.55 40.30
731 42.6700 1706.00 1845.35 41.50
732 42.7200 1700.00 1886.62 41.30
733 42.7700 1773.00 1913.39 42.10
734 42.8200 1825.00 1922.04 43.00
735 42.8700 1874.00 1912.09 43.70
736 42.9200 1848.00 1883.50 43.00
737 42.9700 1750.00 1840.82 42.30
738 43.0200 1772.00 1788.80 42.40
739 43.0700 1723.00 1732.14 41.60
740 43.1200 1585.00 1674.87 40.30
741 43.1700 1512.00 1620.15 39.30
742 43.2200 1513.00 1570.24 39.00
743 43.2700 1453.00 1526.52 38.90
744 43.3200 1386.00 1489.64 37.60
745 43.3700 1435.00 1459.59 38.40
746 43.4200 1367.00 1435.91 37.70
747 43.4700 1360.00 1417.84 37.30
748 43.5200 1433.00 1404.51 38.40
749 43.5700 1404.00 1395.04 38.00
750 43.6200 1390.00 1388.62 37.70
751 43.6700 1389.00 1384.64 37.40
752 43.7200 1356.00 1382.63 37.30
753 43.7700 1390.00 1382.32 37.60
754 43.8200 1405.00 1383.59 37.60
755 43.8700 1381.00 1386.48 37.40
756 43.9200 1349.00 1391.12 37.00
757 43.9700 1424.00 1397.71 37.60
758 44.0200 1481.00 1406.49 38.70
759 44.0700 1417.00 1417.63 37.60
760 44.1200 1357.00 1431.23 36.70
761 44.1700 1394.00 1447.25 37.20
762 44.2200 1416.00 1465.45 37.60
763 44.2700 1413.00 1485.33 37.20
764 44.3200 1415.00 1506.13 37.50
765 44.3700 1529.00 1526.81 38.80
766 44.4200 1498.00 1546.06 38.30
767 44.4700 1465.00 1562.36 37.90
768 44.5200 1557.00 1574.16 39.20
769 44.5700 1524.00 1580.07 38.30
770 44.6200 1524.00 1579.89 38.70
771 44.6700 1443.00 1573.71 37.40
772 44.7200 1471.00 1562.53 37.60
773 44.7700 1507.00 1547.72 38.20
774 44.8200 1491.00 1530.76 38.00
775 44.8700 1483.00 1513.02 37.80
776 44.9200 1450.00 1495.66 37.50
777 44.9700 1461.00 1478.28 37.50
778 45.0200 1469.00 1464.13 37.60
779 45.0700 1425.00 1452.29 37.00
780 45.1200 1547.00 1442.94 38.60
781 45.1700 1401.00 1436.07 36.60
782 45.2200 1464.00 1431.59 37.50
783 45.2700 1526.00 1429.31 38.20
784 45.3200 1372.00 1429.06 36.20
785 45.3700 1435.00 1430.66 37.10
786 45.4200 1513.00 1434.02 38.10
787 45.4700 1490.00 1439.16 37.80
788 45.5200 1477.00 1446.34 37.60
789 45.5700 1496.00 1456.14 37.90
790 45.6200 1478.00 1469.78 37.60
791 45.6700 1447.00 1489.87 37.30
792 45.7200 1546.00 1519.14 38.50
793 45.7700 1541.00 1563.82 38.50
794 45.8200 1582.00 1632.26 39.00
795 45.8700 1656.00 1733.16 40.00
796 45.9200 1789.00 1885.46 41.50
797 45.9700 1966.00 2101.34 43.60
798 46.0200 2164.00 2392.02 45.80
799 46.0700 2689.00 2768.78 50.90
800 46.1200 3098.00 3227.41 54.80
801 46.1700 3590.00 3751.95 59.00
802 46.2200 4298.00 4310.33 64.30
803 46.2700 4860.00 4854.33 68.70
804 46.3200 5182.00 5322.35 70.90
805 46.3700 5658.00 5647.29 74.20
806 46.4200 5741.00 5773.10 74.70
807 46.4700 5962.00 5677.18 76.50
808 46.5200 5686.00 5382.03 74.30
809 46.5700 5109.00 4944.59 70.60
810 46.6200 4694.00 4433.85 67.90
811 46.6700 4115.00 3914.60 63.30
812 46.7200 3573.00 3439.72 59.10
813 46.7700 3307.00 3047.70 56.60
814 46.8200 2994.00 2763.49 54.00
815 46.8700 3012.00 2600.51 54.20
816 46.9200 3073.00 2562.66 54.50
817 46.9700 3037.00 2652.53 54.40
818 47.0200 3284.00 2863.81 56.60
819 47.0700 3619.00 3185.84 59.30
820 47.1200 3874.00 3599.91 61.50
821 47.1700 4230.00 4076.51 63.90
822 47.2200 4681.00 4573.84 67.50
823 47.2700 5043.00 5038.10 69.90
824 47.3200 5322.00 5406.16 71.70
825 47.3700 5545.00 5615.17 73.40
826 47.4200 5526.00 5620.67 73.10
827 47.4700 5405.00 5416.68 72.40
828 47.5200 5078.00 5039.22 70.30
829 47.5700 4508.00 4549.20 65.70
830 47.6200 3988.00 4011.30 62.20
831 47.6700 3276.00 3481.02 56.20
832 47.7200 2773.00 2999.06 51.60
833 47.7700 2382.00 2590.05 47.70
834 47.8200 2113.00 2263.60 45.20
835 47.8700 1957.00 2017.13 43.10
836 47.9200 1876.00 1840.33 42.30
837 47.9700 1756.00 1719.24 41.20
838 48.0200 1660.00 1639.63 39.70
839 48.0700 1636.00 1589.24 39.60
840 48.1200 1590.00 1558.65 39.30
841 48.1700 1493.00 1541.46 37.50
842 48.2200 1456.00 1533.89 37.40
843 48.2700 1506.00 1534.20 38.10
844 48.3200 1500.00 1542.24 37.60
845 48.3700 1540.00 1558.95 38.60
846 48.4200 1549.00 1586.06 38.60
847 48.4700 1678.00 1625.76 40.10
848 48.5200 1654.00 1680.38 40.00
849 48.5700 1714.00 1752.08 40.60
850 48.6200 1824.00 1842.89 41.80
851 48.6700 1993.00 1954.10 44.10
852 48.7200 2105.00 2086.35 45.00
853 48.7700 2401.00 2239.22 48.40
854 48.8200 2595.00 2410.67 50.40
855 48.8700 2854.00 2596.58 52.80
856 48.9200 2978.00 2791.00 53.90
857 48.9700 3422.00 2987.38 58.60
858 49.0200 3428.00 3179.08 57.90
859 49.0700 3513.00 3357.74 59.20
860 49.1200 3651.00 3510.34 60.60
861 49.1700 3791.00 3617.75 61.40
862 49.2200 3877.00 3657.26 62.20
863 49.2700 3912.00 3610.66 63.00
864 49.3200 3783.00 3474.51 61.30
865 49.3700 3515.00 3264.09 59.70
866 49.4200 3287.00 3006.69 57.80
867 49.4700 2882.00 2731.57 53.80
868 49.5200 2521.00 2463.66 50.60
869 49.5700 2159.00 2221.10 46.90
870 49.6200 1967.00 2014.75 44.50
871 49.6700 1786.00 1848.82 42.60
872 49.7200 1685.00 1722.13 41.40
873 49.7700 1569.00 1629.84 39.80
874 49.8200 1617.00 1565.40 40.50
875 49.8700 1465.00 1521.94 38.60
876 49.9200 1503.00 1495.95 39.00
877 49.9700 1493.00 1477.42 38.90
878 50.0200 1384.00 1465.34 37.50
879 50.0700 1439.00 1457.30 37.90
880 50.1200 1390.00 1451.76 37.50
881 50.1700 1381.00 1447.76 37.10
882 50.2200 1350.00 1444.72 36.70
883 50.2700 1470.00 1442.29 38.20
884 50.3200 1438.00 1440.27 37.90
885 50.3700 1398.00 1438.50 37.00
886 50.4200 1386.00 1436.88 37.10
887 50.4700 1372.00 1435.35 36.70
888 50.5200 1422.00 1433.83 37.30
889 50.5700 1375.00 1432.30 36.50
890 50.6200 1411.00 1430.72 37.10
891 50.6700 1366.00 1429.07 36.10
892 50.7200 1349.00 1427.37 36.20
893 50.7700 1313.00 1425.65 35.30
894 50.8200 1355.00 1423.92 36.00
895 50.8700 1380.00 1422.24 36.20
896 50.9200 1326.00 1420.36 35.50
897 50.9700 1351.00 1418.88 35.60
898 51.0200 1351.00 1417.53 35.80
899 51.0700 1317.00 1416.34 35.10
900 51.1200 1330.00 1415.32 35.40
901 51.1700 1335.00 1414.48 35.30
902 51.2200 1334.00 1413.82 35.30
903 51.2700 1443.00 1413.34 36.60
904 51.3200 1431.00 1413.04 36.50
905 51.3700 1406.00 1412.91 36.10
906 51.4200 1422.00 1412.93 36.30
907 51.4700 1406.00 1413.10 36.10
908 51.5200 1424.00 1413.41 36.30
909 51.5700 1469.00 1423.10 36.80
910 51.6200 1480.00 1423.80 37.00
911 51.6700 1465.00 1424.62 36.70
912 51.7200 1482.00 1425.55 37.00
913 51.7700 1548.00 1426.59 37.80
914 51.8200 1597.00 1427.77 38.30
915 51.8700 1588.00 1429.11 38.30
916 51.9200 1519.00 1430.65 37.50
917 51.9700 1487.00 1432.43 37.10
918 52.0200 1456.00 1434.56 36.70
919 52.0700 1495.00 1437.15 37.10
920 52.1200 1476.00 1440.41 36.90
921 52.1700 1481.00 1444.61 37.00
922 52.2200 1470.00 1450.15 36.80
923 52.2700 1445.00 1457.53 36.50
924 52.3200 1447.00 1467.39 36.50
925 52.3700 1391.00 1480.46 35.80
926 52.4200 1418.00 1497.50 36.20
927 52.4700 1526.00 1519.26 37.70
928 52.5200 1504.00 1546.30 37.30
929 52.5700 1515.00 1578.92 37.40
930 52.6200 1574.00 1617.04 38.30
931 52.6700 1565.00 1660.04 38.00
932 52.7200 1649.00 1706.72 39.00
933 52.7700 1760.00 1755.20 40.50
934 52.8200 1820.00 1803.00 40.90
935 52.8700 1814.00 1845.86 40.90
936 52.9200 1886.00 1885.06 41.90
937 52.9700 1891.00 1918.28 41.70
938 53.0200 2045.00 1946.04 43.40
939 53.0700 1947.00 1969.15 42.40
940 53.1200 1936.00 1987.79 42.20
941 53.1700 1949.00 2001.03 42.20
942 53.2200 1876.00 2006.89 41.70
943 53.2700 1904.00 2002.95 41.70
944 53.3200 1912.00 1987.40 41.80
945 53.3700 1675.00 1959.96 39.40
946 53.4200 1754.00 1922.21 40.00
947 53.4700 1656.00 1877.05 38.90
948 53.5200 1619.00 1827.81 38.70
949 53.5700 1532.00 1777.54 37.40
950 53.6200 1471.00 1728.76 36.60
951 53.6700 1508.00 1683.36 37.20
952 53.7200 1441.00 1642.60 36.30
953 53.7700 1444.00 1605.83 36.20
954 53.8200 1490.00 1576.19 37.00
955 53.8700 1467.00 1552.10 36.60
956 53.9200 1448.00 1533.17 36.20
957 53.9700 1446.00 1518.79 36.30
958 54.0200 1462.00 1508.26 36.50
959 54.0700 1441.00 1500.91 36.20
960 54.1200 1501.00 1496.08 37.00
961 54.1700 1362.00 1493.20 35.20
962 54.2200 1434.00 1491.81 36.10
963 54.2700 1422.00 1491.55 36.10
964 54.3200 1559.00 1492.57 37.70
965 54.3700 1477.00 1493.80 36.90
966 54.4200 1476.00 1495.52 36.80
967 54.4700 1459.00 1497.60 36.80
968 54.5200 1423.00 1499.98 36.20
969 54.5700 1487.00 1502.61 37.10
970 54.6200 1475.00 1505.48 37.00
971 54.6700 1519.00 1508.62 37.70
972 54.7200 1499.00 1512.09 37.20
973 54.7700 1468.00 1515.92 37.10
974 54.8200 1511.00 1520.19 37.60
975 54.8700 1528.00 1524.94 37.90
976 54.9200 1533.00 1530.25 38.00
977 54.9700 1522.00 1536.90 38.20
978 55.0200 1551.00 1543.51 38.10
979 55.0700 1553.00 1550.87 38.60
980 55.1200 1504.00 1559.08 37.90
981 55.1700 1536.00 1568.25 38.40
982 55.2200 1568.00 1578.53 38.80
983 55.2700 1613.00 1590.46 39.80
984 55.3200 1664.00 1603.63 40.00
985 55.3700 1643.00 1618.84 40.30
986 55.4200 1653.00 1636.82 40.30
987 55.4700 1734.00 1658.83 41.40
988 55.5200 1713.00 1686.98 41.20
989 55.5700 1795.00 1724.78 42.40
990 55.6200 1791.00 1777.61 42.10
991 55.6700 1819.00 1853.96 42.70
992 55.7200 1954.00 1964.38 44.30
993 55.7700 2171.00 2124.93 46.90
994 55.8200 2388.00 2351.51 48.90
995 55.8700 2687.00 2660.48 52.30
996 55.9200 3136.00 3063.99 56.40
997 55.9700 3581.00 3566.48 60.30
998 56.0200 4192.00 4157.98 65.40
999 56.0700 4733.00 4811.49 69.70
1000 56.1200 5312.00 5481.30 73.50
1001 56.1700 5996.00 6098.84 78.40
1002 56.2200 6558.00 6583.00 82.10
1003 56.2700 6890.00 6852.06 83.70
1004 56.3200 6958.00 6855.30 84.40
1005 56.3700 7064.00 6600.10 84.90
1006 56.4200 6382.00 6148.03 80.50
1007 56.4700 5586.00 5584.94 75.50
1008 56.5200 4856.00 4993.49 70.40
1009 56.5700 4120.00 4442.27 64.50
1010 56.6200 3625.00 3985.00 60.80
1011 56.6700 3244.00 3665.79 57.00
1012 56.7200 3076.00 3527.54 55.70
1013 56.7700 3281.00 3622.55 57.40
1014 56.8200 3641.00 4021.62 60.40
1015 56.8700 4522.00 4817.31 67.20
1016 56.9200 5728.00 6115.06 75.80
1017 56.9700 7827.00 8009.19 87.90
1018 57.0200 10432.00 10545.70 102.00
1019 57.0700 13681.00 13676.40 116.10
1020 57.1200 17120.00 17224.10 129.90
1021 57.1700 20519.00 20860.50 142.20
1022 57.2200 24286.00 24121.10 154.70
1023 57.2700 27092.00 26456.90 162.60
1024 57.3200 28928.00 27371.70 168.80
1025 57.3700 28801.00 26640.50 167.90
1026 57.4200 26561.00 24439.50 160.90
1027 57.4700 22980.00 21241.40 150.00
1028 57.5200 18389.00 17596.80 134.20
1029 57.5700 13401.00 13985.00 114.10
1030 57.6200 9790.00 10747.70 97.90
1031 57.6700 7163.00 8078.07 83.40
1032 57.7200 5432.00 6031.21 72.70
1033 57.7700 4262.00 4561.12 64.20
1034 57.8200 3578.00 3564.73 58.90
1035 57.8700 3029.00 2920.63 54.20
1036 57.9200 2622.00 2517.96 50.40
1037 57.9700 2363.00 2269.23 47.80
1038 58.0200 2100.00 2113.17 45.10
1039 58.0700 1895.00 2010.72 42.70
1040 58.1200 1765.00 1938.85 41.30
1041 58.1700 1710.00 1884.74 40.60
1042 58.2200 1719.00 1841.59 40.60
1043 58.2700 1660.00 1805.82 40.00
1044 58.3200 1695.00 1775.47 40.50
1045 58.3700 1666.00 1750.26 40.00
1046 58.4200 1659.00 1727.63 39.90
1047 58.4700 1644.00 1707.94 39.70
1048 58.5200 1607.00 1690.76 39.30
1049 58.5700 1603.00 1675.73 39.00
1050 58.6200 1589.00 1662.59 39.10
1051 58.6700 1557.00 1651.12 38.40
1052 58.7200 1524.00 1641.17 38.00
1053 58.7700 1530.00 1632.59 38.00
1054 58.8200 1520.00 1625.29 37.90
1055 58.8700 1504.00 1619.21 37.40
1056 58.9200 1536.00 1614.29 38.10
1057 58.9700 1547.00 1610.52 38.20
1058 59.0200 1509.00 1607.86 37.50
1059 59.0700 1485.00 1606.32 37.30
1060 59.1200 1459.00 1605.89 37.10
1061 59.1700 1468.00 1606.57 36.80
1062 59.2200 1562.00 1608.32 38.20
1063 59.2700 1535.00 1611.12 37.90
1064 59.3200 1520.00 1614.92 37.40
1065 59.3700 1523.00 1620.18 37.60
1066 59.4200 1475.00 1625.76 37.10
1067 59.4700 1507.00 1632.07 37.20
1068 59.5200 1495.00 1639.07 37.20
1069 59.5700 1478.00 1646.77 37.00
1070 59.6200 1488.00 1655.40 37.00
1071 59.6700 1578.00 1665.57 38.00
1072 59.7200 1553.00 1678.44 37.90
1073 59.7700 1646.00 1696.07 38.80
1074 59.8200 1676.00 1721.02 39.20
1075 59.8700 1629.00 1757.17 38.80
1076 59.9200 1678.00 1809.06 39.20
1077 59.9700 1748.00 1881.61 40.10
1078 60.0200 1919.00 1979.69 42.10
1079 60.0700 2047.00 2107.35 43.30
1080 60.1200 2283.00 2267.20 45.90
1081 60.1700 2410.00 2459.29 47.10
1082 60.2200 2615.00 2680.49 48.90
1083 60.2700 2916.00 2922.42 51.70
1084 60.3200 3173.00 3172.18 54.00
1085 60.3700 3365.00 3415.95 55.90
1086 60.4200 3621.00 3643.17 57.60
1087 60.4700 3867.00 3844.43 59.80
1088 60.5200 4027.00 4004.80 61.10
1089 60.5700 4170.00 4102.28 62.00
1090 60.6200 4335.00 4117.21 63.30
1091 60.6700 4227.00 4047.10 62.40
1092 60.7200 4069.00 3908.61 61.30
1093 60.7700 3862.00 3723.87 59.60
1094 60.8200 3596.00 3508.03 57.60
1095 60.8700 3356.00 3268.41 56.00
1096 60.9200 3072.00 3012.35 53.20
1097 60.9700 2850.00 2753.14 51.60
1098 61.0200 2531.00 2506.92 48.70
1099 61.0700 2276.00 2286.94 45.90
1100 61.1200 2155.00 2100.95 44.90
1101 61.1700 1938.00 1951.78 42.70
1102 61.2200 1782.00 1838.16 40.60
1103 61.2700 1779.00 1756.11 41.00
1104 61.3200 1666.00 1699.68 39.60
1105 61.3700 1652.00 1662.89 39.30
1106 61.4200 1567.00 1640.28 38.50
1107 61.4700 1646.00 1627.60 39.80
1108 61.5200 1634.00 1622.03 39.00
1109 61.5700 1544.00 1622.11 38.40
1110 61.6200 1661.00 1627.58 40.00
1111 61.6700 1553.00 1638.98 38.30
1112 61.7200 1631.00 1658.55 39.40
1113 61.7700 1657.00 1688.39 40.20
1114 61.8200 1681.00 1731.21 39.80
1115 61.8700 1821.00 1789.60 42.10
1116 61.9200 1826.00 1865.24 42.20
1117 61.9700 1978.00 1958.10 43.80
1118 62.0200 2058.00 2065.59 44.80
1119 62.0700 2254.00 2181.98 47.20
1120 62.1200 2321.00 2297.99 47.40
1121 62.1700 2469.00 2400.97 49.30
1122 62.2200 2590.00 2476.36 50.60
1123 62.2700 2668.00 2512.49 51.30
1124 62.3200 2638.00 2506.97 51.00
1125 62.3700 2563.00 2469.54 50.80
1126 62.4200 2426.00 2418.02 48.90
1127 62.4700 2353.00 2372.16 48.50
1128 62.5200 2400.00 2349.87 49.10
1129 62.5700 2280.00 2365.97 47.80
1130 62.6200 2359.00 2431.38 48.50
1131 62.6700 2455.00 2552.15 49.60
1132 62.7200 2663.00 2725.64 51.60
1133 62.7700 2707.00 2948.75 51.80
1134 62.8200 3047.00 3201.79 55.30
1135 62.8700 3182.00 3458.98 56.30
1136 62.9200 3427.00 3688.55 58.30
1137 62.9700 3665.00 3855.52 60.30
1138 63.0200 3698.00 3926.37 60.70
1139 63.0700 3801.00 3878.89 60.80
1140 63.1200 3649.00 3706.94 60.20
1141 63.1700 3393.00 3458.66 57.50
1142 63.2200 3135.00 3167.54 55.20
1143 63.2700 2731.00 2873.44 51.40
1144 63.3200 2435.00 2606.94 48.70
1145 63.3700 2274.00 2388.17 46.40
1146 63.4200 2102.00 2228.05 45.00
1147 63.4700 2144.00 2130.11 45.10
1148 63.5200 2019.00 2092.38 43.80
1149 63.5700 2080.00 2109.26 44.00
1150 63.6200 2137.00 2172.57 45.00
1151 63.6700 2260.00 2271.93 45.60
1152 63.7200 2369.00 2394.64 47.00
1153 63.7700 2435.00 2525.35 47.40
1154 63.8200 2668.00 2646.13 49.60
1155 63.8700 2728.00 2738.69 49.90
1156 63.9200 2852.00 2789.56 51.20
1157 63.9700 2855.00 2797.88 50.70
1158 64.0200 2848.00 2765.63 50.90
1159 64.0700 2854.00 2706.14 50.80
1160 64.1200 2690.00 2628.33 49.20
1161 64.1700 2607.00 2536.03 48.30
1162 64.2200 2470.00 2429.93 47.20
1163 64.2700 2341.00 2312.25 45.70
1164 64.3200 2337.00 2189.42 45.70
1165 64.3700 2175.00 2069.74 44.10
1166 64.4200 2010.00 1960.34 42.30
1167 64.4700 1930.00 1865.70 41.40
1168 64.5200 1815.00 1787.79 40.30
1169 64.5700 1689.00 1726.61 38.70
1170 64.6200 1697.00 1680.72 38.80
1171 64.6700 1684.00 1647.77 38.70
1172 64.7200 1638.00 1626.63 38.10
1173 64.7700 1672.00 1611.67 38.50
1174 64.8200 1614.00 1602.26 37.80
1175 64.8700 1676.00 1596.75 38.60
1176 64.9200 1652.00 1594.06 38.30
1177 64.9700 1656.00 1593.59 38.50
1178 65.0200 1627.00 1595.16 38.00
1179 65.0700 1616.00 1599.06 37.90
1180 65.1200 1634.00 1606.05 38.30
1181 65.1700 1659.00 1617.43 38.50
1182 65.2200 1650.00 1635.06 38.30
1183 65.2700 1676.00 1661.38 38.90
1184 65.3200 1735.00 1699.17 39.40
1185 65.3700 1783.00 1751.31 40.00
1186 65.4200 1758.00 1820.12 39.80
1187 65.4700 1787.00 1906.92 40.20
1188 65.5200 1970.00 2010.92 42.00
1189 65.5700 2019.00 2128.66 42.80
1190 65.6200 2147.00 2255.65 44.10
1191 65.6700 2247.00 2376.73 45.00
1192 65.7200 2451.00 2479.69 47.20
1193 65.7700 2554.00 2548.85 48.20
1194 65.8200 2585.00 2572.81 48.30
1195 65.8700 2609.00 2550.04 49.10
1196 65.9200 2491.00 2488.49 47.60
1197 65.9700 2463.00 2402.52 47.30
1198 66.0200 2347.00 2297.62 46.60
1199 66.0700 2086.00 2185.51 43.80
1200 66.1200 2008.00 2074.43 42.70
1201 66.1700 1969.00 1971.52 42.60
1202 66.2200 1856.00 1881.69 41.30
1203 66.2700 1790.00 1806.42 40.50
1204 66.3200 1761.00 1747.08 40.30
1205 66.3700 1718.00 1701.52 39.80
1206 66.4200 1634.00 1667.18 38.70
1207 66.4700 1587.00 1642.70 38.30
1208 66.5200 1673.00 1625.43 39.30
1209 66.5700 1607.00 1614.71 38.40
1210 66.6200 1673.00 1609.31 39.30
1211 66.6700 1575.00 1608.79 38.10
1212 66.7200 1566.00 1612.92 37.90
1213 66.7700 1594.00 1621.49 38.40
1214 66.8200 1635.00 1636.09 38.80
1215 66.8700 1587.00 1651.58 38.40
1216 66.9200 1606.00 1668.34 38.50
1217 66.9700 1622.00 1683.90 38.70
1218 67.0200 1693.00 1695.17 39.60
1219 67.0700 1691.00 1699.23 39.40
1220 67.1200 1710.00 1694.78 39.70
1221 67.1700 1663.00 1682.98 39.30
1222 67.2200 1661.00 1666.65 39.00
1223 67.2700 1627.00 1648.76 38.90
1224 67.3200 1720.00 1631.64 39.90
1225 67.3700 1675.00 1616.76 39.50
1226 67.4200 1714.00 1607.44 39.90
1227 67.4700 1753.00 1598.66 40.60
1228 67.5200 1826.00 1592.62 41.20
1229 67.5700 1748.00 1588.75 40.70
1230 67.6200 1816.00 1586.43 41.30
1231 67.6700 1773.00 1585.17 41.00
1232 67.7200 1774.00 1584.64 41.00
1233 67.7700 1807.00 1584.67 41.40
1234 67.8200 1731.00 1585.20 40.50
1235 67.8700 1796.00 1586.23 41.50
1236 67.9200 1813.00 1587.78 41.50
1237 67.9700 1674.00 1589.90 40.40
1238 68.0200 1657.00 1592.64 39.90
1239 68.0700 1773.00 1596.03 41.60
1240 68.1200 1646.00 1600.08 40.10
1241 68.1700 1694.00 1604.81 40.80
1242 68.2200 1655.00 1610.18 40.20
1243 68.2700 1643.00 1616.16 40.60
1244 68.3200 1653.00 1622.67 40.30
1245 68.3700 1693.00 1629.61 41.20
1246 68.4200 1749.00 1636.82 41.90
1247 68.4700 1618.00 1643.77 40.20
1248 68.5200 1684.00 1650.99 41.10
1249 68.5700 1668.00 1657.91 41.30
1250 68.6200 1689.00 1664.39 41.10
1251 68.6700 1670.00 1670.45 41.10
1252 68.7200 1656.00 1676.23 41.10
1253 68.7700 1642.00 1682.06 40.60
1254 68.8200 1726.00 1688.37 41.80
1255 68.8700 1787.00 1695.66 42.90
1256 68.9200 1757.00 1704.50 42.00
1257 68.9700 1800.00 1715.65 42.90
1258 69.0200 1935.00 1729.20 44.70
1259 69.0700 1837.00 1748.58 43.00
1260 69.1200 1945.00 1775.39 44.60
1261 69.1700 1950.00 1813.63 44.60
1262 69.2200 1921.00 1869.40 44.00
1263 69.2700 2072.00 1951.45 45.80
1264 69.3200 2208.00 2071.09 47.50
1265 69.3700 2341.00 2241.50 48.30
1266 69.4200 2617.00 2475.07 51.50
1267 69.4700 2916.00 2781.02 53.90
1268 69.5200 3249.00 3159.51 56.90
1269 69.5700 3719.00 3597.93 60.70
1270 69.6200 4044.00 4067.24 63.40
1271 69.6700 4514.00 4518.89 66.10
1272 69.7200 4986.00 4885.65 70.30
1273 69.7700 5189.00 5095.63 70.90
1274 69.8200 5229.00 5102.50 71.20
1275 69.8700 5031.00 4918.70 69.90
1276 69.9200 4718.00 4608.96 67.60
1277 69.9700 4178.00 4254.52 63.00
1278 70.0200 3859.00 3925.49 61.30
1279 70.0700 3446.00 3673.02 56.90
1280 70.1200 3439.00 3528.39 57.20
1281 70.1700 3394.00 3504.08 56.80
1282 70.2200 3603.00 3594.62 58.20
1283 70.2700 3772.00 3779.35 59.30
1284 70.3200 3993.00 4022.15 61.60
1285 70.3700 4193.00 4274.00 62.40
1286 70.4200 4614.00 4475.37 65.50
1287 70.4700 4690.00 4567.96 66.30
1288 70.5200 4690.00 4519.92 66.00
1289 70.5700 4525.00 4349.56 64.60
1290 70.6200 4384.00 4115.14 64.10
1291 70.6700 3981.00 3887.65 60.70
1292 70.7200 3725.00 3729.13 58.60
1293 70.7700 3815.00 3684.08 59.40
1294 70.8200 3893.00 3775.35 60.00
1295 70.8700 4091.00 4000.56 61.40
1296 70.9200 4295.00 4329.63 63.00
1297 70.9700 4691.00 4704.29 65.80
1298 71.0200 5056.00 5039.88 68.20
1299 71.0700 5329.00 5237.53 69.90
1300 71.1200 5449.00 5221.14 71.00
1301 71.1700 5368.00 4982.93 70.00
1302 71.2200 5064.00 4585.54 68.10
1303 71.2700 4571.00 4116.96 64.90
1304 71.3200 3990.00 3653.41 60.40
1305 71.3700 3698.00 3246.92 58.30
1306 71.4200 3299.00 2926.14 55.20
1307 71.4700 3182.00 2700.37 54.00
1308 71.5200 2971.00 2564.76 52.30
1309 71.5700 2935.00 2506.87 52.00
1310 71.6200 2940.00 2513.35 51.90
1311 71.6700 2942.00 2570.56 51.90
1312 71.7200 2882.00 2673.01 51.50
1313 71.7700 3147.00 2821.79 53.60
1314 71.8200 3231.00 3027.63 54.40
1315 71.8700 3567.00 3311.14 57.40
1316 71.9200 3863.00 3698.97 59.30
1317 71.9700 4340.00 4214.81 63.10
1318 72.0200 4923.00 4869.98 67.50
1319 72.0700 5409.00 5653.45 70.10
1320 72.1200 6460.00 6523.61 77.00
1321 72.1700 7271.00 7400.30 81.70
1322 72.2200 8130.00 8163.67 85.90
1323 72.2700 8810.00 8670.28 89.90
1324 72.3200 9128.00 8799.67 91.60
1325 72.3700 9255.00 8515.24 91.80
1326 72.4200 8731.00 7894.79 89.50
1327 72.4700 7622.00 7089.66 83.80
1328 72.5200 6633.00 6255.42 77.70
1329 72.5700 5614.00 5515.06 71.50
1330 72.6200 5087.00 4949.42 68.50
1331 72.6700 4613.00 4599.30 64.70
1332 72.7200 4431.00 4467.53 63.50
1333 72.7700 4556.00 4522.73 64.90
1334 72.8200 4586.00 4704.04 64.60
1335 72.8700 4828.00 4927.38 66.50
1336 72.9200 5150.00 5087.11 69.00
1337 72.9700 5316.00 5091.07 69.80
1338 73.0200 5211.00 4897.86 69.00
1339 73.0700 4710.00 4539.15 65.90
1340 73.1200 4292.00 4088.54 62.80
1341 73.1700 3731.00 3618.65 58.40
1342 73.2200 3221.00 3182.29 54.50
1343 73.2700 2844.00 2810.36 51.40
1344 73.3200 2675.00 2515.56 49.50
1345 73.3700 2471.00 2296.50 47.90
1346 73.4200 2254.00 2143.08 45.80
1347 73.4700 2152.00 2041.38 44.60
1348 73.5200 2209.00 1977.48 45.30
1349 73.5700 2100.00 1939.88 44.40
1350 73.6200 2099.00 1920.00 44.10
1351 73.6700 1998.00 1912.07 43.00
1352 73.7200 2021.00 1912.32 43.50
1353 73.7700 1896.00 1918.32 42.10
1354 73.8200 1935.00 1928.31 42.30
1355 73.8700 1960.00 1940.86 43.00
1356 73.9200 1972.00 1954.55 43.00
1357 73.9700 2107.00 1967.92 44.50
1358 74.0200 2046.00 1979.45 44.00
1359 74.0700 2158.00 1987.74 44.90
1360 74.1200 2129.00 1991.78 44.70
1361 74.1700 2107.00 1991.19 44.60
1362 74.2200 2023.00 1986.40 43.50
1363 74.2700 2060.00 1978.44 44.30
1364 74.3200 1988.00 1969.21 43.40
1365 74.3700 2018.00 1958.80 43.90
1366 74.4200 1992.00 1948.61 43.60
1367 74.4700 1918.00 1938.96 43.00
1368 74.5200 1920.00 1929.52 42.90
1369 74.5700 2061.00 1919.41 44.80
1370 74.6200 2077.00 1907.35 44.80
1371 74.6700 1992.00 1892.09 43.90
1372 74.7200 1989.00 1873.00 44.00
1373 74.7700 1953.00 1850.43 43.70
1374 74.8200 1865.00 1825.56 42.50
1375 74.8700 1940.00 1799.87 43.90
1376 74.9200 1790.00 1774.75 41.80
1377 74.9700 1845.00 1751.23 42.50
1378 75.0200 1842.00 1730.00 42.80
1379 75.0700 1721.00 1711.41 41.20
1380 75.1200 1726.00 1695.60 41.20
1381 75.1700 1654.00 1682.47 40.70
1382 75.2200 1735.00 1671.82 41.30
1383 75.2700 1701.00 1663.33 41.10
1384 75.3200 1680.00 1656.63 41.00
1385 75.3700 1770.00 1651.36 42.00
1386 75.4200 1677.00 1647.15 40.80
1387 75.4700 1740.00 1643.73 41.60
1388 75.5200 1655.00 1640.85 40.60
1389 75.5700 1657.00 1638.34 40.40
1390 75.6200 1769.00 1634.20 42.00
1391 75.6700 1704.00 1632.18 40.90
1392 75.7200 1717.00 1630.32 41.10
1393 75.7700 1794.00 1628.64 42.00
1394 75.8200 1680.00 1627.12 40.60
1395 75.8700 1764.00 1625.79 41.30
1396 75.9200 1751.00 1624.66 41.50
1397 75.9700 1723.00 1623.75 40.90
1398 76.0200 1661.00 1623.09 40.10
1399 76.0700 1695.00 1622.69 40.50
1400 76.1200 1749.00 1622.56 41.30
1401 76.1700 1692.00 1622.74 40.20
1402 76.2200 1740.00 1623.24 41.00
1403 76.2700 1756.00 1622.67 41.10
1404 76.3200 1668.00 1623.91 39.90
1405 76.3700 1791.00 1625.57 41.20
1406 76.4200 1758.00 1627.67 41.10
1407 76.4700 1719.00 1632.38 40.30
1408 76.5200 1795.00 1635.64 41.30
1409 76.5700 1720.00 1639.55 40.30
1410 76.6200 1772.00 1644.46 40.90
1411 76.6700 1728.00 1648.71 40.20
1412 76.7200 1764.00 1656.68 40.80
1413 76.7700 1751.00 1667.33 40.40
1414 76.8200 1754.00 1682.13 40.50
1415 76.8700 1808.00 1703.34 41.30
1416 76.9200 1817.00 1734.19 41.20
1417 76.9700 1863.00 1778.90 41.60
1418 77.0200 1926.00 1842.42 42.60
1419 77.0700 1961.00 1929.59 42.70
1420 77.1200 2115.00 2044.03 44.30
1421 77.1700 2214.00 2186.42 45.40
1422 77.2200 2520.00 2352.82 48.40
1423 77.2700 2681.00 2533.05 49.90
1424 77.3200 2786.00 2708.66 50.90
1425 77.3700 2988.00 2852.62 52.90
1426 77.4200 3082.00 2933.48 53.50
1427 77.4700 3009.00 2929.49 52.90
1428 77.5200 2852.00 2842.51 51.70
1429 77.5700 2782.00 2697.30 51.00
1430 77.6200 2528.00 2525.52 48.50
1431 77.6700 2367.00 2353.25 47.10
1432 77.7200 2261.00 2197.68 45.90
1433 77.7700 2190.00 2068.04 45.10
1434 77.8200 2032.00 1967.69 43.60
1435 77.8700 2025.00 1895.49 43.60
1436 77.9200 1940.00 1845.81 42.40
1437 77.9700 2005.00 1817.76 43.40
1438 78.0200 1931.00 1804.45 42.60
1439 78.0700 1879.00 1801.60 41.70
1440 78.1200 1935.00 1805.74 42.60
1441 78.1700 1967.00 1813.93 42.90
1442 78.2200 2009.00 1824.85 43.20
1443 78.2700 2097.00 1837.85 44.40
1444 78.3200 2122.00 1854.65 44.60
1445 78.3700 2158.00 1879.43 44.80
1446 78.4200 2240.00 1918.13 45.90
1447 78.4700 2269.00 1977.33 46.20
1448 78.5200 2325.00 2063.11 46.50
1449 78.5700 2322.00 2177.74 46.50
1450 78.6200 2398.00 2325.83 47.40
1451 78.6700 2511.00 2499.09 48.20
1452 78.7200 2687.00 2691.80 50.00
1453 78.7700 2852.00 2882.21 51.60
1454 78.8200 3045.00 3041.64 53.10
1455 78.8700 3201.00 3136.49 54.60
1456 78.9200 3304.00 3141.80 55.60
1457 78.9700 3377.00 3061.54 56.00
1458 79.0200 3100.00 2912.46 53.70
1459 79.0700 2906.00 2732.10 52.10
1460 79.1200 2572.00 2548.78 48.90
1461 79.1700 2217.00 2381.38 45.50
1462 79.2200 2179.00 2240.32 45.10
1463 79.2700 2047.00 2129.27 43.50
1464 79.3200 2010.00 2047.07 43.30
1465 79.3700 2015.00 1989.24 43.40
1466 79.4200 2011.00 1949.75 43.10
1467 79.4700 1991.00 1922.40 43.30
1468 79.5200 2026.00 1901.91 43.60
1469 79.5700 2053.00 1884.66 43.60
1470 79.6200 2113.00 1868.75 44.60
1471 79.6700 2072.00 1853.68 44.00
1472 79.7200 2096.00 1839.86 44.10
1473 79.7700 2019.00 1828.12 43.80
1474 79.8200 2017.00 1819.49 43.40
1475 79.8700 1953.00 1814.95 42.70
1476 79.9200 1885.00 1815.38 42.30
1477 79.9700 1912.00 1821.38 42.40
1478 80.0200 1810.00 1833.16 41.10
1479 80.0700 1791.00 1850.39 41.30
1480 80.1200 1938.00 1872.05 42.70
1481 80.1700 1891.00 1896.25 42.10
1482 80.2200 1931.00 1920.12 42.90
1483 80.2700 2038.00 1939.88 44.00
1484 80.3200 2005.00 1951.44 43.40
1485 80.3700 2087.00 1951.70 44.90
1486 80.4200 2033.00 1940.07 43.90
1487 80.4700 2035.00 1918.93 44.10
1488 80.5200 2022.00 1892.23 44.10
1489 80.5700 1914.00 1863.79 42.80
1490 80.6200 1894.00 1836.45 42.50
1491 80.6700 1795.00 1812.04 41.80
1492 80.7200 1855.00 1791.51 42.10
1493 80.7700 1808.00 1785.16 42.00
1494 80.8200 1793.00 1772.91 41.80
1495 80.8700 1813.00 1764.04 42.30
1496 80.9200 1808.00 1757.87 42.10
1497 80.9700 1839.00 1753.75 42.70
1498 81.0200 1771.00 1751.21 41.80
1499 81.0700 1796.00 1749.99 42.40
1500 81.1200 1744.00 1750.08 41.60
1501 81.1700 1744.00 1751.64 41.70
1502 81.2200 1758.00 1754.99 41.90
1503 81.2700 1843.00 1760.56 43.10
1504 81.3200 1834.00 1768.86 42.70
1505 81.3700 1805.00 1780.71 42.80
1506 81.4200 1821.00 1796.99 42.80
1507 81.4700 1828.00 1819.01 42.90
1508 81.5200 1831.00 1848.64 43.10
1509 81.5700 1857.00 1888.66 43.30
1510 81.6200 1902.00 1943.12 43.80
1511 81.6700 1963.00 2017.78 44.50
1512 81.7200 2099.00 2120.09 46.00
1513 81.7700 2224.00 2258.94 47.60
1514 81.8200 2407.00 2443.16 49.30
1515 81.8700 2689.00 2679.46 52.10
1516 81.9200 2994.00 2969.11 55.20
1517 81.9700 3419.00 3304.49 58.30
1518 82.0200 3655.00 3665.75 60.70
1519 82.0700 4008.00 4016.35 63.30
1520 82.1200 4379.00 4301.26 66.00
1521 82.1700 4484.00 4454.57 66.60
1522 82.2200 4518.00 4429.25 67.20
1523 82.2700 4355.00 4230.85 65.10
1524 82.3200 3964.00 3914.08 62.60
1525 82.3700 3413.00 3546.33 57.80
1526 82.4200 3041.00 3180.68 54.40
1527 82.4700 2587.00 2850.31 50.00
1528 82.5200 2480.00 2571.92 49.30
1529 82.5700 2305.00 2350.40 46.80
1530 82.6200 2137.00 2182.17 45.50
1531 82.6700 2083.00 2059.41 44.60
1532 82.7200 1977.00 1972.87 43.30
1533 82.7700 2011.00 1911.77 43.50
1534 82.8200 1902.00 1869.07 42.60
1535 82.8700 2019.00 1838.96 43.50
1536 82.9200 1874.00 1817.46 42.00
1537 82.9700 1946.00 1801.94 42.80
1538 83.0200 1840.00 1790.75 41.50
1539 83.0700 1810.00 1782.84 41.00
1540 83.1200 1851.00 1777.55 41.70
1541 83.1700 1856.00 1774.43 41.50
1542 83.2200 1822.00 1773.21 41.10
1543 83.2700 1880.00 1773.71 41.80
1544 83.3200 1909.00 1774.94 42.00
1545 83.3700 1875.00 1778.70 41.60
1546 83.4200 1813.00 1783.98 41.10
1547 83.4700 2040.00 1792.45 43.30
1548 83.5200 1932.00 1801.30 42.20
1549 83.5700 2065.00 1812.13 43.70
1550 83.6200 1936.00 1825.21 42.20
1551 83.6700 1995.00 1840.90 42.90
1552 83.7200 2027.00 1859.72 43.30
1553 83.7700 2051.00 1882.48 43.50
1554 83.8200 2051.00 1910.45 43.50
1555 83.8700 2083.00 1945.81 43.80
1556 83.9200 2071.00 1994.79 43.70
1557 83.9700 1994.00 2057.89 43.00
1558 84.0200 2169.00 2147.21 44.70
1559 84.0700 2274.00 2275.48 45.60
1560 84.1200 2452.00 2459.45 47.60
1561 84.1700 2659.00 2717.94 49.30
1562 84.2200 2868.00 3068.42 51.30
1563 84.2700 3178.00 3521.54 54.10
1564 84.3200 3669.00 4077.11 57.90
1565 84.3700 4341.00 4705.06 63.10
1566 84.4200 5040.00 5353.12 68.20
1567 84.4700 5698.00 5926.39 72.00
1568 84.5200 6181.00 6298.38 75.30
1569 84.5700 6417.00 6362.72 76.70
1570 84.6200 6367.00 6110.46 76.10
1571 84.6700 5844.00 5638.17 73.00
1572 84.7200 5165.00 5076.21 68.80
1573 84.7700 4423.00 4528.21 63.40
1574 84.8200 3955.00 4059.95 60.00
1575 84.8700 3333.00 3708.38 55.10
1576 84.9200 3236.00 3496.49 54.20
1577 84.9700 3237.00 3445.32 54.10
1578 85.0200 3437.00 3591.50 55.90
1579 85.0700 3849.00 3987.35 59.10
1580 85.1200 4901.00 4699.96 66.60
1581 85.1700 5846.00 5787.53 72.80
1582 85.2200 7308.00 7260.98 81.40
1583 85.2700 9195.00 9039.83 91.60
1584 85.3200 11237.00 10902.30 100.90
1585 85.3700 13179.00 12446.00 109.40
1586 85.4200 14164.00 13151.30 113.70
1587 85.4700 14031.00 12709.20 113.00
1588 85.5200 12462.00 11321.80 106.40
1589 85.5700 10253.00 9490.42 96.30
1590 85.6200 7915.00 7644.88 84.80
1591 85.6700 5891.00 6035.30 73.00
1592 85.7200 4343.00 4767.10 62.70
1593 85.7700 3552.00 3846.14 56.70
1594 85.8200 3036.00 3219.75 52.40
1595 85.8700 2685.00 2811.53 49.50
1596 85.9200 2364.00 2549.64 46.30
1597 85.9700 2226.00 2379.53 45.00
1598 86.0200 2168.00 2265.32 44.50
1599 86.0700 2066.00 2185.76 43.30
1600 86.1200 2111.00 2128.86 43.80
1601 86.1700 1996.00 2088.17 42.80
1602 86.2200 2004.00 2060.37 42.70
1603 86.2700 2102.00 2044.11 43.90
1604 86.3200 2082.00 2039.47 43.70
1605 86.3700 2121.00 2047.74 44.10
1606 86.4200 2054.00 2071.22 43.40
1607 86.4700 2139.00 2112.86 44.40
1608 86.5200 2239.00 2176.15 45.30
1609 86.5700 2317.00 2263.79 46.20
1610 86.6200 2421.00 2377.05 47.20
1611 86.6700 2388.00 2514.41 46.90
1612 86.7200 2569.00 2672.55 48.70
1613 86.7700 2699.00 2835.31 50.30
1614 86.8200 2857.00 2985.92 51.40
1615 86.8700 2990.00 3098.09 53.10
1616 86.9200 3051.00 3145.04 53.50
1617 86.9700 2964.00 3113.29 53.00
1618 87.0200 2999.00 3011.78 53.10
1619 87.0700 2719.00 2865.80 50.80
1620 87.1200 2560.00 2702.95 49.20
1621 87.1700 2466.00 2544.65 48.60
1622 87.2200 2190.00 2404.92 45.60
1623 87.2700 2190.00 2292.11 46.00
1624 87.3200 2037.00 2211.07 44.20
1625 87.3700 2073.00 2164.59 44.70
1626 87.4200 2106.00 2154.85 45.10
1627 87.4700 2041.00 2183.97 44.60
1628 87.5200 2082.00 2254.36 44.80
1629 87.5700 2288.00 2368.29 47.30
1630 87.6200 2524.00 2526.86 49.60
1631 87.6700 2417.00 2727.17 48.50
1632 87.7200 2903.00 2957.63 53.30
1633 87.7700 3027.00 3196.59 54.50
1634 87.8200 3453.00 3422.45 58.00
1635 87.8700 3750.00 3625.34 61.10
1636 87.9200 3880.00 3793.22 61.70
1637 87.9700 4073.00 3885.97 63.20
1638 88.0200 4102.00 3857.45 63.90
1639 88.0700 4082.00 3701.51 63.30
1640 88.1200 3996.00 3482.15 62.60
1641 88.1700 3754.00 3280.96 60.80
1642 88.2200 3748.00 3156.29 60.70
1643 88.2700 3643.00 3137.20 59.70
1644 88.3200 3690.00 3225.00 60.30
1645 88.3700 3621.00 3391.97 59.30
1646 88.4200 3743.00 3579.62 60.50
1647 88.4700 3863.00 3714.29 61.30
1648 88.5200 3927.00 3757.21 61.80
1649 88.5700 3708.00 3730.76 59.60
1650 88.6200 3604.00 3669.55 59.20
1651 88.6700 3452.00 3575.30 57.20
1652 88.7200 3284.00 3426.41 56.10
1653 88.7700 3115.00 3219.08 54.50
1654 88.8200 2717.00 2983.79 50.80
1655 88.8700 2541.00 2759.33 48.90
1656 88.9200 2256.00 2571.05 46.30
1657 88.9700 2199.00 2430.27 45.40
1658 89.0200 2138.00 2339.72 44.90
1659 89.0700 2115.00 2297.95 44.30
1660 89.1200 2174.00 2302.17 45.10
1661 89.1700 2107.00 2350.49 44.10
1662 89.2200 2194.00 2443.46 45.10
1663 89.2700 2459.00 2582.37 47.60
1664 89.3200 2533.00 2770.54 48.30
1665 89.3700 2777.00 3009.80 50.50
1666 89.4200 3073.00 3296.51 53.10
1667 89.4700 3403.00 3614.53 55.80
1668 89.5200 3804.00 3926.66 59.00
1669 89.5700 4138.00 4172.13 61.30
1670 89.6200 4396.00 4285.68 63.40
1671 89.6700 4288.00 4233.51 62.40
1672 89.7200 4233.00 4030.63 62.00
1673 89.7700 3732.00 3728.08 58.30
1674 89.8200 3413.00 3388.19 55.70
1675 89.8700 3172.00 3061.20 53.50
1676 89.9200 2696.00 2776.85 49.60
1677 89.9700 2489.00 2546.76 47.40
1678 90.0200 2331.00 2370.49 45.90
1679 90.0700 2198.00 2241.01 44.60
1680 90.1200 2152.00 2140.36 44.00
1681 90.1700 2105.00 2072.28 43.40
1682 90.2200 1929.00 2027.49 41.80
1683 90.2700 1978.00 1995.50 42.20
1684 90.3200 2000.00 1970.83 42.40
1685 90.3700 1858.00 1949.37 41.00
1686 90.4200 1841.00 1928.86 40.70
1687 90.4700 1845.00 1908.95 40.70
1688 90.5200 1876.00 1890.63 41.20
1689 90.5700 1733.00 1875.44 39.40
1690 90.6200 1856.00 1865.05 40.80
1691 90.6700 1745.00 1861.12 39.60
1692 90.7200 1789.00 1866.91 40.00
1693 90.7700 1764.00 1886.39 39.70
1694 90.8200 1908.00 1923.19 41.40
1695 90.8700 1960.00 1982.42 42.00
1696 90.9200 2053.00 2066.17 42.80
1697 90.9700 2136.00 2172.19 43.70
1698 91.0200 2254.00 2288.62 45.00
1699 91.0700 2282.00 2390.58 45.10
1700 91.1200 2424.00 2442.83 46.50
1701 91.1700 2304.00 2424.65 45.50
1702 91.2200 2298.00 2354.06 45.20
1703 91.2700 2277.00 2268.67 45.00
1704 91.3200 2086.00 2199.62 43.30
1705 91.3700 2026.00 2157.13 42.50
1706 91.4200 1918.00 2147.55 41.30
1707 91.4700 1946.00 2168.25 41.90
1708 91.5200 2054.00 2212.46 42.80
1709 91.5700 2014.00 2270.93 42.20
1710 91.6200 2117.00 2332.68 43.60
1711 91.6700 2157.00 2385.11 43.70
1712 91.7200 2223.00 2415.58 44.30
1713 91.7700 2375.00 2415.50 46.00
1714 91.8200 2291.00 2384.09 45.00
1715 91.8700 2263.00 2328.55 44.70
1716 91.9200 2155.00 2259.58 43.80
1717 91.9700 2111.00 2186.73 43.20
1718 92.0200 1925.00 2116.16 41.20
1719 92.0700 1923.00 2050.63 41.20
1720 92.1200 1846.00 1990.46 40.40
1721 92.1700 1850.00 1935.50 40.30
1722 92.2200 1737.00 1886.30 39.10
1723 92.2700 1708.00 1843.93 38.80
1724 92.3200 1702.00 1809.10 38.70
1725 92.3700 1651.00 1781.75 38.30
1726 92.4200 1652.00 1761.25 38.20
1727 92.4700 1574.00 1746.65 37.50
1728 92.5200 1621.00 1736.87 37.90
1729 92.5700 1594.00 1730.95 37.60
1730 92.6200 1608.00 1726.82 37.90
1731 92.6700 1669.00 1725.61 38.50
1732 92.7200 1603.00 1725.39 37.70
1733 92.7700 1587.00 1725.33 37.70
1734 92.8200 1656.00 1724.81 38.30
1735 92.8700 1721.00 1723.41 39.30
1736 92.9200 1669.00 1720.37 38.70
1737 92.9700 1675.00 1717.04 38.90
1738 93.0200 1562.00 1712.39 37.40
1739 93.0700 1578.00 1708.53 37.80
1740 93.1200 1603.00 1704.91 38.00
1741 93.1700 1611.00 1701.56 38.20
1742 93.2200 1559.00 1698.53 37.60
1743 93.2700 1612.00 1695.81 38.60
1744 93.3200 1570.00 1692.11 37.80
1745 93.3700 1567.00 1689.70 38.30
1746 93.4200 1540.00 1687.28 37.80
1747 93.4700 1503.00 1684.81 37.40
1748 93.5200 1608.00 1682.34 38.70
1749 93.5700 1514.00 1680.01 37.70
1750 93.6200 1522.00 1677.99 37.70
1751 93.6700 1595.00 1676.47 38.80
1752 93.7200 1549.00 1675.65 38.20
1753 93.7700 1559.00 1674.66 38.60
1754 93.8200 1614.00 1675.75 39.00
1755 93.8700 1583.00 1677.99 39.10
1756 93.9200 1553.00 1681.52 38.60
1757 93.9700 1575.00 1689.07 38.90
1758 94.0200 1633.00 1695.55 39.70
1759 94.0700 1697.00 1703.58 40.80
1760 94.1200 1602.00 1713.22 39.30
1761 94.1700 1603.00 1724.52 39.60
1762 94.2200 1625.00 1737.52 39.90
1763 94.2700 1615.00 1752.32 39.60
1764 94.3200 1594.00 1769.10 39.50
1765 94.3700 1696.00 1788.23 41.10
1766 94.4200 1736.00 1810.32 41.10
1767 94.4700 1714.00 1836.23 41.00
1768 94.5200 1735.00 1867.12 41.60
1769 94.5700 1813.00 1905.53 41.90
1770 94.6200 1838.00 1951.82 42.40
1771 94.6700 1859.00 2002.88 42.90
1772 94.7200 1916.00 2059.23 43.10
1773 94.7700 1954.00 2116.85 43.60
1774 94.8200 2012.00 2167.87 44.70
1775 94.8700 2031.00 2200.76 44.20
1776 94.9200 2006.00 2203.42 44.20
1777 94.9700 1991.00 2175.67 44.10
1778 95.0200 1931.00 2124.00 43.10
1779 95.0700 1895.00 2061.11 42.60
1780 95.1200 1796.00 1997.66 41.80
1781 95.1700 1741.00 1940.88 40.60
1782 95.2200 1708.00 1893.19 40.40
1783 95.2700 1717.00 1857.34 40.60
1784 95.3200 1679.00 1831.85 39.90
1785 95.3700 1681.00 1815.35 39.80
1786 95.4200 1683.00 1806.23 40.20
1787 95.4700 1665.00 1802.93 39.50
1788 95.5200 1696.00 1804.15 40.00
1789 95.5700 1683.00 1808.27 39.50
1790 95.6200 1773.00 1815.48 40.70
1791 95.6700 1745.00 1824.34 40.20
1792 95.7200 1813.00 1833.80 41.00
1793 95.7700 1731.00 1842.71 39.90
1794 95.8200 1771.00 1851.06 40.50
1795 95.8700 1811.00 1856.72 40.70
1796 95.9200 1753.00 1861.56 40.10
1797 95.9700 1891.00 1867.65 41.40
1798 96.0200 1802.00 1877.77 40.60
1799 96.0700 1813.00 1895.26 40.50
1800 96.1200 1919.00 1923.83 41.80
1801 96.1700 1919.00 1967.56 41.60
1802 96.2200 1891.00 2031.61 41.40
1803 96.2700 2010.00 2120.75 42.50
1804 96.3200 2114.00 2239.35 43.60
1805 96.3700 2202.00 2390.02 44.40
1806 96.4200 2330.00 2571.90 45.70
1807 96.4700 2580.00 2778.56 47.80
1808 96.5200 2757.00 2995.34 49.70
1809 96.5700 2914.00 3195.55 50.90
1810 96.6200 3047.00 3339.89 52.00
1811 96.6700 3186.00 3387.53 53.00
1812 96.7200 3071.00 3321.63 52.30
1813 96.7700 3012.00 3163.13 51.50
1814 96.8200 2768.00 2954.39 49.40
1815 96.8700 2634.00 2734.43 48.30
1816 96.9200 2374.00 2527.87 45.70
1817 96.9700 2230.00 2348.47 44.20
1818 97.0200 2097.00 2200.91 43.10
1819 97.0700 1960.00 2084.91 41.40
1820 97.1200 1893.00 1996.95 40.70
1821 97.1700 1812.00 1932.28 40.00
1822 97.2200 1786.00 1885.77 39.50
1823 97.2700 1771.00 1853.23 39.30
1824 97.3200 1686.00 1830.87 38.50
1825 97.3700 1790.00 1815.88 39.50
1826 97.4200 1729.00 1806.56 38.90
1827 97.4700 1789.00 1801.61 39.70
1828 97.5200 1807.00 1800.36 39.70
1829 97.5700 1662.00 1802.49 38.10
1830 97.6200 1728.00 1808.03 39.00
1831 97.6700 1743.00 1817.25 39.00
1832 97.7200 1794.00 1830.70 39.60
1833 97.7700 1747.00 1849.27 39.30
1834 97.8200 1777.00 1874.24 39.40
1835 97.8700 1812.00 1907.59 40.00
1836 97.9200 1792.00 1952.32 39.80
1837 97.9700 1885.00 2013.02 40.70
1838 98.0200 2013.00 2096.62 42.20
1839 98.0700 2089.00 2212.81 43.00
1840 98.1200 2358.00 2373.73 45.50
1841 98.1700 2428.00 2592.80 46.40
1842 98.2200 2696.00 2881.39 48.80
1843 98.2700 3027.00 3244.46 51.80
1844 98.3200 3376.00 3669.76 54.70
1845 98.3700 3935.00 4116.18 59.10
1846 98.4200 4197.00 4513.84 61.00
1847 98.4700 4672.00 4850.37 64.50
1848 98.5200 4991.00 5176.87 66.60
1849 98.5700 5264.00 5498.17 68.50
1850 98.6200 5320.00 5673.71 68.80
1851 98.6700 5008.00 5494.99 66.70
1852 98.7200 4703.00 4944.43 64.70
1853 98.7700 4051.00 4233.33 60.20
1854 98.8200 3473.00 3565.79 55.60
1855 98.8700 3089.00 3029.91 52.80
1856 98.9200 2650.00 2638.75 48.70
1857 98.9700 2271.00 2371.05 45.20
1858 99.0200 2140.00 2194.28 43.90
1859 99.0700 1936.00 2078.13 41.70
1860 99.1200 1914.00 1999.86 41.50
1861 99.1700 1830.00 1944.99 40.70
1862 99.2200 1787.00 1905.22 40.10
1863 99.2700 1758.00 1876.04 39.80
1864 99.3200 1762.00 1855.21 40.00
1865 99.3700 1702.00 1841.67 39.30
1866 99.4200 1761.00 1835.20 39.90
1867 99.4700 1780.00 1836.07 40.50
1868 99.5200 1727.00 1844.70 39.60
1869 99.5700 1677.00 1861.21 39.10
1870 99.6200 1786.00 1884.70 40.60
1871 99.6700 1804.00 1913.87 40.50
1872 99.7200 1774.00 1942.70 40.20
1873 99.7700 1869.00 1967.53 41.70
1874 99.8200 1817.00 1983.46 40.60
1875 99.8700 1924.00 1990.84 42.40
1876 99.9200 1913.00 1999.86 42.20
1877 99.9700 1903.00 2025.14 42.10
1878 100.0200 2019.00 2077.67 43.40
1879 100.0700 2039.00 2161.18 44.00
1880 100.1200 2122.00 2268.43 44.50
1881 100.1700 2233.00 2373.67 46.20
1882 100.2200 2297.00 2429.75 46.70
1883 100.2700 2256.00 2397.86 46.40
1884 100.3200 2203.00 2291.07 45.80
1885 100.3700 2176.00 2156.63 46.00
1886 100.4200 2071.00 2030.69 44.50
1887 100.4700 1855.00 1928.18 42.70
1888 100.5200 1866.00 1851.37 42.60
1889 100.5700 1766.00 1796.98 41.50
1890 100.6200 1812.00 1759.27 42.10
1891 100.6700 1754.00 1733.89 41.40
1892 100.7200 1622.00 1716.27 39.70
1893 100.7700 1711.00 1703.56 41.20
1894 100.8200 1686.00 1694.02 40.60
1895 100.8700 1623.00 1686.56 40.20
1896 100.9200 1668.00 1680.73 40.70
1897 100.9700 1674.00 1676.11 40.70
1898 101.0200 1634.00 1672.46 40.30
1899 101.0700 1523.00 1669.66 38.70
1900 101.1200 1608.00 1670.08 39.90
1901 101.1700 1636.00 1669.07 40.00
1902 101.2200 1538.00 1668.53 38.90
1903 101.2700 1725.00 1668.78 41.10
1904 101.3200 1663.00 1669.90 40.30
1905 101.3700 1652.00 1672.06 40.00
1906 101.4200 1697.00 1675.47 40.70
1907 101.4700 1632.00 1680.38 39.50
1908 101.5200 1744.00 1687.05 41.10
1909 101.5700 1690.00 1695.64 40.20
1910 101.6200 1719.00 1706.14 40.60
1911 101.6700 1758.00 1718.06 40.70
1912 101.7200 1704.00 1730.30 40.30
1913 101.7700 1773.00 1740.81 40.70
1914 101.8200 1665.00 1747.79 39.50
1915 101.8700 1806.00 1751.35 41.00
1916 101.9200 1668.00 1753.27 39.40
1917 101.9700 1837.00 1755.35 41.00
1918 102.0200 1854.00 1757.94 41.50
1919 102.0700 1858.00 1762.52 41.10
1920 102.1200 1824.00 1768.65 40.90
1921 102.1700 1894.00 1776.65 41.50
1922 102.2200 1781.00 1787.11 40.20
1923 102.2700 1736.00 1800.82 39.60
1924 102.3200 1823.00 1818.57 40.70
1925 102.3700 1867.00 1840.85 41.00
1926 102.4200 1890.00 1867.68 41.30
1927 102.4700 1860.00 1898.25 40.90
1928 102.5200 1989.00 1930.61 42.30
1929 102.5700 1869.00 1961.25 40.70
1930 102.6200 2100.00 1985.79 43.40
1931 102.6700 2024.00 2000.94 42.40
1932 102.7200 2029.00 2005.19 42.40
1933 102.7700 1974.00 2001.44 41.90
1934 102.8200 1946.00 1996.30 41.50
1935 102.8700 1906.00 1989.92 41.10
1936 102.9200 1943.00 1990.06 41.60
1937 102.9700 1865.00 1999.96 40.60
1938 103.0200 1887.00 2024.49 40.90
1939 103.0700 1967.00 2067.92 41.60
1940 103.1200 1941.00 2131.80 41.40
1941 103.1700 2042.00 2217.75 42.30
1942 103.2200 2004.00 2317.36 42.00
1943 103.2700 2128.00 2411.67 43.20
1944 103.3200 2205.00 2470.94 44.00
1945 103.3700 2279.00 2471.94 44.60
1946 103.4200 2268.00 2422.67 44.60
1947 103.4700 2129.00 2355.09 43.10
1948 103.5200 2200.00 2299.30 43.80
1949 103.5700 2106.00 2277.64 42.80
1950 103.6200 2185.00 2291.15 43.60
1951 103.6700 2146.00 2349.42 42.90
1952 103.7200 2252.00 2456.04 44.20
1953 103.7700 2541.00 2613.42 47.10
1954 103.8200 2663.00 2821.30 47.80
1955 103.8700 3045.00 3073.73 51.40
1956 103.9200 3261.00 3352.72 53.30
1957 103.9700 3435.00 3619.79 54.30
1958 104.0200 3612.00 3810.19 56.00
1959 104.0700 3548.00 3849.08 55.40
1960 104.1200 3571.00 3707.74 55.40
1961 104.1700 3201.00 3440.33 52.40
1962 104.2200 3050.00 3132.67 51.40
1963 104.2700 2705.00 2843.43 48.20
1964 104.3200 2484.00 2598.38 46.20
1965 104.3700 2380.00 2403.69 45.50
1966 104.4200 2194.00 2256.63 43.40
1967 104.4700 2116.00 2150.93 42.70
1968 104.5200 2032.00 2079.74 42.00
1969 104.5700 1983.00 2037.66 41.40
1970 104.6200 1975.00 2020.99 41.30
1971 104.6700 2037.00 2027.18 42.00
1972 104.7200 2124.00 2055.12 42.80
1973 104.7700 2106.00 2095.32 42.50
1974 104.8200 2196.00 2125.09 43.60
1975 104.8700 2185.00 2114.48 43.60
1976 104.9200 2149.00 2063.11 43.00
1977 104.9700 2030.00 1999.08 41.90
1978 105.0200 2074.00 1942.37 42.50
1979 105.0700 1903.00 1898.59 40.40
1980 105.1200 1968.00 1866.82 41.30
1981 105.1700 1879.00 1844.19 40.40
1982 105.2200 1803.00 1827.70 39.30
1983 105.2700 1830.00 1815.03 39.80
1984 105.3200 1836.00 1804.94 39.90
1985 105.3700 1834.00 1797.06 39.70
1986 105.4200 1848.00 1791.55 40.00
1987 105.4700 1796.00 1789.63 39.50
1988 105.5200 1864.00 1789.60 40.10
1989 105.5700 1729.00 1792.44 38.80
1990 105.6200 1817.00 1798.13 39.70
1991 105.6700 1841.00 1806.50 39.90
1992 105.7200 1795.00 1817.23 39.50
1993 105.7700 1711.00 1830.22 38.50
1994 105.8200 1862.00 1844.95 40.20
1995 105.8700 1841.00 1860.93 40.20
1996 105.9200 1777.00 1877.15 39.30
1997 105.9700 1876.00 1893.64 40.60
1998 106.0200 1918.00 1909.22 41.10
1999 106.0700 1922.00 1923.03 40.90
2000 106.1200 2042.00 1934.33 42.30
2001 106.1700 2017.00 1942.54 42.20
2002 106.2200 2119.00 1947.33 43.00
2003 106.2700 2149.00 1948.63 43.80
2004 106.3200 2096.00 1946.59 43.00
2005 106.3700 2121.00 1941.52 43.60
2006 106.4200 2135.00 1933.85 43.70
2007 106.4700 2038.00 1924.16 42.90
2008 106.5200 1971.00 1913.19 42.00
2009 106.5700 1945.00 1901.86 42.00
2010 106.6200 1917.00 1891.22 41.60
2011 106.6700 1861.00 1882.33 41.20
2012 106.7200 1862.00 1876.18 41.10
2013 106.7700 1937.00 1873.44 42.20
2014 106.8200 1772.00 1874.20 40.10
2015 106.8700 1866.00 1877.90 41.50
2016 106.9200 1891.00 1882.31 41.70
2017 106.9700 1934.00 1883.65 42.30
2018 107.0200 1954.00 1877.65 42.40
2019 107.0700 1963.00 1862.38 42.80
2020 107.1200 1958.00 1839.88 42.60
2021 107.1700 1889.00 1814.42 41.80
2022 107.2200 1844.00 1789.77 41.50
2023 107.2700 1819.00 1768.08 41.20
2024 107.3200 1806.00 1750.24 40.90
2025 107.3700 1725.00 1736.34 40.50
2026 107.4200 1733.00 1726.14 40.30
2027 107.4700 1679.00 1719.16 39.50
2028 107.5200 1658.00 1714.89 39.70
2029 107.5700 1708.00 1712.90 39.70
2030 107.6200 1694.00 1712.79 39.60
2031 107.6700 1748.00 1714.32 40.50
2032 107.7200 1749.00 1717.31 40.20
2033 107.7700 1765.00 1721.74 40.30
2034 107.8200 1708.00 1727.62 40.00
2035 107.8700 1758.00 1735.08 40.10
2036 107.9200 1796.00 1744.31 40.60
2037 107.9700 1803.00 1755.56 40.70
2038 108.0200 1767.00 1769.18 40.20
2039 108.0700 1752.00 1785.63 39.70
2040 108.1200 1818.00 1805.46 40.90
2041 108.1700 1900.00 1829.45 41.30
2042 108.2200 1851.00 1858.64 40.90
2043 108.2700 1876.00 1894.56 41.10
2044 108.3200 1940.00 1939.49 41.70
2045 108.3700 1989.00 1996.05 42.00
2046 108.4200 2128.00 2070.79 43.80
2047 108.4700 2138.00 2170.15 43.50
2048 108.5200 2324.00 2303.19 45.50
2049 108.5700 2405.00 2479.71 46.00
2050 108.6200 2779.00 2716.40 49.60
2051 108.6700 3007.00 3014.03 51.30
2052 108.7200 3471.00 3377.49 55.20
2053 108.7700 3954.00 3790.81 58.70
2054 108.8200 4314.00 4203.54 61.40
2055 108.8700 4693.00 4517.93 63.90
2056 108.9200 4707.00 4618.64 64.10
2057 108.9700 4648.00 4459.80 63.70
2058 109.0200 4338.00 4110.32 61.50
2059 109.0700 3781.00 3688.05 57.20
2060 109.1200 3401.00 3280.67 54.50
2061 109.1700 2947.00 2929.92 50.40
2062 109.2200 2635.00 2647.22 47.80
2063 109.2700 2416.00 2429.04 45.70
2064 109.3200 2298.00 2265.77 44.50
2065 109.3700 2147.00 2145.89 43.10
2066 109.4200 2052.00 2058.46 42.10
2067 109.4700 2027.00 1994.41 41.80
2068 109.5200 1969.00 1946.78 41.30
2069 109.5700 1918.00 1910.67 40.60
2070 109.6200 1851.00 1882.72 39.90
2071 109.6700 1769.00 1860.66 39.00
2072 109.7200 1832.00 1842.91 39.70
2073 109.7700 1865.00 1828.33 40.00
2074 109.8200 1803.00 1816.07 39.40
2075 109.8700 1836.00 1805.49 39.70
2076 109.9200 1840.00 1796.19 39.70
2077 109.9700 1859.00 1787.92 40.00
2078 110.0200 1744.00 1780.57 38.70
2079 110.0700 1873.00 1774.63 40.10
2080 110.1200 1805.00 1769.25 39.40
2081 110.1700 1778.00 1764.94 38.90
2082 110.2200 1800.00 1760.30 39.30
2083 110.2700 1824.00 1758.54 39.60
2084 110.3200 1835.00 1758.46 39.50
2085 110.3700 1856.00 1760.50 40.00
2086 110.4200 1788.00 1765.31 39.20
2087 110.4700 1822.00 1773.70 39.30
2088 110.5200 1821.00 1786.55 39.60
2089 110.5700 1837.00 1804.65 39.70
2090 110.6200 1895.00 1828.36 40.10
2091 110.6700 1971.00 1857.03 41.00
2092 110.7200 1862.00 1887.78 39.90
2093 110.7700 1987.00 1914.24 41.20
2094 110.8200 1942.00 1927.87 40.70
2095 110.8700 1900.00 1923.20 40.40
2096 110.9200 1976.00 1903.13 41.10
2097 110.9700 1984.00 1876.38 41.30
2098 111.0200 1920.00 1850.17 40.60
2099 111.0700 1921.00 1828.33 40.40
2100 111.1200 1900.00 1812.03 40.40
2101 111.1700 1768.00 1801.09 38.90
2102 111.2200 1812.00 1794.78 39.20
2103 111.2700 1792.00 1792.16 39.10
2104 111.3200 1799.00 1792.81 39.30
2105 111.3700 1840.00 1795.22 39.60
2106 111.4200 1921.00 1799.26 40.50
2107 111.4700 1750.00 1804.53 38.80
2108 111.5200 1845.00 1810.69 39.70
2109 111.5700 1829.00 1817.41 39.40
2110 111.6200 1864.00 1828.27 40.00
2111 111.6700 1915.00 1834.98 40.40
2112 111.7200 1920.00 1840.84 40.40
2113 111.7700 1832.00 1845.36 39.70
2114 111.8200 1951.00 1848.06 40.80
2115 111.8700 1917.00 1848.75 40.50
2116 111.9200 1921.00 1847.45 40.60
2117 111.9700 1854.00 1844.79 39.90
2118 112.0200 1890.00 1841.73 40.20
2119 112.0700 1839.00 1838.74 39.80
2120 112.1200 1882.00 1837.36 40.20
2121 112.1700 1811.00 1839.11 39.50
2122 112.2200 1902.00 1845.99 40.50
2123 112.2700 1923.00 1860.73 41.00
2124 112.3200 1922.00 1887.14 40.70
2125 112.3700 1995.00 1930.13 41.80
2126 112.4200 2070.00 1994.78 42.60
2127 112.4700 2080.00 2081.35 42.80
2128 112.5200 2099.00 2171.86 42.90
2129 112.5700 2178.00 2218.38 44.10
2130 112.6200 2228.00 2182.32 44.30
2131 112.6700 2200.00 2090.50 44.30
2132 112.7200 2173.00 1994.51 44.00
2133 112.7700 2131.00 1918.70 43.90
2134 112.8200 2085.00 1865.28 43.10
2135 112.8700 2081.00 1829.44 43.80
2136 112.9200 2093.00 1806.59 43.60
2137 112.9700 2080.00 1792.81 43.80
2138 113.0200 1997.00 1785.56 42.90
2139 113.0700 1986.00 1783.32 42.90
2140 113.1200 1988.00 1785.25 42.80
2141 113.1700 1938.00 1791.07 42.50
2142 113.2200 2005.00 1800.90 43.10
2143 113.2700 1884.00 1815.28 42.10
2144 113.3200 1975.00 1835.21 42.90
2145 113.3700 1965.00 1862.18 43.30
2146 113.4200 1982.00 1898.30 43.20
2147 113.4700 1986.00 1946.20 43.40
2148 113.5200 1993.00 2009.01 43.60
2149 113.5700 2087.00 2090.08 44.50
2150 113.6200 2175.00 2192.56 45.40
2151 113.6700 2172.00 2319.22 45.60
2152 113.7200 2370.00 2469.58 47.50
2153 113.7700 2476.00 2641.00 48.60
2154 113.8200 2652.00 2823.88 50.40
2155 113.8700 2909.00 2998.91 52.60
2156 113.9200 3097.00 3135.95 54.40
2157 113.9700 3214.00 3202.35 55.20
2158 114.0200 3192.00 3180.74 55.10
2159 114.0700 3283.00 3081.89 55.60
2160 114.1200 3073.00 2937.55 54.00
2161 114.1700 2900.00 2778.90 52.10
2162 114.2200 2597.00 2629.56 49.40
2163 114.2700 2466.00 2500.73 48.10
2164 114.3200 2339.00 2391.32 46.80
2165 114.3700 2178.00 2306.95 45.10
2166 114.4200 2136.00 2241.32 44.70
2167 114.4700 2112.00 2194.41 44.00
2168 114.5200 2115.00 2167.54 44.40
2169 114.5700 2128.00 2159.63 43.90
2170 114.6200 2171.00 2162.33 44.60
2171 114.6700 2028.00 2158.42 42.90
2172 114.7200 2138.00 2132.44 44.00
2173 114.7700 2081.00 2087.31 43.10
2174 114.8200 2020.00 2039.35 42.70
2175 114.8700 2156.00 2001.29 43.60
2176 114.9200 2093.00 1977.94 43.30
2177 114.9700 2148.00 1969.77 43.60
2178 115.0200 2125.00 1976.02 43.30
2179 115.0700 2160.00 1995.99 43.50
2180 115.1200 2265.00 2031.12 44.80
2181 115.1700 2285.00 2085.85 44.50
2182 115.2200 2310.00 2165.44 45.00
2183 115.2700 2401.00 2273.05 45.90
2184 115.3200 2560.00 2402.45 47.10
2185 115.3700 2611.00 2521.10 47.70
2186 115.4200 2688.00 2565.40 48.50
2187 115.4700 2531.00 2505.27 46.80
2188 115.5200 2621.00 2387.79 47.80
2189 115.5700 2436.00 2266.83 46.10
2190 115.6200 2308.00 2163.92 44.70
2191 115.6700 2232.00 2082.92 43.90
2192 115.7200 2149.00 2022.41 43.30
2193 115.7700 2062.00 1980.01 42.30
2194 115.8200 1948.00 1953.70 41.00
2195 115.8700 2026.00 1942.21 42.10
2196 115.9200 1970.00 1945.03 41.40
2197 115.9700 2029.00 1963.18 41.80
2198 116.0200 1990.00 1994.08 41.70
2199 116.0700 2069.00 2037.05 42.40
2200 116.1200 2061.00 2086.62 42.10
2201 116.1700 2053.00 2131.73 42.20
2202 116.2200 2084.00 2158.85 42.60
2203 116.2700 2047.00 2161.92 42.00
2204 116.3200 2084.00 2149.00 42.50
2205 116.3700 2133.00 2132.47 43.20
2206 116.4200 2115.00 2120.49 42.70
2207 116.4700 2145.00 2116.08 43.30
2208 116.5200 2106.00 2113.39 42.90
2209 116.5700 2099.00 2107.87 42.40
2210 116.6200 2058.00 2096.21 42.40
2211 116.6700 2023.00 2074.82 41.90
2212 116.7200 1935.00 2044.21 40.70
2213 116.7700 2041.00 2007.31 42.10
2214 116.8200 1946.00 1967.88 41.20
2215 116.8700 1868.00 1929.13 40.30
2216 116.9200 1904.00 1893.24 40.60
2217 116.9700 1908.00 1861.69 40.80
2218 117.0200 1799.00 1835.07 39.60
2219 117.0700 1904.00 1813.68 40.80
2220 117.1200 1879.00 1797.51 40.50
2221 117.1700 1878.00 1786.42 40.40
2222 117.2200 1812.00 1780.16 39.80
2223 117.2700 1885.00 1778.37 40.70
2224 117.3200 1939.00 1780.65 41.00
2225 117.3700 1903.00 1786.47 47.30
2226 117.4200 1977.00 1795.14 41.70
2227 117.4700 1987.00 1805.71 41.70
2228 117.5200 1988.00 1816.78 48.30
2229 117.5700 2009.00 1826.22 42.00
2230 117.6200 1992.00 1831.93 41.80
2231 117.6700 1970.00 1831.73 47.80
2232 117.7200 1906.00 1824.95 40.90
2233 117.7700 1828.00 1812.67 40.10
2234 117.8200 1935.00 1797.04 47.30
2235 117.8700 1894.00 1780.26 40.80
2236 117.9200 1903.00 1763.98 40.90
2237 117.9700 1866.00 1749.21 46.80
2238 118.0200 1828.00 1736.31 40.10
2239 118.0700 1782.00 1725.67 39.60
2240 118.1200 1724.00 1717.14 44.90
2241 118.1700 1742.00 1710.63 39.10
2242 118.2200 1802.00 1705.99 39.80
2243 118.2700 1690.00 1703.06 44.50
2244 118.3200 1745.00 1701.77 39.10
2245 118.3700 1741.00 1702.08 39.30
2246 118.4200 1687.00 1704.04 44.50
2247 118.4700 1754.00 1708.35 39.30
2248 118.5200 1718.00 1714.11 39.00
2249 118.5700 1767.00 1722.11 39.50
2250 118.6200 1747.00 1732.62 39.20
2251 118.6700 1760.00 1745.85 39.50
2252 118.7200 1760.00 1761.84 39.40
2253 118.7700 1820.00 1780.41 40.30
2254 118.8200 1876.00 1800.79 40.80
2255 118.8700 1900.00 1821.41 41.40
2256 118.9200 1937.00 1839.70 41.60
2257 118.9700 2005.00 1854.85 42.30
2258 119.0200 1963.00 1858.82 42.10
2259 119.0700 1990.00 1853.42 42.40
2260 119.1200 1948.00 1840.44 41.70
2261 119.1700 1907.00 1823.30 41.70
2262 119.2200 1918.00 1805.10 41.60
2263 119.2700 1883.00 1787.12 41.30
2264 119.3200 1792.00 1771.80 40.40
2265 119.3700 1804.00 1759.54 40.80
2266 119.4200 1757.00 1749.91 39.90
2267 119.4700 1860.00 1742.71 41.60
2268 119.5200 1759.00 1737.59 40.30
2269 119.5700 1796.00 1734.18 40.80
2270 119.6200 1677.00 1732.15 39.50
2271 119.6700 1762.00 1731.26 40.50
2272 119.7200 1789.00 1731.42 40.60
2273 119.7700 1776.00 1732.56 41.00
2274 119.8200 1808.00 1734.72 41.00
2275 119.8700 1840.00 1738.02 41.50
2276 119.9200 1841.00 1742.66 41.80
2277 119.9700 1828.00 1749.57 41.50
2278 120.0200 1835.00 1757.80 41.40
2279 120.0700 1783.00 1768.48 41.00
2280 120.1200 1772.00 1782.20 40.80
2281 120.1700 1844.00 1799.66 41.50
2282 120.2200 1945.00 1821.67 42.80
2283 120.2700 1987.00 1848.93 43.00
2284 120.3200 1963.00 1882.64 42.80
2285 120.3700 2062.00 1923.38 43.80
2286 120.4200 2088.00 1972.70 44.10
2287 120.4700 2125.00 2027.93 44.20
2288 120.5200 2230.00 2086.59 45.60
2289 120.5700 2298.00 2148.84 45.70
2290 120.6200 2436.00 2207.63 47.30
2291 120.6700 2436.00 2258.14 47.00
2292 120.7200 2521.00 2298.80 47.90
2293 120.7700 2469.00 2331.85 46.90
2294 120.8200 2556.00 2360.34 48.20
2295 120.8700 2555.00 2384.55 47.90
2296 120.9200 2485.00 2399.21 47.10
2297 120.9700 2470.00 2395.86 46.70
2298 121.0200 2358.00 2368.27 46.00
2299 121.0700 2415.00 2317.65 45.80
2300 121.1200 2324.00 2252.19 45.30
2301 121.1700 2194.00 2182.11 43.80
2302 121.2200 2073.00 2115.46 42.40
2303 121.2700 2099.00 2062.53 42.80
2304 121.3200 1993.00 2013.76 41.70
2305 121.3700 1961.00 1975.17 41.00
2306 121.4200 2017.00 1946.29 41.90
2307 121.4700 1957.00 1926.44 41.20
2308 121.5200 1940.00 1914.88 40.80
2309 121.5700 1876.00 1910.60 40.10
2310 121.6200 1915.00 1914.24 40.80
2311 121.6700 2012.00 1925.38 41.40
2312 121.7200 1959.00 1944.41 41.00
2313 121.7700 1955.00 1971.96 41.10
2314 121.8200 1961.00 2008.84 40.90
2315 121.8700 2059.00 2055.76 42.00
2316 121.9200 2043.00 2113.02 42.00
2317 121.9700 2215.00 2179.71 43.40
2318 122.0200 2265.00 2254.95 44.10
2319 122.0700 2297.00 2336.07 44.40
2320 122.1200 2455.00 2419.82 45.70
2321 122.1700 2622.00 2500.69 47.30
2322 122.2200 2568.00 2570.09 47.00
2323 122.2700 2723.00 2617.41 48.10
2324 122.3200 2598.00 2633.57 47.10
2325 122.3700 2641.00 2614.71 47.70
2326 122.4200 2516.00 2564.91 46.20
2327 122.4700 2520.00 2495.96 46.20
2328 122.5200 2399.00 2422.50 45.50
2329 122.5700 2378.00 2356.34 44.80
2330 122.6200 2282.00 2304.37 44.00
2331 122.6700 2317.00 2269.61 44.50
2332 122.7200 2201.00 2252.74 43.10
2333 122.7700 2195.00 2253.10 43.20
2334 122.8200 2170.00 2268.89 43.10
2335 122.8700 2307.00 2296.94 44.00
2336 122.9200 2403.00 2331.78 45.20
2337 122.9700 2472.00 2367.56 46.00
2338 123.0200 2364.00 2390.43 44.60
2339 123.0700 2382.00 2393.29 44.80
2340 123.1200 2326.00 2372.14 44.60
2341 123.1700 2357.00 2329.27 44.40
2342 123.2200 2351.00 2271.56 44.60
2343 123.2700 2227.00 2207.83 43.50
2344 123.3200 2135.00 2145.72 42.30
2345 123.3700 2111.00 2089.64 42.10
2346 123.4200 2025.00 2041.19 41.50
2347 123.4700 2072.00 2000.45 41.60
2348 123.5200 2022.00 1966.80 41.20
2349 123.5700 1899.00 1939.42 40.00
2350 123.6200 1940.00 1917.37 40.30
2351 123.6700 1912.00 1899.81 40.00
2352 123.7200 1985.00 1886.01 40.90
2353 123.7700 1904.00 1882.84 39.90
2354 123.8200 1824.00 1874.97 39.10
2355 123.8700 1838.00 1869.44 39.20
2356 123.9200 1919.00 1866.03 40.10
2357 123.9700 1862.00 1864.75 39.50
2358 124.0200 1915.00 1865.27 40.00
2359 124.0700 1915.00 1867.74 39.90
2360 124.1200 1924.00 1872.22 40.20
2361 124.1700 1881.00 1878.91 39.50
2362 124.2200 1921.00 1888.00 40.00
2363 124.2700 1924.00 1899.81 40.20
2364 124.3200 1955.00 1914.78 40.30
2365 124.3700 1933.00 1933.54 40.20
2366 124.4200 2038.00 1957.02 41.40
2367 124.4700 2069.00 1986.42 41.60
2368 124.5200 2020.00 2023.07 41.10
2369 124.5700 2059.00 2070.02 41.70
2370 124.6200 2111.00 2129.86 42.00
2371 124.6700 2165.00 2206.18 42.50
2372 124.7200 2270.00 2303.27 43.80
2373 124.7700 2453.00 2425.69 45.30
2374 124.8200 2573.00 2577.53 46.40
2375 124.8700 2850.00 2760.74 49.20
2376 124.9200 3021.00 2971.49 50.30
2377 124.9700 3157.00 3195.40 51.70
2378 125.0200 3391.00 3403.40 53.70
2379 125.0700 3440.00 3556.34 54.10
2380 125.1200 3549.00 3621.19 54.80
2381 125.1700 3359.00 3584.56 53.50
2382 125.2200 3339.00 3458.20 53.30
2383 125.2700 3242.00 3275.04 52.80
2384 125.3200 3010.00 3076.04 50.60
2385 125.3700 2949.00 2892.84 50.50
2386 125.4200 2772.00 2742.29 48.80
2387 125.4700 2593.00 2629.82 47.50
2388 125.5200 2644.00 2555.43 47.80
2389 125.5700 2530.00 2517.47 47.10
2390 125.6200 2554.00 2514.01 47.10
2391 125.6700 2574.00 2542.75 47.50
2392 125.7200 2669.00 2598.79 48.40
2393 125.7700 2732.00 2669.88 49.20
2394 125.8200 2783.00 2731.88 49.50
2395 125.8700 2793.00 2754.37 50.20
2396 125.9200 2765.00 2721.84 49.50
2397 125.9700 2725.00 2648.40 49.70
2398 126.0200 2590.00 2563.42 48.30
2399 126.0700 2628.00 2490.15 48.90
2400 126.1200 2580.00 2440.21 48.30
2401 126.1700 2514.00 2416.01 48.10
2402 126.2200 2477.00 2416.08 47.50
2403 126.2700 2433.00 2436.83 47.40
2404 126.3200 2435.00 2472.60 47.30
2405 126.3700 2426.00 2514.74 47.50
2406 126.4200 2493.00 2551.22 48.00
2407 126.4700 2487.00 2568.94 48.20
2408 126.5200 2430.00 2559.49 47.50
2409 126.5700 2443.00 2524.04 47.70
2410 126.6200 2427.00 2472.20 47.70
2411 126.6700 2424.00 2415.94 47.50
2412 126.7200 2309.00 2364.68 46.40
2413 126.7700 2339.00 2323.89 46.60
2414 126.8200 2276.00 2296.03 46.00
2415 126.8700 2243.00 2281.70 45.70
2416 126.9200 2242.00 2280.52 45.70
2417 126.9700 2306.00 2291.58 46.20
2418 127.0200 2404.00 2313.68 47.30
2419 127.0700 2426.00 2345.33 47.10
2420 127.1200 2489.00 2384.80 48.00
2421 127.1700 2472.00 2429.93 47.40
2422 127.2200 2542.00 2478.17 48.20
2423 127.2700 2581.00 2526.56 48.30
2424 127.3200 2678.00 2572.20 49.40
2425 127.3700 2701.00 2612.89 49.20
2426 127.4200 2649.00 2647.97 49.00
2427 127.4700 2667.00 2678.99 48.90
2428 127.5200 2807.00 2709.43 50.10
2429 127.5700 2770.00 2743.96 49.60
2430 127.6200 2875.00 2787.29 50.80
2431 127.6700 2897.00 2843.12 50.30
2432 127.7200 2903.00 2912.91 50.70
2433 127.7700 2987.00 2996.71 51.20
2434 127.8200 3063.00 3089.16 51.70
2435 127.8700 3241.00 3179.52 53.10
2436 127.9200 3255.00 3253.61 53.40
2437 127.9700 3325.00 3293.15 53.50
2438 128.0200 3366.00 3285.31 54.10
2439 128.0700 3407.00 3229.21 54.10
2440 128.1200 3154.00 3136.43 52.10
2441 128.1700 3182.00 3024.67 52.10
2442 128.2200 2983.00 2910.76 50.60
2443 128.2700 2924.00 2806.86 49.90
2444 128.3200 2786.00 2720.41 48.70
2445 128.3700 2638.00 2655.64 47.40
2446 128.4200 2612.00 2616.05 47.10
2447 128.4700 2599.00 2603.51 47.00
2448 128.5200 2558.00 2619.97 46.70
2449 128.5700 2601.00 2667.16 46.90
2450 128.6200 2780.00 2745.53 48.60
2451 128.6700 2895.00 2851.78 49.30
2452 128.7200 2997.00 2974.06 50.30
2453 128.7700 2982.00 3087.59 50.10
2454 128.8200 3039.00 3158.55 50.50
2455 128.8700 3156.00 3163.47 51.60
2456 128.9200 3111.00 3108.75 51.20
2457 128.9700 3034.00 3024.29 50.50
2458 129.0200 2974.00 2938.19 50.00
2459 129.0700 2844.00 2867.35 48.70
2460 129.1200 2862.00 2817.71 49.00
2461 129.1700 2825.00 2790.88 48.60
2462 129.2200 2789.00 2787.95 48.20
2463 129.2700 2779.00 2810.37 48.30
2464 129.3200 2842.00 2859.59 48.80
2465 129.3700 2968.00 2936.35 49.70
2466 129.4200 3090.00 3039.11 50.90
2467 129.4700 3120.00 3161.20 51.00
2468 129.5200 3140.00 3286.06 51.10
2469 129.5700 3330.00 3384.54 52.70
2470 129.6200 3355.00 3423.65 52.90
2471 129.6700 3352.00 3387.65 52.70
2472 129.7200 3334.00 3293.28 52.70
2473 129.7700 3287.00 3170.92 52.30
2474 129.8200 3184.00 3046.30 51.30
2475 129.8700 3055.00 2932.94 50.40
2476 129.9200 2825.00 2835.63 48.50
2477 129.9700 2845.00 2753.27 48.40
2478 130.0200 2727.00 2684.26 47.60
2479 130.0700 2550.00 2626.05 45.80
2480 130.1200 2583.00 2576.43 46.20
2481 130.1700 2548.00 2533.03 45.80
2482 130.2200 2467.00 2496.13 45.00
2483 130.2700 2437.00 2464.71 44.90
2484 130.3200 2334.00 2438.95 43.90
2485 130.3700 2365.00 2419.51 44.10
2486 130.4200 2349.00 2407.26 44.10
2487 130.4700 2275.00 2403.16 43.30
2488 130.5200 2346.00 2407.91 44.00
2489 130.5700 2348.00 2422.78 44.00
2490 130.6200 2307.00 2448.08 43.60
2491 130.6700 2441.00 2484.02 44.90
2492 130.7200 2434.00 2530.33 44.80
2493 130.7700 2580.00 2586.02 46.20
2494 130.8200 2608.00 2649.13 46.40
2495 130.8700 2708.00 2716.18 47.30
2496 130.9200 2850.00 2781.95 48.50
2497 130.9700 2919.00 2839.34 49.10
2498 131.0200 2955.00 2880.15 49.40
2499 131.0700 3005.00 2896.96 49.80
2500 131.1200 3110.00 2885.33 50.70
2501 131.1700 2992.00 2845.61 49.90
2502 131.2200 3013.00 2781.31 49.80
2503 131.2700 2871.00 2702.78 48.90
2504 131.3200 2739.00 2616.37 47.80
2505 131.3700 2691.00 2527.46 47.30
2506 131.4200 2537.00 2441.65 46.00
2507 131.4700 2403.00 2362.92 45.00
2508 131.5200 2331.00 2291.41 44.00
2509 131.5700 2168.00 2227.52 42.70
2510 131.6200 2187.00 2171.07 42.90
2511 131.6700 2051.00 2121.60 41.60
2512 131.7200 2121.00 2078.56 42.20
2513 131.7700 2047.00 2041.39 41.80
2514 131.8200 1972.00 2009.53 40.70
2515 131.8700 1977.00 1982.45 41.30
2516 131.9200 1951.00 1959.62 40.90
2517 131.9700 1908.00 1940.49 40.60
2518 132.0200 1936.00 1924.56 40.90
2519 132.0700 1895.00 1911.36 40.70
2520 132.1200 1910.00 1900.50 40.50
2521 132.1700 1841.00 1891.61 40.30
2522 132.2200 1914.00 1884.38 40.90
2523 132.2700 1862.00 1878.56 40.70
2524 132.3200 1808.00 1873.92 40.00
2525 132.3700 1928.00 1870.23 41.60
2526 132.4200 1891.00 1867.33 41.10
2527 132.4700 1854.00 1865.02 41.00
2528 132.5200 1896.00 1863.14 41.20
2529 132.5700 1857.00 1861.53 41.20
2530 132.6200 1818.00 1860.02 40.60
2531 132.6700 1909.00 1858.46 41.70
2532 132.7200 1865.00 1856.88 41.20
2533 132.7700 1900.00 1854.85 41.90
2534 132.8200 1817.00 1852.45 40.70
2535 132.8700 1855.00 1849.63 41.50
2536 132.9200 1904.00 1846.38 42.00
2537 132.9700 1892.00 1842.72 41.80
2538 133.0200 1926.00 1838.70 42.30
2539 133.0700 1889.00 1834.40 41.70
2540 133.1200 1806.00 1829.88 40.80
2541 133.1700 1842.00 1825.24 41.20
2542 133.2200 1786.00 1820.56 40.60
2543 133.2700 1841.00 1815.90 41.00
2544 133.3200 1914.00 1811.32 42.00
2545 133.3700 1961.00 1806.88 42.30
2546 133.4200 1869.00 1801.78 41.30
2547 133.4700 1914.00 1797.74 41.60
2548 133.5200 1913.00 1793.92 41.80
2549 133.5700 1831.00 1790.36 40.30
2550 133.6200 1828.00 1787.06 40.70
2551 133.6700 1819.00 1784.05 40.00
2552 133.7200 1781.00 1781.31 39.80
2553 133.7700 1801.00 1778.85 39.80
2554 133.8200 1836.00 1776.66 40.30
2555 133.8700 1777.00 1774.76 39.30
2556 133.9200 1809.00 1773.12 39.90
2557 133.9700 1802.00 1771.75 39.40
2558 134.0200 1783.00 1770.65 39.40
2559 134.0700 1789.00 1769.79 39.00
2560 134.1200 1735.00 1769.19 38.70
2561 134.1700 1820.00 1768.82 39.20
2562 134.2200 1744.00 1768.70 38.50
2563 134.2700 1711.00 1768.81 37.80
2564 134.3200 1711.00 1769.16 38.10
2565 134.3700 1770.00 1769.74 38.30
2566 134.4200 1847.00 1771.24 39.30
2567 134.4700 1751.00 1772.29 38.00
2568 134.5200 1759.00 1773.58 38.20
2569 134.5700 1703.00 1775.10 37.30
2570 134.6200 1757.00 1776.87 38.10
2571 134.6700 1747.00 1778.89 37.60
2572 134.7200 1713.00 1779.63 37.40
2573 134.7700 1699.00 1782.18 37.10
2574 134.8200 1766.00 1784.99 37.80
2575 134.8700 1768.00 1788.07 38.00
2576 134.9200 1788.00 1791.40 38.10
2577 134.9700 1879.00 1794.98 38.90
2578 135.0200 1786.00 1798.81 38.20
2579 135.0700 1834.00 1802.87 38.30
2580 135.1200 1830.00 1807.13 38.40
2581 135.1700 1829.00 1811.57 38.40
2582 135.2200 1848.00 1816.15 38.40
2583 135.2700 1856.00 1820.82 38.60
2584 135.3200 1834.00 1825.54 38.40
2585 135.3700 1894.00 1830.23 38.90
2586 135.4200 1905.00 1834.82 39.20
2587 135.4700 1878.00 1837.80 38.90
2588 135.5200 1853.00 1841.95 38.50
2589 135.5700 1868.00 1846.41 38.80
2590 135.6200 1909.00 1851.55 39.20
2591 135.6700 1954.00 1854.31 39.70
2592 135.7200 1836.00 1856.40 38.40
2593 135.7700 1881.00 1857.78 39.00
2594 135.8200 1832.00 1858.39 38.40
2595 135.8700 1930.00 1858.23 39.60
2596 135.9200 1874.00 1857.33 39.00
2597 135.9700 1856.00 1855.73 38.80
2598 136.0200 1916.00 1853.53 39.50
2599 136.0700 1784.00 1850.80 38.10
2600 136.1200 1805.00 1847.65 38.30
2601 136.1700 1916.00 1844.19 39.60
2602 136.2200 1797.00 1840.52 38.20
2603 136.2700 1857.00 1836.73 39.20
2604 136.3200 1782.00 1832.90 38.20
2605 136.3700 1790.00 1829.06 38.40
2606 136.4200 1808.00 1825.65 38.70
2607 136.4700 1801.00 1822.10 38.80
2608 136.5200 1796.00 1818.74 38.50
2609 136.5700 1708.00 1815.60 37.80
2610 136.6200 1794.00 1812.70 38.70
2611 136.6700 1749.00 1810.07 38.10
2612 136.7200 1774.00 1807.60 38.50
2613 136.7700 1849.00 1805.32 39.50
2614 136.8200 1773.00 1803.55 38.40
2615 136.8700 1841.00 1802.06 39.40
2616 136.9200 1900.00 1800.86 40.00
2617 136.9700 1812.00 1799.95 38.90
2618 137.0200 1789.00 1805.77 38.90
2619 137.0700 1779.00 1805.42 39.00
2620 137.1200 1758.00 1805.33 38.30
2621 137.1700 1700.00 1805.48 38.00
2622 137.2200 1796.00 1805.85 39.20
2623 137.2700 1773.00 1806.44 38.60
2624 137.3200 1787.00 1807.24 39.00
2625 137.3700 1761.00 1808.23 38.80
2626 137.4200 1805.00 1808.89 39.00
2627 137.4700 1829.00 1810.22 39.30
2628 137.5200 1816.00 1811.69 39.40
2629 137.5700 1728.00 1813.28 38.10
2630 137.6200 1845.00 1814.98 39.50
2631 137.6700 1820.00 1816.74 39.40
2632 137.7200 1819.00 1818.57 39.10
2633 137.7700 1746.00 1820.42 38.50
2634 137.8200 1816.00 1822.28 39.30
2635 137.8700 1742.00 1824.14 38.70
2636 137.9200 1801.00 1825.97 39.10
2637 137.9700 1845.00 1827.78 40.10
2638 138.0200 1760.00 1829.57 38.90
2639 138.0700 1749.00 1831.33 38.60
2640 138.1200 1858.00 1833.08 40.20
2641 138.1700 1821.00 1834.83 39.80
2642 138.2200 1758.00 1836.58 38.70
2643 138.2700 1802.00 1838.32 39.90
2644 138.3200 1733.00 1840.06 38.80
2645 138.3700 1863.00 1841.79 40.30
2646 138.4200 1834.00 1843.48 40.30
2647 138.4700 1769.00 1845.11 39.70
2648 138.5200 1823.00 1846.67 39.90
2649 138.5700 1841.00 1848.11 40.80
2650 138.6200 1851.00 1849.41 40.60
2651 138.6700 1766.00 1850.54 39.70
2652 138.7200 1808.00 1851.52 40.40
2653 138.7700 1827.00 1852.32 40.60
2654 138.8200 1838.00 1852.97 40.50
2655 138.8700 1764.00 1853.49 40.40
2656 138.9200 1874.00 1853.94 41.20
2657 138.9700 1888.00 1854.36 41.40
2658 139.0200 1832.00 1854.82 41.20
2659 139.0700 1898.00 1855.41 41.50
2660 139.1200 1802.00 1856.20 40.50
2661 139.1700 1841.00 1857.29 41.30
2662 139.2200 1792.00 1858.75 40.30
2663 139.2700 1957.00 1860.68 42.50
2664 139.3200 1870.00 1863.16 41.70
2665 139.3700 1814.00 1866.27 40.80
2666 139.4200 1819.00 1870.07 40.90
2667 139.4700 1813.00 1874.64 41.00
2668 139.5200 1916.00 1880.00 41.90
2669 139.5700 1945.00 1886.15 42.10
2670 139.6200 1881.00 1893.16 41.70
2671 139.6700 1925.00 1900.92 41.70
2672 139.7200 1877.00 1909.33 41.40
2673 139.7700 1885.00 1918.19 41.40
2674 139.8200 1943.00 1927.23 41.90
2675 139.8700 1845.00 1936.04 40.80
2676 139.9200 1871.00 1944.13 41.30
2677 139.9700 1928.00 1950.96 41.50
2678 140.0200 1951.00 1956.05 41.90
2679 140.0700 1903.00 1959.11 41.10
2680 140.1200 1974.00 1960.08 41.90
2681 140.1700 1907.00 1959.21 41.00
2682 140.2200 1949.00 1956.96 41.60
2683 140.2700 2000.00 1953.93 41.80
2684 140.3200 1873.00 1950.67 40.70
2685 140.3700 1938.00 1947.69 41.00
2686 140.4200 1947.00 1944.10 41.30
2687 140.4700 1903.00 1942.71 40.60
2688 140.5200 1868.00 1942.41 40.30
2689 140.5700 1900.00 1943.28 40.30
2690 140.6200 1890.00 1945.37 40.50
2691 140.6700 1939.00 1948.65 40.60
2692 140.7200 1887.00 1953.06 40.10
2693 140.7700 1958.00 1958.49 40.80
2694 140.8200 1907.00 1964.82 40.30
2695 140.8700 1928.00 1971.89 40.40
2696 140.9200 1940.00 1979.50 40.60
2697 140.9700 1984.00 1987.42 40.90
2698 141.0200 1899.00 1995.42 40.10
2699 141.0700 1952.00 2003.24 40.60
2700 141.1200 2022.00 2010.63 41.30
2701 141.1700 1973.00 2017.39 40.70
2702 141.2200 1979.00 2023.35 40.90
2703 141.2700 2010.00 2028.45 41.10
2704 141.3200 2027.00 2032.72 41.20
2705 141.3700 2053.00 2036.18 41.50
2706 141.4200 2095.00 2039.32 41.90
2707 141.4700 1973.00 2041.76 40.60
2708 141.5200 2114.00 2044.98 42.10
2709 141.5700 1996.00 2048.77 40.90
2710 141.6200 2048.00 2053.47 41.40
2711 141.6700 1958.00 2059.35 40.40
2712 141.7200 2045.00 2066.63 41.40
2713 141.7700 2113.00 2075.46 42.10
2714 141.8200 2062.00 2085.88 41.50
2715 141.8700 2061.00 2097.83 41.60
2716 141.9200 2034.00 2111.10 41.30
2717 141.9700 2149.00 2125.33 42.40
2718 142.0200 2131.00 2139.97 42.30
2719 142.0700 2067.00 2154.26 41.60
2720 142.1200 2080.00 2167.28 41.70
2721 142.1700 2183.00 2177.94 42.70
2722 142.2200 2112.00 2185.21 42.00
2723 142.2700 2233.00 2188.18 43.20
2724 142.3200 2163.00 2186.35 42.50
2725 142.3700 2160.00 2179.67 42.60
2726 142.4200 2171.00 2168.57 42.60
2727 142.4700 2143.00 2153.87 42.40
2728 142.5200 2146.00 2136.59 42.50
2729 142.5700 2056.00 2117.74 41.40
2730 142.6200 2210.00 2098.29 43.00
2731 142.6700 2028.00 2078.97 41.20
2732 142.7200 2018.00 2060.10 41.00
2733 142.7700 2066.00 2042.57 41.50
2734 142.8200 2025.00 2026.36 41.20
2735 142.8700 2025.00 2011.59 41.10
2736 142.9200 1974.00 1998.31 40.60
2737 142.9700 2115.00 1986.50 42.20
2738 143.0200 1971.00 1976.12 40.60
2739 143.0700 1935.00 1967.10 40.00
2740 143.1200 1984.00 1959.41 40.90
2741 143.1700 1937.00 1952.98 40.20
2742 143.2200 1942.00 1947.77 40.10
2743 143.2700 1869.00 1943.75 39.60
2744 143.3200 1853.00 1940.88 39.30
2745 143.3700 1936.00 1939.12 40.20
2746 143.4200 1939.00 1938.46 40.40
2747 143.4700 1996.00 1938.89 40.90
2748 143.5200 1848.00 1940.39 39.30
2749 143.5700 1882.00 1943.00 39.70
2750 143.6200 1908.00 1946.75 40.00
2751 143.6700 1830.00 1951.68 39.10
2752 143.7200 1870.00 1957.86 39.60
2753 143.7700 1910.00 1965.38 40.20
2754 143.8200 1869.00 1974.32 39.50
2755 143.8700 1952.00 1984.79 40.50
2756 143.9200 1861.00 1996.85 39.60
2757 143.9700 1925.00 2010.57 40.20
2758 144.0200 2048.00 2026.06 41.50
2759 144.0700 1929.00 2043.33 40.40
2760 144.1200 1977.00 2062.33 40.70
2761 144.1700 1952.00 2082.97 40.50
2762 144.2200 2109.00 2105.06 42.20
2763 144.2700 2097.00 2128.26 42.20
2764 144.3200 2033.00 2152.10 41.40
2765 144.3700 2158.00 2175.87 43.10
2766 144.4200 2154.00 2198.64 42.80
2767 144.4700 2159.00 2219.27 43.00
2768 144.5200 2127.00 2236.48 42.80
2769 144.5700 2141.00 2249.05 42.80
2770 144.6200 2184.00 2256.03 43.20
2771 144.6700 2138.00 2256.89 43.20
2772 144.7200 2069.00 2251.74 42.10
2773 144.7700 2176.00 2241.23 43.70
2774 144.8200 2199.00 2226.41 43.80
2775 144.8700 2147.00 2208.53 43.60
2776 144.9200 2108.00 2188.84 43.10
2777 144.9700 2079.00 2168.41 43.10
2778 145.0200 2095.00 2148.17 43.10
2779 145.0700 2014.00 2128.76 42.50
2780 145.1200 2001.00 2110.69 42.30
2781 145.1700 2056.00 2094.28 43.10
2782 145.2200 1979.00 2079.74 42.20
2783 145.2700 2006.00 2067.22 42.80
2784 145.3200 1987.00 2056.74 42.30
2785 145.3700 1971.00 2048.34 42.40
2786 145.4200 1925.00 2042.01 41.90
2787 145.4700 1908.00 2037.71 41.70
2788 145.5200 1989.00 2035.40 42.60
2789 145.5700 1999.00 2035.06 43.00
2790 145.6200 1915.00 2036.69 41.80
2791 145.6700 1961.00 2040.29 42.50
2792 145.7200 1938.00 2045.93 42.30
2793 145.7700 2022.00 2053.71 43.20
2794 145.8200 1961.00 2063.80 42.50
2795 145.8700 1988.00 2076.44 42.90
2796 145.9200 1949.00 2091.97 42.40
2797 145.9700 2018.00 2110.79 42.90
2798 146.0200 1957.00 2133.46 42.60
2799 146.0700 2034.00 2160.61 42.90
2800 146.1200 2107.00 2193.03 43.90
2801 146.1700 2039.00 2231.60 43.20
2802 146.2200 2089.00 2277.31 43.50
2803 146.2700 2081.00 2331.25 43.40
2804 146.3200 2162.00 2394.56 44.40
2805 146.3700 2322.00 2468.45 45.60
2806 146.4200 2449.00 2553.99 47.00
2807 146.4700 2585.00 2652.23 48.20
2808 146.5200 2781.00 2764.01 49.90
2809 146.5700 2874.00 2889.92 50.50
2810 146.6200 3034.00 3030.17 52.20
2811 146.6700 3409.00 3184.33 54.80
2812 146.7200 3709.00 3351.43 57.40
2813 146.7700 3896.00 3529.32 58.60
2814 146.8200 4041.00 3714.91 59.60
2815 146.8700 4188.00 3903.43 60.60
2816 146.9200 4429.00 4088.21 62.50
2817 146.9700 4544.00 4260.88 62.80
2818 147.0200 4621.00 4411.37 63.70
2819 147.0700 4510.00 4529.31 62.50
2820 147.1200 4717.00 4605.14 64.00
2821 147.1700 4695.00 4632.21 63.80
2822 147.2200 4635.00 4608.14 63.40
2823 147.2700 4627.00 4535.37 63.20
2824 147.3200 4638.00 4420.42 63.40
2825 147.3700 4489.00 4272.66 62.20
2826 147.4200 4172.00 4102.35 60.00
2827 147.4700 3917.00 3919.25 58.10
2828 147.5200 3719.00 3731.92 56.70
2829 147.5700 3472.00 3546.79 54.40
2830 147.6200 3386.00 3368.89 54.00
2831 147.6700 3058.00 3201.49 51.20
2832 147.7200 2915.00 3046.77 49.80
2833 147.7700 2658.00 2905.88 47.60
2834 147.8200 2484.00 2779.12 46.20
2835 147.8700 2443.00 2666.47 45.60
2836 147.9200 2419.00 2567.32 45.40
2837 147.9700 2247.00 2480.90 43.90
2838 148.0200 2161.00 2406.18 42.90
2839 148.0700 2151.00 2341.99 42.50
2840 148.1200 2090.00 2287.19 42.30
2841 148.1700 2034.00 2240.60 41.30
2842 148.2200 2025.00 2201.14 41.30
2843 148.2700 2011.00 2167.77 41.20
2844 148.3200 2007.00 2139.53 41.00
2845 148.3700 1987.00 2115.64 40.70
2846 148.4200 1988.00 2095.38 41.00
2847 148.4700 1969.00 2078.15 40.50
2848 148.5200 1988.00 2063.46 40.70
2849 148.5700 1912.00 2050.90 40.00
2850 148.6200 1965.00 2040.12 40.40
2851 148.6700 1975.00 2030.86 40.30
2852 148.7200 1994.00 2022.90 40.80
2853 148.7700 1958.00 2016.07 40.30
2854 148.8200 1899.00 2010.24 39.50
2855 148.8700 1987.00 2005.29 40.70
2856 148.9200 1947.00 2001.14 40.20
2857 148.9700 1944.00 1997.73 40.00
2858 149.0200 1969.00 1995.00 40.50
2859 149.0700 1917.00 1992.93 39.80
2860 149.1200 1890.00 1991.48 39.50
2861 149.1700 1929.00 1990.65 39.90
2862 149.2200 1969.00 1990.44 40.30
2863 149.2700 2044.00 1990.86 41.00
2864 149.3200 1963.00 1991.93 40.20
2865 149.3700 1951.00 1993.59 40.20
2866 149.4200 2008.00 1996.03 40.70
2867 149.4700 1938.00 1999.21 40.00
2868 149.5200 1979.00 2003.16 40.50
2869 149.5700 1994.00 2007.95 40.60
2870 149.6200 2062.00 2013.61 41.30
2871 149.6700 2063.00 2020.20 41.30
2872 149.7200 1993.00 2027.77 40.60
2873 149.7700 2084.00 2036.37 41.40
2874 149.8200 1976.00 2046.07 40.40
2875 149.8700 2069.00 2056.91 41.40
2876 149.9200 2091.00 2068.94 41.40
2877 149.9700 2015.00 2082.21 40.80
2878 150.0200 2115.00 2096.76 41.90
2879 150.0700 2180.00 2112.64 42.30
2880 150.1200 2238.00 2129.87 43.00
2881 150.1700 2189.00 2148.47 42.70
2882 150.2200 2263.00 2168.43 43.10
2883 150.2700 2156.00 2189.73 42.30
2884 150.3200 2386.00 2212.35 44.60
2885 150.3700 2371.00 2236.21 44.30
2886 150.4200 2518.00 2261.20 45.80
2887 150.4700 2381.00 2287.18 44.90
2888 150.5200 2542.00 2313.97 45.90
2889 150.5700 2534.00 2341.38 46.00
2890 150.6200 2549.00 2369.15 46.40
2891 150.6700 2538.00 2397.03 46.20
2892 150.7200 2632.00 2424.75 46.90
2893 150.7700 2618.00 2452.05 47.30
2894 150.8200 2641.00 2478.70 47.20
2895 150.8700 2748.00 2504.45 48.30
2896 150.9200 2686.00 2529.10 47.90
2897 150.9700 2762.00 2552.41 48.40
2898 151.0200 2722.00 2574.17 48.10
2899 151.0700 2768.00 2594.11 49.00
2900 151.1200 2808.00 2611.95 48.80
2901 151.1700 2728.00 2627.21 48.50
2902 151.2200 2734.00 2639.88 48.70
2903 151.2700 2652.00 2649.53 48.00
2904 151.3200 2726.00 2655.97 48.40
2905 151.3700 2705.00 2659.09 48.80
2906 151.4200 2710.00 2658.95 48.50
2907 151.4700 2607.00 2655.74 47.80
2908 151.5200 2627.00 2649.74 48.20
2909 151.5700 2637.00 2641.28 48.20
2910 151.6200 2580.00 2630.73 47.60
2911 151.6700 2519.00 2618.40 47.40
2912 151.7200 2555.00 2604.60 47.40
2913 151.7700 2549.00 2589.59 47.70
2914 151.8200 2555.00 2573.63 47.70
2915 151.8700 2588.00 2557.00 48.00
2916 151.9200 2468.00 2540.02 46.90
2917 151.9700 2628.00 2523.02 48.60
2918 152.0200 2569.00 2506.34 47.80
2919 152.0700 2490.00 2490.29 47.40
2920 152.1200 2506.00 2475.14 47.40
2921 152.1700 2583.00 2461.13 48.30
2922 152.2200 2554.00 2448.41 48.10
2923 152.2700 2529.00 2437.12 47.80
2924 152.3200 2520.00 2427.32 47.70
2925 152.3700 2590.00 2419.08 48.50
2926 152.4200 2546.00 2412.42 47.90
2927 152.4700 2557.00 2407.38 47.80
2928 152.5200 2568.00 2403.99 48.30
2929 152.5700 2436.00 2402.24 46.40
2930 152.6200 2530.00 2402.14 47.60
2931 152.6700 2567.00 2403.68 47.80
2932 152.7200 2542.00 2406.80 47.40
2933 152.7700 2581.00 2411.46 47.70
2934 152.8200 2530.00 2417.57 47.50
2935 152.8700 2653.00 2425.04 48.10
2936 152.9200 2604.00 2433.76 47.90
2937 152.9700 2656.00 2443.60 48.20
2938 153.0200 2505.00 2454.45 46.80
2939 153.0700 2568.00 2466.18 47.20
2940 153.1200 2660.00 2478.68 48.20
2941 153.1700 2633.00 2491.83 47.50
2942 153.2200 2605.00 2505.54 47.50
2943 153.2700 2634.00 2519.69 47.50
2944 153.3200 2589.00 2534.17 47.10
2945 153.3700 2583.00 2548.88 46.90
2946 153.4200 2597.00 2563.68 47.20
2947 153.4700 2674.00 2578.40 47.40
2948 153.5200 2721.00 2592.85 48.20
2949 153.5700 2760.00 2606.81 48.20
2950 153.6200 2758.00 2620.02 48.10
2951 153.6700 2825.00 2632.23 48.80
2952 153.7200 2836.00 2643.17 48.80
2953 153.7700 2731.00 2652.62 47.70
2954 153.8200 2724.00 2660.40 47.90
2955 153.8700 2792.00 2666.37 48.30
2956 153.9200 2762.00 2670.46 47.90
2957 153.9700 2735.00 2672.57 47.60
2958 154.0200 2726.00 2672.93 47.70
2959 154.0700 2735.00 2671.49 47.30
2960 154.1200 2716.00 2668.31 47.50
2961 154.1700 2760.00 2663.43 47.70
2962 154.2200 2705.00 2656.89 47.00
2963 154.2700 2664.00 2648.71 46.70
2964 154.3200 2614.00 2638.91 46.40
2965 154.3700 2676.00 2627.53 46.60
2966 154.4200 2570.00 2614.64 45.90
2967 154.4700 2535.00 2600.35 45.60
2968 154.5200 2541.00 2584.82 45.40
2969 154.5700 2477.00 2568.25 45.00
2970 154.6200 2453.00 2550.90 44.90
2971 154.6700 2510.00 2533.01 44.90
2972 154.7200 2336.00 2514.46 43.70
2973 154.7700 2323.00 2496.36 43.50
2974 154.8200 2397.00 2478.53 43.90
2975 154.8700 2281.00 2461.18 43.10
2976 154.9200 2283.00 2444.56 43.10
2977 154.9700 2286.00 2428.80 42.90
2978 155.0200 2276.00 2414.01 43.10
2979 155.0700 2289.00 2400.30 43.00
2980 155.1200 2291.00 2387.71 42.90
2981 155.1700 2259.00 2376.25 42.90
2982 155.2200 2223.00 2365.92 42.40
2983 155.2700 2272.00 2356.68 42.90
2984 155.3200 2296.00 2348.45 43.30
2985 155.3700 2275.00 2341.17 43.10
2986 155.4200 2318.00 2334.73 43.40
2987 155.4700 2296.00 2329.02 43.30
2988 155.5200 2312.00 2323.93 43.50
2989 155.5700 2302.00 2319.31 43.30
2990 155.6200 2205.00 2315.04 42.50
2991 155.6700 2231.00 2310.98 42.70
2992 155.7200 2162.00 2307.01 41.90
2993 155.7700 2328.00 2303.02 43.70
2994 155.8200 2303.00 2298.92 43.40
2995 155.8700 2343.00 2294.62 43.90
2996 155.9200 2285.00 2290.07 43.30
2997 155.9700 2393.00 2285.26 44.60
2998 156.0200 2232.00 2280.18 42.90
2999 156.0700 2265.00 2274.87 43.10
3000 156.1200 2245.00 2269.38 43.20
3001 156.1700 2279.00 2263.78 43.40
3002 156.2200 2264.00 2258.18 43.10
3003 156.2700 2349.00 2252.67 44.30
3004 156.3200 2264.00 2247.37 43.30
3005 156.3700 2223.00 2242.09 43.00
3006 156.4200 2290.00 2237.56 43.80
3007 156.4700 2259.00 2233.58 43.40
3008 156.5200 2240.00 2230.27 43.20
3009 156.5700 2109.00 2227.70 42.00
3010 156.6200 2140.00 2225.98 42.20
3011 156.6700 2177.00 2225.16 42.70
3012 156.7200 2158.00 2225.32 42.50
3013 156.7700 2198.00 2226.49 43.10
3014 156.8200 2063.00 2228.71 41.60
3015 156.8700 2119.00 2232.01 42.40
3016 156.9200 2169.00 2236.37 42.80
3017 156.9700 2166.00 2241.62 42.90
3018 157.0200 2145.00 2248.08 42.70
3019 157.0700 2172.00 2255.54 43.00
3020 157.1200 2140.00 2263.94 42.60
3021 157.1700 2137.00 2273.21 42.70
3022 157.2200 2197.00 2283.24 43.30
3023 157.2700 2228.00 2293.92 44.00
3024 157.3200 2317.00 2305.11 44.50
3025 157.3700 2354.00 2316.65 45.60
3026 157.4200 2252.00 2328.36 44.30
3027 157.4700 2278.00 2339.97 44.80
3028 157.5200 2304.00 2351.33 45.10
3029 157.5700 2346.00 2362.17 45.60
3030 157.6200 2250.00 2372.20 44.50
3031 157.6700 2337.00 2381.15 45.90
3032 157.7200 2449.00 2388.74 46.60
3033 157.7700 2341.00 2394.72 46.00
3034 157.8200 2346.00 2398.87 46.00
3035 157.8700 2444.00 2400.98 47.10
3036 157.9200 2502.00 2400.91 47.50
3037 157.9700 2478.00 2398.59 47.80
3038 158.0200 2340.00 2393.99 46.10
3039 158.0700 2431.00 2387.18 47.20
3040 158.1200 2456.00 2378.26 47.60
3041 158.1700 2312.00 2367.39 46.00
3042 158.2200 2387.00 2354.79 46.70
3043 158.2700 2314.00 2340.71 46.50
3044 158.3200 2416.00 2325.40 47.10
3045 158.3700 2391.00 2309.11 47.10
3046 158.4200 2401.00 2292.13 47.40
3047 158.4700 2284.00 2274.70 45.80
3048 158.5200 2333.00 2257.05 46.50
3049 158.5700 2266.00 2239.39 45.80
3050 158.6200 2344.00 2221.92 46.40
3051 158.6700 2212.00 2204.80 45.00
3052 158.7200 2326.00 2188.17 46.40
3053 158.7700 2179.00 2169.92 44.60
3054 158.8200 2186.00 2154.66 44.70
3055 158.8700 2151.00 2140.19 44.30
3056 158.9200 2059.00 2125.68 43.40
3057 158.9700 2158.00 2113.03 44.10
3058 159.0200 2112.00 2101.34 43.90
3059 159.0700 2090.00 2090.63 43.30
3060 159.1200 2165.00 2080.92 44.10
3061 159.1700 2129.00 2072.22 43.60
3062 159.2200 2074.00 2064.50 43.20
3063 159.2700 2036.00 2057.76 42.40
3064 159.3200 2069.00 2051.96 42.90
3065 159.3700 2088.00 2047.06 42.90
3066 159.4200 2046.00 2043.03 42.50
3067 159.4700 2113.00 2039.79 42.90
3068 159.5200 2073.00 2037.30 42.70
3069 159.5700 2079.00 2035.49 42.50
3070 159.6200 2126.00 2034.29 43.10
3071 159.6700 2083.00 2033.50 42.40
3072 159.7200 2112.00 2033.27 42.80
3073 159.7700 2118.00 2033.40 42.60
3074 159.8200 2122.00 2033.82 42.80
3075 159.8700 2098.00 2034.43 42.40
3076 159.9200 2101.00 2035.16 42.50
3077 159.9700 2176.00 2035.92 43.10
3078 160.0200 2168.00 2036.66 43.20
3079 160.0700 2082.00 2037.29 42.10
loop_
_pd_proc_info_excluded_regions
'from 3.646 to 6.000'
'from 160 to 164.765'
loop_
_refln_index_h
_refln_index_k
_refln_index_l
_refln_index_m_1
_refln_F_squared_calc
_refln_F_squared_meas
_refln_observed_status
_refln_d_spacing
0 0 0 2 0.77 0.59 o 14.592187
0 0 0 4 0.00 0.00 < 7.296093
0 0 1 -3 0.81 1.56 o 5.929430
1 0 0 -3 2.60 2.58 o 4.594018
0 0 1 -1 55.48 54.79 o 4.524476
1 0 1 -4 0.55 0.47 o 4.261823
1 0 0 -1 17.08 14.66 o 4.203638
0 1 0 1 9.46 8.08 o 3.896727
1 0 0 1 5.04 1.40 o 3.646792
0 1 0 3 0.24 0.09 o 3.645427
0 0 1 1 3.58 2.12 o 3.565759
0 1 1 -4 0.05 0.06 o 3.401196
1 0 1 -2 2.55 2.84 o 3.345080
0 1 1 -2 9.60 10.50 o 3.128746
1 0 0 3 0.06 0.06 o 3.113052
1 1 0 -4 0.13 0.13 o 3.001738
-1 0 1 -2 17.80 17.27 o 2.948688
1 1 0 -2 0.75 0.74 o 2.942510
0 0 1 3 0.63 0.61 o 2.913066
-1 0 1 -4 0.34 0.33 o 2.912310
-1 0 1 0 155.32 155.31 o 2.868720
0 1 1 0 160.89 162.28 o 2.803219
1 1 0 0 146.65 145.67 o 2.779916
1 0 1 0 163.76 160.42 o 2.741279
1 1 1 -3 0.92 0.88 o 2.714413
-1 0 1 2 6.62 6.22 o 2.697707
0 0 2 -4 29.30 22.21 o 2.582943
1 1 0 2 0.04 0.03 o 2.559069
0 1 1 2 5.09 3.75 o 2.486407
-1 0 1 4 2.25 1.69 o 2.479213
1 1 1 -1 98.87 101.08 o 2.392303
-1 1 1 -3 8.09 8.34 o 2.357246
-1 1 1 -1 94.20 94.78 o 2.345511
1 1 0 4 0.11 0.11 o 2.322508
1 0 1 2 0.30 0.29 o 2.317624
-1 1 1 1 20.72 23.17 o 2.276440
0 0 2 -2 97.24 107.99 o 2.262238
2 0 0 -4 0.75 0.80 o 2.218116
0 1 1 4 0.57 0.45 o 2.205175
-1 1 1 3 0.04 0.03 o 2.163917
1 0 2 -3 0.00 0.00 < 2.132751
1 1 1 1 8.28 6.83 o 2.116993
2 0 0 -2 38.19 28.52 o 2.101819
0 1 2 -3 0.11 0.07 o 2.057801
2 0 1 -3 0.02 0.02 o 2.028307
1 0 1 4 0.16 0.16 o 2.005372
0 0 2 0 330.90 321.33 o 1.998791
-1 0 2 -3 0.07 0.07 o 1.989955
1 1 2 -4 4.33 4.39 o 1.985569
0 2 0 0 828.87 840.43 o 1.965966
2 0 0 0 661.61 670.83 o 1.965428
0 2 0 2 0.19 0.19 o 1.948363
0 2 0 4 0.06 0.06 o 1.898261
2 1 0 -3 2.53 2.38 o 1.895530
1 1 1 3 1.77 1.77 o 1.886706
2 1 1 -4 0.54 0.54 o 1.881541
-1 0 2 -1 59.92 60.86 o 1.876021
0 1 2 -1 54.37 55.90 o 1.868720
0 2 1 -3 2.08 2.13 o 1.866069
1 0 2 -1 57.07 59.25 o 1.861275
2 0 1 -1 50.22 49.72 o 1.823672
2 0 0 2 16.80 16.12 o 1.823396
-1 1 2 -4 0.01 0.00 < 1.810915
1 2 0 -3 2.22 2.09 o 1.807421
2 1 0 -1 23.60 21.89 o 1.807378
-2 0 1 1 5.00 4.60 o 1.803752
0 2 1 -1 64.50 59.07 o 1.803103
-2 0 1 3 0.01 0.00 < 1.797945
1 2 1 -4 0.20 0.19 o 1.785182
0 0 2 2 10.75 10.66 o 1.782879
-2 0 1 -1 24.19 24.60 o 1.782412
1 2 0 -1 23.80 24.34 o 1.780832
1 1 2 -2 17.66 18.41 o 1.773989
-1 0 2 1 0.24 0.22 o 1.753758
-2 0 1 -3 3.20 3.06 o 1.736677
-1 1 2 -2 37.11 35.52 o 1.735941
1 2 0 1 8.52 8.20 o 1.730519
2 1 1 -2 0.00 0.00 < 1.726746
0 2 1 1 0.62 0.61 o 1.721632
2 1 0 1 5.20 4.57 o 1.706646
0 1 2 1 0.06 0.05 o 1.700152
1 2 1 -2 0.37 0.39 o 1.694916
2 0 0 4 0.02 0.02 o 1.685344
2 0 2 -4 5.07 6.10 o 1.672540
1 2 0 3 0.05 0.05 o 1.662244
1 0 2 1 4.11 4.14 o 1.651019
2 0 1 1 11.62 11.72 o 1.649158
-1 1 2 0 130.05 131.08 o 1.648132
-2 1 1 2 14.23 14.47 o 1.639868
-1 2 1 -2 9.81 9.94 o 1.635738
-2 1 1 0 96.34 97.44 o 1.633931
-1 0 2 3 0.08 0.08 o 1.631856
0 2 1 3 0.54 0.56 o 1.629580
-1 2 1 -4 0.12 0.13 o 1.629448
-2 1 1 4 3.56 3.74 o 1.625324
-1 2 1 0 132.69 142.23 o 1.621694
-2 1 1 -2 16.38 17.09 o 1.608162
0 0 2 4 2.17 2.27 o 1.604811
2 1 0 3 0.02 0.02 o 1.601431
1 1 2 0 183.41 189.87 o 1.598693
1 2 1 0 133.07 137.76 o 1.597589
-1 2 1 2 4.15 4.29 o 1.588827
2 1 1 0 129.11 133.47 o 1.585721
-2 1 1 -4 0.03 0.03 o 1.565248
0 2 2 -4 22.49 26.09 o 1.564373
-1 1 2 2 10.67 12.68 o 1.554482
0 1 2 3 0.10 0.12 o 1.552393
-1 2 1 4 1.58 1.91 o 1.540423
0 0 3 -3 8.29 9.01 o 1.508158
2 0 2 -2 120.75 131.07 o 1.507231
2 0 1 3 3.19 3.48 o 1.500615
1 2 1 2 0.04 0.05 o 1.499228
1 0 3 -4 9.64 10.56 o 1.493996
0 2 2 -2 77.21 81.60 o 1.483918
1 0 2 3 1.21 1.31 o 1.483396
-2 0 2 -4 25.90 27.36 o 1.474344
2 2 0 -4 0.68 0.73 o 1.471255
2 1 2 -3 0.31 0.33 o 1.470681
0 1 3 -4 9.66 11.71 o 1.461997
-2 0 2 -2 12.03 14.09 o 1.461211
-1 1 2 4 3.58 4.37 o 1.460325
2 1 1 2 0.16 0.19 o 1.459596
1 1 2 2 3.56 3.74 o 1.452235
1 2 2 -3 0.01 0.01 o 1.445520
2 2 0 -2 25.52 25.35 o 1.435775
-2 0 2 0 256.89 254.80 o 1.434360
-1 0 3 -4 5.56 5.53 o 1.431865
2 2 1 -3 0.14 0.13 o 1.411673
1 2 1 4 0.21 0.21 o 1.403873
0 2 2 0 230.60 219.20 o 1.401609
3 0 0 -3 4.34 4.45 o 1.401212
3 0 1 -4 0.47 0.48 o 1.400342
-1 2 2 -3 0.45 0.46 o 1.398552
-2 0 2 2 23.53 24.10 o 1.395982
2 2 0 0 482.30 504.62 o 1.389958
0 0 3 -1 26.62 27.82 o 1.387211
-2 1 2 -3 0.90 0.82 o 1.376584
2 0 2 0 166.92 151.93 o 1.370639
-2 1 2 -1 38.27 39.87 o 1.359931
1 0 3 -2 3.75 4.05 o 1.358395
-1 2 2 -1 57.24 62.63 o 1.357231
0 1 3 -2 10.90 11.90 o 1.356863
-1 0 3 -2 13.31 14.22 o 1.355247
1 2 2 -1 56.00 59.16 o 1.351616
-2 0 2 4 5.53 5.46 o 1.348854
2 1 2 -1 58.07 56.12 o 1.348704
2 1 1 4 0.01 0.00 < 1.347808
3 1 0 -4 0.31 0.30 o 1.343135
3 0 0 -1 27.71 25.68 o 1.341425
1 1 3 -3 71.85 68.60 o 1.338114
2 2 1 -1 55.93 53.59 o 1.337008
2 2 0 2 14.03 13.29 o 1.336900
-2 1 2 1 3.93 3.84 o 1.332614
-2 2 1 1 7.71 7.58 o 1.329099
1 1 2 4 0.75 0.69 o 1.328675
-2 2 1 3 0.01 0.00 < 1.326771
0 2 2 2 7.45 6.13 o 1.320682
-2 2 1 -1 27.65 23.39 o 1.320492
-1 1 3 -3 51.11 40.18 o 1.313505
3 0 1 -2 0.88 0.67 o 1.311402
0 3 0 1 5.11 3.82 o 1.309325
-1 2 2 1 0.08 0.06 o 1.308713
-2 2 1 -3 4.91 2.60 o 1.301569
0 3 0 3 0.18 0.09 o 1.298909
-3 0 1 4 3.38 1.69 o 1.296984
-2 1 2 3 0.04 0.00 < 1.296521
3 1 0 -2 2.40 0.61 o 1.295280
0 3 1 -4 0.18 0.11 o 1.286813
-3 0 1 2 10.00 6.09 o 1.284177
0 0 3 1 0.02 0.01 o 1.281363
3 1 1 -3 13.06 7.95 o 1.281187
-1 0 3 0 49.70 31.32 o 1.279784
2 2 0 4 0.18 0.11 o 1.279535
3 0 0 1 1.43 0.91 o 1.278756
2 2 2 -4 4.17 3.03 o 1.273904
0 3 1 -2 7.66 5.78 o 1.270395
1 2 2 1 1.45 1.21 o 1.264318
2 2 1 1 6.04 5.07 o 1.263481
-3 0 1 0 62.82 52.79 o 1.262190
0 1 3 0 76.66 64.31 o 1.262024
1 3 0 -4 0.03 0.02 o 1.261441
1 3 0 -2 0.28 0.23 o 1.256936
2 0 2 2 0.92 0.77 o 1.256103
-1 2 2 3 0.00 0.00 < 1.255650
-1 1 3 -1 0.06 0.05 o 1.249009
0 3 1 0 70.45 64.29 o 1.245417
1 0 3 0 63.33 57.72 o 1.244914
2 1 2 1 1.46 1.33 o 1.243648
1 3 0 0 53.18 48.96 o 1.243352
0 2 2 4 1.32 1.19 o 1.243203
3 1 0 0 89.65 82.53 o 1.243080
1 3 1 -3 1.06 0.96 o 1.237322
1 1 3 -1 2.63 1.88 o 1.233632
-3 0 1 -2 18.54 14.00 o 1.232410
3 0 1 0 74.46 62.21 o 1.228702
-3 1 1 3 1.15 0.90 o 1.227259
1 3 0 2 0.13 0.11 o 1.221548
3 0 0 3 0.63 0.61 o 1.215598
2 0 3 -3 5.08 4.97 o 1.215005
0 3 1 2 2.19 2.09 o 1.213378
-3 1 1 1 3.22 3.12 o 1.212187
3 1 1 -1 6.99 5.91 o 1.207862
-1 0 3 2 16.63 12.84 o 1.207319
2 1 3 -4 10.55 8.15 o 1.206486
1 3 1 -1 38.07 29.17 o 1.201952
-1 3 1 -3 2.63 2.29 o 1.197431
0 2 3 -3 5.82 5.14 o 1.196615
-3 0 1 -4 0.77 0.67 o 1.196516
2 2 2 -2 92.61 82.53 o 1.196151
-1 3 1 -1 39.54 35.64 o 1.195885
2 2 1 3 2.16 1.93 o 1.192836
1 3 0 4 0.07 0.06 o 1.192802
3 0 2 -3 0.81 0.75 o 1.191061
-3 1 1 -1 11.93 12.36 o 1.189670
1 2 3 -4 6.62 6.13 o 1.189504
3 1 0 2 1.07 1.06 o 1.188753
0 0 3 3 0.03 0.03 o 1.188586
-1 3 1 1 2.82 2.89 o 1.186422
-1 1 3 1 0.04 0.04 o 1.185270
1 2 2 3 0.97 0.96 o 1.184133
-2 2 2 -4 19.34 21.10 o 1.179513
-2 0 3 -3 0.00 0.00 < 1.178803
3 1 2 -4 8.33 9.13 o 1.178424
0 1 3 2 13.02 14.14 o 1.176912
0 3 1 4 0.40 0.43 o 1.175979
-2 2 2 -2 9.93 10.89 o 1.172756
-1 3 1 3 0.04 0.04 o 1.169594
1 3 1 1 0.24 0.26 o 1.162011
-3 1 1 -3 4.74 4.95 o 1.160944
2 0 2 4 0.10 0.11 o 1.158812
-2 2 2 0 186.16 194.39 o 1.158737
-1 2 3 -4 4.45 4.64 o 1.157421
3 0 1 2 0.73 0.76 o 1.152642
2 1 2 3 1.44 1.51 o 1.152589
0 3 2 -3 2.89 3.04 o 1.151928
1 0 3 2 9.08 9.47 o 1.148639
-2 0 3 -1 27.94 32.11 o 1.145237
1 1 3 1 0.69 0.80 o 1.143251
-2 1 3 -4 3.06 3.49 o 1.142244
3 2 0 -3 2.56 2.84 o 1.141050
3 2 1 -4 0.25 0.29 o 1.140580
-1 0 3 4 1.69 1.90 o 1.138913
3 1 1 1 0.11 0.13 o 1.138838
1 3 2 -4 1.59 1.77 o 1.138786
-2 2 2 2 16.50 18.23 o 1.138220
3 1 0 4 0.05 0.05 o 1.134066
0 2 3 -1 25.47 28.17 o 1.133451
0 0 4 -4 0.16 0.18 o 1.131119
2 2 2 0 115.04 110.92 o 1.124357
-1 1 3 3 0.12 0.12 o 1.123665
2 0 3 -1 16.49 16.13 o 1.121821
2 3 0 -3 1.41 1.43 o 1.120996
-3 0 2 -1 29.65 29.68 o 1.119883
1 3 1 3 0.32 0.32 o 1.119163
2 1 3 -2 0.06 0.06 o 1.118375
2 3 1 -4 0.16 0.16 o 1.118082
1 2 3 -2 0.54 0.60 o 1.117569
-3 0 2 1 4.49 4.75 o 1.117229
-3 0 2 -3 2.32 2.59 o 1.115972
-1 2 3 -2 4.91 5.81 o 1.115813
0 3 2 -1 25.29 30.30 o 1.115374
-2 1 3 -2 17.32 20.05 o 1.114865
-2 2 2 4 3.53 3.65 o 1.112237
3 0 2 -1 40.27 39.54 o 1.110481
-3 0 2 3 0.16 0.17 o 1.108146
3 2 0 -1 29.78 28.58 o 1.108061
-2 0 3 1 4.00 3.85 o 1.107941
3 1 2 -2 0.45 0.48 o 1.103359
-1 3 2 -4 0.21 0.21 o 1.102707
2 3 0 -1 12.58 17.05 o 1.101907
0 1 3 4 0.90 0.91 o 1.100666
1 3 2 -2 15.05 19.97 o 1.094207
3 2 1 -2 1.86 2.49 o 1.090958
-1 3 2 -2 27.18 31.46 o 1.085098
-2 1 3 0 42.46 48.66 o 1.083345
3 0 1 4 0.01 0.00 < 1.083140
2 3 1 -2 0.42 0.46 o 1.082841
-3 2 1 4 2.30 2.43 o 1.082615
2 3 0 1 3.73 3.76 o 1.077831
-3 1 2 0 48.50 48.66 o 1.076598
0 3 2 1 0.69 0.70 o 1.076190
-3 1 2 -2 16.58 16.62 o 1.076035
-3 2 1 2 7.52 7.58 o 1.075133
3 1 1 3 1.64 1.66 o 1.074563
0 2 3 1 0.19 0.19 o 1.073480
-1 2 3 0 39.72 39.66 o 1.072552
3 2 0 1 1.87 1.88 o 1.071946
-3 1 2 2 8.94 9.07 o 1.071340
-3 1 2 -4 0.52 0.52 o 1.069679
-2 0 3 3 0.01 0.00 < 1.068294
1 0 3 4 0.20 0.20 o 1.065987
1 1 3 3 0.07 0.07 o 1.064498
-1 3 2 0 66.54 65.41 o 1.062626
-3 2 1 0 56.39 55.58 o 1.062132
0 0 4 -2 18.15 17.84 o 1.061964
-3 1 2 4 3.45 3.45 o 1.060511
-2 3 1 2 5.59 5.52 o 1.060401
-2 3 1 0 44.61 44.83 o 1.058790
2 2 2 2 0.69 0.68 o 1.058497
1 0 4 -3 0.73 0.75 o 1.058266
-2 3 1 4 1.78 1.80 o 1.056438
1 1 4 -4 45.94 46.59 o 1.055903
0 1 4 -3 0.00 0.00 < 1.055465
-1 0 4 -3 0.06 0.06 o 1.052644
1 2 3 0 46.66 47.70 o 1.051775
-2 3 1 -2 9.17 9.41 o 1.051682
4 0 0 -4 1.74 1.75 o 1.050909
2 3 0 3 0.01 0.00 < 1.049792
1 3 2 0 95.93 98.02 o 1.049020
-2 1 3 2 17.86 18.18 o 1.048893
2 3 1 0 64.57 64.43 o 1.045330
-3 2 1 -2 13.23 13.21 o 1.044202
3 2 1 0 59.05 59.22 o 1.041944
2 0 3 1 0.78 0.78 o 1.041887
2 1 3 0 58.13 57.15 o 1.041770
-1 1 4 -4 29.16 29.42 o 1.039705
-2 3 1 -4 0.06 0.06 o 1.039400
3 0 3 -4 9.66 9.76 o 1.039164
3 0 2 1 1.46 1.47 o 1.039007
-1 3 2 2 4.37 4.40 o 1.036229
3 1 2 0 98.08 99.67 o 1.035766
0 3 2 3 0.20 0.20 o 1.035610
3 2 0 3 0.12 0.12 o 1.033916
2 2 3 -3 3.87 4.04 o 1.033552
-1 2 3 2 11.70 12.45 o 1.028808
-3 2 1 -4 0.55 0.56 o 1.022099
3 2 2 -3 0.47 0.43 o 1.018692
4 0 0 -2 35.34 31.26 o 1.017563
0 2 3 3 0.00 0.00 < 1.017143
-2 1 3 4 2.22 1.82 o 1.012620
4 0 1 -3 0.00 0.00 < 1.012509
-2 2 3 -3 0.05 0.03 o 1.010991
2 3 2 -3 2.93 2.05 o 1.010254
0 3 3 -4 7.60 5.96 o 1.007426
-1 3 2 4 1.74 1.44 o 1.006878
2 3 1 2 0.07 0.05 o 1.006639
1 3 2 2 1.18 0.99 o 1.004215
-1 0 4 -1 24.12 20.10 o 1.003174
4 1 1 -4 0.40 0.36 o 1.001885
4 1 0 -3 0.97 0.87 o 1.000436
0 0 4 0 45.75 41.37 o 0.999396
2 2 2 4 0.06 0.05 o 0.998295
0 1 4 -1 34.81 32.08 o 0.996287
3 2 1 2 0.83 0.71 o 0.994342
-1 1 4 -2 1.08 0.95 o 0.994256
2 0 4 -4 0.27 0.23 o 0.993903
1 2 3 2 6.35 5.09 o 0.991769
-4 0 1 3 0.16 0.15 o 0.990828
1 1 4 -2 1.60 1.24 o 0.989843
-2 2 3 -1 25.03 19.26 o 0.989577
1 0 4 -1 23.81 17.97 o 0.989506
-1 2 3 4 1.12 1.08 o 0.985488
0 4 0 0 358.97 357.19 o 0.982983
4 0 0 0 147.67 146.80 o 0.982714
0 4 0 2 0.12 0.12 o 0.980760
0 2 4 -4 0.11 0.10 o 0.980426
-2 3 2 -3 2.44 2.44 o 0.978152
-3 0 3 -4 0.99 1.01 o 0.978130
3 0 2 3 2.14 2.20 o 0.975379
3 1 2 2 0.03 0.03 o 0.974865
2 1 3 2 3.43 3.50 o 0.974640
2 2 3 -1 16.33 17.60 o 0.974352
0 4 0 4 0.44 0.44 o 0.974182
-4 0 1 1 16.79 18.24 o 0.974133
3 1 3 -3 32.26 35.48 o 0.973534
-3 2 2 -1 26.13 28.71 o 0.973082
3 0 3 -2 0.79 0.88 o 0.972590
2 0 3 3 0.29 0.29 o 0.972568
-2 3 2 -1 16.20 17.97 o 0.972124
-3 2 2 1 5.66 6.17 o 0.971339
0 3 3 -2 6.70 7.37 o 0.971001
-3 2 2 -3 3.06 3.28 o 0.970513
0 4 1 -3 4.86 5.03 o 0.969748
4 1 0 -1 32.54 33.55 o 0.969393
-3 0 3 -2 11.77 12.02 o 0.969129
2 3 2 -1 34.28 35.03 o 0.967998
2 3 1 4 0.01 0.00 < 0.967666
-2 0 4 -4 1.07 1.07 o 0.967354
-4 1 1 4 3.32 3.38 o 0.967100
3 2 2 -1 37.18 37.49 o 0.966895
4 0 1 -1 29.43 29.66 o 0.966620
3 3 0 -4 0.10 0.10 o 0.965933
-3 2 2 3 0.01 0.00 < 0.965352
-2 2 3 1 4.67 4.59 o 0.965216
1 3 3 -3 52.34 50.64 o 0.964060
-2 3 2 1 4.27 4.08 o 0.961997
1 4 0 -3 1.39 1.37 o 0.961225
4 0 2 -4 0.13 0.13 o 0.961002
0 4 1 -1 72.12 71.66 o 0.960574
1 3 2 4 0.50 0.50 o 0.960512
4 1 1 -2 5.45 5.37 o 0.959430
1 4 1 -4 0.01 0.00 < 0.957836
loop_
_jana_atom_site_displace_legendre_atom_site_label
_jana_atom_site_displace_legendre_axis
_jana_atom_site_displace_legendre_param_order
_jana_atom_site_displace_legendre_param_coeff
Fe1 x 1 0.0300(12)
Fe1 y 1 0
Fe1 z 1 0.0584(10)
Fe1 x 2 0
Fe1 y 2 0
Fe1 z 2 0
Fe1 x 3 -0.025(3)
Fe1 y 3 0
Fe1 z 3 0.090(3)
Fe1 x 4 0
Fe1 y 4 0
Fe1 z 4 0
Pb1 x 1 0.007(2)
Pb1 y 1 0
Pb1 z 1 -0.0299(18)
Pb1 x 2 0
Pb1 y 2 0
Pb1 z 2 0
Pb1 x 3 -0.078(5)
Pb1 y 3 0
Pb1 z 3 0.095(5)
Pb1 x 4 0
Pb1 y 4 0
Pb1 z 4 0
Bi1 x 1 0.007(2)
Bi1 y 1 0
Bi1 z 1 -0.0299(18)
Bi1 x 2 0
Bi1 y 2 0
Bi1 z 2 0
Bi1 x 3 -0.078(5)
Bi1 y 3 0
Bi1 z 3 0.095(5)
Bi1 x 4 0
Bi1 y 4 0
Bi1 z 4 0
O1 x 1 0.033(5)
O1 y 1 0
O1 z 1 0.266(3)
O1 x 2 0
O1 y 2 0
O1 z 2 0
O1 x 3 -0.070(10)
O1 y 3 0
O1 z 3 0.049(6)
O1 x 4 0
O1 y 4 0
O1 z 4 0
O2 x 1 0.055(7)
O2 y 1 0
O2 z 1 0.138(4)
O2 x 2 0
O2 y 2 0
O2 z 2 0
O2 x 3 -0.04(2)
O2 y 3 0
O2 z 3 0.040(14)
O2 x 4 0
O2 y 4 0
O2 z 4 0
O3 x 1 0.024(3)
O3 y 1 0
O3 z 1 0.132(3)
O3 x 2 0
O3 y 2 0
O3 z 2 0
O3 x 3 0
O3 y 3 0
O3 z 3 0.048(9)
O3 x 4 0
O3 y 4 0
O3 z 4 0
loop_
_publcif_info_datablock.id
_publcif_info_datablock.publ_exptl
_publcif_info_datablock.publ_geom
_publcif_info_datablock.structure
{cee8ca83-b94a-4787-9dc0-52cb98080170} ? ? ?
{f107b8ec-5bd8-43c4-a9b2-5ccedc9e6d92} y y y
