#------------------------------------------------------------------------------
#$Date: 2018-07-21 22:54:28 +0300 (Sat, 21 Jul 2018) $
#$Revision: 209177 $
#$URL: file:///home/coder/svn-repositories/cod/cif/2/31/07/2310783.cif $
#------------------------------------------------------------------------------
#
# This file is available in the Crystallography Open Database (COD),
# http://www.crystallography.net/. The original data for this entry
# were provided by IUCr Journals, http://journals.iucr.org/.
#
# The file may be used within the scientific community so long as
# proper attribution is given to the journal article from which the
# data were obtained.
#
data_2310783
loop_
_publ_author_name
'Batuk, Dmitry'
'Batuk, Maria'
'Abakumov, Artem M.'
'Hadermann, Joke'
_publ_section_title
;
 Synergy between transmission electron microscopy and powder diffraction:
 application to modulated structures.
;
_journal_coden_ASTM              ACSBDA
_journal_coeditor_code           DQ5010
_journal_issue                   2
_journal_name_full
;
 Acta Crystallographica, Section B: Structural Science, Crystal Engineering
 and Materials
;
_journal_page_first              127
_journal_page_last               143
_journal_paper_doi               10.1107/S2052520615005466
_journal_volume                  71
_journal_year                    2015
_chemical_formula_sum            'Bi0.428 Fe1.034 O2.736 Pb0.541'
_chemical_formula_weight         303.1
_space_group_crystal_system      monoclinic
_space_group_IT_number           12
_space_group_name_Hall           '-I 2y'
_space_group_name_H-M_alt        'I 1 2/m 1'
_space_group_ssg_name            X2/m(\a0\g)00
_cell_angle_alpha                90
_cell_angle_beta                 91.554(3)
_cell_angle_gamma                90
_cell_formula_units_Z            1
_cell_length_a                   3.91460(13)
_cell_length_b                   3.91271(10)
_cell_length_c                   4.13775(16)
_cell_measurement_temperature    900
_cell_modulation_dimension       1
_cell_volume                     63.353(4)
_diffrn_ambient_temperature      900
_diffrn_radiation_probe          neutron
_diffrn_radiation_wavelength     1.8857
_exptl_absorpt_coefficient_mu    0.005
_exptl_crystal_density_diffrn    7.9432
_exptl_crystal_F_000             129
_pd_instr_location               ' ?'
_pd_meas_2theta_range_inc        0.05
_pd_meas_2theta_range_max        164.600
_pd_meas_2theta_range_min        3.650
_pd_meas_number_of_points        3220
_pd_proc_2theta_range_inc        0.05
_pd_proc_2theta_range_max        159.95
_pd_proc_2theta_range_min        6.05
_pd_proc_ls_background_function  '7 Legendre polynoms'
_pd_proc_ls_pref_orient_corr     none
_pd_proc_ls_profile_function     Pseudo-Voigt
_pd_proc_ls_prof_R_factor        0.0358
_pd_proc_ls_prof_wR_expected     0.0218
_pd_proc_ls_prof_wR_factor       0.0450
_refine_ls_goodness_of_fit_all   2.06
_refine_ls_number_constraints    7
_refine_ls_number_parameters     66
_refine_ls_number_restraints     0
_refine_ls_R_factor_all          0.0528
_refine_ls_R_factor_gt           0.0521
_refine_ls_shift/su_max          0.0527
_refine_ls_shift/su_mean         0.0252
_refine_ls_weighting_scheme      sigma
_refine_ls_wR_factor_all         0.0582
_refine_ls_wR_factor_gt          0.0581
_cod_data_source_file            dq5010sup4.cif
_cod_data_source_block           I
_cod_depositor_comments
;
 Updating space group information.

 Antanas Vaitkus,
 2018-07-22
;
_cod_database_code               2310783
loop_
_space_group_symop_id
_space_group_symop_operation_xyz
1 x,y,z
2 -x,y,-z
3 x+0.5,y+0.5,z+0.5
4 -x+0.5,y+0.5,-z+0.5
5 -x,-y,-z
6 x,-y,z
7 -x+0.5,-y+0.5,-z+0.5
8 x+0.5,-y+0.5,z+0.5
loop_
_space_group_symop_ssg_id
_space_group_symop_ssg_operation_algebraic
1 x1,x2,x3,x4
2 -x1,x2,-x3,-x4
3 -x1,-x2,-x3,-x4
4 x1,-x2,x3,x4
5 x1+1/2,x2+1/2,x3+1/2,x4+1/2
6 -x1+1/2,x2+1/2,-x3+1/2,-x4+1/2
7 -x1+1/2,-x2+1/2,-x3+1/2,-x4+1/2
8 x1+1/2,-x2+1/2,x3+1/2,x4+1/2
loop_
_atom_site_label
_atom_site_type_symbol
_atom_site_fract_x
_atom_site_fract_y
_atom_site_fract_z
_atom_site_adp_type
_atom_site_U_iso_or_equiv
_atom_site_site_symmetry_multiplicity
_atom_site_occupancy
_atom_site_calc_flag
Fe1 Fe 0 0 0 Uiso 0.0096(4) 2 0.51676(10) d
Pb1 Pb 0 0 0 Uiso 0.0438(11) 2 0.27062(6) d
Bi1 Bi 0 0 0 Uiso 0.0438(11) 2 0.2142 d
O1 O 0 0.5 0 Uani 0.0245(18) 2 0.51676(10) d
O2 O 0.5 0 0 Uiso 0.0447(16) 2 0.4088(2) d
O3 O 0 0 0.5 Uiso 0.0498(13) 2 0.44228(10) d
loop_
_atom_site_aniso_label
_atom_site_aniso_type_symbol
_atom_site_aniso_U_11
_atom_site_aniso_U_22
_atom_site_aniso_U_33
_atom_site_aniso_U_12
_atom_site_aniso_U_13
_atom_site_aniso_U_23
O1 O 0.040(4) 0.0046(15) 0.028(3) 0 -0.019(2) 0
loop_
_atom_site_Fourier_wave_vector_seq_id
_jana_atom_site_fourier_wave_vector_q1_coeff
1 1
2 2
loop_
_atom_site_occ_special_func_atom_site_label
_atom_site_occ_special_func_crenel_c
_atom_site_occ_special_func_crenel_w
Fe1 0 0.51676(10)
Pb1 0.5 0.48324(10)
Bi1 0.5 0.4868
O1 0 0.51676(10)
O2 0 0.4088(2)
O3 0 0.44228(10)
loop_
_atom_type_symbol
_atom_type_scat_length_neutron
_atom_type_scat_source
Pb 9.405 International_Tables_Vol_C
Bi 8.532 International_Tables_Vol_C
Fe 9.450 International_Tables_Vol_C
O 5.803 International_Tables_Vol_C
loop_
_cell_wave_vector_seq_id
_cell_wave_vector_x
_cell_wave_vector_y
_cell_wave_vector_z
1 0.040963 0.000000 0.074474
loop_
_geom_angle_atom_site_label_1
_geom_angle_atom_site_label_2
_geom_angle_atom_site_label_3
_geom_angle_site_ssg_symmetry_1
_geom_angle_site_ssg_symmetry_3
_geom_angle_av
_geom_angle_min
_geom_angle_max
O1 Fe1 O1 1_5455 . 155.7(12) 135.3(10) 180.0(5)
O1 Fe1 O1 1_5455 5_4445 83.3(7) 82.6(7) 84.9(6)
O1 Fe1 O1 1_5455 5_4455 79.2(6) 77.7(5) 80.7(6)
O1 Fe1 O1 1_5455 5_5445 79.2(6) 77.7(5) 80.7(6)
O1 Fe1 O1 1_5455 5_5455 83.3(7) 82.6(7) 84.9(6)
O1 Fe1 O2 1_5455 1_4555 87.9(9) 83.0(11) 91.7(8)
O1 Fe1 O2 1_5455 . 87.9(9) 83.0(11) 91.7(8)
O1 Fe1 O3 1_5455 1_5545 93.1(5) 73.0(7) 111.9(4)
O1 Fe1 O3 1_5455 . 93.1(5) 73.0(7) 111.9(4)
O1 Fe1 O1 . 5_4445 83.3(7) 82.6(7) 84.9(6)
O1 Fe1 O1 . 5_4455 79.2(6) 77.7(5) 80.7(6)
O1 Fe1 O1 . 5_5445 79.2(6) 77.7(5) 80.7(6)
O1 Fe1 O1 . 5_5455 83.3(7) 82.6(7) 84.9(6)
O1 Fe1 O2 . 1_4555 87.9(9) 83.0(11) 91.7(8)
O1 Fe1 O2 . . 87.9(9) 83.0(11) 91.7(8)
O1 Fe1 O3 . 1_5545 93.1(5) 73.0(7) 111.9(4)
O1 Fe1 O3 . . 93.1(5) 73.0(7) 111.9(4)
O1 Fe1 O1 5_4445 5_5445 132.6(12) 132.3(12) 133.1(12)
O1 Fe1 O2 5_4445 . 140.8(18) 137.9(18) 144.3(18)
O1 Fe1 O3 5_4445 . 113.3(18) 109.8(18) 114.8(18)
O1 Fe1 O1 5_4455 5_5455 132.6(12) 132.3(12) 133.1(12)
O1 Fe1 O3 5_4455 1_5545 112.8(17) 112.1(17) 113.3(17)
O1 Fe1 O3 5_5445 . 112.8(17) 112.1(17) 113.3(17)
O1 Fe1 O2 5_5455 1_4555 140.8(18) 137.9(18) 144.3(18)
O1 Fe1 O3 5_5455 1_5545 113.3(18) 109.8(18) 114.8(18)
O2 Fe1 O2 1_4555 . 163(2) 146(2) 180.0(5)
O2 Fe1 O3 1_4555 1_5545 90.6(18) 72.4(14) 107.8(19)
O2 Fe1 O3 1_4555 . 91.1(18) 73.9(18) 109(2)
O2 Fe1 O3 . 1_5545 91.1(18) 73.9(18) 109(2)
O2 Fe1 O3 . . 90.6(18) 72.4(14) 107.8(19)
O3 Fe1 O3 1_5545 . 179.4(17) 179.0(19) 180.0(5)
Bi1 Pb1 O1 . 5_4445 100(800) 0 0(4000)
Bi1 Pb1 O1 . 5_4455 100(700) 0 170(30)
Bi1 Pb1 O1 . 5_5445 100(700) 0 170(30)
Bi1 Pb1 O1 . 5_5455 100(800) 0 0(4000)
Bi1 Pb1 O2 . 5_4445 100(400) 0 100(400)
Bi1 Pb1 O2 . 5_4455 100(400) 0 100(400)
Bi1 Pb1 O2 . 5_4545 100(400) 0 100(400)
Bi1 Pb1 O2 . 5_4555 100(400) 0 100(400)
O1 Pb1 O1 5_4445 5_4455 95.0(11) 93.0(9) 106.6(11)
O1 Pb1 O1 5_4445 5_5445 87.4(11) 56.8(8) 108.6(15)
O1 Pb1 O1 5_4445 5_5455 164.5(12) 156.5(14) 180.0(5)
O1 Pb1 O2 5_4445 5_4445 59.6(15) 43.4(10) 70.3(18)
O1 Pb1 O2 5_4445 5_4455 121.2(15) 119.3(15) 123.1(15)
O1 Pb1 O2 5_4445 5_4545 59.6(15) 43.4(10) 70.3(18)
O1 Pb1 O2 5_4445 5_4555 121.2(15) 119.3(15) 123.1(15)
O1 Pb1 O1 5_4455 5_5445 162.0(12) 152.2(9) 180.0(5)
O1 Pb1 O1 5_4455 5_5455 87.4(11) 56.8(8) 108.6(15)
O1 Pb1 O2 5_4455 5_4445 121.5(15) 119.1(15) 126.7(13)
O1 Pb1 O2 5_4455 5_4455 59.6(15) 43.2(11) 70.5(19)
O1 Pb1 O2 5_4455 5_4545 121.5(15) 119.1(15) 126.7(13)
O1 Pb1 O2 5_4455 5_4555 59.6(15) 43.2(11) 70.5(19)
O1 Pb1 O1 5_5445 5_5455 95.0(12) 93.0(11) 106.6(13)
O1 Pb1 O2 5_5445 5_4445 59.6(15) 43.2(11) 70.5(19)
O1 Pb1 O2 5_5445 5_4455 121.5(15) 119.1(15) 126.7(13)
O1 Pb1 O2 5_5445 5_4545 59.6(15) 43.2(11) 70.5(19)
O1 Pb1 O2 5_5445 5_4555 121.5(15) 119.1(15) 126.7(13)
O1 Pb1 O2 5_5455 5_4445 121.2(15) 119.3(15) 123.1(15)
O1 Pb1 O2 5_5455 5_4455 59.6(15) 43.4(10) 70.3(18)
O1 Pb1 O2 5_5455 5_4545 121.2(15) 119.3(15) 123.1(15)
O1 Pb1 O2 5_5455 5_4555 59.6(15) 43.4(10) 70.3(18)
O2 Pb1 O2 5_4445 5_4455 94.2(9) 93.8(12) 94.7(8)
O2 Pb1 O2 5_4445 5_4545 89.7(11) 64.5(7) 107.8(17)
O2 Pb1 O2 5_4445 5_4555 167.4(11) 158.5(13) 180.0(5)
O2 Pb1 O2 5_4455 5_4545 167.4(11) 158.5(13) 180.0(5)
O2 Pb1 O2 5_4455 5_4555 89.7(11) 64.5(7) 107.8(17)
O2 Pb1 O2 5_4545 5_4555 94.2(9) 93.8(12) 94.7(8)
Pb1 Bi1 O1 . 5_4445 100(800) 0 0(4000)
Pb1 Bi1 O1 . 5_4455 100(700) 0 200(1300)
Pb1 Bi1 O1 . 5_5445 100(700) 0 200(1300)
Pb1 Bi1 O1 . 5_5455 100(800) 0 0(4000)
Pb1 Bi1 O2 . 5_4445 100(400) 0 100(600)
Pb1 Bi1 O2 . 5_4455 100(400) 0 100(600)
Pb1 Bi1 O2 . 5_4545 100(400) 0 100(600)
Pb1 Bi1 O2 . 5_4555 100(400) 0 100(600)
O1 Bi1 O1 5_4445 5_4455 95.0(11) 93.0(9) 105.8(11)
O1 Bi1 O1 5_4445 5_5445 87.5(11) 56.6(8) 108.8(15)
O1 Bi1 O1 5_4445 5_5455 164.5(12) 156.1(14) 180.0(5)
O1 Bi1 O2 5_4445 5_4445 59.6(15) 43.4(10) 70.4(18)
O1 Bi1 O2 5_4445 5_4455 121.2(15) 119.3(15) 123.0(15)
O1 Bi1 O2 5_4445 5_4545 59.6(15) 43.4(10) 70.4(18)
O1 Bi1 O2 5_4445 5_4555 121.2(15) 119.3(15) 123.0(15)
O1 Bi1 O1 5_4455 5_5445 162.0(12) 152.1(9) 180.0(5)
O1 Bi1 O1 5_4455 5_5455 87.5(11) 56.6(8) 108.8(15)
O1 Bi1 O2 5_4455 5_4445 121.4(15) 119.1(15) 126.3(13)
O1 Bi1 O2 5_4455 5_4455 59.7(15) 43.2(11) 70.5(19)
O1 Bi1 O2 5_4455 5_4545 121.4(15) 119.1(15) 126.3(13)
O1 Bi1 O2 5_4455 5_4555 59.7(15) 43.2(11) 70.5(19)
O1 Bi1 O1 5_5445 5_5455 95.0(12) 93.0(11) 105.8(13)
O1 Bi1 O2 5_5445 5_4445 59.7(15) 43.2(11) 70.5(19)
O1 Bi1 O2 5_5445 5_4455 121.4(15) 119.1(15) 126.3(13)
O1 Bi1 O2 5_5445 5_4545 59.7(15) 43.2(11) 70.5(19)
O1 Bi1 O2 5_5445 5_4555 121.4(15) 119.1(15) 126.3(13)
O1 Bi1 O2 5_5455 5_4445 121.2(15) 119.3(15) 123.0(15)
O1 Bi1 O2 5_5455 5_4455 59.6(15) 43.4(10) 70.4(18)
O1 Bi1 O2 5_5455 5_4545 121.2(15) 119.3(15) 123.0(15)
O1 Bi1 O2 5_5455 5_4555 59.6(15) 43.4(10) 70.4(18)
O2 Bi1 O2 5_4445 5_4455 94.2(9) 93.8(12) 94.7(8)
O2 Bi1 O2 5_4445 5_4545 89.8(11) 64.4(7) 108.0(17)
O2 Bi1 O2 5_4445 5_4555 167.5(11) 158.5(13) 180.0(5)
O2 Bi1 O2 5_4455 5_4545 167.5(11) 158.5(13) 180.0(5)
O2 Bi1 O2 5_4455 5_4555 89.8(11) 64.4(7) 108.0(17)
O2 Bi1 O2 5_4545 5_4555 94.2(9) 93.8(12) 94.7(8)
Fe1 O1 Fe1 . 1_5655 155.7(11) 135.3(8) 180.0(5)
Fe1 O1 Fe1 . 5_4545 96.7(7) 92.9(5) 98.9(9)
Fe1 O1 Fe1 . 5_4555 100.8(5) 99.5(6) 102.2(5)
Fe1 O1 Fe1 . 5_5545 100.8(5) 99.5(6) 102.2(5)
Fe1 O1 Fe1 . 5_5555 96.7(7) 92.9(5) 98.9(9)
Fe1 O1 Pb1 . 5_4545 87.1(7) 73.1(4) 103.5(9)
Fe1 O1 Pb1 . 5_4555 87.2(7) 68.7(4) 101.6(6)
Fe1 O1 Pb1 . 5_5545 87.2(7) 68.7(4) 101.6(6)
Fe1 O1 Pb1 . 5_5555 87.1(7) 73.1(4) 103.5(9)
Fe1 O1 Bi1 . 5_4545 87.1(7) 73.1(4) 103.4(9)
Fe1 O1 Bi1 . 5_4555 87.2(7) 68.7(4) 101.5(6)
Fe1 O1 Bi1 . 5_5545 87.2(7) 68.7(4) 101.5(6)
Fe1 O1 Bi1 . 5_5555 87.1(7) 73.1(4) 103.4(9)
Fe1 O1 Fe1 1_5655 5_4545 96.7(7) 92.9(5) 98.9(9)
Fe1 O1 Fe1 1_5655 5_4555 100.8(5) 99.5(6) 102.2(5)
Fe1 O1 Fe1 1_5655 5_5545 100.8(5) 99.5(6) 102.2(5)
Fe1 O1 Fe1 1_5655 5_5555 96.7(7) 92.9(5) 98.9(9)
Fe1 O1 Pb1 1_5655 5_4545 87.1(7) 73.1(4) 103.5(9)
Fe1 O1 Pb1 1_5655 5_4555 87.2(7) 68.7(4) 101.6(6)
Fe1 O1 Pb1 1_5655 5_5545 87.2(7) 68.7(4) 101.6(6)
Fe1 O1 Pb1 1_5655 5_5555 87.1(7) 73.1(4) 103.5(9)
Fe1 O1 Bi1 1_5655 5_4545 87.1(7) 73.1(4) 103.4(9)
Fe1 O1 Bi1 1_5655 5_4555 87.2(7) 68.7(4) 101.5(6)
Fe1 O1 Bi1 1_5655 5_5545 87.2(7) 68.7(4) 101.5(6)
Fe1 O1 Bi1 1_5655 5_5555 87.1(7) 73.1(4) 103.4(9)
Fe1 O1 Fe1 5_4545 5_5545 136.6(8) 134.6(9) 138.8(8)
Fe1 O1 Fe1 5_4555 5_5555 136.6(8) 134.6(8) 138.8(8)
Pb1 O1 Pb1 5_4545 5_4555 90.0(11) 85.9(11) 105.2(13)
Pb1 O1 Pb1 5_4545 5_5545 85.5(9) 57.3(6) 105.8(13)
Pb1 O1 Pb1 5_4545 5_5555 171.6(13) 167.8(18) 180.0(5)
Pb1 O1 Bi1 5_4545 5_4545 0.1(6) 0.0(5) 0.6(9)
Pb1 O1 Bi1 5_4545 5_4555 89.9(11) 85.9(11) 105.2(13)
Pb1 O1 Bi1 5_4545 5_5545 85.5(9) 57.3(6) 105.8(13)
Pb1 O1 Bi1 5_4545 5_5555 171.5(13) 167.5(18) 180.0(5)
Pb1 O1 Pb1 5_4555 5_5545 162.9(11) 152.4(9) 180.0(5)
Pb1 O1 Pb1 5_4555 5_5555 85.5(9) 57.3(6) 105.8(14)
Pb1 O1 Bi1 5_4555 5_4545 89.9(11) 85.9(11) 104.5(15)
Pb1 O1 Bi1 5_4555 5_4555 0.0(5) 0.0(5) 0.2(7)
Pb1 O1 Bi1 5_4555 5_5545 162.9(11) 152.2(9) 180.0(5)
Pb1 O1 Bi1 5_4555 5_5555 85.5(9) 57.1(6) 106.0(14)
Pb1 O1 Pb1 5_5545 5_5555 90.0(11) 85.9(11) 105.2(15)
Pb1 O1 Bi1 5_5545 5_4545 85.5(9) 57.1(6) 106.0(14)
Pb1 O1 Bi1 5_5545 5_4555 162.9(11) 152.2(9) 180.0(5)
Pb1 O1 Bi1 5_5545 5_5545 0.0(5) 0.0(5) 0.2(7)
Pb1 O1 Bi1 5_5545 5_5555 89.9(11) 85.9(11) 104.5(15)
Pb1 O1 Bi1 5_5555 5_4545 171.5(13) 167.5(18) 180.0(5)
Pb1 O1 Bi1 5_5555 5_4555 85.5(9) 57.3(6) 105.8(13)
Pb1 O1 Bi1 5_5555 5_5545 89.9(11) 85.9(11) 105.2(13)
Pb1 O1 Bi1 5_5555 5_5555 0.1(6) 0.0(5) 0.6(9)
Bi1 O1 Bi1 5_4545 5_4555 89.9(11) 85.9(11) 104.5(13)
Bi1 O1 Bi1 5_4545 5_5545 85.6(9) 57.2(6) 105.9(13)
Bi1 O1 Bi1 5_4545 5_5555 171.4(13) 167.5(18) 180.0(5)
Bi1 O1 Bi1 5_4555 5_5545 162.9(11) 152.3(8) 180.0(5)
Bi1 O1 Bi1 5_4555 5_5555 85.6(9) 57.2(6) 105.9(14)
Bi1 O1 Bi1 5_5545 5_5555 89.9(11) 85.9(11) 104.5(15)
Fe1 O2 Fe1 . 1_6555 161.6(19) 144.9(16) 179.9(4)
Fe1 O2 Pb1 . 5_5445 90.0(13) 74.9(9) 107.4(13)
Fe1 O2 Pb1 . 5_5455 88.1(14) 75.5(9) 96(2)
Fe1 O2 Pb1 . 5_5545 90.0(13) 74.9(9) 107.4(13)
Fe1 O2 Pb1 . 5_5555 88.1(14) 75.5(9) 96(2)
Fe1 O2 Bi1 . 5_5445 90.0(13) 75.0(9) 107.0(13)
Fe1 O2 Bi1 . 5_5455 88.1(14) 75.4(9) 96(2)
Fe1 O2 Bi1 . 5_5545 90.0(13) 75.0(9) 107.0(13)
Fe1 O2 Bi1 . 5_5555 88.1(14) 75.4(9) 96(2)
Fe1 O2 Pb1 1_6555 5_5445 88.0(14) 75.5(9) 96(2)
Fe1 O2 Pb1 1_6555 5_5455 90.1(13) 75.0(9) 107.5(13)
Fe1 O2 Pb1 1_6555 5_5545 88.0(14) 75.5(9) 96(2)
Fe1 O2 Pb1 1_6555 5_5555 90.1(13) 75.0(9) 107.5(13)
Fe1 O2 Bi1 1_6555 5_5445 88.0(14) 75.4(9) 96(2)
Fe1 O2 Bi1 1_6555 5_5455 90.1(13) 75.1(9) 107.1(13)
Fe1 O2 Bi1 1_6555 5_5545 88.0(14) 75.4(9) 96(2)
Fe1 O2 Bi1 1_6555 5_5555 90.1(13) 75.1(9) 107.1(13)
Pb1 O2 Pb1 5_5445 5_5455 90.4(6) 88.4(4) 95.9(6)
Pb1 O2 Pb1 5_5445 5_5545 89.4(11) 64.2(5) 108(2)
Pb1 O2 Pb1 5_5445 5_5555 166.5(11) 159.0(10) 179.9(4)
Pb1 O2 Bi1 5_5445 5_5445 0.1(6) 0.0(5) 0.5(7)
Pb1 O2 Bi1 5_5445 5_5455 90.3(6) 88.4(4) 95.9(4)
Pb1 O2 Bi1 5_5445 5_5545 89.4(11) 64.2(5) 108(2)
Pb1 O2 Bi1 5_5445 5_5555 166.5(11) 158.7(10) 180.0(5)
Pb1 O2 Pb1 5_5455 5_5545 166.5(11) 159.0(9) 179.9(5)
Pb1 O2 Pb1 5_5455 5_5555 89.7(11) 64.3(6) 108(2)
Pb1 O2 Bi1 5_5455 5_5445 90.3(6) 88.4(4) 96.0(4)
Pb1 O2 Bi1 5_5455 5_5455 0.1(6) 0.0(5) 0.5(7)
Pb1 O2 Bi1 5_5455 5_5545 166.5(11) 158.7(10) 179.9(5)
Pb1 O2 Bi1 5_5455 5_5555 89.7(11) 64.3(6) 108(2)
Pb1 O2 Pb1 5_5545 5_5555 90.4(6) 88.4(4) 95.9(6)
Pb1 O2 Bi1 5_5545 5_5445 89.4(11) 64.2(5) 108(2)
Pb1 O2 Bi1 5_5545 5_5455 166.5(11) 158.7(10) 180.0(5)
Pb1 O2 Bi1 5_5545 5_5545 0.1(6) 0.0(5) 0.5(7)
Pb1 O2 Bi1 5_5545 5_5555 90.3(6) 88.4(4) 95.9(4)
Pb1 O2 Bi1 5_5555 5_5445 166.5(11) 158.7(10) 179.9(5)
Pb1 O2 Bi1 5_5555 5_5455 89.7(11) 64.3(6) 108(2)
Pb1 O2 Bi1 5_5555 5_5545 90.3(6) 88.4(4) 96.0(4)
Pb1 O2 Bi1 5_5555 5_5555 0.1(6) 0.0(5) 0.5(7)
Bi1 O2 Bi1 5_5445 5_5455 90.3(6) 88.4(4) 95.6(6)
Bi1 O2 Bi1 5_5445 5_5545 89.5(11) 64.1(5) 108(2)
Bi1 O2 Bi1 5_5445 5_5555 166.4(11) 158.7(10) 179.9(4)
Bi1 O2 Bi1 5_5455 5_5545 166.4(11) 158.7(9) 180.0(5)
Bi1 O2 Bi1 5_5455 5_5555 89.7(11) 64.2(6) 108(2)
Bi1 O2 Bi1 5_5545 5_5555 90.3(6) 88.4(4) 95.6(6)
Fe1 O3 Fe1 . 1_5565 179.2(17) 178.3(11) 180.0(5)
loop_
_geom_bond_atom_site_label_1
_geom_bond_atom_site_label_2
_geom_bond_site_ssg_symmetry_2
_geom_bond_distance_av
_geom_bond_distance_min
_geom_bond_distance_max
Fe1 O1 1_5455 2.016(4) 1.956(8) 2.115(8)
Fe1 O1 . 2.016(4) 1.956(8) 2.115(8)
Fe1 O1 5_4445 2.09(2) 2.03(3) 2.18(3)
Fe1 O1 5_4455 1.947(17) 1.888(18) 2.000(18)
Fe1 O1 5_5445 1.947(17) 1.888(18) 2.000(18)
Fe1 O1 5_5455 2.09(2) 2.03(3) 2.18(3)
Fe1 O2 1_4555 2.00(4) 1.99(7) 2.03(7)
Fe1 O2 . 2.00(4) 1.99(7) 2.03(7)
Fe1 O3 1_5545 2.11(2) 1.82(4) 2.79(4)
Fe1 O3 . 2.11(2) 1.82(4) 2.79(4)
Pb1 Bi1 . 0.01(2) 0.00(4) 0.03(4)
Pb1 O1 5_4445 2.95(3) 2.16(4) 3.87(4)
Pb1 O1 5_4455 3.00(3) 2.49(5) 3.76(5)
Pb1 O1 5_5445 3.00(3) 2.49(5) 3.76(5)
Pb1 O1 5_5455 2.95(3) 2.16(4) 3.87(4)
Pb1 O2 5_4445 2.85(3) 2.42(5) 3.67(5)
Pb1 O2 5_4455 2.85(3) 2.42(5) 3.67(5)
Pb1 O2 5_4545 2.85(3) 2.42(5) 3.67(5)
Pb1 O2 5_4555 2.85(3) 2.42(5) 3.67(5)
Bi1 O1 5_4445 2.95(3) 2.16(4) 3.87(4)
Bi1 O1 5_4455 3.00(3) 2.49(5) 3.78(5)
Bi1 O1 5_5445 3.00(3) 2.49(5) 3.78(5)
Bi1 O1 5_5455 2.95(3) 2.16(4) 3.87(4)
Bi1 O2 5_4445 2.85(3) 2.42(5) 3.67(5)
Bi1 O2 5_4455 2.85(3) 2.42(5) 3.67(5)
Bi1 O2 5_4545 2.85(3) 2.42(5) 3.67(5)
Bi1 O2 5_4555 2.85(3) 2.42(5) 3.67(5)
loop_
_pd_proc_point_id
_pd_proc_2theta_corrected
_pd_proc_intensity_net
_pd_calc_intensity_net
_pd_proc_ls_weight
1 6.0600 1048.00 1052.56 31.90
2 6.1100 1033.00 1051.70 31.60
3 6.1600 1075.00 1050.89 32.30
4 6.2100 1015.00 1050.11 31.40
5 6.2600 1097.00 1049.37 32.50
6 6.3100 1043.00 1048.66 31.80
7 6.3600 1061.00 1047.98 32.00
8 6.4100 1111.00 1047.32 32.70
9 6.4600 1080.00 1046.68 32.30
10 6.5100 1020.00 1046.06 31.40
11 6.5600 1025.00 1045.45 31.20
12 6.6100 1009.00 1044.87 31.20
13 6.6600 1051.00 1044.29 31.60
14 6.7100 949.00 1043.73 30.00
15 6.7600 1006.00 1043.19 31.00
16 6.8100 1057.00 1042.65 31.60
17 6.8600 1087.00 1042.13 32.10
18 6.9100 1026.00 1041.61 31.40
19 6.9600 1073.00 1041.10 32.00
20 7.0100 1011.00 1040.61 31.00
21 7.0600 1035.00 1040.12 31.40
22 7.1100 1059.00 1039.63 31.80
23 7.1600 1050.00 1039.16 31.50
24 7.2100 1046.00 1038.69 31.60
25 7.2600 1021.00 1038.23 31.20
26 7.3100 993.00 1037.77 30.70
27 7.3600 1009.00 1037.32 31.20
28 7.4100 1020.00 1036.88 31.20
29 7.4600 1032.00 1036.44 31.50
30 7.5100 1050.00 1036.01 31.90
31 7.5600 1043.00 1035.59 31.60
32 7.6100 969.00 1035.17 30.50
33 7.6600 1023.00 1034.76 31.50
34 7.7100 1007.00 1034.36 31.10
35 7.7600 992.00 1033.97 30.90
36 7.8100 1062.00 1033.58 32.00
37 7.8600 1027.00 1033.21 31.60
38 7.9100 1046.00 1032.85 31.70
39 7.9600 995.00 1032.50 31.10
40 8.0100 1020.00 1032.16 31.50
41 8.0600 992.00 1031.84 30.70
42 8.1100 1033.00 1031.53 31.70
43 8.1600 1033.00 1031.24 31.60
44 8.2100 1011.00 1030.96 31.10
45 8.2600 1047.00 1030.70 32.00
46 8.3100 1078.00 1030.46 32.30
47 8.3600 986.00 1030.23 30.80
48 8.4100 1018.00 1030.02 31.50
49 8.4600 1048.00 1029.82 31.90
50 8.5100 1009.00 1029.63 31.20
51 8.5600 1021.00 1029.45 31.40
52 8.6100 1013.00 1029.28 31.40
53 8.6600 1001.00 1029.12 30.90
54 8.7100 1021.00 1028.95 31.40
55 8.7600 960.00 1028.78 30.50
56 8.8100 989.00 1028.60 30.70
57 8.8600 1048.00 1028.40 31.80
58 8.9100 951.00 1028.19 30.30
59 8.9600 972.00 1027.95 30.60
60 9.0100 1005.00 1027.67 31.20
61 9.0600 1021.00 1027.36 31.30
62 9.1100 1004.00 1027.01 31.10
63 9.1600 1007.00 1026.62 31.00
64 9.2100 1028.00 1026.20 31.40
65 9.2600 1085.00 1025.73 32.40
66 9.3100 1027.00 1025.23 31.30
67 9.3600 1002.00 1024.70 31.10
68 9.4100 974.00 1024.15 30.70
69 9.4600 960.00 1023.58 30.30
70 9.5100 968.00 1023.00 30.50
71 9.5600 926.00 1022.41 29.80
72 9.6100 938.00 1021.82 29.90
73 9.6600 947.00 1021.23 30.20
74 9.7100 1013.00 1020.65 31.20
75 9.7600 1024.00 1020.07 31.40
76 9.8100 1049.00 1019.51 31.80
77 9.8600 974.00 1018.95 30.80
78 9.9100 985.00 1018.41 30.80
79 9.9600 929.00 1017.89 30.10
80 10.0100 976.00 1017.38 30.80
81 10.0600 980.00 1016.89 31.00
82 10.1100 1016.00 1016.41 31.50
83 10.1600 963.00 1015.95 30.90
84 10.2100 962.00 1015.49 30.70
85 10.2600 913.00 1015.06 30.20
86 10.3100 980.00 1014.63 31.20
87 10.3600 965.00 1014.22 31.20
88 10.4100 1031.00 1013.81 32.10
89 10.4600 956.00 1013.42 31.20
90 10.5100 965.00 1013.03 31.20
91 10.5600 1039.00 1012.65 32.60
92 10.6100 982.00 1012.27 31.70
93 10.6600 985.00 1011.90 31.80
94 10.7100 1034.00 1011.54 32.50
95 10.7600 976.00 1011.18 31.90
96 10.8100 970.00 1010.82 31.60
97 10.8600 979.00 1010.46 31.90
98 10.9100 981.00 1010.11 31.90
99 10.9600 990.00 1009.76 32.20
100 11.0100 1004.00 1009.41 32.30
101 11.0600 944.00 1009.06 31.50
102 11.1100 1002.00 1008.72 32.40
103 11.1600 995.00 1008.37 32.30
104 11.2100 1015.00 1008.03 32.70
105 11.2600 971.00 1007.69 32.00
106 11.3100 1037.00 1007.35 33.00
107 11.3600 1020.00 1007.01 32.60
108 11.4100 994.00 1006.70 32.40
109 11.4600 977.00 1006.36 31.90
110 11.5100 992.00 1006.03 32.20
111 11.5600 1066.00 1005.69 33.30
112 11.6100 944.00 1005.36 31.40
113 11.6600 1016.00 1005.03 32.20
114 11.7100 1022.00 1004.70 32.60
115 11.7600 1017.00 1004.37 32.10
116 11.8100 1029.00 1004.04 32.40
117 11.8600 931.00 1003.71 30.70
118 11.9100 1013.00 1003.38 32.10
119 11.9600 993.00 1003.06 31.60
120 12.0100 996.00 1002.73 31.70
121 12.0600 1001.00 1002.41 31.40
122 12.1100 1005.00 1002.09 31.80
123 12.1600 959.00 1001.77 30.70
124 12.2100 1004.00 1001.45 31.40
125 12.2600 994.00 1001.13 31.20
126 12.3100 994.00 1000.81 31.30
127 12.3600 980.00 1000.49 30.80
128 12.4100 1047.00 1000.17 32.00
129 12.4600 1013.00 999.86 31.20
130 12.5100 1023.00 999.54 31.50
131 12.5600 1006.00 999.23 31.00
132 12.6100 1033.00 998.91 31.50
133 12.6600 1011.00 998.60 31.00
134 12.7100 1044.00 998.29 31.60
135 12.7600 1028.00 997.98 31.40
136 12.8100 1012.00 997.67 31.00
137 12.8600 973.00 997.36 30.50
138 12.9100 1013.00 997.06 31.10
139 12.9600 972.00 996.75 30.40
140 13.0100 1028.00 996.45 31.30
141 13.0600 1033.00 996.14 31.20
142 13.1100 960.00 995.84 30.20
143 13.1600 984.00 995.54 30.40
144 13.2100 1002.00 995.24 30.70
145 13.2600 932.00 994.93 29.70
146 13.3100 965.00 994.64 30.10
147 13.3600 1008.00 994.34 30.80
148 13.4100 1041.00 994.04 31.40
149 13.4600 969.00 993.74 30.30
150 13.5100 1018.00 993.45 31.00
151 13.5600 1025.00 993.15 31.20
152 13.6100 1034.00 992.86 31.30
153 13.6600 1023.00 992.57 31.00
154 13.7100 988.00 992.28 30.60
155 13.7600 1025.00 991.98 31.10
156 13.8100 1065.00 991.70 31.60
157 13.8600 915.00 991.41 29.50
158 13.9100 1060.00 991.12 31.60
159 13.9600 1020.00 990.83 31.00
160 14.0100 978.00 990.55 30.50
161 14.0600 1004.00 990.26 30.80
162 14.1100 996.00 989.98 30.70
163 14.1600 993.00 989.70 30.60
164 14.2100 1067.00 989.41 31.70
165 14.2600 987.00 989.13 30.60
166 14.3100 954.00 988.85 30.00
167 14.3600 1000.00 988.38 30.80
168 14.4100 966.00 988.10 30.20
169 14.4600 1021.00 987.83 31.00
170 14.5100 961.00 987.55 30.20
171 14.5600 998.00 987.28 30.70
172 14.6100 1003.00 987.01 30.80
173 14.6600 979.00 986.74 30.40
174 14.7100 1048.00 986.47 31.50
175 14.7600 979.00 986.20 30.40
176 14.8100 985.00 985.93 30.50
177 14.8600 962.00 985.67 30.30
178 14.9100 1007.00 985.40 30.80
179 14.9600 969.00 985.14 30.40
180 15.0100 998.00 984.87 30.90
181 15.0600 1036.00 984.61 31.30
182 15.1100 993.00 984.35 30.70
183 15.1600 1023.00 984.09 31.30
184 15.2100 975.00 983.83 30.40
185 15.2600 1001.00 983.57 30.90
186 15.3100 1019.00 983.31 31.20
187 15.3600 999.00 983.05 30.90
188 15.4100 1039.00 982.80 31.40
189 15.4600 990.00 982.54 30.90
190 15.5100 1023.00 982.29 31.20
191 15.5600 963.00 982.04 30.20
192 15.6100 926.00 981.79 29.90
193 15.6600 952.00 981.54 30.20
194 15.7100 956.00 981.29 30.10
195 15.7600 1022.00 981.04 31.40
196 15.8100 965.00 980.79 30.40
197 15.8600 1007.00 980.55 31.00
198 15.9100 1004.00 980.30 31.10
199 15.9600 995.00 980.06 31.00
200 16.0100 969.00 979.82 30.40
201 16.0600 1012.00 979.58 31.20
202 16.1100 974.00 979.34 30.70
203 16.1600 982.00 979.10 30.70
204 16.2100 1014.00 978.86 31.20
205 16.2600 974.00 978.62 31.00
206 16.3100 1012.00 978.39 31.20
207 16.3600 1029.00 978.15 31.80
208 16.4100 961.00 977.92 30.70
209 16.4600 1052.00 977.68 32.00
210 16.5100 1036.00 977.45 31.90
211 16.5600 964.00 977.22 31.10
212 16.6100 955.00 976.99 30.50
213 16.6600 986.00 976.77 31.40
214 16.7100 997.00 976.54 31.60
215 16.7600 1022.00 976.32 32.10
216 16.8100 1000.00 976.09 31.60
217 16.8600 1021.00 975.87 32.30
218 16.9100 993.00 975.65 31.60
219 16.9600 945.00 975.42 31.20
220 17.0100 1010.00 975.21 32.10
221 17.0600 1020.00 974.99 32.40
222 17.1100 983.00 974.77 31.80
223 17.1600 979.00 974.55 32.00
224 17.2100 948.00 974.34 31.30
225 17.2600 1000.00 974.13 32.40
226 17.3100 950.00 973.91 31.50
227 17.3600 1062.00 973.70 33.40
228 17.4100 958.00 973.49 31.70
229 17.4600 986.00 973.29 32.20
230 17.5100 983.00 973.08 32.10
231 17.5600 1053.00 972.88 33.40
232 17.6100 1015.00 972.67 32.70
233 17.6600 1072.00 972.47 33.70
234 17.7100 986.00 972.98 32.30
235 17.7600 1127.00 972.79 34.50
236 17.8100 1066.00 972.60 33.60
237 17.8600 1068.00 972.42 33.60
238 17.9100 1000.00 972.23 32.50
239 17.9600 1051.00 972.05 33.10
240 18.0100 1077.00 971.87 33.70
241 18.0600 1093.00 971.70 33.80
242 18.1100 1080.00 971.52 33.60
243 18.1600 1117.00 971.35 34.00
244 18.2100 1001.00 971.18 32.40
245 18.2600 994.00 971.01 31.90
246 18.3100 1003.00 970.84 32.20
247 18.3600 1019.00 970.67 32.30
248 18.4100 999.00 970.51 32.00
249 18.4600 1030.00 970.35 32.40
250 18.5100 1000.00 970.20 32.00
251 18.5600 994.00 970.04 31.40
252 18.6100 989.00 969.89 31.70
253 18.6600 1026.00 969.74 32.00
254 18.7100 971.00 969.60 31.00
255 18.7600 998.00 969.46 31.60
256 18.8100 1029.00 969.32 32.10
257 18.8600 997.00 969.18 31.30
258 18.9100 1000.00 969.05 31.60
259 18.9600 971.00 968.93 30.90
260 19.0100 1045.00 968.81 32.00
261 19.0600 1008.00 968.69 31.50
262 19.1100 975.00 968.58 30.90
263 19.1600 971.00 968.48 30.70
264 19.2100 1028.00 968.38 31.80
265 19.2600 982.00 968.30 30.90
266 19.3100 1029.00 968.22 31.60
267 19.3600 1029.00 968.16 31.70
268 19.4100 1007.00 968.12 31.20
269 19.4600 993.00 968.11 31.00
270 19.5100 1041.00 968.13 31.90
271 19.5600 1009.00 968.20 31.10
272 19.6100 967.00 968.33 30.50
273 19.6600 956.00 968.56 30.30
274 19.7100 999.00 968.91 31.00
275 19.7600 1033.00 969.43 31.60
276 19.8100 960.00 970.39 30.40
277 19.8600 1016.00 971.37 31.40
278 19.9100 969.00 972.66 30.70
279 19.9600 995.00 974.32 30.90
280 20.0100 1012.00 976.38 31.30
281 20.0600 949.00 978.87 30.20
282 20.1100 1020.00 981.79 31.30
283 20.1600 1002.00 985.13 31.20
284 20.2100 1090.00 988.82 32.30
285 20.2600 1011.00 992.76 31.20
286 20.3100 1023.00 996.81 31.50
287 20.3600 1050.00 1000.78 31.80
288 20.4100 1073.00 1004.44 32.10
289 20.4600 1103.00 1007.55 32.60
290 20.5100 1085.00 1009.84 32.30
291 20.5600 1067.00 1011.09 32.00
292 20.6100 1060.00 1011.17 32.00
293 20.6600 1057.00 1010.05 31.80
294 20.7100 1003.00 1007.85 31.10
295 20.7600 1075.00 1004.77 32.30
296 20.8100 1066.00 1001.07 32.00
297 20.8600 1063.00 997.01 32.00
298 20.9100 1058.00 992.81 32.00
299 20.9600 1002.00 988.68 31.00
300 21.0100 998.00 984.76 31.10
301 21.0600 1018.00 981.18 31.20
302 21.1100 1023.00 978.00 31.30
303 21.1600 1020.00 975.26 31.20
304 21.2100 991.00 972.95 30.80
305 21.2600 986.00 971.06 30.80
306 21.3100 985.00 969.55 30.70
307 21.3600 1001.00 968.37 30.90
308 21.4100 984.00 967.46 30.80
309 21.4600 1012.00 967.01 31.10
310 21.5100 1038.00 966.51 31.50
311 21.5600 1014.00 966.15 31.20
312 21.6100 971.00 965.89 30.50
313 21.6600 955.00 965.72 30.20
314 21.7100 1035.00 965.60 31.50
315 21.7600 932.00 965.54 29.90
316 21.8100 986.00 965.51 30.70
317 21.8600 973.00 965.51 30.80
318 21.9100 961.00 965.54 30.40
319 21.9600 1006.00 965.59 31.20
320 22.0100 1023.00 965.67 31.50
321 22.0600 919.00 965.77 29.90
322 22.1100 954.00 965.89 30.30
323 22.1600 979.00 966.03 30.90
324 22.2100 945.00 966.20 30.30
325 22.2600 1037.00 966.39 31.70
326 22.3100 952.00 966.61 30.50
327 22.3600 1032.00 966.87 32.00
328 22.4100 941.00 967.22 30.30
329 22.4600 1001.00 967.53 31.50
330 22.5100 925.00 967.89 30.30
331 22.5600 1007.00 968.28 31.40
332 22.6100 941.00 968.72 30.50
333 22.6600 965.00 969.21 31.10
334 22.7100 1003.00 969.75 31.30
335 22.7600 969.00 970.35 31.20
336 22.8100 961.00 971.02 31.00
337 22.8600 1031.00 971.77 32.00
338 22.9100 1019.00 972.60 32.00
339 22.9600 1000.00 973.52 31.90
340 23.0100 988.00 974.56 31.30
341 23.0600 1034.00 975.72 32.40
342 23.1100 1062.00 977.02 32.90
343 23.1600 1040.00 978.49 32.30
344 23.2100 990.00 980.16 31.70
345 23.2600 971.00 982.08 31.70
346 23.3100 1024.00 984.30 32.10
347 23.3600 994.00 986.95 32.00
348 23.4100 1047.00 990.22 32.90
349 23.4600 1071.00 994.49 33.10
350 23.5100 961.00 1000.41 31.40
351 23.5600 1097.00 1009.14 33.80
352 23.6100 1061.00 1022.61 33.00
353 23.6600 1137.00 1043.85 34.40
354 23.7100 1145.00 1077.40 34.50
355 23.7600 1238.00 1129.50 36.00
356 23.8100 1330.00 1208.09 37.20
357 23.8600 1494.00 1322.29 39.50
358 23.9100 1596.00 1481.10 40.80
359 23.9600 1933.00 1691.51 44.80
360 24.0100 2256.00 1955.98 48.50
361 24.0600 2485.00 2269.92 51.00
362 24.1100 2809.00 2619.80 54.00
363 24.1600 3104.00 2982.40 56.70
364 24.2100 3286.00 3325.85 58.60
365 24.2600 3482.00 3612.48 60.00
366 24.3100 3668.00 3804.40 61.60
367 24.3600 3780.00 3872.06 62.60
368 24.4100 3630.00 3804.31 61.30
369 24.4600 3433.00 3612.88 59.30
370 24.5100 3251.00 3327.69 58.00
371 24.5600 2688.00 2986.76 52.20
372 24.6100 2432.00 2627.58 49.90
373 24.6600 2079.00 2281.85 45.90
374 24.7100 1818.00 1972.42 43.00
375 24.7600 1595.00 1712.48 40.00
376 24.8100 1473.00 1506.25 38.60
377 24.8600 1361.00 1350.91 36.80
378 24.9100 1303.00 1239.24 36.20
379 24.9600 1122.00 1162.05 33.40
380 25.0100 1162.00 1110.23 34.00
381 25.0600 1013.00 1075.94 31.50
382 25.1100 1053.00 1053.10 32.30
383 25.1600 1050.00 1037.45 31.90
384 25.2100 1023.00 1026.18 31.60
385 25.2600 998.00 1017.58 31.20
386 25.3100 1036.00 1010.68 31.70
387 25.3600 977.00 1004.95 30.70
388 25.4100 1040.00 1000.14 31.90
389 25.4600 1012.00 996.09 31.10
390 25.5100 997.00 992.74 31.00
391 25.5600 975.00 990.03 30.50
392 25.6100 984.00 987.91 30.70
393 25.6600 973.00 986.33 30.40
394 25.7100 1004.00 985.26 30.90
395 25.7600 1011.00 984.70 30.90
396 25.8100 962.00 984.70 30.20
397 25.8600 980.00 985.35 30.50
398 25.9100 956.00 986.90 30.10
399 25.9600 960.00 989.76 30.00
400 26.0100 979.00 994.61 30.40
401 26.0600 997.00 1002.44 30.50
402 26.1100 1039.00 1014.64 31.20
403 26.1600 1050.00 1033.02 31.40
404 26.2100 1061.00 1059.67 31.50
405 26.2600 1142.00 1096.77 32.90
406 26.3100 1170.00 1146.22 33.10
407 26.3600 1282.00 1209.09 34.80
408 26.4100 1310.00 1285.11 35.20
409 26.4600 1374.00 1372.16 35.80
410 26.5100 1502.00 1465.84 37.70
411 26.5600 1643.00 1559.65 39.30
412 26.6100 1656.00 1645.14 39.30
413 26.6600 1664.00 1712.71 39.50
414 26.7100 1660.00 1753.22 39.50
415 26.7600 1689.00 1760.28 39.80
416 26.8100 1631.00 1732.76 39.10
417 26.8600 1575.00 1675.20 38.60
418 26.9100 1588.00 1596.02 38.60
419 26.9600 1402.00 1504.89 36.30
420 27.0100 1292.00 1410.87 35.00
421 27.0600 1184.00 1321.35 33.30
422 27.1100 1180.00 1241.66 33.30
423 27.1600 1120.00 1174.97 32.50
424 27.2100 1084.00 1122.57 31.80
425 27.2600 1080.00 1084.43 31.90
426 27.3100 1038.00 1059.80 31.30
427 27.3600 1068.00 1047.89 31.70
428 27.4100 1112.00 1048.37 32.40
429 27.4600 1093.00 1061.60 31.90
430 27.5100 1141.00 1088.60 32.70
431 27.5600 1161.00 1130.69 32.90
432 27.6100 1240.00 1188.81 34.00
433 27.6600 1295.00 1262.69 34.90
434 27.7100 1392.00 1350.15 36.00
435 27.7600 1523.00 1446.43 37.80
436 27.8100 1541.00 1544.18 38.00
437 27.8600 1624.00 1633.78 39.10
438 27.9100 1641.00 1704.35 39.20
439 27.9600 1685.00 1745.71 39.80
440 28.0100 1713.00 1751.18 40.10
441 28.0600 1664.00 1720.22 39.40
442 28.1100 1614.00 1658.64 38.90
443 28.1600 1535.00 1576.27 37.90
444 28.2100 1453.00 1483.95 36.80
445 28.2600 1268.00 1391.48 34.50
446 28.3100 1191.00 1306.40 33.40
447 28.3600 1182.00 1233.55 33.40
448 28.4100 1153.00 1175.08 32.90
449 28.4600 1076.00 1130.95 31.80
450 28.5100 1105.00 1099.66 32.30
451 28.5600 1043.00 1079.01 31.30
452 28.6100 1048.00 1066.64 31.40
453 28.6600 1106.00 1060.46 32.30
454 28.7100 1011.00 1058.84 30.80
455 28.7600 1015.00 1060.62 31.00
456 28.8100 1019.00 1065.06 31.00
457 28.8600 1076.00 1071.65 31.90
458 28.9100 1068.00 1079.90 31.80
459 28.9600 1013.00 1089.37 31.10
460 29.0100 1091.00 1098.50 32.10
461 29.0600 1089.00 1106.23 32.20
462 29.1100 1124.00 1111.06 32.80
463 29.1600 1123.00 1111.60 32.80
464 29.2100 1064.00 1107.06 31.80
465 29.2600 1048.00 1097.58 31.80
466 29.3100 1063.00 1084.20 31.90
467 29.3600 1022.00 1068.42 31.60
468 29.4100 1026.00 1051.81 31.40
469 29.4600 991.00 1035.73 31.20
470 29.5100 982.00 1021.19 31.00
471 29.5600 891.00 1008.84 29.50
472 29.6100 977.00 998.95 30.90
473 29.6600 977.00 991.47 31.20
474 29.7100 983.00 986.17 31.00
475 29.7600 926.00 982.63 30.50
476 29.8100 900.00 980.45 29.90
477 29.8600 907.00 979.23 30.20
478 29.9100 988.00 978.69 31.50
479 29.9600 913.00 978.55 30.40
480 30.0100 919.00 978.63 30.40
481 30.0600 888.00 978.78 30.00
482 30.1100 963.00 978.91 31.30
483 30.1600 935.00 978.96 30.60
484 30.2100 958.00 978.88 31.10
485 30.2600 927.00 978.66 30.80
486 30.3100 916.00 978.29 30.30
487 30.3600 936.00 977.77 30.80
488 30.4100 969.00 977.12 31.50
489 30.4600 885.00 976.37 30.00
490 30.5100 920.00 975.54 30.60
491 30.5600 885.00 974.65 30.00
492 30.6100 918.00 973.73 30.60
493 30.6600 957.00 972.81 31.10
494 30.7100 911.00 971.91 30.50
495 30.7600 895.00 971.03 30.00
496 30.8100 912.00 970.21 30.40
497 30.8600 914.00 969.44 30.40
498 30.9100 918.00 968.74 30.40
499 30.9600 937.00 968.11 30.50
500 31.0100 910.00 967.58 30.40
501 31.0600 884.00 966.44 29.50
502 31.1100 933.00 966.09 30.50
503 31.1600 915.00 966.04 30.20
504 31.2100 904.00 965.88 29.80
505 31.2600 889.00 965.83 29.60
506 31.3100 894.00 965.88 29.80
507 31.3600 905.00 966.04 29.70
508 31.4100 926.00 966.31 30.20
509 31.4600 926.00 966.70 30.10
510 31.5100 933.00 967.20 30.30
511 31.5600 941.00 967.81 30.10
512 31.6100 919.00 968.52 30.00
513 31.6600 928.00 969.34 29.80
514 31.7100 940.00 970.23 30.10
515 31.7600 921.00 971.18 29.80
516 31.8100 1000.00 972.17 30.90
517 31.8600 956.00 973.16 30.20
518 31.9100 933.00 974.11 30.00
519 31.9600 943.00 974.98 29.90
520 32.0100 926.00 975.73 29.70
521 32.0600 957.00 976.31 30.20
522 32.1100 982.00 976.68 30.50
523 32.1600 944.00 976.83 29.80
524 32.2100 926.00 977.36 29.70
525 32.2600 924.00 977.10 29.50
526 32.3100 959.00 976.69 30.10
527 32.3600 995.00 976.16 30.70
528 32.4100 916.00 975.56 29.40
529 32.4600 934.00 974.92 29.60
530 32.5100 935.00 974.28 29.80
531 32.5600 913.00 973.67 29.20
532 32.6100 947.00 974.62 29.80
533 32.6600 933.00 974.15 29.60
534 32.7100 966.00 973.76 30.00
535 32.7600 975.00 973.46 30.20
536 32.8100 956.00 973.26 29.90
537 32.8600 973.00 973.16 30.00
538 32.9100 939.00 973.17 29.70
539 32.9600 958.00 973.30 29.90
540 33.0100 912.00 974.73 29.10
541 33.0600 954.00 975.16 29.80
542 33.1100 927.00 975.77 29.40
543 33.1600 997.00 976.56 30.10
544 33.2100 931.00 977.58 29.40
545 33.2600 942.00 978.84 29.50
546 33.3100 985.00 980.36 30.00
547 33.3600 965.00 982.16 29.90
548 33.4100 1017.00 984.25 30.70
549 33.4600 997.00 986.60 30.10
550 33.5100 1056.00 989.18 31.30
551 33.5600 1044.00 991.93 31.00
552 33.6100 1070.00 994.78 31.20
553 33.6600 1028.00 997.63 30.80
554 33.7100 1123.00 1000.12 32.20
555 33.7600 1071.00 1002.59 31.10
556 33.8100 1110.00 1004.69 31.90
557 33.8600 1069.00 1006.30 31.40
558 33.9100 1073.00 1007.43 31.20
559 33.9600 1085.00 1008.14 31.60
560 34.0100 1051.00 1009.87 31.10
561 34.0600 1035.00 1010.34 30.60
562 34.1100 1044.00 1011.03 31.00
563 34.1600 1075.00 1012.21 31.30
564 34.2100 1028.00 1014.07 30.40
565 34.2600 1110.00 1016.76 31.80
566 34.3100 1064.00 1020.33 31.10
567 34.3600 1109.00 1024.73 31.80
568 34.4100 1040.00 1029.82 30.80
569 34.4600 1074.00 1035.32 31.20
570 34.5100 1087.00 1040.86 31.50
571 34.5600 1143.00 1045.81 32.20
572 34.6100 1153.00 1049.98 32.30
573 34.6600 1138.00 1052.71 32.10
574 34.7100 1164.00 1053.63 32.50
575 34.7600 1129.00 1052.65 32.10
576 34.8100 1135.00 1049.97 32.10
577 34.8600 1114.00 1045.98 31.90
578 34.9100 1089.00 1041.18 31.50
579 34.9600 1091.00 1036.07 31.50
580 35.0100 1048.00 1031.07 30.90
581 35.0600 1074.00 1026.55 31.40
582 35.1100 1040.00 1022.94 30.80
583 35.1600 1008.00 1020.25 30.50
584 35.2100 1092.00 1018.86 31.60
585 35.2600 1042.00 1019.06 31.00
586 35.3100 988.00 1021.28 30.20
587 35.3600 1036.00 1026.11 31.30
588 35.4100 1038.00 1034.41 31.00
589 35.4600 1027.00 1047.34 31.10
590 35.5100 1022.00 1066.30 31.00
591 35.5600 1089.00 1092.89 32.00
592 35.6100 1085.00 1128.63 32.00
593 35.6600 1139.00 1174.68 33.20
594 35.7100 1198.00 1231.45 33.60
595 35.7600 1292.00 1298.19 35.50
596 35.8100 1352.00 1372.68 36.10
597 35.8600 1437.00 1451.03 37.60
598 35.9100 1463.00 1527.67 37.70
599 35.9600 1598.00 1595.53 39.80
600 36.0100 1681.00 1646.71 40.60
601 36.0600 1615.00 1674.03 40.00
602 36.1100 1652.00 1673.11 40.50
603 36.1600 1695.00 1644.33 41.40
604 36.2100 1625.00 1592.63 40.20
605 36.2600 1557.00 1525.48 40.00
606 36.3100 1453.00 1450.73 38.30
607 36.3600 1411.00 1375.28 38.10
608 36.4100 1310.00 1304.49 36.60
609 36.4600 1256.00 1242.05 36.20
610 36.5100 1252.00 1190.01 35.90
611 36.5600 1098.00 1149.03 33.80
612 36.6100 1114.00 1118.74 34.10
613 36.6600 1060.00 1098.21 33.30
614 36.7100 1033.00 1086.39 32.80
615 36.7600 1057.00 1082.51 33.40
616 36.8100 1070.00 1086.39 33.40
617 36.8600 1139.00 1098.60 34.60
618 36.9100 1194.00 1120.48 35.50
619 36.9600 1159.00 1153.84 34.90
620 37.0100 1271.00 1200.55 36.60
621 37.0600 1263.00 1261.79 36.40
622 37.1100 1423.00 1337.28 38.60
623 37.1600 1432.00 1424.45 38.60
624 37.2100 1561.00 1518.03 40.50
625 37.2600 1524.00 1610.11 39.90
626 37.3100 1581.00 1690.68 40.50
627 37.3600 1720.00 1749.05 42.20
628 37.4100 1843.00 1776.44 43.80
629 37.4600 1705.00 1769.66 41.60
630 37.5100 1739.00 1733.54 42.40
631 37.5600 1655.00 1679.85 40.80
632 37.6100 1652.00 1624.42 41.00
633 37.6600 1592.00 1584.54 39.90
634 37.7100 1583.00 1577.54 39.90
635 37.7600 1578.00 1619.30 39.50
636 37.8100 1694.00 1722.53 41.20
637 37.8600 1905.00 1894.40 43.20
638 37.9100 2087.00 2133.99 45.40
639 37.9600 2556.00 2430.18 50.10
640 38.0100 2803.00 2761.24 52.40
641 38.0600 3053.00 3096.41 54.30
642 38.1100 3383.00 3400.44 57.60
643 38.1600 3602.00 3641.58 58.60
644 38.2100 3850.00 3803.35 61.00
645 38.2600 3960.00 3896.74 61.70
646 38.3100 4097.00 3961.93 62.50
647 38.3600 4260.00 4055.42 63.70
648 38.4100 4501.00 4231.40 65.80
649 38.4600 4699.00 4525.33 66.30
650 38.5100 5150.00 4942.60 70.00
651 38.5600 5554.00 5453.15 72.30
652 38.6100 6126.00 5993.41 75.70
653 38.6600 6454.00 6475.52 77.60
654 38.7100 6841.00 6805.58 80.20
655 38.7600 7009.00 6912.84 80.70
656 38.8100 6871.00 6780.77 80.10
657 38.8600 6685.00 6456.22 79.30
658 38.9100 6143.00 6026.73 75.50
659 38.9600 5869.00 5587.53 73.80
660 39.0100 5367.00 5216.60 71.10
661 39.0600 4930.00 4961.30 67.30
662 39.1100 4901.00 4833.00 67.40
663 39.1600 5004.00 4809.35 68.00
664 39.2100 4910.00 4843.34 67.20
665 39.2600 4902.00 4879.52 67.10
666 39.3100 4893.00 4876.41 67.30
667 39.3600 4788.00 4826.59 66.20
668 39.4100 4796.00 4760.15 66.40
669 39.4600 4604.00 4729.32 65.20
670 39.5100 4651.00 4787.10 65.20
671 39.5600 4901.00 4969.74 67.00
672 39.6100 5025.00 5284.16 68.00
673 39.6600 5556.00 5700.58 71.10
674 39.7100 5872.00 6151.94 73.30
675 39.7600 6288.00 6542.82 76.40
676 39.8100 6470.00 6768.13 76.70
677 39.8600 6702.00 6743.34 79.00
678 39.9100 6556.00 6437.21 78.00
679 39.9600 5926.00 5884.39 73.60
680 40.0100 5159.00 5166.21 69.30
681 40.0600 4273.00 4379.37 62.90
682 40.1100 3483.00 3612.12 56.40
683 40.1600 2729.00 2929.97 50.40
684 40.2100 2217.00 2370.02 45.30
685 40.2600 1898.00 1942.30 42.00
686 40.3100 1785.00 1636.41 40.70
687 40.3600 1569.00 1430.29 38.50
688 40.4100 1452.00 1298.42 36.70
689 40.4600 1290.00 1217.46 35.00
690 40.5100 1262.00 1168.99 34.50
691 40.5600 1151.00 1140.05 32.90
692 40.6100 1200.00 1122.38 33.70
693 40.6600 1127.00 1111.11 32.70
694 40.7100 1140.00 1103.60 32.70
695 40.7600 1123.00 1098.52 32.70
696 40.8100 1075.00 1096.52 31.90
697 40.8600 1085.00 1094.83 32.20
698 40.9100 1081.00 1094.64 32.10
699 40.9600 1188.00 1096.00 33.70
700 41.0100 1110.00 1099.00 32.60
701 41.0600 1102.00 1103.78 32.30
702 41.1100 1144.00 1110.51 33.10
703 41.1600 1111.00 1119.33 32.90
704 41.2100 1096.00 1130.37 32.30
705 41.2600 1070.00 1143.69 32.20
706 41.3100 1225.00 1159.28 34.50
707 41.3600 1159.00 1176.97 33.50
708 41.4100 1220.00 1196.52 34.40
709 41.4600 1292.00 1217.54 35.60
710 41.5100 1286.00 1239.48 35.30
711 41.5600 1291.00 1261.57 35.30
712 41.6100 1294.00 1282.74 35.70
713 41.6600 1323.00 1301.60 35.80
714 41.7100 1320.00 1316.47 35.70
715 41.7600 1302.00 1325.64 35.90
716 41.8100 1357.00 1327.67 36.20
717 41.8600 1353.00 1321.88 36.50
718 41.9100 1356.00 1309.13 36.70
719 41.9600 1304.00 1289.60 35.70
720 42.0100 1201.00 1265.60 34.30
721 42.0600 1207.00 1239.03 34.40
722 42.1100 1180.00 1211.95 34.00
723 42.1600 1152.00 1185.12 33.80
724 42.2100 1093.00 1159.94 32.70
725 42.2600 1177.00 1137.16 34.20
726 42.3100 1086.00 1117.21 32.80
727 42.3600 1110.00 1100.28 33.30
728 42.4100 1038.00 1086.29 32.20
729 42.4600 1051.00 1075.04 32.40
730 42.5100 1019.00 1066.22 31.80
731 42.5600 1034.00 1059.46 32.30
732 42.6100 1010.00 1054.39 31.80
733 42.6600 991.00 1050.67 31.50
734 42.7100 1018.00 1048.00 32.00
735 42.7600 1001.00 1046.13 31.90
736 42.8100 1074.00 1044.86 32.80
737 42.8600 1041.00 1044.05 32.70
738 42.9100 983.00 1043.57 31.60
739 42.9600 1042.00 1043.51 32.30
740 43.0100 1047.00 1043.49 32.80
741 43.0600 990.00 1043.62 31.80
742 43.1100 1007.00 1043.84 31.80
743 43.1600 936.00 1044.15 31.20
744 43.2100 1032.00 1044.51 32.40
745 43.2600 997.00 1044.64 32.00
746 43.3100 1034.00 1045.14 32.80
747 43.3600 1029.00 1045.57 32.50
748 43.4100 1062.00 1046.01 33.00
749 43.4600 1085.00 1046.48 33.40
750 43.5100 1024.00 1047.00 32.40
751 43.5600 1017.00 1047.57 32.00
752 43.6100 1047.00 1048.21 32.80
753 43.6600 1029.00 1048.91 32.30
754 43.7100 1028.00 1049.68 32.10
755 43.7600 1015.00 1050.29 32.10
756 43.8100 992.00 1051.12 31.70
757 43.8600 1007.00 1051.96 31.60
758 43.9100 1069.00 1052.77 32.90
759 43.9600 1063.00 1053.51 32.50
760 44.0100 1095.00 1054.18 33.00
761 44.0600 1070.00 1054.76 32.60
762 44.1100 1051.00 1055.26 32.40
763 44.1600 1054.00 1055.70 32.10
764 44.2100 1023.00 1056.09 31.90
765 44.2600 1015.00 1055.95 31.60
766 44.3100 1039.00 1056.35 31.90
767 44.3600 1080.00 1056.79 32.60
768 44.4100 1007.00 1057.31 31.50
769 44.4600 1097.00 1057.95 32.50
770 44.5100 1069.00 1058.76 32.40
771 44.5600 998.00 1059.78 31.10
772 44.6100 1019.00 1061.07 31.30
773 44.6600 972.00 1062.71 30.70
774 44.7100 1060.00 1064.76 32.00
775 44.7600 1072.00 1067.30 32.10
776 44.8100 1034.00 1070.46 31.70
777 44.8600 1080.00 1074.32 32.30
778 44.9100 1027.00 1077.53 31.50
779 44.9600 1045.00 1083.21 31.70
780 45.0100 1019.00 1089.98 31.30
781 45.0600 1042.00 1097.95 31.60
782 45.1100 994.00 1107.22 30.90
783 45.1600 1016.00 1117.85 31.20
784 45.2100 1083.00 1129.85 32.20
785 45.2600 1120.00 1143.21 32.80
786 45.3100 1114.00 1157.79 32.70
787 45.3600 1179.00 1173.43 33.60
788 45.4100 1167.00 1189.83 33.50
789 45.4600 1218.00 1206.62 34.20
790 45.5100 1250.00 1223.30 34.60
791 45.5600 1299.00 1239.29 35.30
792 45.6100 1296.00 1253.90 35.30
793 45.6600 1283.00 1265.44 35.10
794 45.7100 1339.00 1275.12 35.80
795 45.7600 1326.00 1280.38 35.80
796 45.8100 1290.00 1283.06 35.20
797 45.8600 1262.00 1282.19 35.00
798 45.9100 1299.00 1278.22 35.50
799 45.9600 1283.00 1271.87 35.20
800 46.0100 1274.00 1264.03 35.20
801 46.0600 1291.00 1255.78 35.40
802 46.1100 1239.00 1248.24 34.50
803 46.1600 1240.00 1242.81 34.70
804 46.2100 1231.00 1241.41 34.50
805 46.2600 1225.00 1246.87 34.50
806 46.3100 1268.00 1263.45 35.10
807 46.3600 1231.00 1297.39 34.70
808 46.4100 1410.00 1357.32 37.00
809 46.4600 1399.00 1454.05 36.90
810 46.5100 1507.00 1599.56 38.40
811 46.5600 1763.00 1805.50 41.40
812 46.6100 1962.00 2079.05 43.80
813 46.6600 2308.00 2419.93 47.30
814 46.7100 2583.00 2816.60 50.20
815 46.7600 3000.00 3244.23 54.00
816 46.8100 3412.00 3664.36 57.50
817 46.8600 3867.00 4027.27 61.40
818 46.9100 4189.00 4279.93 63.90
819 46.9600 4403.00 4382.45 65.50
820 47.0100 4239.00 4327.40 64.30
821 47.0600 4102.00 4144.48 62.90
822 47.1100 3793.00 3886.18 60.70
823 47.1600 3649.00 3609.81 59.40
824 47.2100 3356.00 3367.00 56.90
825 47.2600 3244.00 3197.22 56.20
826 47.3100 3063.00 3121.78 54.40
827 47.3600 3252.00 3139.22 56.10
828 47.4100 3362.00 3224.96 57.20
829 47.4600 3428.00 3335.67 57.30
830 47.5100 3462.00 3417.89 57.90
831 47.5600 3522.00 3421.44 58.30
832 47.6100 3380.00 3316.96 56.90
833 47.6600 3334.00 3109.87 56.40
834 47.7100 2898.00 2825.97 52.90
835 47.7600 2650.00 2508.95 50.20
836 47.8100 2194.00 2198.49 45.80
837 47.8600 2026.00 1925.39 44.30
838 47.9100 1682.00 1708.59 39.90
839 47.9600 1646.00 1555.50 39.70
840 48.0100 1476.00 1464.58 37.80
841 48.0600 1439.00 1428.74 36.80
842 48.1100 1510.00 1438.36 38.00
843 48.1600 1539.00 1483.16 38.50
844 48.2100 1704.00 1552.65 40.10
845 48.2600 1713.00 1635.98 40.70
846 48.3100 1857.00 1721.33 42.30
847 48.3600 1835.00 1795.70 41.90
848 48.4100 1910.00 1845.79 43.00
849 48.4600 2071.00 1860.71 44.60
850 48.5100 2042.00 1836.31 44.20
851 48.5600 1881.00 1777.06 42.90
852 48.6100 1725.00 1693.56 40.70
853 48.6600 1682.00 1597.99 40.60
854 48.7100 1489.00 1501.15 38.20
855 48.7600 1443.00 1411.17 37.60
856 48.8100 1331.00 1333.25 36.10
857 48.8600 1222.00 1269.84 35.00
858 48.9100 1223.00 1221.10 34.60
859 48.9600 1161.00 1185.62 34.00
860 49.0100 1178.00 1161.15 34.40
861 49.0600 1142.00 1145.29 33.70
862 49.1100 1104.00 1135.92 33.20
863 49.1600 1098.00 1131.46 33.40
864 49.2100 1132.00 1130.97 33.50
865 49.2600 1123.00 1134.14 33.80
866 49.3100 1120.00 1141.12 33.70
867 49.3600 1121.00 1152.48 33.60
868 49.4100 1191.00 1168.98 34.80
869 49.4600 1209.00 1191.39 35.10
870 49.5100 1138.00 1220.25 33.80
871 49.5600 1254.00 1255.61 35.70
872 49.6100 1296.00 1296.75 36.30
873 49.6600 1366.00 1342.01 37.10
874 49.7100 1407.00 1388.65 37.80
875 49.7600 1439.00 1432.85 38.20
876 49.8100 1504.00 1469.85 39.00
877 49.8600 1524.00 1494.54 39.20
878 49.9100 1486.00 1502.77 38.80
879 49.9600 1438.00 1492.99 37.80
880 50.0100 1473.00 1467.10 38.60
881 50.0600 1422.00 1429.57 37.60
882 50.1100 1315.00 1385.73 36.20
883 50.1600 1268.00 1340.53 35.50
884 50.2100 1243.00 1297.96 35.20
885 50.2600 1175.00 1260.92 33.90
886 50.3100 1213.00 1231.24 34.70
887 50.3600 1254.00 1209.75 35.00
888 50.4100 1191.00 1196.51 34.10
889 50.4600 1208.00 1190.90 34.20
890 50.5100 1261.00 1191.84 35.10
891 50.5600 1256.00 1197.96 34.60
892 50.6100 1205.00 1207.56 34.20
893 50.6600 1202.00 1219.17 33.80
894 50.7100 1286.00 1230.81 35.00
895 50.7600 1201.00 1240.54 33.80
896 50.8100 1288.00 1246.56 35.00
897 50.8600 1253.00 1247.53 34.30
898 50.9100 1257.00 1243.02 34.60
899 50.9600 1203.00 1233.62 33.50
900 51.0100 1218.00 1220.61 33.90
901 51.0600 1193.00 1205.50 33.40
902 51.1100 1115.00 1189.70 32.30
903 51.1600 1151.00 1174.31 32.70
904 51.2100 1090.00 1160.16 31.90
905 51.2600 1072.00 1147.77 31.50
906 51.3100 1083.00 1137.39 31.70
907 51.3600 1084.00 1129.05 31.70
908 51.4100 1073.00 1122.62 31.50
909 51.4600 1061.00 1117.87 31.30
910 51.5100 1105.00 1114.51 32.00
911 51.5600 1126.00 1112.25 32.10
912 51.6100 1096.00 1110.84 31.80
913 51.6600 1101.00 1110.05 31.90
914 51.7100 1128.00 1109.72 32.20
915 51.7600 1102.00 1109.74 31.90
916 51.8100 1142.00 1110.00 32.50
917 51.8600 1160.00 1110.46 32.80
918 51.9100 1197.00 1111.10 33.30
919 51.9600 1171.00 1111.88 32.80
920 52.0100 1187.00 1112.81 33.10
921 52.0600 1084.00 1113.89 31.60
922 52.1100 1136.00 1115.11 32.30
923 52.1600 1142.00 1116.49 32.50
924 52.2100 1173.00 1123.82 32.90
925 52.2600 1096.00 1125.65 31.80
926 52.3100 1058.00 1127.66 31.20
927 52.3600 1072.00 1129.86 31.60
928 52.4100 1120.00 1132.25 32.10
929 52.4600 1124.00 1134.84 32.20
930 52.5100 1039.00 1137.62 31.10
931 52.5600 1149.00 1140.58 32.50
932 52.6100 1050.00 1143.71 31.10
933 52.6600 1087.00 1147.01 31.80
934 52.7100 1083.00 1150.45 31.60
935 52.7600 1100.00 1154.02 31.80
936 52.8100 1103.00 1157.69 32.10
937 52.8600 1070.00 1161.44 31.30
938 52.9100 1107.00 1165.29 31.90
939 52.9600 1117.00 1169.24 32.10
940 53.0100 1118.00 1173.34 32.00
941 53.0600 1127.00 1177.66 32.10
942 53.1100 1027.00 1181.23 30.80
943 53.1600 1132.00 1186.36 32.20
944 53.2100 1128.00 1192.15 32.10
945 53.2600 1168.00 1198.83 32.90
946 53.3100 1143.00 1206.22 32.30
947 53.3600 1194.00 1215.91 33.00
948 53.4100 1156.00 1228.24 32.70
949 53.4600 1249.00 1244.62 33.80
950 53.5100 1183.00 1267.35 32.80
951 53.5600 1281.00 1299.97 34.30
952 53.6100 1272.00 1347.50 34.10
953 53.6600 1425.00 1417.49 35.90
954 53.7100 1531.00 1518.80 37.50
955 53.7600 1641.00 1661.90 38.70
956 53.8100 1930.00 1857.23 41.80
957 53.8600 2146.00 2113.13 44.20
958 53.9100 2424.00 2433.17 47.00
959 53.9600 2860.00 2813.09 50.90
960 54.0100 3312.00 3238.49 55.00
961 54.0600 3646.00 3683.09 57.70
962 54.1100 4099.00 4107.96 61.00
963 54.1600 4387.00 4462.96 63.50
964 54.2100 4692.00 4693.43 65.40
965 54.2600 4826.00 4756.39 66.70
966 54.3100 4759.00 4640.27 66.10
967 54.3600 4478.00 4372.01 64.40
968 54.4100 3990.00 4002.71 60.60
969 54.4600 3591.00 3586.97 57.60
970 54.5100 3168.00 3172.86 54.20
971 54.5600 2591.00 2795.53 49.30
972 54.6100 2427.00 2477.53 47.30
973 54.6600 2072.00 2229.58 44.10
974 54.7100 1892.00 2052.52 42.10
975 54.7600 1837.00 1939.80 41.50
976 54.8100 1774.00 1880.24 40.80
977 54.8600 1709.00 1860.97 40.40
978 54.9100 1800.00 1867.10 41.10
979 54.9600 1769.00 1885.85 41.20
980 55.0100 1836.00 1905.16 41.90
981 55.0600 1903.00 1914.94 42.80
982 55.1100 1776.00 1908.19 41.30
983 55.1600 1804.00 1882.08 42.10
984 55.2100 1749.00 1837.95 41.00
985 55.2600 1754.00 1780.08 41.70
986 55.3100 1563.00 1713.85 39.10
987 55.3600 1552.00 1644.45 39.20
988 55.4100 1496.00 1576.18 38.50
989 55.4600 1382.00 1512.32 37.10
990 55.5100 1358.00 1455.09 36.60
991 55.5600 1233.00 1405.82 35.20
992 55.6100 1243.00 1365.02 35.30
993 55.6600 1290.00 1332.56 36.10
994 55.7100 1165.00 1307.86 34.20
995 55.7600 1208.00 1290.04 35.10
996 55.8100 1190.00 1278.07 34.70
997 55.8600 1231.00 1270.94 35.40
998 55.9100 1184.00 1267.68 34.70
999 55.9600 1173.00 1267.42 34.70
1000 56.0100 1127.00 1269.41 33.80
1001 56.0600 1146.00 1272.97 34.30
1002 56.1100 1178.00 1277.53 34.80
1003 56.1600 1206.00 1282.53 35.00
1004 56.2100 1241.00 1287.53 35.60
1005 56.2600 1234.00 1292.19 35.50
1006 56.3100 1185.00 1296.39 34.70
1007 56.3600 1204.00 1300.26 35.10
1008 56.4100 1195.00 1304.13 34.90
1009 56.4600 1268.00 1308.44 35.80
1010 56.5100 1240.00 1313.57 35.60
1011 56.5600 1188.00 1320.26 34.50
1012 56.6100 1261.00 1328.87 35.70
1013 56.6600 1272.00 1339.92 35.70
1014 56.7100 1259.00 1353.98 35.50
1015 56.7600 1261.00 1371.83 35.50
1016 56.8100 1374.00 1394.68 37.10
1017 56.8600 1410.00 1424.73 37.30
1018 56.9100 1435.00 1466.04 37.80
1019 56.9600 1479.00 1527.35 38.20
1020 57.0100 1520.00 1624.28 38.70
1021 57.0600 1709.00 1784.81 41.00
1022 57.1100 1943.00 2054.41 43.80
1023 57.1600 2359.00 2499.64 48.00
1024 57.2100 3189.00 3205.97 56.00
1025 57.2600 4056.00 4265.89 63.00
1026 57.3100 5523.00 5753.38 73.40
1027 57.3600 7772.00 7688.36 87.20
1028 57.4100 9986.00 10000.40 98.90
1029 57.4600 11914.00 12501.70 107.60
1030 57.5100 14684.00 14886.70 119.90
1031 57.5600 16077.00 16758.50 124.90
1032 57.6100 17815.00 17714.80 131.60
1033 57.6600 17528.00 17509.40 130.20
1034 57.7100 16670.00 16197.20 127.20
1035 57.7600 14080.00 14099.90 116.90
1036 57.8100 11323.00 11633.90 104.60
1037 57.8600 8662.00 9170.46 91.40
1038 57.9100 6384.00 6976.96 78.70
1039 57.9600 4857.00 5197.74 68.30
1040 58.0100 3822.00 3869.46 60.70
1041 58.0600 3092.00 2948.70 54.60
1042 58.1100 2627.00 2351.24 50.20
1043 58.1600 2262.00 1984.74 46.60
1044 58.2100 1985.00 1769.15 43.80
1045 58.2600 1814.00 1645.06 41.70
1046 58.3100 1616.00 1573.37 39.40
1047 58.3600 1536.00 1530.73 38.40
1048 58.4100 1457.00 1504.06 37.40
1049 58.4600 1416.00 1486.65 36.70
1050 58.5100 1413.00 1474.73 36.90
1051 58.5600 1396.00 1466.20 36.30
1052 58.6100 1422.00 1459.67 36.70
1053 58.6600 1395.00 1454.05 36.30
1054 58.7100 1362.00 1448.48 35.90
1055 58.7600 1478.00 1443.69 37.10
1056 58.8100 1401.00 1436.42 36.40
1057 58.8600 1419.00 1427.88 36.50
1058 58.9100 1387.00 1418.15 35.90
1059 58.9600 1392.00 1407.51 36.10
1060 59.0100 1356.00 1396.38 35.70
1061 59.0600 1335.00 1385.24 35.10
1062 59.1100 1325.00 1374.60 35.20
1063 59.1600 1322.00 1364.90 35.10
1064 59.2100 1300.00 1356.69 34.60
1065 59.2600 1335.00 1350.64 35.20
1066 59.3100 1306.00 1347.71 34.90
1067 59.3600 1336.00 1349.41 35.00
1068 59.4100 1293.00 1358.15 34.60
1069 59.4600 1331.00 1377.73 35.10
1070 59.5100 1421.00 1413.65 36.20
1071 59.5600 1458.00 1473.36 36.60
1072 59.6100 1484.00 1565.89 37.00
1073 59.6600 1658.00 1700.88 39.00
1074 59.7100 1797.00 1886.70 40.60
1075 59.7600 2053.00 2127.96 43.50
1076 59.8100 2361.00 2422.45 46.50
1077 59.8600 2722.00 2757.95 50.10
1078 59.9100 3056.00 3110.64 53.10
1079 59.9600 3411.00 3446.54 55.90
1080 60.0100 3764.00 3727.54 58.90
1081 60.0600 3906.00 3917.43 59.90
1082 60.1100 4060.00 3989.40 61.00
1083 60.1600 3972.00 3934.15 60.40
1084 60.2100 3696.00 3762.27 58.30
1085 60.2600 3555.00 3501.14 57.40
1086 60.3100 3219.00 3189.85 54.30
1087 60.3600 2882.00 2868.85 51.60
1088 60.4100 2662.00 2569.42 49.70
1089 60.4600 2366.00 2309.19 46.70
1090 60.5100 2368.00 2094.07 46.80
1091 60.5600 2079.00 1921.79 43.80
1092 60.6100 1927.00 1785.97 42.20
1093 60.6600 1762.00 1679.88 40.30
1094 60.7100 1704.00 1594.66 39.60
1095 60.7600 1555.00 1525.43 38.10
1096 60.8100 1519.00 1468.18 37.40
1097 60.8600 1488.00 1420.44 37.30
1098 60.9100 1375.00 1378.96 35.90
1099 60.9600 1368.00 1346.42 35.60
1100 61.0100 1315.00 1320.30 35.00
1101 61.0600 1253.00 1299.91 34.30
1102 61.1100 1251.00 1284.50 34.00
1103 61.1600 1248.00 1273.33 34.30
1104 61.2100 1199.00 1265.70 33.60
1105 61.2600 1223.00 1260.98 33.80
1106 61.3100 1238.00 1258.79 34.20
1107 61.3600 1209.00 1258.47 34.10
1108 61.4100 1192.00 1259.83 33.30
1109 61.4600 1227.00 1262.60 34.20
1110 61.5100 1215.00 1266.52 34.20
1111 61.5600 1220.00 1271.33 33.90
1112 61.6100 1187.00 1276.70 33.60
1113 61.6600 1213.00 1282.24 34.40
1114 61.7100 1190.00 1287.48 33.50
1115 61.7600 1265.00 1291.91 35.10
1116 61.8100 1249.00 1294.98 34.90
1117 61.8600 1247.00 1296.29 34.70
1118 61.9100 1335.00 1295.72 36.10
1119 61.9600 1254.00 1293.46 35.20
1120 62.0100 1236.00 1289.97 34.60
1121 62.0600 1224.00 1285.86 34.80
1122 62.1100 1238.00 1281.74 35.00
1123 62.1600 1297.00 1278.17 35.80
1124 62.2100 1253.00 1275.67 35.20
1125 62.2600 1292.00 1274.75 36.10
1126 62.3100 1231.00 1276.02 34.90
1127 62.3600 1247.00 1280.27 35.30
1128 62.4100 1235.00 1288.73 35.20
1129 62.4600 1227.00 1303.23 35.10
1130 62.5100 1269.00 1326.43 35.60
1131 62.5600 1282.00 1361.70 35.90
1132 62.6100 1320.00 1412.67 36.30
1133 62.6600 1473.00 1482.13 38.20
1134 62.7100 1458.00 1570.56 38.30
1135 62.7600 1654.00 1674.72 40.60
1136 62.8100 1755.00 1786.91 41.70
1137 62.8600 1834.00 1895.09 42.70
1138 62.9100 1966.00 1984.26 44.20
1139 62.9600 1971.00 2040.82 43.70
1140 63.0100 1924.00 2061.02 43.70
1141 63.0600 2055.00 2056.80 44.70
1142 63.1100 1973.00 2046.59 43.70
1143 63.1600 2033.00 2063.66 44.30
1144 63.2100 2068.00 2119.71 44.90
1145 63.2600 2119.00 2221.16 44.80
1146 63.3100 2253.00 2360.09 46.60
1147 63.3600 2371.00 2515.80 47.40
1148 63.4100 2587.00 2656.93 49.50
1149 63.4600 2664.00 2749.50 49.90
1150 63.5100 2683.00 2764.59 50.40
1151 63.5600 2653.00 2703.16 49.40
1152 63.6100 2603.00 2589.47 49.20
1153 63.6600 2515.00 2457.81 48.10
1154 63.7100 2297.00 2338.09 46.00
1155 63.7600 2287.00 2249.47 45.60
1156 63.8100 2274.00 2198.79 45.80
1157 63.8600 2294.00 2180.85 45.40
1158 63.9100 2350.00 2180.59 46.30
1159 63.9600 2363.00 2177.50 46.20
1160 64.0100 2349.00 2153.32 46.00
1161 64.0600 2225.00 2100.41 44.60
1162 64.1100 2174.00 2024.14 44.30
1163 64.1600 2059.00 1937.41 42.80
1164 64.2100 1806.00 1854.37 40.20
1165 64.2600 1886.00 1786.50 41.10
1166 64.3100 1704.00 1741.35 39.00
1167 64.3600 1754.00 1721.89 39.50
1168 64.4100 1739.00 1726.85 39.40
1169 64.4600 1785.00 1751.24 39.80
1170 64.5100 1844.00 1787.30 40.50
1171 64.5600 1870.00 1825.36 40.70
1172 64.6100 1864.00 1855.98 40.70
1173 64.6600 1930.00 1873.21 41.30
1174 64.7100 1898.00 1877.87 41.00
1175 64.7600 1906.00 1876.66 41.10
1176 64.8100 1849.00 1878.21 40.50
1177 64.8600 1835.00 1889.33 40.60
1178 64.9100 1931.00 1913.43 41.40
1179 64.9600 1890.00 1950.13 41.00
1180 65.0100 1955.00 1995.36 41.90
1181 65.0600 1986.00 2041.42 42.10
1182 65.1100 2031.00 2077.61 42.50
1183 65.1600 2047.00 2092.54 43.00
1184 65.2100 2046.00 2078.20 42.70
1185 65.2600 1933.00 2033.79 41.60
1186 65.3100 1888.00 1965.76 41.30
1187 65.3600 1801.00 1884.26 40.40
1188 65.4100 1713.00 1799.54 39.20
1189 65.4600 1692.00 1720.37 39.20
1190 65.5100 1629.00 1653.60 38.40
1191 65.5600 1583.00 1604.33 37.80
1192 65.6100 1604.00 1576.83 38.20
1193 65.6600 1636.00 1574.78 38.60
1194 65.7100 1599.00 1599.69 38.00
1195 65.7600 1597.00 1653.69 38.40
1196 65.8100 1794.00 1735.18 40.40
1197 65.8600 1811.00 1844.20 40.60
1198 65.9100 1867.00 1976.55 41.50
1199 65.9600 2058.00 2126.66 43.50
1200 66.0100 2199.00 2285.82 44.70
1201 66.0600 2461.00 2439.22 47.60
1202 66.1100 2563.00 2564.50 48.50
1203 66.1600 2719.00 2634.96 49.90
1204 66.2100 2629.00 2631.35 49.20
1205 66.2600 2638.00 2549.45 49.40
1206 66.3100 2494.00 2409.62 47.80
1207 66.3600 2242.00 2239.27 45.50
1208 66.4100 2060.00 2062.69 43.60
1209 66.4600 1976.00 1896.79 42.60
1210 66.5100 1813.00 1751.41 40.90
1211 66.5600 1658.00 1630.36 39.10
1212 66.6100 1631.00 1534.46 38.70
1213 66.6600 1463.00 1461.80 36.80
1214 66.7100 1461.00 1409.01 36.70
1215 66.7600 1389.00 1372.06 35.90
1216 66.8100 1368.00 1347.23 35.60
1217 66.8600 1376.00 1331.40 35.70
1218 66.9100 1302.00 1323.66 34.70
1219 66.9600 1353.00 1319.33 35.20
1220 67.0100 1296.00 1318.69 34.60
1221 67.0600 1277.00 1320.91 34.40
1222 67.1100 1271.00 1325.44 34.10
1223 67.1600 1262.00 1331.78 34.30
1224 67.2100 1333.00 1339.46 35.10
1225 67.2600 1300.00 1347.91 34.80
1226 67.3100 1409.00 1358.03 36.20
1227 67.3600 1374.00 1365.77 35.90
1228 67.4100 1331.00 1371.76 35.20
1229 67.4600 1385.00 1375.16 36.20
1230 67.5100 1405.00 1375.52 36.30
1231 67.5600 1367.00 1372.96 36.00
1232 67.6100 1390.00 1368.11 36.30
1233 67.6600 1357.00 1361.90 35.90
1234 67.7100 1373.00 1355.26 36.10
1235 67.7600 1320.00 1349.03 35.60
1236 67.8100 1339.00 1343.86 35.70
1237 67.8600 1348.00 1340.29 36.20
1238 67.9100 1328.00 1338.81 35.70
1239 67.9600 1389.00 1340.01 36.80
1240 68.0100 1386.00 1344.74 36.70
1241 68.0600 1393.00 1354.47 37.00
1242 68.1100 1373.00 1371.62 36.60
1243 68.1600 1495.00 1399.89 38.80
1244 68.2100 1476.00 1444.14 38.10
1245 68.2600 1591.00 1510.89 39.90
1246 68.3100 1585.00 1605.54 39.90
1247 68.3600 1753.00 1732.51 41.90
1248 68.4100 1798.00 1891.04 42.40
1249 68.4600 2050.00 2073.94 45.70
1250 68.5100 2117.00 2265.77 46.00
1251 68.5600 2316.00 2441.83 48.40
1252 68.6100 2476.00 2569.81 50.20
1253 68.6600 2453.00 2618.58 49.70
1254 68.7100 2518.00 2574.56 50.50
1255 68.7600 2437.00 2451.56 50.10
1256 68.8100 2144.00 2280.92 46.50
1257 68.8600 1991.00 2094.89 45.10
1258 68.9100 1929.00 1918.04 44.60
1259 68.9600 1749.00 1765.75 42.00
1260 69.0100 1746.00 1645.08 42.20
1261 69.0600 1567.00 1556.53 40.00
1262 69.1100 1582.00 1495.67 39.90
1263 69.1600 1535.00 1457.96 39.40
1264 69.2100 1562.00 1437.00 39.90
1265 69.2600 1471.00 1428.09 38.30
1266 69.3100 1529.00 1428.10 39.40
1267 69.3600 1600.00 1435.90 39.90
1268 69.4100 1584.00 1451.73 39.70
1269 69.4600 1495.00 1477.42 38.50
1270 69.5100 1568.00 1516.32 39.50
1271 69.5600 1613.00 1573.09 39.50
1272 69.6100 1687.00 1653.41 40.90
1273 69.6600 1860.00 1763.35 42.50
1274 69.7100 1978.00 1908.34 43.80
1275 69.7600 2092.00 2091.84 45.10
1276 69.8100 2346.00 2313.73 47.60
1277 69.8600 2599.00 2568.63 49.70
1278 69.9100 2893.00 2845.02 53.00
1279 69.9600 3104.00 3123.21 54.00
1280 70.0100 3311.00 3375.28 56.00
1281 70.0600 3601.00 3567.02 58.40
1282 70.1100 3697.00 3665.92 59.00
1283 70.1600 3733.00 3655.80 59.00
1284 70.2100 3704.00 3546.47 59.30
1285 70.2600 3536.00 3368.75 57.30
1286 70.3100 3224.00 3160.63 54.80
1287 70.3600 3108.00 2956.40 53.90
1288 70.4100 2972.00 2783.94 52.50
1289 70.4600 2719.00 2663.02 50.00
1290 70.5100 2772.00 2606.22 50.90
1291 70.5600 2728.00 2618.61 50.20
1292 70.6100 2820.00 2697.09 51.00
1293 70.6600 2919.00 2829.65 51.90
1294 70.7100 3037.00 2994.88 53.00
1295 70.7600 3285.00 3164.72 55.00
1296 70.8100 3350.00 3311.04 55.60
1297 70.8600 3652.00 3411.79 58.10
1298 70.9100 3594.00 3459.26 57.50
1299 70.9600 3719.00 3469.91 58.40
1300 71.0100 3619.00 3481.85 57.80
1301 71.0600 3682.00 3530.05 58.00
1302 71.1100 3883.00 3625.24 59.60
1303 71.1600 3952.00 3747.23 60.40
1304 71.2100 4108.00 3848.79 61.20
1305 71.2600 4179.00 3873.89 62.00
1306 71.3100 4060.00 3792.97 61.20
1307 71.3600 4008.00 3624.25 60.60
1308 71.4100 3744.00 3414.51 58.70
1309 71.4600 3508.00 3209.90 56.80
1310 71.5100 3342.00 3043.10 55.30
1311 71.5600 3254.00 2933.41 54.50
1312 71.6100 3262.00 2892.68 54.80
1313 71.6600 3257.00 2933.31 54.50
1314 71.7100 3377.00 3068.53 55.60
1315 71.7600 3545.00 3302.01 57.20
1316 71.8100 3737.00 3618.49 58.40
1317 71.8600 4154.00 3978.87 61.80
1318 71.9100 4472.00 4321.88 64.30
1319 71.9600 4723.00 4576.15 65.50
1320 72.0100 4955.00 4695.98 67.50
1321 72.0600 5007.00 4696.04 67.80
1322 72.1100 4914.00 4641.01 66.80
1323 72.1600 4894.00 4587.27 67.00
1324 72.2100 4781.00 4555.24 66.30
1325 72.2600 4656.00 4518.25 65.10
1326 72.3100 4576.00 4417.02 64.80
1327 72.3600 4392.00 4195.48 63.60
1328 72.4100 4103.00 3847.65 61.10
1329 72.4600 3548.00 3420.64 56.80
1330 72.5100 3216.00 2976.98 54.40
1331 72.5600 2754.00 2567.77 50.00
1332 72.6100 2335.00 2224.64 46.10
1333 72.6600 2049.00 1959.63 43.50
1334 72.7100 1845.00 1769.39 40.90
1335 72.7600 1742.00 1640.75 39.90
1336 72.8100 1727.00 1557.44 40.00
1337 72.8600 1615.00 1504.48 38.50
1338 72.9100 1609.00 1470.38 38.40
1339 72.9600 1521.00 1447.52 37.50
1340 73.0100 1543.00 1431.27 37.60
1341 73.0600 1561.00 1419.06 37.80
1342 73.1100 1519.00 1409.46 37.40
1343 73.1600 1460.00 1401.69 36.80
1344 73.2100 1505.00 1395.24 37.10
1345 73.2600 1495.00 1389.76 37.30
1346 73.3100 1464.00 1384.95 36.90
1347 73.3600 1478.00 1380.60 37.00
1348 73.4100 1475.00 1376.83 37.00
1349 73.4600 1528.00 1372.99 37.80
1350 73.5100 1484.00 1369.31 37.00
1351 73.5600 1527.00 1365.84 37.60
1352 73.6100 1556.00 1362.63 38.20
1353 73.6600 1504.00 1359.75 37.50
1354 73.7100 1524.00 1357.29 37.60
1355 73.7600 1557.00 1355.32 38.40
1356 73.8100 1432.00 1353.90 36.60
1357 73.8600 1519.00 1353.07 37.70
1358 73.9100 1498.00 1352.87 37.60
1359 73.9600 1499.00 1353.31 37.40
1360 74.0100 1526.00 1354.40 37.80
1361 74.0600 1487.00 1356.13 37.50
1362 74.1100 1478.00 1358.46 37.20
1363 74.1600 1447.00 1361.34 37.10
1364 74.2100 1500.00 1364.71 37.70
1365 74.2600 1559.00 1367.77 38.60
1366 74.3100 1519.00 1371.86 38.00
1367 74.3600 1516.00 1376.13 38.20
1368 74.4100 1451.00 1380.43 37.30
1369 74.4600 1464.00 1384.63 37.80
1370 74.5100 1453.00 1388.57 37.40
1371 74.5600 1501.00 1392.12 38.20
1372 74.6100 1534.00 1395.16 38.70
1373 74.6600 1509.00 1397.66 38.40
1374 74.7100 1525.00 1399.60 38.50
1375 74.7600 1539.00 1401.05 39.10
1376 74.8100 1558.00 1402.06 39.00
1377 74.8600 1494.00 1402.72 38.30
1378 74.9100 1474.00 1403.10 38.30
1379 74.9600 1490.00 1403.26 38.30
1380 75.0100 1596.00 1403.18 39.60
1381 75.0600 1532.00 1402.86 39.10
1382 75.1100 1498.00 1402.23 38.40
1383 75.1600 1586.00 1401.22 39.70
1384 75.2100 1525.00 1399.75 39.00
1385 75.2600 1511.00 1397.73 38.80
1386 75.3100 1571.00 1395.24 39.50
1387 75.3600 1604.00 1392.28 40.00
1388 75.4100 1487.00 1388.95 38.50
1389 75.4600 1517.00 1385.42 38.60
1390 75.5100 1550.00 1381.83 39.30
1391 75.5600 1484.00 1378.41 38.20
1392 75.6100 1568.00 1375.34 39.30
1393 75.6600 1464.00 1372.82 38.00
1394 75.7100 1539.00 1371.05 38.90
1395 75.7600 1493.00 1370.33 38.00
1396 75.8100 1476.00 1370.62 38.10
1397 75.8600 1476.00 1372.00 37.90
1398 75.9100 1426.00 1374.97 37.20
1399 75.9600 1492.00 1379.45 38.00
1400 76.0100 1490.00 1385.47 38.10
1401 76.0600 1467.00 1392.46 37.40
1402 76.1100 1434.00 1401.44 37.20
1403 76.1600 1537.00 1411.65 38.40
1404 76.2100 1490.00 1422.77 37.70
1405 76.2600 1496.00 1434.38 37.70
1406 76.3100 1531.00 1445.91 38.30
1407 76.3600 1554.00 1455.78 38.30
1408 76.4100 1538.00 1464.94 38.20
1409 76.4600 1721.00 1471.64 40.30
1410 76.5100 1580.00 1475.19 38.60
1411 76.5600 1617.00 1476.25 38.90
1412 76.6100 1615.00 1472.59 39.10
1413 76.6600 1566.00 1465.69 38.20
1414 76.7100 1619.00 1456.05 38.90
1415 76.7600 1569.00 1444.89 38.40
1416 76.8100 1536.00 1431.34 37.90
1417 76.8600 1507.00 1418.97 37.40
1418 76.9100 1575.00 1406.86 38.50
1419 76.9600 1489.00 1395.44 37.20
1420 77.0100 1442.00 1384.97 36.60
1421 77.0600 1444.00 1374.46 36.70
1422 77.1100 1392.00 1366.42 36.00
1423 77.1600 1391.00 1359.64 35.90
1424 77.2100 1431.00 1354.10 36.50
1425 77.2600 1449.00 1349.72 36.90
1426 77.3100 1411.00 1349.17 36.20
1427 77.3600 1447.00 1346.82 36.70
1428 77.4100 1443.00 1344.18 36.80
1429 77.4600 1375.00 1343.38 35.80
1430 77.5100 1382.00 1343.18 35.90
1431 77.5600 1460.00 1343.52 37.00
1432 77.6100 1352.00 1344.34 35.50
1433 77.6600 1392.00 1345.60 35.90
1434 77.7100 1441.00 1347.30 36.70
1435 77.7600 1343.00 1349.46 35.50
1436 77.8100 1426.00 1354.03 36.40
1437 77.8600 1455.00 1357.39 37.00
1438 77.9100 1391.00 1361.59 36.10
1439 77.9600 1440.00 1366.96 36.50
1440 78.0100 1521.00 1374.04 37.80
1441 78.0600 1454.00 1383.43 36.90
1442 78.1100 1426.00 1396.58 36.40
1443 78.1600 1467.00 1414.84 37.10
1444 78.2100 1488.00 1440.05 37.30
1445 78.2600 1507.00 1474.27 37.40
1446 78.3100 1579.00 1519.47 38.50
1447 78.3600 1613.00 1577.06 38.90
1448 78.4100 1716.00 1647.46 40.00
1449 78.4600 1741.00 1729.38 40.30
1450 78.5100 1875.00 1819.41 41.90
1451 78.5600 1933.00 1911.35 42.30
1452 78.6100 2072.00 1995.80 43.90
1453 78.6600 2135.00 2060.44 44.70
1454 78.7100 2123.00 2092.69 44.30
1455 78.7600 2124.00 2085.16 44.50
1456 78.8100 2078.00 2040.09 44.10
1457 78.8600 2069.00 1968.05 43.80
1458 78.9100 1967.00 1882.29 42.80
1459 78.9600 1830.00 1794.36 41.30
1460 79.0100 1822.00 1712.64 41.10
1461 79.0600 1729.00 1642.61 40.20
1462 79.1100 1770.00 1587.44 40.60
1463 79.1600 1654.00 1548.53 39.10
1464 79.2100 1659.00 1526.11 39.40
1465 79.2600 1698.00 1519.58 39.90
1466 79.3100 1655.00 1527.88 39.10
1467 79.3600 1710.00 1549.44 40.10
1468 79.4100 1722.00 1582.17 40.20
1469 79.4600 1869.00 1623.13 41.60
1470 79.5100 1835.00 1668.14 41.60
1471 79.5600 1958.00 1711.43 42.80
1472 79.6100 2030.00 1745.71 43.40
1473 79.6600 2005.00 1763.74 43.60
1474 79.7100 1984.00 1761.25 43.10
1475 79.7600 1960.00 1739.24 42.80
1476 79.8100 1898.00 1702.26 42.40
1477 79.8600 1741.00 1656.95 40.40
1478 79.9100 1719.00 1608.98 40.10
1479 79.9600 1625.00 1563.02 39.40
1480 80.0100 1626.00 1522.20 39.10
1481 80.0600 1587.00 1488.18 38.60
1482 80.1100 1556.00 1461.47 38.50
1483 80.1600 1563.00 1441.79 38.50
1484 80.2100 1481.00 1428.44 37.30
1485 80.2600 1455.00 1420.56 37.50
1486 80.3100 1511.00 1417.26 37.80
1487 80.3600 1449.00 1417.76 37.20
1488 80.4100 1517.00 1421.06 38.20
1489 80.4600 1493.00 1426.07 37.80
1490 80.5100 1443.00 1431.38 37.10
1491 80.5600 1447.00 1435.36 37.50
1492 80.6100 1504.00 1436.70 37.90
1493 80.6600 1485.00 1435.25 38.10
1494 80.7100 1553.00 1432.10 38.80
1495 80.7600 1466.00 1428.68 38.00
1496 80.8100 1497.00 1426.11 38.20
1497 80.8600 1369.00 1425.11 36.90
1498 80.9100 1422.00 1426.02 37.40
1499 80.9600 1389.00 1428.98 37.30
1500 81.0100 1484.00 1434.03 38.40
1501 81.0600 1511.00 1441.41 38.80
1502 81.1100 1441.00 1451.78 37.90
1503 81.1600 1514.00 1466.58 39.00
1504 81.2100 1447.00 1492.93 38.00
1505 81.2600 1497.00 1526.48 39.00
1506 81.3100 1602.00 1577.98 40.10
1507 81.3600 1669.00 1655.53 41.10
1508 81.4100 1836.00 1767.70 43.20
1509 81.4600 1926.00 1920.85 44.10
1510 81.5100 2171.00 2115.84 46.80
1511 81.5600 2330.00 2344.29 48.50
1512 81.6100 2661.00 2584.99 51.80
1513 81.6600 2938.00 2801.34 54.70
1514 81.7100 3019.00 2943.43 55.20
1515 81.7600 3052.00 2967.13 55.50
1516 81.8100 2981.00 2865.48 55.10
1517 81.8600 2745.00 2674.94 52.30
1518 81.9100 2561.00 2446.60 50.80
1519 81.9600 2236.00 2222.93 47.20
1520 82.0100 2016.00 2027.31 44.80
1521 82.0600 1927.00 1872.70 43.60
1522 82.1100 1793.00 1760.75 42.30
1523 82.1600 1691.00 1686.49 40.60
1524 82.2100 1693.00 1641.96 40.90
1525 82.2600 1612.00 1619.12 39.70
1526 82.3100 1617.00 1611.54 39.70
1527 82.3600 1660.00 1615.10 40.10
1528 82.4100 1598.00 1628.02 39.60
1529 82.4600 1698.00 1650.82 40.20
1530 82.5100 1724.00 1686.34 40.80
1531 82.5600 1667.00 1739.97 39.90
1532 82.6100 1833.00 1819.95 41.70
1533 82.6600 1988.00 1937.31 43.30
1534 82.7100 2056.00 2104.93 44.30
1535 82.7600 2406.00 2335.68 47.50
1536 82.8100 2679.00 2638.98 50.20
1537 82.8600 2878.00 3016.86 52.00
1538 82.9100 3397.00 3459.39 56.40
1539 82.9600 3920.00 3939.88 60.30
1540 83.0100 4208.00 4410.55 62.90
1541 83.0600 4575.00 4800.38 65.10
1542 83.1100 5075.00 5029.00 68.60
1543 83.1600 5164.00 5041.56 69.30
1544 83.2100 4993.00 4849.53 68.00
1545 83.2600 4543.00 4517.13 64.80
1546 83.3100 4034.00 4124.25 61.30
1547 83.3600 3680.00 3736.52 58.20
1548 83.4100 3280.00 3394.96 55.00
1549 83.4600 2892.00 3122.26 51.70
1550 83.5100 2719.00 2922.14 50.00
1551 83.5600 2672.00 2785.41 49.60
1552 83.6100 2593.00 2689.93 49.00
1553 83.6600 2548.00 2616.79 48.50
1554 83.7100 2447.00 2551.84 47.50
1555 83.7600 2406.00 2488.21 47.10
1556 83.8100 2386.00 2423.64 46.90
1557 83.8600 2347.00 2358.51 46.60
1558 83.9100 2217.00 2295.65 45.20
1559 83.9600 2206.00 2239.97 45.00
1560 84.0100 2176.00 2197.11 44.90
1561 84.0600 2208.00 2172.16 44.90
1562 84.1100 2072.00 2168.75 43.60
1563 84.1600 2100.00 2188.55 44.00
1564 84.2100 2140.00 2230.95 44.20
1565 84.2600 2173.00 2292.66 44.70
1566 84.3100 2293.00 2367.11 46.00
1567 84.3600 2455.00 2443.76 47.30
1568 84.4100 2561.00 2508.13 48.50
1569 84.4600 2558.00 2543.67 48.40
1570 84.5100 2631.00 2537.56 48.90
1571 84.5600 2564.00 2487.13 48.30
1572 84.6100 2458.00 2401.22 47.50
1573 84.6600 2306.00 2294.62 45.80
1574 84.7100 2148.00 2181.85 44.20
1575 84.7600 2094.00 2073.77 43.70
1576 84.8100 1979.00 1977.52 42.40
1577 84.8600 1909.00 1896.95 41.60
1578 84.9100 1835.00 1833.42 40.90
1579 84.9600 1812.00 1786.44 40.50
1580 85.0100 1732.00 1754.27 39.60
1581 85.0600 1777.00 1734.61 40.10
1582 85.1100 1767.00 1725.15 40.00
1583 85.1600 1727.00 1724.06 39.70
1584 85.2100 1772.00 1730.39 40.10
1585 85.2600 1752.00 1743.90 39.90
1586 85.3100 1805.00 1767.71 40.60
1587 85.3600 1731.00 1806.27 39.70
1588 85.4100 1873.00 1869.56 41.20
1589 85.4600 1987.00 1975.61 42.40
1590 85.5100 2143.00 2153.77 44.20
1591 85.5600 2541.00 2445.72 47.90
1592 85.6100 2977.00 2903.40 51.90
1593 85.6600 3569.00 3565.17 56.90
1594 85.7100 4568.00 4449.52 64.20
1595 85.7600 5550.00 5519.53 71.10
1596 85.8100 6877.00 6661.31 79.00
1597 85.8600 8038.00 7667.41 85.60
1598 85.9100 8590.00 8255.78 88.50
1599 85.9600 8405.00 8200.28 87.40
1600 86.0100 8043.00 7522.82 85.60
1601 86.0600 6763.00 6471.84 78.80
1602 86.1100 5385.00 5325.12 70.00
1603 86.1600 4230.00 4275.85 62.20
1604 86.2100 3410.00 3424.89 55.90
1605 86.2600 2721.00 2799.17 50.00
1606 86.3100 2421.00 2376.30 47.10
1607 86.3600 2094.00 2110.32 43.90
1608 86.4100 1952.00 1952.11 42.30
1609 86.4600 1882.00 1862.17 41.70
1610 86.5100 1839.00 1813.30 41.10
1611 86.5600 1793.00 1789.34 40.70
1612 86.6100 1752.00 1781.28 40.20
1613 86.6600 1627.00 1783.82 39.00
1614 86.7100 1729.00 1792.92 40.00
1615 86.7600 1809.00 1804.29 41.30
1616 86.8100 1847.00 1812.83 41.60
1617 86.8600 1883.00 1814.16 42.20
1618 86.9100 1765.00 1805.77 40.70
1619 86.9600 1783.00 1789.66 41.10
1620 87.0100 1754.00 1772.42 40.80
1621 87.0600 1719.00 1757.16 40.60
1622 87.1100 1748.00 1747.21 40.70
1623 87.1600 1760.00 1745.37 41.20
1624 87.2100 1872.00 1754.23 42.40
1625 87.2600 1807.00 1776.58 41.70
1626 87.3100 1849.00 1815.73 42.30
1627 87.3600 1937.00 1876.02 43.50
1628 87.4100 1972.00 1962.71 43.60
1629 87.4600 2096.00 2081.75 45.30
1630 87.5100 2474.00 2238.87 49.20
1631 87.5600 2669.00 2437.62 51.00
1632 87.6100 2887.00 2676.57 53.20
1633 87.6600 3177.00 2946.85 55.80
1634 87.7100 3466.00 3231.97 58.10
1635 87.7600 3850.00 3500.59 61.90
1636 87.8100 4038.00 3724.37 63.00
1637 87.8600 4128.00 3884.04 63.60
1638 87.9100 4441.00 3980.46 66.50
1639 87.9600 4412.00 4032.03 65.80
1640 88.0100 4519.00 4071.29 66.60
1641 88.0600 4495.00 4123.85 66.60
1642 88.1100 4617.00 4179.26 67.30
1643 88.1600 4519.00 4192.48 66.40
1644 88.2100 4442.00 4119.61 66.20
1645 88.2600 4219.00 3945.17 64.10
1646 88.3100 4062.00 3682.53 63.00
1647 88.3600 3557.00 3366.63 58.90
1648 88.4100 3243.00 3035.93 56.10
1649 88.4600 2846.00 2720.60 52.30
1650 88.5100 2601.00 2442.15 50.30
1651 88.5600 2382.00 2212.82 47.60
1652 88.6100 2146.00 2034.56 45.40
1653 88.6600 2002.00 1902.14 43.70
1654 88.7100 1927.00 1807.65 42.80
1655 88.7600 1858.00 1743.14 41.80
1656 88.8100 1868.00 1701.84 42.20
1657 88.8600 1755.00 1678.14 40.60
1658 88.9100 1848.00 1667.34 41.70
1659 88.9600 1811.00 1665.20 41.00
1660 89.0100 1831.00 1665.21 41.40
1661 89.0600 1895.00 1667.95 41.80
1662 89.1100 1893.00 1666.89 41.90
1663 89.1600 1793.00 1659.25 40.60
1664 89.2100 1834.00 1644.80 41.10
1665 89.2600 1738.00 1625.64 39.90
1666 89.3100 1774.00 1604.64 40.40
1667 89.3600 1649.00 1584.21 38.80
1668 89.4100 1582.00 1565.94 38.10
1669 89.4600 1593.00 1550.45 38.00
1670 89.5100 1560.00 1538.60 37.80
1671 89.5600 1565.00 1530.11 37.70
1672 89.6100 1591.00 1524.73 38.00
1673 89.6600 1550.00 1522.12 37.60
1674 89.7100 1521.00 1521.95 37.20
1675 89.7600 1529.00 1524.76 37.20
1676 89.8100 1585.00 1528.94 38.00
1677 89.8600 1499.00 1535.34 36.80
1678 89.9100 1538.00 1544.28 37.30
1679 89.9600 1531.00 1556.36 37.20
1680 90.0100 1526.00 1572.63 37.10
1681 90.0600 1513.00 1594.86 36.80
1682 90.1100 1534.00 1625.86 37.30
1683 90.1600 1583.00 1669.76 37.70
1684 90.2100 1649.00 1731.81 38.50
1685 90.2600 1672.00 1817.39 38.90
1686 90.3100 1951.00 1931.25 41.90
1687 90.3600 1968.00 2073.77 42.00
1688 90.4100 2219.00 2239.68 44.80
1689 90.4600 2391.00 2414.75 46.20
1690 90.5100 2605.00 2573.10 48.30
1691 90.5600 2591.00 2679.60 48.20
1692 90.6100 2677.00 2709.31 48.90
1693 90.6600 2579.00 2670.92 48.00
1694 90.7100 2478.00 2595.00 47.20
1695 90.7600 2489.00 2524.19 47.30
1696 90.8100 2318.00 2473.85 45.50
1697 90.8600 2295.00 2449.80 45.30
1698 90.9100 2225.00 2447.96 44.70
1699 90.9600 2407.00 2459.23 46.30
1700 91.0100 2390.00 2474.40 46.20
1701 91.0600 2346.00 2486.99 46.00
1702 91.1100 2416.00 2493.92 46.40
1703 91.1600 2414.00 2494.69 46.30
1704 91.2100 2285.00 2490.36 45.30
1705 91.2600 2346.00 2482.04 45.70
1706 91.3100 2338.00 2472.88 45.60
1707 91.3600 2380.00 2462.00 46.30
1708 91.4100 2357.00 2444.45 45.80
1709 91.4600 2357.00 2410.16 45.70
1710 91.5100 2267.00 2348.26 45.20
1711 91.5600 2136.00 2259.03 43.50
1712 91.6100 2047.00 2156.46 42.50
1713 91.6600 1899.00 2056.86 41.10
1714 91.7100 1811.00 1971.25 40.00
1715 91.7600 1771.00 1904.25 39.50
1716 91.8100 1697.00 1855.84 38.90
1717 91.8600 1611.00 1822.35 37.80
1718 91.9100 1672.00 1798.83 38.40
1719 91.9600 1667.00 1781.42 38.30
1720 92.0100 1699.00 1769.05 38.80
1721 92.0600 1592.00 1763.46 37.40
1722 92.1100 1624.00 1767.17 37.80
1723 92.1600 1648.00 1782.02 38.20
1724 92.2100 1736.00 1807.78 39.00
1725 92.2600 1778.00 1843.17 39.70
1726 92.3100 1792.00 1883.44 39.80
1727 92.3600 1824.00 1923.85 40.30
1728 92.4100 1940.00 1962.69 41.50
1729 92.4600 1918.00 2000.89 41.30
1730 92.5100 1920.00 2038.36 41.40
1731 92.5600 1918.00 2071.92 41.20
1732 92.6100 1937.00 2098.26 41.40
1733 92.6600 1907.00 2113.54 41.40
1734 92.7100 1925.00 2119.58 41.30
1735 92.7600 1850.00 2116.87 40.70
1736 92.8100 1895.00 2108.17 41.20
1737 92.8600 1838.00 2093.58 40.70
1738 92.9100 1870.00 2071.46 40.90
1739 92.9600 1866.00 2039.96 41.20
1740 93.0100 1795.00 1997.32 40.20
1741 93.0600 1778.00 1948.36 40.20
1742 93.1100 1779.00 1895.25 40.20
1743 93.1600 1658.00 1841.85 39.10
1744 93.2100 1717.00 1791.44 39.50
1745 93.2600 1644.00 1746.25 39.20
1746 93.3100 1658.00 1707.75 39.20
1747 93.3600 1586.00 1676.71 38.50
1748 93.4100 1568.00 1653.38 38.20
1749 93.4600 1538.00 1637.61 38.00
1750 93.5100 1519.00 1628.95 37.60
1751 93.5600 1579.00 1626.66 38.60
1752 93.6100 1540.00 1629.84 38.10
1753 93.6600 1555.00 1637.35 38.60
1754 93.7100 1556.00 1648.12 38.30
1755 93.7600 1556.00 1661.96 38.80
1756 93.8100 1510.00 1674.91 38.00
1757 93.8600 1573.00 1686.52 38.90
1758 93.9100 1638.00 1694.96 39.80
1759 93.9600 1620.00 1698.87 39.80
1760 94.0100 1593.00 1698.10 39.20
1761 94.0600 1621.00 1692.41 39.80
1762 94.1100 1588.00 1682.32 39.40
1763 94.1600 1650.00 1670.10 40.10
1764 94.2100 1583.00 1656.89 39.30
1765 94.2600 1563.00 1644.10 39.50
1766 94.3100 1584.00 1632.82 39.30
1767 94.3600 1544.00 1623.73 38.80
1768 94.4100 1586.00 1617.11 39.80
1769 94.4600 1522.00 1612.78 38.40
1770 94.5100 1474.00 1610.11 38.00
1771 94.5600 1499.00 1608.02 38.50
1772 94.6100 1500.00 1605.02 38.10
1773 94.6600 1593.00 1599.62 39.40
1774 94.7100 1501.00 1592.58 38.60
1775 94.7600 1569.00 1581.45 38.90
1776 94.8100 1511.00 1569.17 38.30
1777 94.8600 1436.00 1556.65 37.40
1778 94.9100 1552.00 1545.15 38.60
1779 94.9600 1432.00 1535.18 37.00
1780 95.0100 1421.00 1526.98 37.20
1781 95.0600 1502.00 1521.28 37.70
1782 95.1100 1446.00 1516.73 37.20
1783 95.1600 1427.00 1513.86 37.00
1784 95.2100 1444.00 1513.05 37.00
1785 95.2600 1393.00 1513.32 36.20
1786 95.3100 1427.00 1515.12 37.00
1787 95.3600 1440.00 1518.41 36.70
1788 95.4100 1366.00 1523.48 35.90
1789 95.4600 1340.00 1530.35 35.30
1790 95.5100 1448.00 1539.12 36.80
1791 95.5600 1437.00 1549.10 36.50
1792 95.6100 1357.00 1561.79 35.50
1793 95.6600 1439.00 1576.32 36.40
1794 95.7100 1377.00 1592.56 35.70
1795 95.7600 1448.00 1609.99 36.40
1796 95.8100 1420.00 1628.14 36.10
1797 95.8600 1485.00 1646.24 36.70
1798 95.9100 1458.00 1663.34 36.50
1799 95.9600 1514.00 1678.31 37.00
1800 96.0100 1547.00 1690.11 37.50
1801 96.0600 1550.00 1697.94 37.30
1802 96.1100 1546.00 1701.58 37.40
1803 96.1600 1553.00 1701.02 37.40
1804 96.2100 1481.00 1697.56 36.50
1805 96.2600 1589.00 1691.92 37.70
1806 96.3100 1549.00 1685.01 37.30
1807 96.3600 1589.00 1677.55 37.50
1808 96.4100 1578.00 1669.97 37.60
1809 96.4600 1537.00 1662.38 37.00
1810 96.5100 1594.00 1654.77 37.60
1811 96.5600 1522.00 1647.48 36.60
1812 96.6100 1501.00 1641.45 36.60
1813 96.6600 1503.00 1637.70 36.40
1814 96.7100 1587.00 1636.81 37.40
1815 96.7600 1577.00 1638.61 37.30
1816 96.8100 1541.00 1642.18 36.90
1817 96.8600 1541.00 1645.79 36.80
1818 96.9100 1635.00 1647.29 38.00
1819 96.9600 1608.00 1644.89 37.50
1820 97.0100 1650.00 1638.33 38.00
1821 97.0600 1589.00 1629.45 37.40
1822 97.1100 1577.00 1620.99 37.10
1823 97.1600 1544.00 1615.83 36.70
1824 97.2100 1590.00 1616.29 37.40
1825 97.2600 1566.00 1624.32 36.90
1826 97.3100 1543.00 1640.30 36.70
1827 97.3600 1580.00 1663.15 37.30
1828 97.4100 1593.00 1689.67 37.30
1829 97.4600 1593.00 1714.24 37.30
1830 97.5100 1687.00 1728.95 38.60
1831 97.5600 1608.00 1727.34 37.50
1832 97.6100 1524.00 1709.89 36.50
1833 97.6600 1596.00 1684.36 37.50
1834 97.7100 1545.00 1658.37 36.70
1835 97.7600 1597.00 1636.91 37.60
1836 97.8100 1516.00 1622.36 36.60
1837 97.8600 1561.00 1615.32 37.00
1838 97.9100 1539.00 1615.41 36.90
1839 97.9600 1485.00 1621.87 36.20
1840 98.0100 1513.00 1634.24 36.50
1841 98.0600 1587.00 1652.82 37.50
1842 98.1100 1614.00 1679.08 37.80
1843 98.1600 1691.00 1715.97 38.70
1844 98.2100 1678.00 1768.09 38.60
1845 98.2600 1764.00 1840.87 39.60
1846 98.3100 1860.00 1939.26 40.60
1847 98.3600 1974.00 2065.41 41.90
1848 98.4100 2041.00 2216.29 42.60
1849 98.4600 2228.00 2379.10 44.60
1850 98.5100 2381.00 2527.45 46.00
1851 98.5600 2366.00 2621.40 45.90
1852 98.6100 2418.00 2627.52 46.40
1853 98.6600 2340.00 2549.50 45.80
1854 98.7100 2381.00 2425.17 46.00
1855 98.7600 2314.00 2295.17 45.70
1856 98.8100 2030.00 2187.61 42.70
1857 98.8600 1933.00 2120.17 41.70
1858 98.9100 2000.00 2105.38 42.40
1859 98.9600 2037.00 2153.94 42.80
1860 99.0100 2101.00 2275.08 43.50
1861 99.0600 2305.00 2473.59 45.70
1862 99.1100 2525.00 2743.94 47.60
1863 99.1600 2697.00 3061.98 49.30
1864 99.2100 3047.00 3374.81 52.50
1865 99.2600 3151.00 3594.34 53.40
1866 99.3100 3324.00 3642.21 54.80
1867 99.3600 3128.00 3516.60 53.80
1868 99.4100 3050.00 3292.73 52.60
1869 99.4600 2849.00 3054.18 51.00
1870 99.5100 2744.00 2848.18 50.40
1871 99.5600 2518.00 2678.98 47.80
1872 99.6100 2325.00 2522.44 46.10
1873 99.6600 2185.00 2358.22 45.10
1874 99.7100 2017.00 2191.39 42.80
1875 99.7600 1872.00 2038.35 41.80
1876 99.8100 1782.00 1910.04 40.70
1877 99.8600 1689.00 1809.82 39.60
1878 99.9100 1661.00 1736.18 39.40
1879 99.9600 1654.00 1684.93 39.60
1880 100.0100 1549.00 1650.71 38.00
1881 100.0600 1591.00 1628.47 39.00
1882 100.1100 1508.00 1614.16 37.80
1883 100.1600 1585.00 1605.17 38.90
1884 100.2100 1529.00 1599.48 38.20
1885 100.2600 1539.00 1596.17 38.70
1886 100.3100 1584.00 1594.56 38.90
1887 100.3600 1534.00 1593.62 38.80
1888 100.4100 1478.00 1594.01 37.90
1889 100.4600 1527.00 1594.70 38.50
1890 100.5100 1480.00 1595.20 38.10
1891 100.5600 1483.00 1595.02 38.00
1892 100.6100 1561.00 1595.63 39.00
1893 100.6600 1483.00 1593.22 38.40
1894 100.7100 1497.00 1589.70 38.20
1895 100.7600 1537.00 1585.36 39.10
1896 100.8100 1472.00 1580.21 38.20
1897 100.8600 1554.00 1575.20 39.30
1898 100.9100 1461.00 1570.19 38.10
1899 100.9600 1484.00 1565.47 38.20
1900 101.0100 1500.00 1561.10 38.60
1901 101.0600 1428.00 1557.14 37.40
1902 101.1100 1541.00 1553.64 39.00
1903 101.1600 1455.00 1550.59 37.70
1904 101.2100 1475.00 1547.95 38.00
1905 101.2600 1432.00 1545.69 37.20
1906 101.3100 1488.00 1543.74 38.10
1907 101.3600 1507.00 1542.02 38.00
1908 101.4100 1465.00 1540.45 37.70
1909 101.4600 1459.00 1538.95 37.30
1910 101.5100 1365.00 1537.44 36.20
1911 101.5600 1460.00 1535.85 37.00
1912 101.6100 1407.00 1534.16 36.60
1913 101.6600 1414.00 1532.38 36.30
1914 101.7100 1493.00 1530.54 37.40
1915 101.7600 1474.00 1528.72 37.00
1916 101.8100 1475.00 1526.99 37.10
1917 101.8600 1470.00 1525.39 36.70
1918 101.9100 1508.00 1523.97 37.40
1919 101.9600 1478.00 1522.74 36.60
1920 102.0100 1515.00 1522.16 37.30
1921 102.0600 1506.00 1521.34 37.00
1922 102.1100 1519.00 1520.70 37.10
1923 102.1600 1489.00 1520.26 36.70
1924 102.2100 1489.00 1520.02 36.80
1925 102.2600 1453.00 1520.01 36.20
1926 102.3100 1452.00 1520.30 36.20
1927 102.3600 1416.00 1521.01 35.70
1928 102.4100 1561.00 1522.11 37.50
1929 102.4600 1464.00 1524.09 36.00
1930 102.5100 1469.00 1526.91 36.30
1931 102.5600 1447.00 1530.70 35.80
1932 102.6100 1496.00 1535.51 36.40
1933 102.6600 1511.00 1541.32 36.70
1934 102.7100 1453.00 1547.98 35.90
1935 102.7600 1509.00 1555.19 36.60
1936 102.8100 1547.00 1562.42 37.10
1937 102.8600 1526.00 1568.98 36.70
1938 102.9100 1441.00 1574.13 35.70
1939 102.9600 1504.00 1577.02 36.40
1940 103.0100 1541.00 1577.67 36.90
1941 103.0600 1470.00 1576.62 35.90
1942 103.1100 1482.00 1574.83 36.20
1943 103.1600 1467.00 1573.25 35.90
1944 103.2100 1493.00 1572.71 36.20
1945 103.2600 1504.00 1573.63 36.20
1946 103.3100 1526.00 1576.81 36.60
1947 103.3600 1611.00 1582.60 37.50
1948 103.4100 1657.00 1591.49 38.00
1949 103.4600 1634.00 1603.24 37.70
1950 103.5100 1590.00 1620.00 37.20
1951 103.5600 1685.00 1641.56 38.00
1952 103.6100 1651.00 1667.73 37.90
1953 103.6600 1772.00 1697.27 39.30
1954 103.7100 1749.00 1728.74 38.80
1955 103.7600 1653.00 1752.23 37.90
1956 103.8100 1777.00 1765.05 39.30
1957 103.8600 1716.00 1769.69 38.40
1958 103.9100 1817.00 1773.04 39.70
1959 103.9600 1807.00 1785.60 39.60
1960 104.0100 1785.00 1810.59 39.10
1961 104.0600 1754.00 1848.59 38.80
1962 104.1100 1818.00 1896.91 39.70
1963 104.1600 1859.00 1948.90 39.90
1964 104.2100 1897.00 1993.30 40.40
1965 104.2600 1872.00 2019.13 40.30
1966 104.3100 1884.00 2019.74 40.20
1967 104.3600 1904.00 1999.90 40.50
1968 104.4100 1870.00 1971.50 40.30
1969 104.4600 1824.00 1946.57 39.70
1970 104.5100 1857.00 1933.99 40.00
1971 104.5600 1874.00 1938.37 40.30
1972 104.6100 1934.00 1958.64 40.90
1973 104.6600 1853.00 1986.07 39.90
1974 104.7100 1876.00 2003.67 40.30
1975 104.7600 1802.00 1994.15 39.60
1976 104.8100 1890.00 1955.95 40.30
1977 104.8600 1801.00 1904.55 39.50
1978 104.9100 1794.00 1857.24 39.50
1979 104.9600 1763.00 1826.43 38.90
1980 105.0100 1747.00 1813.83 38.90
1981 105.0600 1813.00 1821.87 39.60
1982 105.1100 1842.00 1848.55 39.70
1983 105.1600 1864.00 1889.76 40.20
1984 105.2100 1908.00 1940.56 40.70
1985 105.2600 1993.00 1998.04 41.40
1986 105.3100 2000.00 2062.26 41.60
1987 105.3600 2082.00 2132.92 42.50
1988 105.4100 2190.00 2207.06 43.40
1989 105.4600 2276.00 2279.98 44.50
1990 105.5100 2400.00 2339.68 45.70
1991 105.5600 2381.00 2376.62 45.40
1992 105.6100 2327.00 2381.58 45.00
1993 105.6600 2274.00 2351.41 44.40
1994 105.7100 2202.00 2290.92 43.60
1995 105.7600 2009.00 2210.23 42.00
1996 105.8100 1987.00 2120.36 41.50
1997 105.8600 1975.00 2030.19 41.60
1998 105.9100 1859.00 1945.67 40.40
1999 105.9600 1893.00 1870.34 40.60
2000 106.0100 1784.00 1805.87 39.60
2001 106.0600 1837.00 1752.67 40.20
2002 106.1100 1737.00 1711.06 38.90
2003 106.1600 1764.00 1678.43 39.70
2004 106.2100 1782.00 1654.40 39.60
2005 106.2600 1724.00 1637.83 39.20
2006 106.3100 1707.00 1627.85 39.10
2007 106.3600 1776.00 1623.95 40.10
2008 106.4100 1770.00 1625.92 39.80
2009 106.4600 1770.00 1633.63 40.10
2010 106.5100 1805.00 1646.68 40.40
2011 106.5600 1795.00 1663.91 40.40
2012 106.6100 1882.00 1682.69 41.30
2013 106.6600 1720.00 1698.29 39.80
2014 106.7100 1823.00 1704.97 40.70
2015 106.7600 1802.00 1700.45 40.80
2016 106.8100 1829.00 1688.19 41.00
2017 106.8600 1732.00 1673.73 40.10
2018 106.9100 1752.00 1661.11 40.20
2019 106.9600 1707.00 1652.45 39.90
2020 107.0100 1698.00 1648.50 39.60
2021 107.0600 1737.00 1649.00 40.10
2022 107.1100 1801.00 1653.06 41.00
2023 107.1600 1692.00 1659.25 39.80
2024 107.2100 1719.00 1665.81 39.90
2025 107.2600 1770.00 1671.03 41.00
2026 107.3100 1744.00 1674.00 40.40
2027 107.3600 1835.00 1674.91 41.30
2028 107.4100 1720.00 1674.40 40.40
2029 107.4600 1718.00 1672.28 39.90
2030 107.5100 1735.00 1667.22 40.10
2031 107.5600 1685.00 1658.28 39.70
2032 107.6100 1668.00 1646.75 39.30
2033 107.6600 1662.00 1635.23 39.10
2034 107.7100 1600.00 1625.77 38.70
2035 107.7600 1693.00 1619.32 39.40
2036 107.8100 1636.00 1616.15 38.70
2037 107.8600 1657.00 1616.16 39.10
2038 107.9100 1691.00 1619.14 39.30
2039 107.9600 1597.00 1624.94 37.90
2040 108.0100 1646.00 1633.65 38.90
2041 108.0600 1662.00 1645.64 38.60
2042 108.1100 1692.00 1662.06 39.10
2043 108.1600 1666.00 1684.78 38.70
2044 108.2100 1800.00 1717.07 40.20
2045 108.2600 1800.00 1764.14 40.00
2046 108.3100 1839.00 1833.41 40.70
2047 108.3600 1920.00 1934.19 41.20
2048 108.4100 2098.00 2076.37 43.20
2049 108.4600 2295.00 2268.08 44.90
2050 108.5100 2676.00 2511.17 48.60
2051 108.5600 2910.00 2795.98 50.40
2052 108.6100 3193.00 3092.47 53.00
2053 108.6600 3308.00 3340.69 53.70
2054 108.7100 3484.00 3459.16 55.20
2055 108.7600 3377.00 3396.74 54.20
2056 108.8100 3376.00 3182.28 54.20
2057 108.8600 2980.00 2895.32 51.00
2058 108.9100 2555.00 2605.14 47.20
2059 108.9600 2386.00 2350.30 45.50
2060 109.0100 2160.00 2145.53 43.40
2061 109.0600 1988.00 1991.86 41.40
2062 109.1100 1962.00 1882.78 41.20
2063 109.1600 1859.00 1808.64 40.10
2064 109.2100 1738.00 1759.98 38.70
2065 109.2600 1750.00 1729.04 38.90
2066 109.3100 1740.00 1710.83 38.80
2067 109.3600 1681.00 1701.67 38.00
2068 109.4100 1684.00 1701.25 38.20
2069 109.4600 1719.00 1709.02 38.40
2070 109.5100 1662.00 1724.97 37.80
2071 109.5600 1795.00 1748.53 39.30
2072 109.6100 1809.00 1777.67 39.40
2073 109.6600 1861.00 1807.74 39.90
2074 109.7100 1836.00 1831.25 39.80
2075 109.7600 1825.00 1841.72 39.60
2076 109.8100 1826.00 1839.96 39.50
2077 109.8600 1964.00 1833.12 41.10
2078 109.9100 1866.00 1828.38 40.10
2079 109.9600 1891.00 1829.17 40.30
2080 110.0100 1941.00 1837.52 40.90
2081 110.0600 1928.00 1852.69 40.50
2082 110.1100 1919.00 1873.43 40.60
2083 110.1600 1993.00 1898.79 41.40
2084 110.2100 1996.00 1925.89 41.20
2085 110.2600 2017.00 1954.21 41.70
2086 110.3100 2035.00 1983.69 41.90
2087 110.3600 2048.00 2015.73 41.70
2088 110.4100 2048.00 2050.03 42.00
2089 110.4600 2015.00 2088.75 41.50
2090 110.5100 2160.00 2132.04 42.80
2091 110.5600 2058.00 2177.36 41.90
2092 110.6100 2100.00 2217.91 42.40
2093 110.6600 2190.00 2242.39 43.20
2094 110.7100 2150.00 2239.15 42.90
2095 110.7600 2130.00 2204.49 42.70
2096 110.8100 2037.00 2146.34 41.70
2097 110.8600 1998.00 2079.16 41.40
2098 110.9100 1966.00 2014.22 41.10
2099 110.9600 1892.00 1960.20 40.00
2100 111.0100 1937.00 1922.07 40.80
2101 111.0600 1954.00 1902.87 40.90
2102 111.1100 1887.00 1905.01 40.00
2103 111.1600 2044.00 1930.82 41.70
2104 111.2100 2001.00 1982.83 41.40
2105 111.2600 2261.00 2063.62 43.90
2106 111.3100 2244.00 2175.13 43.70
2107 111.3600 2336.00 2317.50 44.80
2108 111.4100 2535.00 2487.76 46.50
2109 111.4600 2668.00 2676.72 47.60
2110 111.5100 2796.00 2866.57 49.00
2111 111.5600 2880.00 3027.38 49.60
2112 111.6100 3003.00 3122.08 50.50
2113 111.6600 3148.00 3122.81 52.00
2114 111.7100 2977.00 3029.80 50.40
2115 111.7600 2869.00 2871.22 49.50
2116 111.8100 2681.00 2684.17 48.00
2117 111.8600 2488.00 2497.77 46.20
2118 111.9100 2357.00 2329.05 44.90
2119 111.9600 2166.00 2185.83 43.20
2120 112.0100 2061.00 2069.92 42.10
2121 112.0600 1938.00 1979.70 40.80
2122 112.1100 1940.00 1911.64 40.90
2123 112.1600 1778.00 1861.37 39.50
2124 112.2100 1880.00 1824.57 40.20
2125 112.2600 1804.00 1797.62 39.80
2126 112.3100 1769.00 1778.83 39.40
2127 112.3600 1702.00 1763.37 38.70
2128 112.4100 1724.00 1750.99 38.80
2129 112.4600 1716.00 1740.57 39.10
2130 112.5100 1700.00 1731.41 38.70
2131 112.5600 1692.00 1722.99 38.80
2132 112.6100 1646.00 1715.08 38.30
2133 112.6600 1680.00 1707.68 39.00
2134 112.7100 1665.00 1700.97 38.50
2135 112.7600 1695.00 1695.16 39.50
2136 112.8100 1666.00 1690.38 38.80
2137 112.8600 1681.00 1686.60 39.40
2138 112.9100 1641.00 1683.57 38.80
2139 112.9600 1578.00 1680.81 38.30
2140 113.0100 1718.00 1676.86 39.80
2141 113.0600 1653.00 1672.51 39.30
2142 113.1100 1575.00 1666.47 38.20
2143 113.1600 1560.00 1658.69 38.30
2144 113.2100 1580.00 1649.60 38.40
2145 113.2600 1581.00 1639.88 38.80
2146 113.3100 1674.00 1630.19 39.70
2147 113.3600 1620.00 1621.04 39.20
2148 113.4100 1636.00 1612.75 39.50
2149 113.4600 1566.00 1605.49 38.60
2150 113.5100 1615.00 1599.32 39.10
2151 113.5600 1645.00 1594.16 39.70
2152 113.6100 1606.00 1590.11 39.10
2153 113.6600 1612.00 1587.01 39.20
2154 113.7100 1616.00 1584.75 39.30
2155 113.7600 1628.00 1583.22 39.40
2156 113.8100 1677.00 1580.38 40.00
2157 113.8600 1623.00 1580.14 39.20
2158 113.9100 1614.00 1580.35 39.20
2159 113.9600 1556.00 1581.12 38.30
2160 114.0100 1590.00 1582.37 38.90
2161 114.0600 1637.00 1584.09 39.20
2162 114.1100 1611.00 1586.34 38.90
2163 114.1600 1664.00 1589.17 39.50
2164 114.2100 1580.00 1592.69 38.50
2165 114.2600 1641.00 1597.07 39.10
2166 114.3100 1601.00 1602.56 38.70
2167 114.3600 1653.00 1609.51 38.90
2168 114.4100 1672.00 1618.43 39.50
2169 114.4600 1641.00 1629.93 38.50
2170 114.5100 1711.00 1644.81 39.60
2171 114.5600 1768.00 1663.72 40.00
2172 114.6100 1783.00 1687.86 40.20
2173 114.6600 1716.00 1717.75 39.20
2174 114.7100 1855.00 1753.80 41.00
2175 114.7600 1896.00 1795.67 40.90
2176 114.8100 1882.00 1841.89 41.10
2177 114.8600 1861.00 1890.15 40.60
2178 114.9100 2078.00 1939.25 42.80
2179 114.9600 2039.00 1991.19 42.30
2180 115.0100 2238.00 2050.24 44.50
2181 115.0600 2221.00 2119.68 43.90
2182 115.1100 2399.00 2200.08 45.90
2183 115.1600 2444.00 2289.62 46.30
2184 115.2100 2444.00 2383.32 46.10
2185 115.2600 2621.00 2471.25 47.80
2186 115.3100 2660.00 2540.02 48.30
2187 115.3600 2605.00 2577.58 47.50
2188 115.4100 2598.00 2576.02 47.60
2189 115.4600 2583.00 2533.54 47.50
2190 115.5100 2524.00 2457.12 46.80
2191 115.5600 2435.00 2363.24 45.80
2192 115.6100 2289.00 2272.42 44.70
2193 115.6600 2260.00 2200.10 44.30
2194 115.7100 2200.00 2151.64 43.50
2195 115.7600 2026.00 2121.79 42.10
2196 115.8100 2090.00 2096.31 42.60
2197 115.8600 1954.00 2058.38 41.00
2198 115.9100 2002.00 2001.19 41.80
2199 115.9600 1887.00 1932.24 40.50
2200 116.0100 1880.00 1863.31 40.20
2201 116.0600 1791.00 1802.23 39.40
2202 116.1100 1691.00 1752.16 38.40
2203 116.1600 1745.00 1713.35 38.70
2204 116.2100 1718.00 1685.18 38.60
2205 116.2600 1686.00 1664.52 38.40
2206 116.3100 1684.00 1649.90 38.10
2207 116.3600 1664.00 1639.54 38.10
2208 116.4100 1639.00 1632.06 37.80
2209 116.4600 1602.00 1626.47 37.00
2210 116.5100 1713.00 1623.71 38.70
2211 116.5600 1682.00 1620.28 38.30
2212 116.6100 1593.00 1616.92 36.90
2213 116.6600 1682.00 1614.53 38.20
2214 116.7100 1664.00 1612.46 38.00
2215 116.7600 1702.00 1610.65 38.50
2216 116.8100 1625.00 1609.05 37.60
2217 116.8600 1611.00 1607.66 37.50
2218 116.9100 1633.00 1606.43 37.70
2219 116.9600 1724.00 1605.37 38.80
2220 117.0100 1618.00 1604.45 37.60
2221 117.0600 1643.00 1603.90 37.70
2222 117.1100 1611.00 1606.44 37.50
2223 117.1600 1628.00 1605.93 37.90
2224 117.2100 1670.00 1605.52 38.10
2225 117.2600 1569.00 1605.22 42.90
2226 117.3100 1680.00 1604.79 38.50
2227 117.3600 1614.00 1604.70 37.60
2228 117.4100 1765.00 1605.92 45.50
2229 117.4600 1649.00 1606.13 38.00
2230 117.5100 1616.00 1606.50 37.60
2231 117.5600 1670.00 1607.08 44.00
2232 117.6100 1650.00 1607.88 38.00
2233 117.6600 1626.00 1608.95 37.80
2234 117.7100 1613.00 1610.34 43.20
2235 117.7600 1671.00 1612.10 38.30
2236 117.8100 1708.00 1614.34 38.70
2237 117.8600 1632.00 1615.79 43.70
2238 117.9100 1703.00 1619.39 38.70
2239 117.9600 1670.00 1623.98 38.30
2240 118.0100 1688.00 1629.89 44.50
2241 118.0600 1695.00 1637.53 38.50
2242 118.1100 1645.00 1647.45 38.00
2243 118.1600 1709.00 1660.31 44.70
2244 118.2100 1733.00 1676.79 38.90
2245 118.2600 1736.00 1697.63 39.20
2246 118.3100 1794.00 1723.46 45.90
2247 118.3600 1760.00 1754.72 39.30
2248 118.4100 1823.00 1791.44 40.20
2249 118.4600 1884.00 1833.04 40.80
2250 118.5100 1832.00 1877.99 40.10
2251 118.5600 1937.00 1923.37 41.40
2252 118.6100 2003.00 1965.41 42.00
2253 118.6600 1959.00 1996.18 41.80
2254 118.7100 1966.00 2010.99 41.70
2255 118.7600 1940.00 2007.63 41.80
2256 118.8100 2001.00 1988.69 42.30
2257 118.8600 1937.00 1960.09 41.60
2258 118.9100 1908.00 1928.14 41.50
2259 118.9600 1879.00 1897.89 41.20
2260 119.0100 1880.00 1872.57 41.00
2261 119.0600 1823.00 1853.94 40.70
2262 119.1100 1884.00 1842.62 41.30
2263 119.1600 1896.00 1838.39 41.50
2264 119.2100 1909.00 1840.28 41.70
2265 119.2600 1949.00 1846.70 42.40
2266 119.3100 2035.00 1855.61 42.90
2267 119.3600 2037.00 1864.86 43.50
2268 119.4100 1988.00 1872.89 42.80
2269 119.4600 2053.00 1879.14 43.60
2270 119.5100 1957.00 1884.06 42.60
2271 119.5600 1982.00 1888.62 42.90
2272 119.6100 1952.00 1893.75 42.50
2273 119.6600 1966.00 1899.91 43.10
2274 119.7100 1859.00 1906.82 41.60
2275 119.7600 1986.00 1913.33 43.10
2276 119.8100 1849.00 1917.62 41.80
2277 119.8600 1903.00 1917.71 42.30
2278 119.9100 2029.00 1912.47 43.60
2279 119.9600 1981.00 1902.06 43.20
2280 120.0100 1853.00 1888.88 41.80
2281 120.0600 1971.00 1875.16 42.90
2282 120.1100 1946.00 1863.14 42.80
2283 120.1600 1877.00 1854.60 41.80
2284 120.2100 1944.00 1850.44 42.60
2285 120.2600 1861.00 1851.01 41.60
2286 120.3100 1958.00 1856.09 42.70
2287 120.3600 1887.00 1865.15 41.60
2288 120.4100 1924.00 1877.82 42.30
2289 120.4600 2051.00 1890.70 43.20
2290 120.5100 2030.00 1902.40 43.20
2291 120.5600 2103.00 1910.88 43.70
2292 120.6100 2012.00 1914.02 42.80
2293 120.6600 2077.00 1910.75 43.10
2294 120.7100 2038.00 1901.26 43.00
2295 120.7600 1978.00 1889.07 42.20
2296 120.8100 1964.00 1871.29 41.80
2297 120.8600 1938.00 1852.40 41.30
2298 120.9100 1966.00 1834.33 42.10
2299 120.9600 1863.00 1818.16 40.20
2300 121.0100 1872.00 1804.82 40.60
2301 121.0600 1895.00 1795.16 40.70
2302 121.1100 1912.00 1790.13 40.70
2303 121.1600 1853.00 1790.77 40.20
2304 121.2100 1902.00 1798.17 40.70
2305 121.2600 1967.00 1814.65 41.10
2306 121.3100 1904.00 1841.98 40.70
2307 121.3600 1990.00 1882.23 41.60
2308 121.4100 2043.00 1937.04 41.90
2309 121.4600 2021.00 2006.99 41.60
2310 121.5100 2145.00 2090.08 43.20
2311 121.5600 2234.00 2180.85 43.70
2312 121.6100 2326.00 2267.65 44.70
2313 121.6600 2282.00 2332.98 44.40
2314 121.7100 2315.00 2360.88 44.40
2315 121.7600 2266.00 2349.32 44.10
2316 121.8100 2279.00 2312.10 44.40
2317 121.8600 2315.00 2267.38 44.40
2318 121.9100 2272.00 2227.97 44.10
2319 121.9600 2187.00 2199.90 43.40
2320 122.0100 2271.00 2184.44 43.90
2321 122.0600 2266.00 2180.30 44.00
2322 122.1100 2226.00 2185.40 43.80
2323 122.1600 2278.00 2198.74 44.00
2324 122.2100 2259.00 2217.11 43.90
2325 122.2600 2296.00 2240.66 44.50
2326 122.3100 2304.00 2268.66 44.20
2327 122.3600 2344.00 2302.34 44.60
2328 122.4100 2400.00 2343.34 45.50
2329 122.4600 2439.00 2393.41 45.30
2330 122.5100 2521.00 2455.99 46.30
2331 122.5600 2582.00 2525.78 47.00
2332 122.6100 2645.00 2601.48 47.20
2333 122.6600 2711.00 2674.81 48.00
2334 122.7100 2805.00 2732.11 49.00
2335 122.7600 2761.00 2758.41 48.20
2336 122.8100 2766.00 2747.12 48.50
2337 122.8600 2738.00 2706.06 48.40
2338 122.9100 2624.00 2651.10 46.90
2339 122.9600 2650.00 2596.47 47.30
2340 123.0100 2590.00 2550.38 47.10
2341 123.0600 2542.00 2515.85 46.10
2342 123.1100 2558.00 2492.07 46.50
2343 123.1600 2458.00 2475.84 45.70
2344 123.2100 2487.00 2463.29 45.60
2345 123.2600 2425.00 2451.42 45.10
2346 123.3100 2339.00 2438.74 44.60
2347 123.3600 2352.00 2424.67 44.40
2348 123.4100 2430.00 2408.79 45.20
2349 123.4600 2344.00 2390.56 44.40
2350 123.5100 2424.00 2369.88 45.00
2351 123.5600 2329.00 2346.69 44.10
2352 123.6100 2373.00 2321.50 44.70
2353 123.6600 2296.00 2295.10 43.80
2354 123.7100 2222.00 2268.63 43.10
2355 123.7600 2196.00 2243.32 42.80
2356 123.8100 2128.00 2220.49 42.20
2357 123.8600 2111.00 2201.44 42.10
2358 123.9100 2245.00 2188.13 43.30
2359 123.9600 2166.00 2180.41 42.40
2360 124.0100 2123.00 2179.94 42.20
2361 124.0600 2090.00 2187.45 41.60
2362 124.1100 2217.00 2203.18 42.90
2363 124.1600 2147.00 2226.70 42.50
2364 124.2100 2217.00 2256.49 42.90
2365 124.2600 2230.00 2289.49 43.20
2366 124.3100 2245.00 2320.58 43.40
2367 124.3600 2317.00 2342.92 44.00
2368 124.4100 2313.00 2349.88 44.00
2369 124.4600 2296.00 2338.22 44.10
2370 124.5100 2305.00 2309.93 43.90
2371 124.5600 2251.00 2270.81 43.40
2372 124.6100 2226.00 2227.24 43.40
2373 124.6600 2185.00 2184.04 42.80
2374 124.7100 2121.00 2144.06 42.10
2375 124.7600 2168.00 2108.62 42.90
2376 124.8100 2080.00 2078.10 41.70
2377 124.8600 2112.00 2052.30 42.20
2378 124.9100 1996.00 2030.72 41.20
2379 124.9600 2007.00 2012.77 41.30
2380 125.0100 2064.00 1997.83 41.80
2381 125.0600 2061.00 1985.39 41.90
2382 125.1100 2037.00 1975.04 41.60
2383 125.1600 2033.00 1966.46 41.80
2384 125.2100 2040.00 1959.86 41.70
2385 125.2600 2050.00 1955.34 42.10
2386 125.3100 2036.00 1953.32 41.80
2387 125.3600 2029.00 1954.47 42.00
2388 125.4100 2001.00 1959.72 41.60
2389 125.4600 2107.00 1970.19 43.00
2390 125.5100 2104.00 1987.21 42.80
2391 125.5600 2078.00 2012.21 42.70
2392 125.6100 2147.00 2046.64 43.40
2393 125.6600 2279.00 2091.79 45.00
2394 125.7100 2238.00 2148.52 44.30
2395 125.7600 2317.00 2217.11 45.70
2396 125.8100 2424.00 2296.84 46.40
2397 125.8600 2394.00 2385.36 46.60
2398 125.9100 2526.00 2478.25 47.70
2399 125.9600 2695.00 2567.98 49.60
2400 126.0100 2688.00 2644.29 49.40
2401 126.0600 2726.00 2696.29 50.00
2402 126.1100 2821.00 2716.89 50.70
2403 126.1600 2857.00 2707.06 51.40
2404 126.2100 2815.00 2675.23 50.90
2405 126.2600 2648.00 2634.23 49.60
2406 126.3100 2601.00 2594.63 49.00
2407 126.3600 2612.00 2563.49 49.40
2408 126.4100 2641.00 2543.32 49.50
2409 126.4600 2586.00 2532.23 49.10
2410 126.5100 2492.00 2524.66 48.30
2411 126.5600 2480.00 2514.15 48.00
2412 126.6100 2440.00 2497.90 47.70
2413 126.6600 2441.00 2479.06 47.60
2414 126.7100 2550.00 2464.07 48.70
2415 126.7600 2458.00 2458.16 47.80
2416 126.8100 2418.00 2463.23 47.40
2417 126.8600 2525.00 2476.91 48.40
2418 126.9100 2547.00 2492.72 48.70
2419 126.9600 2400.00 2501.27 46.90
2420 127.0100 2438.00 2494.46 47.50
2421 127.0600 2454.00 2470.93 47.30
2422 127.1100 2489.00 2437.29 47.70
2423 127.1600 2373.00 2403.68 46.30
2424 127.2100 2487.00 2379.01 47.60
2425 127.2600 2396.00 2369.31 46.30
2426 127.3100 2457.00 2379.58 47.10
2427 127.3600 2564.00 2411.39 48.00
2428 127.4100 2487.00 2465.35 47.20
2429 127.4600 2518.00 2540.57 47.20
2430 127.5100 2659.00 2634.44 48.80
2431 127.5600 2787.00 2741.91 49.30
2432 127.6100 2868.00 2854.87 50.40
2433 127.6600 2957.00 2961.39 50.90
2434 127.7100 3110.00 3045.77 52.10
2435 127.7600 3037.00 3091.84 51.40
2436 127.8100 3055.00 3088.31 51.80
2437 127.8600 3200.00 3034.28 52.50
2438 127.9100 3077.00 2940.74 51.70
2439 127.9600 2987.00 2824.15 50.70
2440 128.0100 2809.00 2700.81 49.20
2441 128.0600 2705.00 2583.21 48.00
2442 128.1100 2565.00 2479.74 46.90
2443 128.1600 2413.00 2395.90 45.30
2444 128.2100 2416.00 2335.10 45.40
2445 128.2600 2381.00 2299.70 45.10
2446 128.3100 2311.00 2291.19 44.30
2447 128.3600 2345.00 2310.40 44.60
2448 128.4100 2330.00 2357.33 44.60
2449 128.4600 2454.00 2430.48 45.50
2450 128.5100 2521.00 2527.79 46.20
2451 128.5600 2670.00 2643.03 47.30
2452 128.6100 2787.00 2765.92 48.50
2453 128.6600 2919.00 2881.26 49.60
2454 128.7100 2907.00 2971.65 49.40
2455 128.7600 2978.00 3024.39 50.10
2456 128.8100 3006.00 3038.18 50.30
2457 128.8600 3078.00 3022.45 50.80
2458 128.9100 3079.00 2991.40 50.90
2459 128.9600 2985.00 2957.61 49.90
2460 129.0100 2983.00 2927.04 50.00
2461 129.0600 2861.00 2897.01 48.90
2462 129.1100 2831.00 2857.59 48.60
2463 129.1600 2807.00 2797.56 48.60
2464 129.2100 2649.00 2712.54 47.10
2465 129.2600 2620.00 2608.20 46.70
2466 129.3100 2461.00 2496.04 45.50
2467 129.3600 2355.00 2386.79 44.30
2468 129.4100 2208.00 2287.42 42.90
2469 129.4600 2110.00 2201.35 41.90
2470 129.5100 2128.00 2129.40 42.10
2471 129.5600 1992.00 2072.07 40.60
2472 129.6100 1981.00 2026.13 40.60
2473 129.6600 1930.00 1990.26 40.10
2474 129.7100 1912.00 1962.91 39.80
2475 129.7600 1894.00 1941.88 39.70
2476 129.8100 1907.00 1925.50 39.80
2477 129.8600 1942.00 1912.40 40.00
2478 129.9100 1864.00 1901.56 39.40
2479 129.9600 1837.00 1892.26 38.90
2480 130.0100 1768.00 1884.04 38.20
2481 130.0600 1863.00 1876.59 39.20
2482 130.1100 1773.00 1869.76 38.20
2483 130.1600 1862.00 1863.44 39.20
2484 130.2100 1878.00 1857.62 39.40
2485 130.2600 1868.00 1852.26 39.20
2486 130.3100 1907.00 1847.39 39.70
2487 130.3600 1764.00 1843.01 38.10
2488 130.4100 1850.00 1839.13 39.00
2489 130.4600 1794.00 1835.78 38.40
2490 130.5100 1902.00 1832.94 39.50
2491 130.5600 1830.00 1830.65 38.90
2492 130.6100 1824.00 1828.91 38.80
2493 130.6600 1863.00 1827.72 39.20
2494 130.7100 1874.00 1827.07 39.30
2495 130.7600 1764.00 1826.96 38.20
2496 130.8100 1845.00 1827.37 39.00
2497 130.8600 1841.00 1828.29 39.00
2498 130.9100 1907.00 1829.68 39.70
2499 130.9600 1838.00 1831.50 38.90
2500 131.0100 1796.00 1833.69 38.50
2501 131.0600 1862.00 1836.20 39.40
2502 131.1100 1893.00 1838.91 39.50
2503 131.1600 1829.00 1841.76 39.00
2504 131.2100 1849.00 1844.62 39.30
2505 131.2600 1884.00 1847.34 39.60
2506 131.3100 1918.00 1849.78 40.00
2507 131.3600 1957.00 1851.78 40.60
2508 131.4100 1881.00 1853.19 39.50
2509 131.4600 1895.00 1853.40 39.90
2510 131.5100 1888.00 1853.22 39.90
2511 131.5600 1867.00 1852.10 39.60
2512 131.6100 1867.00 1850.00 39.60
2513 131.6600 1818.00 1846.95 39.40
2514 131.7100 1857.00 1843.01 39.50
2515 131.7600 1798.00 1838.28 39.40
2516 131.8100 1877.00 1832.92 40.10
2517 131.8600 1865.00 1827.08 40.10
2518 131.9100 1871.00 1820.90 40.20
2519 131.9600 1912.00 1814.54 40.80
2520 132.0100 1920.00 1808.09 40.60
2521 132.0600 1862.00 1801.66 40.60
2522 132.1100 1850.00 1795.31 40.20
2523 132.1600 1864.00 1789.09 40.80
2524 132.2100 1799.00 1783.05 39.90
2525 132.2600 1817.00 1777.19 40.40
2526 132.3100 1882.00 1771.56 40.90
2527 132.3600 1835.00 1766.14 40.80
2528 132.4100 1833.00 1760.97 40.50
2529 132.4600 1791.00 1756.04 40.40
2530 132.5100 1773.00 1751.77 40.10
2531 132.5600 1732.00 1747.36 39.70
2532 132.6100 1769.00 1743.22 40.20
2533 132.6600 1780.00 1739.35 40.60
2534 132.7100 1748.00 1735.75 39.90
2535 132.7600 1749.00 1732.09 40.30
2536 132.8100 1730.00 1729.04 40.00
2537 132.8600 1741.00 1726.26 40.10
2538 132.9100 1781.00 1723.74 40.70
2539 132.9600 1687.00 1721.47 39.40
2540 133.0100 1731.00 1719.45 40.00
2541 133.0600 1780.00 1717.68 40.50
2542 133.1100 1794.00 1716.15 40.70
2543 133.1600 1800.00 1714.85 40.50
2544 133.2100 1807.00 1713.77 40.80
2545 133.2600 1712.00 1712.48 39.50
2546 133.3100 1713.00 1711.86 39.50
2547 133.3600 1749.00 1711.46 39.80
2548 133.4100 1754.00 1711.02 40.00
2549 133.4600 1789.00 1711.10 39.90
2550 133.5100 1849.00 1711.45 40.90
2551 133.5600 1756.00 1712.07 39.40
2552 133.6100 1759.00 1712.07 39.50
2553 133.6600 1755.00 1713.34 39.30
2554 133.7100 1731.00 1715.00 39.10
2555 133.7600 1782.00 1717.07 39.40
2556 133.8100 1703.00 1719.62 38.70
2557 133.8600 1742.00 1722.70 38.70
2558 133.9100 1786.00 1726.36 39.40
2559 133.9600 1826.00 1730.66 39.40
2560 134.0100 1753.00 1735.64 38.90
2561 134.0600 1849.00 1741.35 39.50
2562 134.1100 1742.00 1748.36 38.50
2563 134.1600 1804.00 1755.58 38.90
2564 134.2100 1802.00 1763.49 39.00
2565 134.2600 1855.00 1771.96 39.20
2566 134.3100 1726.00 1781.18 38.00
2567 134.3600 1776.00 1790.82 38.30
2568 134.4100 1859.00 1800.66 39.30
2569 134.4600 1808.00 1810.40 38.40
2570 134.5100 1875.00 1819.66 39.30
2571 134.5600 1998.00 1827.90 40.20
2572 134.6100 1897.00 1834.93 39.40
2573 134.6600 1966.00 1840.34 40.00
2574 134.7100 1926.00 1844.02 39.50
2575 134.7600 1929.00 1846.07 39.70
2576 134.8100 1950.00 1846.70 39.80
2577 134.8600 1911.00 1846.59 39.20
2578 134.9100 1886.00 1846.10 39.20
2579 134.9600 1919.00 1845.70 39.10
2580 135.0100 1909.00 1845.77 39.20
2581 135.0600 1877.00 1846.65 38.90
2582 135.1100 1877.00 1848.57 38.70
2583 135.1600 1899.00 1851.72 39.10
2584 135.2100 1873.00 1857.80 38.80
2585 135.2600 1938.00 1863.67 39.40
2586 135.3100 1952.00 1870.08 39.60
2587 135.3600 1915.00 1878.55 39.30
2588 135.4100 1972.00 1888.04 39.70
2589 135.4600 1947.00 1898.02 39.60
2590 135.5100 1941.00 1908.64 39.50
2591 135.5600 2010.00 1919.14 40.20
2592 135.6100 2044.00 1927.76 40.50
2593 135.6600 2039.00 1936.23 40.60
2594 135.7100 2086.00 1942.76 41.00
2595 135.7600 2056.00 1946.82 40.90
2596 135.8100 2024.00 1947.34 40.50
2597 135.8600 2053.00 1945.87 40.80
2598 135.9100 2054.00 1941.73 40.90
2599 135.9600 1988.00 1935.42 40.20
2600 136.0100 1929.00 1927.52 39.60
2601 136.0600 1992.00 1918.66 40.40
2602 136.1100 1997.00 1909.43 40.30
2603 136.1600 1938.00 1900.29 40.00
2604 136.2100 1963.00 1891.65 40.10
2605 136.2600 1942.00 1883.65 40.00
2606 136.3100 1936.00 1877.08 40.00
2607 136.3600 1946.00 1871.26 40.30
2608 136.4100 1920.00 1866.64 39.80
2609 136.4600 1916.00 1868.66 40.00
2610 136.5100 1894.00 1866.05 39.70
2611 136.5600 1889.00 1864.28 39.60
2612 136.6100 1859.00 1863.20 39.40
2613 136.6600 1937.00 1862.57 40.40
2614 136.7100 1888.00 1862.15 39.60
2615 136.7600 1910.00 1861.64 40.20
2616 136.8100 1887.00 1860.76 39.90
2617 136.8600 1890.00 1859.23 39.80
2618 136.9100 1959.00 1856.84 40.70
2619 136.9600 1882.00 1853.41 40.10
2620 137.0100 1831.00 1848.90 39.10
2621 137.0600 1966.00 1843.34 40.90
2622 137.1100 1897.00 1836.85 40.20
2623 137.1600 1901.00 1829.62 40.00
2624 137.2100 1838.00 1821.84 39.50
2625 137.2600 1875.00 1813.72 40.00
2626 137.3100 1888.00 1805.49 39.90
2627 137.3600 1829.00 1797.28 39.30
2628 137.4100 1814.00 1789.28 39.40
2629 137.4600 1811.00 1781.57 39.00
2630 137.5100 1852.00 1774.25 39.60
2631 137.5600 1761.00 1767.38 38.70
2632 137.6100 1837.00 1761.00 39.30
2633 137.6600 1763.00 1755.17 38.70
2634 137.7100 1826.00 1749.87 39.50
2635 137.7600 1779.00 1745.13 39.10
2636 137.8100 1803.00 1740.93 39.10
2637 137.8600 1778.00 1737.27 39.30
2638 137.9100 1862.00 1734.13 40.10
2639 137.9600 1780.00 1731.50 38.90
2640 138.0100 1753.00 1729.37 39.00
2641 138.0600 1791.00 1727.71 39.50
2642 138.1100 1697.00 1726.53 38.00
2643 138.1600 1691.00 1725.71 38.70
2644 138.2100 1780.00 1725.47 39.30
2645 138.2600 1753.00 1725.70 39.10
2646 138.3100 1724.00 1726.41 39.00
2647 138.3600 1702.00 1727.60 38.90
2648 138.4100 1716.00 1729.27 38.70
2649 138.4600 1685.00 1731.43 39.00
2650 138.5100 1793.00 1734.05 39.90
2651 138.5600 1723.00 1737.11 39.20
2652 138.6100 1805.00 1740.53 40.40
2653 138.6600 1713.00 1744.18 39.40
2654 138.7100 1747.00 1748.01 39.50
2655 138.7600 1826.00 1751.84 41.10
2656 138.8100 1695.00 1755.41 39.20
2657 138.8600 1788.00 1758.47 40.30
2658 138.9100 1778.00 1760.79 40.50
2659 138.9600 1703.00 1762.29 39.30
2660 139.0100 1748.00 1762.99 39.80
2661 139.0600 1755.00 1763.10 40.40
2662 139.1100 1842.00 1762.91 40.80
2663 139.1600 1818.00 1762.74 40.90
2664 139.2100 1808.00 1762.84 41.00
2665 139.2600 1788.00 1763.50 40.50
2666 139.3100 1755.00 1764.88 40.20
2667 139.3600 1814.00 1767.14 41.00
2668 139.4100 1755.00 1770.38 40.10
2669 139.4600 1745.00 1774.68 39.90
2670 139.5100 1765.00 1780.10 40.40
2671 139.5600 1709.00 1786.66 39.30
2672 139.6100 1781.00 1794.38 40.30
2673 139.6600 1785.00 1803.23 40.30
2674 139.7100 1737.00 1813.17 39.60
2675 139.7600 1826.00 1824.11 40.60
2676 139.8100 1825.00 1835.93 40.80
2677 139.8600 1825.00 1848.43 40.40
2678 139.9100 1842.00 1861.45 40.80
2679 139.9600 1901.00 1874.68 41.10
2680 140.0100 1939.00 1887.74 41.60
2681 140.0600 1869.00 1900.20 40.60
2682 140.1100 1870.00 1911.57 40.80
2683 140.1600 1927.00 1921.53 41.10
2684 140.2100 1976.00 1929.73 41.80
2685 140.2600 1967.00 1936.02 41.30
2686 140.3100 1908.00 1940.49 40.90
2687 140.3600 1926.00 1943.38 40.90
2688 140.4100 1914.00 1945.07 40.80
2689 140.4600 1884.00 1945.99 40.10
2690 140.5100 1940.00 1946.55 41.00
2691 140.5600 1978.00 1947.07 41.00
2692 140.6100 1923.00 1947.77 40.50
2693 140.6600 2003.00 1948.80 41.30
2694 140.7100 1921.00 1950.17 40.40
2695 140.7600 1889.00 1951.82 39.90
2696 140.8100 1945.00 1953.63 40.70
2697 140.8600 1973.00 1955.44 40.80
2698 140.9100 1968.00 1957.06 40.80
2699 140.9600 1988.00 1958.37 41.00
2700 141.0100 1996.00 1959.24 41.00
2701 141.0600 1978.00 1959.62 40.70
2702 141.1100 2030.00 1959.47 41.40
2703 141.1600 2045.00 1958.79 41.40
2704 141.2100 2051.00 1957.55 41.40
2705 141.2600 1957.00 1955.75 40.60
2706 141.3100 1901.00 1953.38 39.90
2707 141.3600 1930.00 1950.41 40.20
2708 141.4100 1991.00 1946.77 40.90
2709 141.4600 1988.00 1942.64 40.80
2710 141.5100 1951.00 1937.95 40.40
2711 141.5600 1976.00 1932.78 40.60
2712 141.6100 1961.00 1927.18 40.50
2713 141.6600 1885.00 1921.25 39.80
2714 141.7100 1868.00 1915.08 39.50
2715 141.7600 1847.00 1908.75 39.40
2716 141.8100 1868.00 1902.37 39.60
2717 141.8600 1810.00 1896.02 38.90
2718 141.9100 1817.00 1889.72 39.10
2719 141.9600 1915.00 1883.66 40.00
2720 142.0100 1841.00 1877.85 39.20
2721 142.0600 1910.00 1872.35 39.90
2722 142.1100 1874.00 1867.23 39.60
2723 142.1600 1807.00 1862.55 38.80
2724 142.2100 1822.00 1858.37 39.00
2725 142.2600 1795.00 1854.75 38.80
2726 142.3100 1845.00 1851.77 39.20
2727 142.3600 1842.00 1849.51 39.30
2728 142.4100 1761.00 1848.04 38.50
2729 142.4600 1853.00 1847.44 39.30
2730 142.5100 1820.00 1847.83 39.10
2731 142.5600 1761.00 1849.29 38.40
2732 142.6100 1822.00 1851.89 38.90
2733 142.6600 1862.00 1855.71 39.40
2734 142.7100 1852.00 1860.80 39.40
2735 142.7600 1831.00 1867.17 39.10
2736 142.8100 1854.00 1874.81 39.30
2737 142.8600 1815.00 1883.65 39.10
2738 142.9100 1936.00 1893.56 40.20
2739 142.9600 1879.00 1904.34 39.40
2740 143.0100 1997.00 1915.70 41.00
2741 143.0600 1921.00 1927.25 40.10
2742 143.1100 1911.00 1938.44 39.80
2743 143.1600 1992.00 1948.64 40.90
2744 143.2100 1929.00 1957.11 40.10
2745 143.2600 1984.00 1963.10 40.70
2746 143.3100 1999.00 1965.99 41.00
2747 143.3600 2042.00 1965.44 41.40
2748 143.4100 1883.00 1961.47 39.70
2749 143.4600 1953.00 1954.42 40.50
2750 143.5100 1991.00 1944.92 40.90
2751 143.5600 1882.00 1933.67 39.60
2752 143.6100 1924.00 1921.38 40.20
2753 143.6600 1897.00 1908.65 40.00
2754 143.7100 1822.00 1895.94 39.00
2755 143.7600 1856.00 1883.61 39.50
2756 143.8100 1931.00 1871.91 40.40
2757 143.8600 1870.00 1861.01 39.60
2758 143.9100 1821.00 1851.00 39.10
2759 143.9600 1803.00 1841.92 39.10
2760 144.0100 1744.00 1833.77 38.30
2761 144.0600 1818.00 1826.51 39.10
2762 144.1100 1801.00 1820.09 39.00
2763 144.1600 1769.00 1814.44 38.80
2764 144.2100 1795.00 1809.48 38.90
2765 144.2600 1737.00 1805.12 38.70
2766 144.3100 1783.00 1801.28 38.90
2767 144.3600 1812.00 1797.90 39.40
2768 144.4100 1730.00 1794.93 38.60
2769 144.4600 1705.00 1792.29 38.20
2770 144.5100 1762.00 1789.95 38.80
2771 144.5600 1784.00 1787.88 39.50
2772 144.6100 1807.00 1786.05 39.40
2773 144.6600 1734.00 1784.45 39.00
2774 144.7100 1747.00 1783.06 39.00
2775 144.7600 1737.00 1781.88 39.20
2776 144.8100 1720.00 1780.90 38.90
2777 144.8600 1754.00 1780.14 39.60
2778 144.9100 1769.00 1779.60 39.50
2779 144.9600 1773.00 1779.28 39.90
2780 145.0100 1805.00 1779.22 40.20
2781 145.0600 1894.00 1779.42 41.30
2782 145.1100 1658.00 1779.92 38.60
2783 145.1600 1779.00 1780.75 40.30
2784 145.2100 1800.00 1781.95 40.30
2785 145.2600 1836.00 1783.58 41.00
2786 145.3100 1765.00 1785.70 40.20
2787 145.3600 1743.00 1788.37 39.90
2788 145.4100 1744.00 1791.68 39.90
2789 145.4600 1698.00 1795.62 39.60
2790 145.5100 1710.00 1800.48 39.50
2791 145.5600 1770.00 1806.27 40.40
2792 145.6100 1712.00 1813.07 39.70
2793 145.6600 1754.00 1820.99 40.20
2794 145.7100 1786.00 1830.13 40.60
2795 145.7600 1780.00 1840.53 40.60
2796 145.8100 1828.00 1852.25 41.00
2797 145.8600 1863.00 1865.30 41.30
2798 145.9100 1852.00 1879.66 41.40
2799 145.9600 1886.00 1895.24 41.40
2800 146.0100 1937.00 1911.90 42.10
2801 146.0600 1873.00 1929.47 41.40
2802 146.1100 1864.00 1947.63 41.10
2803 146.1600 1893.00 1966.00 41.30
2804 146.2100 2046.00 1984.09 43.20
2805 146.2600 1901.00 2001.28 41.30
2806 146.3100 2038.00 2016.85 42.90
2807 146.3600 2009.00 2030.04 42.50
2808 146.4100 1934.00 2040.12 41.70
2809 146.4600 1966.00 2046.49 41.80
2810 146.5100 1884.00 2048.81 41.10
2811 146.5600 2004.00 2047.07 42.00
2812 146.6100 2022.00 2041.60 42.30
2813 146.6600 1920.00 2032.98 41.10
2814 146.7100 1892.00 2021.95 40.80
2815 146.7600 2046.00 2009.29 42.40
2816 146.8100 1971.00 1995.73 41.70
2817 146.8600 1972.00 1981.90 41.40
2818 146.9100 1992.00 1968.30 41.80
2819 146.9600 1946.00 1955.39 41.10
2820 147.0100 1890.00 1943.46 40.50
2821 147.0600 1873.00 1932.74 40.30
2822 147.1100 1923.00 1923.39 40.80
2823 147.1600 1906.00 1915.54 40.50
2824 147.2100 1859.00 1909.24 40.10
2825 147.2600 1892.00 1904.53 40.40
2826 147.3100 1915.00 1901.43 40.60
2827 147.3600 1945.00 1899.93 40.90
2828 147.4100 1890.00 1900.04 40.40
2829 147.4600 1838.00 1901.76 39.50
2830 147.5100 1837.00 1905.11 39.70
2831 147.5600 1886.00 1910.15 40.20
2832 147.6100 1969.00 1916.95 40.90
2833 147.6600 1919.00 1925.64 40.40
2834 147.7100 1949.00 1936.37 40.90
2835 147.7600 1930.00 1949.36 40.50
2836 147.8100 1937.00 1964.77 40.60
2837 147.8600 1908.00 1983.09 40.40
2838 147.9100 1967.00 2004.55 40.90
2839 147.9600 2034.00 2029.56 41.30
2840 148.0100 2044.00 2058.51 41.80
2841 148.0600 2069.00 2091.84 41.70
2842 148.1100 2080.00 2129.95 41.80
2843 148.1600 2067.00 2173.24 41.80
2844 148.2100 2100.00 2222.12 42.00
2845 148.2600 2175.00 2276.83 42.50
2846 148.3100 2276.00 2337.59 43.80
2847 148.3600 2229.00 2404.43 43.10
2848 148.4100 2229.00 2477.47 43.10
2849 148.4600 2386.00 2556.16 44.70
2850 148.5100 2446.00 2640.50 45.10
2851 148.5600 2645.00 2729.62 46.60
2852 148.6100 2735.00 2822.53 47.80
2853 148.6600 2832.00 2917.96 48.50
2854 148.7100 3006.00 3014.29 49.70
2855 148.7600 2963.00 3109.49 49.70
2856 148.8100 3194.00 3201.03 51.50
2857 148.8600 3226.00 3286.05 51.50
2858 148.9100 3347.00 3361.37 52.80
2859 148.9600 3421.00 3423.64 53.10
2860 149.0100 3369.00 3469.76 52.70
2861 149.0600 3385.00 3497.12 52.90
2862 149.1100 3526.00 3504.09 54.00
2863 149.1600 3462.00 3490.26 53.40
2864 149.2100 3271.00 3456.49 52.00
2865 149.2600 3375.00 3404.78 52.90
2866 149.3100 3315.00 3338.03 52.20
2867 149.3600 3236.00 3259.48 51.70
2868 149.4100 3181.00 3172.56 51.40
2869 149.4600 2962.00 3080.35 49.50
2870 149.5100 2991.00 2985.64 49.70
2871 149.5600 2869.00 2890.84 48.70
2872 149.6100 2755.00 2797.81 47.70
2873 149.6600 2662.00 2708.15 46.80
2874 149.7100 2587.00 2622.92 46.20
2875 149.7600 2498.00 2543.03 45.50
2876 149.8100 2383.00 2469.04 44.20
2877 149.8600 2201.00 2401.27 42.70
2878 149.9100 2213.00 2339.92 42.80
2879 149.9600 2169.00 2284.90 42.20
2880 150.0100 2106.00 2236.08 41.70
2881 150.0600 2092.00 2193.18 41.80
2882 150.1100 2025.00 2155.83 40.70
2883 150.1600 1894.00 2123.62 39.70
2884 150.2100 1912.00 2096.04 39.90
2885 150.2600 2009.00 2072.62 40.80
2886 150.3100 1959.00 2052.87 40.30
2887 150.3600 1983.00 2036.29 41.00
2888 150.4100 1898.00 2022.43 39.70
2889 150.4600 1914.00 2010.85 40.00
2890 150.5100 1912.00 2001.16 40.20
2891 150.5600 1933.00 1993.01 40.40
2892 150.6100 1844.00 1986.09 39.30
2893 150.6600 1895.00 1980.13 40.30
2894 150.7100 1945.00 1974.89 40.50
2895 150.7600 1904.00 1970.18 40.20
2896 150.8100 1894.00 1965.84 40.20
2897 150.8600 1846.00 1961.74 39.60
2898 150.9100 1869.00 1957.81 39.80
2899 150.9600 1914.00 1954.00 40.70
2900 151.0100 1840.00 1950.27 39.50
2901 151.0600 1854.00 1946.73 39.90
2902 151.1100 1952.00 1943.41 41.10
2903 151.1600 1931.00 1940.38 40.90
2904 151.2100 1906.00 1937.75 40.50
2905 151.2600 1864.00 1935.50 40.60
2906 151.3100 1820.00 1933.98 39.70
2907 151.3600 1915.00 1933.14 41.00
2908 151.4100 1893.00 1933.13 40.90
2909 151.4600 1818.00 1934.00 40.00
2910 151.5100 1880.00 1935.84 40.70
2911 151.5600 1881.00 1938.73 40.90
2912 151.6100 1850.00 1942.74 40.40
2913 151.6600 1847.00 1947.93 40.60
2914 151.7100 1870.00 1954.35 40.80
2915 151.7600 1876.00 1962.06 40.90
2916 151.8100 1871.00 1971.09 40.90
2917 151.8600 1865.00 1981.47 40.90
2918 151.9100 1960.00 1993.22 41.80
2919 151.9600 1866.00 2006.35 41.10
2920 152.0100 1951.00 2020.86 41.80
2921 152.0600 1967.00 2036.73 42.20
2922 152.1100 2039.00 2053.94 42.90
2923 152.1600 2020.00 2072.41 42.70
2924 152.2100 2068.00 2092.12 43.20
2925 152.2600 2080.00 2112.94 43.40
2926 152.3100 2076.00 2134.76 43.30
2927 152.3600 2018.00 2157.45 42.50
2928 152.4100 2103.00 2180.82 43.70
2929 152.4600 2087.00 2204.67 43.00
2930 152.5100 2234.00 2228.77 44.70
2931 152.5600 2200.00 2252.71 44.30
2932 152.6100 2241.00 2276.52 44.50
2933 152.6600 2329.00 2299.78 45.30
2934 152.7100 2305.00 2322.24 45.30
2935 152.7600 2350.00 2343.65 45.30
2936 152.8100 2368.00 2363.80 45.70
2937 152.8600 2341.00 2382.53 45.30
2938 152.9100 2433.00 2399.75 46.10
2939 152.9600 2395.00 2415.41 45.60
2940 153.0100 2427.00 2429.53 46.10
2941 153.0600 2381.00 2442.19 45.20
2942 153.1100 2471.00 2453.50 46.30
2943 153.1600 2434.00 2463.63 45.70
2944 153.2100 2355.00 2472.77 44.90
2945 153.2600 2441.00 2481.09 45.60
2946 153.3100 2403.00 2488.78 45.40
2947 153.3600 2465.00 2495.98 45.50
2948 153.4100 2528.00 2502.78 46.40
2949 153.4600 2402.00 2509.26 44.90
2950 153.5100 2471.00 2515.43 45.60
2951 153.5600 2492.00 2521.21 45.80
2952 153.6100 2451.00 2526.62 45.40
2953 153.6600 2458.00 2531.50 45.20
2954 153.7100 2541.00 2535.69 46.30
2955 153.7600 2623.00 2538.96 46.80
2956 153.8100 2518.00 2541.08 45.80
2957 153.8600 2571.00 2541.76 46.20
2958 153.9100 2545.00 2540.71 46.10
2959 153.9600 2475.00 2537.61 45.00
2960 154.0100 2422.00 2532.20 44.80
2961 154.0600 2467.00 2524.26 45.10
2962 154.1100 2521.00 2513.62 45.40
2963 154.1600 2474.00 2500.21 45.10
2964 154.2100 2432.00 2483.95 44.80
2965 154.2600 2449.00 2465.27 44.60
2966 154.3100 2488.00 2444.27 45.20
2967 154.3600 2430.00 2421.25 44.70
2968 154.4100 2384.00 2396.64 44.00
2969 154.4600 2387.00 2370.82 44.20
2970 154.5100 2302.00 2344.25 43.50
2971 154.5600 2263.00 2317.36 42.70
2972 154.6100 2279.00 2290.54 43.10
2973 154.6600 2182.00 2264.16 42.10
2974 154.7100 2162.00 2238.51 41.70
2975 154.7600 2155.00 2213.88 41.90
2976 154.8100 2102.00 2190.46 41.40
2977 154.8600 2024.00 2168.44 40.30
2978 154.9100 2127.00 2147.96 41.70
2979 154.9600 2015.00 2129.10 40.40
2980 155.0100 2033.00 2111.93 40.40
2981 155.0600 1998.00 2096.48 40.40
2982 155.1100 2041.00 2082.77 40.60
2983 155.1600 2028.00 2070.77 40.60
2984 155.2100 2029.00 2060.45 40.70
2985 155.2600 1940.00 2051.76 39.80
2986 155.3100 1966.00 2044.64 39.90
2987 155.3600 2016.00 2039.00 40.60
2988 155.4100 2039.00 2034.76 40.80
2989 155.4600 2080.00 2031.82 41.10
2990 155.5100 2015.00 2030.08 40.60
2991 155.5600 2012.00 2029.44 40.60
2992 155.6100 2075.00 2029.78 41.10
2993 155.6600 2022.00 2031.01 40.70
2994 155.7100 2073.00 2033.00 41.20
2995 155.7600 2041.00 2035.68 41.00
2996 155.8100 2037.00 2038.92 40.90
2997 155.8600 2099.00 2042.64 41.80
2998 155.9100 2046.00 2046.76 41.10
2999 155.9600 2060.00 2051.19 41.10
3000 156.0100 2020.00 2055.87 41.00
3001 156.0600 2138.00 2060.73 42.10
3002 156.1100 2024.00 2065.73 40.80
3003 156.1600 2097.00 2070.82 41.90
3004 156.2100 2161.00 2075.97 42.30
3005 156.2600 2094.00 2081.13 41.70
3006 156.3100 2118.00 2086.34 42.10
3007 156.3600 2057.00 2091.57 41.40
3008 156.4100 2122.00 2096.81 42.00
3009 156.4600 2196.00 2102.07 42.90
3010 156.5100 2197.00 2107.35 42.80
3011 156.5600 2063.00 2112.67 41.60
3012 156.6100 2156.00 2118.03 42.50
3013 156.6600 2119.00 2123.44 42.30
3014 156.7100 2145.00 2128.91 42.40
3015 156.7600 2245.00 2134.46 43.60
3016 156.8100 2267.00 2140.09 43.80
3017 156.8600 2186.00 2145.82 43.10
3018 156.9100 2203.00 2151.64 43.20
3019 156.9600 2206.00 2157.56 43.40
3020 157.0100 2182.00 2163.59 43.00
3021 157.0600 2247.00 2169.71 43.80
3022 157.1100 2199.00 2175.92 43.30
3023 157.1600 2189.00 2182.22 43.70
3024 157.2100 2266.00 2188.61 44.00
3025 157.2600 2151.00 2195.05 43.50
3026 157.3100 2424.00 2201.54 46.00
3027 157.3600 2194.00 2208.06 44.00
3028 157.4100 2163.00 2214.59 43.70
3029 157.4600 2267.00 2221.10 44.90
3030 157.5100 2276.00 2227.58 44.80
3031 157.5600 2303.00 2233.99 45.60
3032 157.6100 2270.00 2240.31 44.90
3033 157.6600 2337.00 2246.52 45.90
3034 157.7100 2363.00 2252.59 46.20
3035 157.7600 2317.00 2258.48 45.90
3036 157.8100 2344.00 2264.19 46.00
3037 157.8600 2367.00 2269.69 46.70
3038 157.9100 2497.00 2274.96 47.60
3039 157.9600 2450.00 2279.97 47.40
3040 158.0100 2444.00 2284.72 47.50
3041 158.0600 2394.00 2289.17 46.80
3042 158.1100 2351.00 2293.31 46.30
3043 158.1600 2505.00 2297.13 48.40
3044 158.2100 2462.00 2300.59 47.50
3045 158.2600 2446.00 2303.69 47.60
3046 158.3100 2553.00 2306.39 48.90
3047 158.3600 2456.00 2308.67 47.50
3048 158.4100 2427.00 2310.53 47.40
3049 158.4600 2404.00 2311.94 47.20
3050 158.5100 2461.00 2312.89 47.50
3051 158.5600 2497.00 2313.39 47.70
3052 158.6100 2474.00 2313.44 47.80
3053 158.6600 2528.00 2313.05 48.00
3054 158.7100 2575.00 2312.25 48.50
3055 158.7600 2454.00 2311.06 47.30
3056 158.8100 2573.00 2309.51 48.50
3057 158.8600 2450.00 2307.65 46.90
3058 158.9100 2357.00 2305.27 46.30
3059 158.9600 2455.00 2302.89 46.90
3060 159.0100 2423.00 2300.30 46.70
3061 159.0600 2414.00 2297.55 46.40
3062 159.1100 2469.00 2294.68 47.10
3063 159.1600 2444.00 2291.73 46.50
3064 159.2100 2406.00 2288.74 46.30
3065 159.2600 2375.00 2285.74 45.70
3066 159.3100 2350.00 2282.81 45.60
3067 159.3600 2420.00 2279.98 45.90
3068 159.4100 2419.00 2277.30 46.20
3069 159.4600 2416.00 2274.82 45.80
3070 159.5100 2349.00 2272.58 45.20
3071 159.5600 2410.00 2270.64 45.60
3072 159.6100 2328.00 2269.03 44.90
3073 159.6600 2331.00 2267.79 44.70
3074 159.7100 2389.00 2266.96 45.40
3075 159.7600 2332.00 2266.56 44.70
3076 159.8100 2351.00 2266.61 44.90
3077 159.8600 2320.00 2267.13 44.50
3078 159.9100 2384.00 2268.13 45.20
3079 159.9600 2284.00 2269.60 44.10
loop_
_pd_proc_info_excluded_regions
'from 3.646 to 6.000'
'from 160 to 164.765'
loop_
_refln_index_h
_refln_index_k
_refln_index_l
_refln_index_m_1
_refln_F_squared_calc
_refln_F_squared_meas
_refln_observed_status
_refln_d_spacing
0 0 0 4 0.03 0.03 < 11.864581
0 0 1 -3 1.17 2.15 o 5.276579
0 0 1 -1 69.55 66.99 o 4.469837
1 0 0 -3 1.17 1.08 o 4.364289
1 0 0 -1 24.10 22.03 o 4.077419
0 1 0 1 11.93 11.18 o 3.899483
0 0 1 1 1.06 0.96 o 3.842228
0 1 0 3 0.91 0.78 o 3.798259
1 0 0 1 4.42 3.38 o 3.743756
1 0 1 -4 1.20 0.91 o 3.616979
1 0 0 3 0.78 0.29 < 3.407994
0 0 1 3 0.07 0.07 < 3.352442
0 1 1 -4 0.90 1.61 o 3.235911
1 0 1 -2 3.93 6.19 o 3.162340
0 1 1 -2 18.83 18.54 o 3.044882
-1 0 1 -4 1.12 1.09 o 2.954830
1 1 0 -4 0.24 0.24 o 2.944623
-1 0 1 -2 35.12 34.34 o 2.939986
-1 0 1 0 115.45 118.32 o 2.881892
1 1 0 -2 2.80 2.87 o 2.872412
0 1 1 0 145.45 149.55 o 2.842441
1 0 1 0 172.30 171.83 o 2.804894
-1 0 1 2 25.08 24.76 o 2.787816
1 1 0 0 139.56 135.62 o 2.766864
-1 0 1 4 3.58 3.62 o 2.668008
0 1 1 2 11.99 11.75 o 2.642276
1 1 0 2 0.63 0.63 o 2.638901
1 1 1 -3 0.25 0.12 < 2.555777
1 0 1 2 1.15 0.63 < 2.517618
1 1 0 4 0.20 0.10 o 2.499007
0 1 1 4 0.54 0.52 o 2.452573
0 0 2 -4 27.15 25.20 o 2.424215
1 1 1 -1 113.31 109.72 o 2.367391
-1 1 1 -3 17.67 17.43 o 2.357091
-1 1 1 -1 73.97 76.48 o 2.338102
-1 1 1 1 31.92 35.94 o 2.297713
1 0 1 4 0.16 0.17 o 2.282281
-1 1 1 3 1.32 1.24 o 2.239140
0 0 2 -2 38.54 36.19 o 2.234919
1 1 1 1 8.21 7.18 o 2.196275
2 0 0 -4 2.57 2.47 o 2.115127
0 0 2 0 387.09 384.70 o 2.068115
1 1 1 3 0.57 0.55 o 2.042300
1 0 2 -3 0.03 0.03 o 2.041472
2 0 0 -2 91.15 83.34 o 2.038710
0 1 2 -3 3.19 1.95 o 1.999766
-1 0 2 -3 6.79 6.65 o 1.960628
2 0 0 0 656.47 643.62 o 1.956579
0 2 0 0 892.01 874.54 o 1.956357
0 2 0 2 0.24 0.24 o 1.949742
0 2 0 4 0.00 0.00 < 1.930292
2 0 1 -3 0.13 0.12 o 1.923650
0 0 2 2 30.26 28.52 o 1.921114
-1 0 2 -1 66.49 66.20 o 1.887250
0 1 2 -1 72.61 72.80 o 1.883509
1 0 2 -1 97.33 98.49 o 1.879889
1 1 2 -4 0.14 0.14 o 1.872886
2 0 0 2 58.25 59.22 o 1.871878
2 1 0 -3 3.55 2.29 o 1.835135
0 2 1 -3 2.70 1.54 o 1.834337
-1 0 2 1 5.37 4.89 o 1.810899
2 0 1 -1 71.60 65.33 o 1.805476
-2 0 1 3 0.28 0.28 o 1.796352
-2 0 1 1 13.19 12.87 o 1.792999
0 2 1 -1 75.57 73.72 o 1.792212
0 0 2 4 6.59 6.51 o 1.791280
2 0 0 4 0.86 0.85 o 1.787080
1 2 0 -3 1.05 1.05 o 1.785201
-2 0 1 -1 26.83 28.82 o 1.779571
2 1 0 -1 31.09 32.27 o 1.779530
-1 1 2 -4 5.53 5.71 o 1.777565
0 1 2 1 0.26 0.26 o 1.775401
2 1 1 -4 0.01 0.01 o 1.771581
1 2 0 -1 31.23 31.46 o 1.763837
-2 0 1 -3 5.42 5.23 o 1.756732
1 1 2 -2 57.45 54.74 o 1.750532
0 2 1 1 0.02 0.02 o 1.743376
1 0 2 1 4.44 4.33 o 1.741991
1 2 0 1 7.45 7.43 o 1.733889
-1 0 2 3 0.42 0.41 o 1.733792
-1 1 2 -2 86.25 86.86 o 1.726891
1 2 1 -4 0.46 0.46 o 1.720774
2 1 0 1 3.57 3.72 o 1.719589
2 0 1 1 13.64 12.92 o 1.697947
1 2 0 3 1.62 1.56 o 1.696675
0 2 1 3 0.03 0.03 o 1.689692
2 1 1 -2 0.51 0.47 o 1.682202
0 1 2 3 0.45 0.43 o 1.675582
-1 1 2 0 85.99 79.90 o 1.671954
1 2 1 -2 0.71 0.67 o 1.663724
2 1 0 3 0.00 0.00 < 1.657181
1 1 2 0 184.76 192.72 o 1.641487
-2 1 1 2 22.06 23.35 o 1.632226
-1 2 1 -4 0.36 0.38 o 1.631226
-2 1 1 4 6.50 6.95 o 1.630889
-1 2 1 -2 23.51 25.28 o 1.628716
-2 1 1 0 75.61 81.79 o 1.625880
1 0 2 3 0.09 0.10 o 1.622930
-1 2 1 0 115.90 129.64 o 1.618632
-1 1 2 2 31.56 34.57 o 1.614423
-2 1 1 -2 28.16 31.19 o 1.612114
1 2 1 0 158.41 171.21 o 1.604608
-1 2 1 2 19.07 20.72 o 1.601390
2 0 1 3 1.86 2.04 o 1.600265
2 1 1 0 147.89 158.71 o 1.597821
-2 1 1 -4 2.03 2.20 o 1.591484
2 0 2 -4 3.05 3.30 o 1.581170
-1 2 1 4 2.81 3.31 o 1.577667
-1 1 2 4 10.56 22.75 o 1.555718
1 2 1 2 0.27 0.55 o 1.544787
1 1 2 2 10.86 20.17 o 1.543993
0 2 2 -4 21.61 37.46 o 1.522441
2 1 1 2 0.07 0.12 o 1.518725
0 0 3 -3 1.96 2.18 o 1.489946
2 0 2 -2 139.84 155.45 o 1.486705
1 2 1 4 0.32 0.38 o 1.485340
0 2 2 -2 30.80 47.24 o 1.472046
-2 0 2 -4 12.92 19.74 o 1.469993
-2 0 2 -2 5.17 6.19 o 1.457997
1 1 2 4 2.05 2.26 o 1.456515
2 1 1 4 0.67 0.67 o 1.444933
1 0 3 -4 0.00 0.00 < 1.443378
-2 0 2 0 239.23 252.54 o 1.440946
2 2 0 -4 2.21 2.21 o 1.436206
2 1 2 -3 2.43 2.38 o 1.426997
0 1 3 -4 0.19 0.18 o 1.425143
0 2 2 0 293.82 286.08 o 1.421220
-2 0 2 2 67.41 65.45 o 1.419374
0 0 3 -1 61.83 60.25 o 1.414254
1 2 2 -3 0.09 0.09 o 1.412485
2 2 0 -2 67.00 65.40 o 1.411569
-1 0 3 -4 2.43 2.32 o 1.407624
2 0 2 0 206.33 203.36 o 1.402447
-2 0 2 4 19.85 20.53 o 1.393908
-1 2 2 -3 7.50 7.77 o 1.384861
2 2 0 0 500.03 518.88 o 1.383432
-2 1 2 -3 8.02 7.82 o 1.371700
2 2 1 -3 0.04 0.04 o 1.371643
0 2 2 2 22.31 23.61 o 1.370723
1 0 3 -2 16.14 18.46 o 1.362177
0 1 3 -2 50.17 57.07 o 1.360711
-2 1 2 -1 43.27 49.34 o 1.359700
-1 0 3 -2 50.51 57.42 o 1.359286
3 0 0 -3 0.00 0.00 < 1.359140
-1 2 2 -1 59.61 67.97 o 1.358261
1 2 2 -1 91.74 104.16 o 1.355510
2 1 2 -1 65.47 74.27 o 1.354195
2 2 0 2 47.08 53.71 o 1.352497
0 0 3 1 1.62 1.85 o 1.344699
-2 1 2 1 14.49 19.39 o 1.343679
3 0 1 -4 2.98 2.84 o 1.335377
-1 2 2 1 8.20 7.48 o 1.328950
2 0 2 2 1.39 1.24 o 1.326893
2 2 1 -1 79.10 72.39 o 1.326802
-2 1 2 3 0.04 0.04 o 1.324070
-2 2 1 3 0.01 0.00 < 1.323169
3 0 0 -1 37.68 34.31 o 1.322922
-2 2 1 1 18.46 16.79 o 1.321827
0 2 2 4 4.52 3.95 o 1.321138
1 1 3 -3 107.47 95.64 o 1.319518
2 2 0 4 1.15 1.01 o 1.319450
-2 2 1 -1 26.45 22.79 o 1.316419
-1 0 3 0 30.51 25.11 o 1.311584
-2 2 1 -3 7.96 6.10 o 1.307093
-1 1 3 -3 42.61 30.85 o 1.304285
0 3 0 1 6.53 4.80 o 1.303746
1 2 2 1 1.43 1.03 o 1.300987
0 1 3 0 54.26 39.38 o 1.300372
0 3 0 3 0.51 0.37 o 1.299828
3 1 0 -4 1.64 1.16 o 1.298624
-1 2 2 3 0.06 0.04 o 1.297561
1 0 3 0 68.67 44.60 o 1.289476
2 1 2 1 1.14 0.74 o 1.287699
3 0 0 1 0.04 0.02 o 1.285663
3 0 1 -2 6.11 3.77 o 1.283807
2 2 1 1 7.77 4.72 o 1.282329
0 0 3 3 0.60 0.33 o 1.280743
-3 0 1 4 10.17 5.10 o 1.278878
0 3 1 -4 0.85 0.33 o 1.271995
3 1 0 -2 11.83 4.89 o 1.268732
-3 0 1 2 32.64 14.03 o 1.267951
-1 0 3 2 33.24 16.49 o 1.264964
-1 1 3 -1 1.92 1.01 o 1.263755
0 3 1 -2 13.41 8.61 o 1.259465
2 0 2 4 0.38 0.29 o 1.258809
1 1 3 -1 2.55 1.63 o 1.254864
-3 0 1 0 31.93 19.10 o 1.253784
1 3 0 -4 0.08 0.06 o 1.252069
1 2 2 3 0.15 0.12 o 1.249080
3 0 0 3 0.16 0.13 o 1.247919
1 3 0 -2 1.17 0.95 o 1.246346
0 1 3 2 26.05 21.38 o 1.243976
0 3 1 0 81.51 67.84 o 1.243866
3 1 1 -3 17.62 14.55 o 1.241652
2 2 1 3 1.11 0.91 o 1.238658
3 1 0 0 74.86 62.26 o 1.237435
1 3 0 0 66.92 55.70 o 1.237323
-3 0 1 -2 38.01 31.56 o 1.236709
3 0 1 0 96.46 80.31 o 1.234430
2 2 2 -4 2.56 2.09 o 1.229739
2 1 2 3 0.00 0.00 < 1.226833
0 3 1 2 6.10 3.61 o 1.225551
1 3 0 2 0.16 0.07 o 1.225213
1 0 3 2 22.81 18.63 o 1.224026
-1 1 3 1 0.50 0.23 o 1.223518
-1 0 3 4 11.03 7.82 o 1.219751
-3 0 1 -4 3.57 1.23 o 1.217099
1 3 1 -3 0.78 0.26 o 1.216576
-3 1 1 3 2.90 0.97 o 1.211262
1 3 0 4 0.11 0.04 o 1.210292
3 1 0 2 8.56 5.18 o 1.205224
0 3 1 4 0.38 0.31 o 1.204902
-3 1 1 1 4.42 3.70 o 1.200427
3 1 1 -1 11.91 10.53 o 1.198342
2 0 3 -3 11.77 9.45 o 1.196779
1 1 3 1 0.15 0.13 o 1.195820
1 3 1 -1 42.20 33.83 o 1.194389
-1 3 1 -3 5.81 4.65 o 1.193060
0 1 3 4 6.93 6.10 o 1.191319
-1 3 1 -1 29.98 24.16 o 1.190576
3 0 1 2 6.48 5.67 o 1.187361
-3 1 1 -1 5.36 5.07 o 1.186897
0 2 3 -3 1.01 0.90 o 1.185329
-1 3 1 1 5.31 4.80 o 1.185139
-1 1 3 3 0.43 0.38 o 1.183936
2 2 2 -2 111.28 103.10 o 1.183695
-1 3 1 3 0.65 0.63 o 1.176871
-2 2 2 -4 9.97 15.17 o 1.175208
-2 0 3 -3 4.78 7.03 o 1.174297
3 1 0 4 0.02 0.02 o 1.172531
2 1 3 -4 7.64 8.41 o 1.171306
-3 1 1 -3 8.53 11.31 o 1.170953
1 3 1 1 0.17 0.22 o 1.170515
-2 2 2 -2 4.22 5.31 o 1.169051
1 0 3 4 2.34 2.35 o 1.164810
1 2 3 -4 0.04 0.04 o 1.161474
3 0 2 -3 1.10 1.14 o 1.160761
-2 2 2 0 185.76 192.33 o 1.160206
3 1 1 1 0.76 0.79 o 1.156512
-2 0 3 -1 29.73 32.62 o 1.152945
-2 2 2 2 52.01 50.33 o 1.148857
0 2 3 -1 55.38 52.86 o 1.146137
1 3 1 3 0.01 0.01 o 1.145341
3 0 1 4 0.34 0.34 o 1.142637
-1 2 3 -4 0.81 0.79 o 1.142599
1 1 3 3 0.17 0.17 o 1.141743
2 2 2 0 155.84 153.55 o 1.139825
2 0 3 -1 44.32 43.63 o 1.139536
0 3 2 -3 6.67 6.54 o 1.137675
-2 2 2 4 14.23 13.88 o 1.135227
3 1 2 -4 5.73 5.52 o 1.135096
-2 1 3 -4 5.02 4.83 o 1.133532
-2 0 3 1 18.57 14.71 o 1.130144
2 1 3 -2 13.23 14.83 o 1.118721
1 2 3 -2 5.55 6.11 o 1.117888
0 0 4 -4 2.45 2.62 o 1.117459
-3 0 2 -1 11.01 12.15 o 1.117336
3 1 1 3 0.19 0.20 o 1.116299
-1 2 3 -2 29.95 32.14 o 1.116288
3 2 0 -3 0.13 0.14 o 1.116207
-3 0 2 1 26.42 28.23 o 1.116100
-3 0 2 -3 12.62 13.68 o 1.116099
-2 1 3 -2 34.24 36.57 o 1.115522
0 3 2 -1 30.64 32.55 o 1.114946
3 0 2 -1 63.68 64.48 o 1.112755
1 3 2 -4 0.02 0.02 o 1.112730
-3 0 2 3 0.90 0.96 o 1.112415
0 2 3 1 3.40 3.45 o 1.108167
-2 0 3 3 0.35 0.33 o 1.106232
2 3 0 -3 2.21 2.29 o 1.104656
3 2 1 -4 2.28 2.24 o 1.102932
2 2 2 2 0.90 0.95 o 1.098137
-2 1 3 0 12.79 12.95 o 1.095998
3 2 0 -1 41.09 42.43 o 1.095883
2 3 0 -1 18.05 19.06 o 1.092169
-1 3 2 -4 4.74 5.05 o 1.091714
3 1 2 -2 1.65 1.81 o 1.091236
0 3 2 1 2.33 2.50 o 1.091212
2 3 1 -4 0.01 0.01 o 1.090323
-1 2 3 0 31.89 37.84 o 1.089412
2 0 3 1 1.03 1.10 o 1.087500
1 3 2 -2 42.44 51.50 o 1.085362
-1 3 2 -2 56.80 59.13 o 1.079656
2 3 0 1 2.77 2.88 o 1.077864
1 2 3 0 59.49 61.27 o 1.076643
-2 1 3 2 25.67 26.23 o 1.075250
0 0 4 -2 7.07 7.26 o 1.074435
3 2 0 1 0.00 0.00 < 1.074421
-3 1 2 0 19.00 19.47 o 1.074113
-3 1 2 -2 44.41 45.59 o 1.074112
3 2 1 -2 9.09 9.25 o 1.073337
-3 1 2 -4 9.24 9.28 o 1.071918
-3 1 2 2 25.91 25.99 o 1.071919
0 2 3 3 0.13 0.13 o 1.071545
2 1 3 0 97.72 97.07 o 1.070453
-3 2 1 4 7.97 7.99 o 1.070451
2 3 1 -2 0.94 0.92 o 1.068472
3 0 2 1 10.97 10.92 o 1.068081
-3 1 2 4 13.05 13.00 o 1.067571
0 3 2 3 0.04 0.04 o 1.066770
-1 3 2 0 52.79 50.57 o 1.065832
-3 2 1 2 28.71 29.02 o 1.064019
-1 2 3 2 26.70 27.25 o 1.062253
2 3 0 3 0.01 0.02 o 1.061974
2 2 2 4 0.29 0.30 o 1.058600
1 3 2 0 114.52 121.00 o 1.057809
1 0 4 -3 0.32 0.33 o 1.057035
-3 2 1 0 35.05 35.89 o 1.055606
-2 3 1 2 11.27 11.67 o 1.055319
0 1 4 -3 13.89 14.31 o 1.055026
-2 3 1 4 3.60 3.77 o 1.054957
-2 3 1 0 46.13 46.73 o 1.053598
-2 1 3 4 12.23 12.68 o 1.053554
-1 0 4 -3 12.09 12.52 o 1.053046
3 2 0 3 0.65 0.67 o 1.052098
-1 3 2 2 16.10 16.49 o 1.050461
3 1 2 0 150.62 156.54 o 1.050034
-2 3 1 -2 17.64 18.49 o 1.049824
2 3 1 0 89.27 89.90 o 1.045846
-3 2 1 -2 31.59 31.56 o 1.045355
-2 3 1 -4 1.97 1.95 o 1.044063
3 2 1 0 83.45 82.37 o 1.043977
1 1 4 -4 33.50 33.31 o 1.041186
2 0 3 3 0.03 0.03 o 1.039995
1 2 3 2 16.93 16.79 o 1.037661
-1 2 3 4 8.17 8.09 o 1.035053
0 0 4 0 52.36 54.04 o 1.034057
-1 3 2 4 5.80 5.70 o 1.033769
-3 2 1 -4 2.51 2.78 o 1.033431
-1 1 4 -4 3.21 3.62 o 1.031178
1 3 2 2 4.54 5.14 o 1.030306
3 0 2 3 2.98 3.51 o 1.026462
2 1 3 2 6.28 7.56 o 1.026013
2 3 1 2 0.04 0.05 o 1.022695
-1 0 4 -1 32.62 41.50 o 1.021800
2 2 3 -3 9.76 12.38 o 1.020905
4 0 0 -4 10.99 13.74 o 1.019355
0 1 4 -1 43.62 54.48 o 1.017655
3 2 1 2 7.14 8.87 o 1.015040
1 0 4 -1 53.87 67.24 o 1.013576
3 1 2 2 0.45 0.53 o 1.011331
3 0 3 -4 0.49 0.58 o 1.011318
-2 2 3 -3 5.41 4.60 o 1.006842
1 3 2 4 1.51 1.47 o 1.003046
-1 1 4 -2 27.68 27.35 o 1.002679
1 2 3 4 1.71 1.64 o 1.000843
1 1 4 -2 10.08 9.82 o 1.000465
2 3 1 4 0.27 0.26 o 0.999239
4 0 0 -2 92.92 87.96 o 0.999074
3 2 2 -3 1.17 1.12 o 0.998271
0 0 4 2 30.80 28.44 o 0.996154
-2 2 3 -1 25.01 22.74 o 0.993286
2 3 2 -3 7.16 6.38 o 0.993249
0 3 3 -4 0.06 0.05 o 0.992624
-1 0 4 1 19.58 16.72 o 0.991444
4 0 1 -3 1.78 1.52 o 0.986767
3 2 1 4 0.71 0.66 o 0.986672
2 1 3 4 1.23 1.12 o 0.984984
2 2 3 -1 41.73 34.57 o 0.984673
0 1 4 1 9.70 8.93 o 0.982306
2 0 4 -4 12.03 10.97 o 0.978677
-2 2 3 1 19.12 17.64 o 0.978594
4 0 0 0 119.15 110.58 o 0.978289
0 4 0 0 429.86 398.39 o 0.978178
0 4 0 2 0.01 0.01 o 0.977348
4 1 0 -3 0.12 0.11 o 0.977299
-3 0 3 -4 6.44 5.95 o 0.975053
3 1 2 4 0.17 0.16 o 0.974964
0 4 0 4 0.18 0.17 o 0.974871
-1 1 4 0 12.56 11.56 o 0.974770
-4 0 1 3 1.77 1.63 o 0.974391
-2 3 2 -3 7.13 5.92 o 0.974032
1 0 4 1 4.80 4.43 o 0.973429
3 0 3 -2 0.99 0.89 o 0.971710
0 2 4 -4 1.51 1.37 o 0.970324
-3 2 2 -1 9.12 8.51 o 0.970244
0 3 3 -2 33.64 31.58 o 0.970074
-2 3 2 -1 16.87 15.92 o 0.969707
-3 2 2 1 26.31 24.40 o 0.969434
-3 2 2 -3 12.43 11.76 o 0.969434
4 1 1 -4 0.00 0.00 < 0.969374
-3 0 3 -2 35.54 33.55 o 0.968567
2 3 2 -1 37.76 35.74 o 0.967705
3 2 2 -1 61.48 58.51 o 0.967240
-3 2 2 3 1.57 1.50 o 0.967016
-2 3 2 1 11.74 11.95 o 0.963846
-4 0 1 1 29.37 30.15 o 0.963673
-2 2 3 3 0.92 0.95 o 0.962946
1 1 4 0 37.18 38.69 o 0.962589
-2 0 4 -4 0.07 0.07 o 0.962235
-1 0 4 3 1.24 1.27 o 0.962058
0 4 1 -3 6.52 7.03 o 0.961792
3 1 3 -3 79.89 87.38 o 0.960791
-3 0 3 0 4.10 4.64 o 0.960631
0 0 4 4 7.06 7.04 o 0.960557
4 0 1 -1 45.37 51.87 o 0.959619
4 1 0 -1 41.51 47.61 o 0.958600
loop_
_jana_atom_site_displace_legendre_atom_site_label
_jana_atom_site_displace_legendre_axis
_jana_atom_site_displace_legendre_param_order
_jana_atom_site_displace_legendre_param_coeff
Fe1 x 1 0.0419(18)
Fe1 y 1 0
Fe1 z 1 0.0223(12)
Fe1 x 2 0
Fe1 y 2 0
Fe1 z 2 0
Fe1 x 3 -0.054(3)
Fe1 y 3 0
Fe1 z 3 0.097(3)
Fe1 x 4 0
Fe1 y 4 0
Fe1 z 4 0
Pb1 x 1 0.023(3)
Pb1 y 1 0
Pb1 z 1 -0.081(2)
Pb1 x 2 0
Pb1 y 2 0
Pb1 z 2 0
Pb1 x 3 -0.102(6)
Pb1 y 3 0
Pb1 z 3 0.126(5)
Pb1 x 4 0
Pb1 y 4 0
Pb1 z 4 0
Bi1 x 1 0.023(3)
Bi1 y 1 0
Bi1 z 1 -0.081(2)
Bi1 x 2 0
Bi1 y 2 0
Bi1 z 2 0
Bi1 x 3 -0.102(6)
Bi1 y 3 0
Bi1 z 3 0.126(5)
Bi1 x 4 0
Bi1 y 4 0
Bi1 z 4 0
O1 x 1 0.044(4)
O1 y 1 0
O1 z 1 0.227(3)
O1 x 2 0
O1 y 2 0
O1 z 2 0
O1 x 3 -0.117(10)
O1 y 3 0
O1 z 3 0.083(5)
O1 x 4 0
O1 y 4 0
O1 z 4 0
O2 x 1 0.056(5)
O2 y 1 0
O2 z 1 0.133(3)
O2 x 2 0
O2 y 2 0
O2 z 2 0
O2 x 3 -0.039(16)
O2 y 3 0
O2 z 3 0.041(11)
O2 x 4 0
O2 y 4 0
O2 z 4 0
O3 x 1 0.053(3)
O3 y 1 0
O3 z 1 0.114(2)
O3 x 2 0
O3 y 2 0
O3 z 2 0
O3 x 3 -0.037(11)
O3 y 3 0
O3 z 3 0.065(8)
O3 x 4 0
O3 y 4 0
O3 z 4 0
