#------------------------------------------------------------------------------
#$Date: 2018-07-21 22:54:28 +0300 (Sat, 21 Jul 2018) $
#$Revision: 209177 $
#$URL: file:///home/coder/svn-repositories/cod/cif/2/31/07/2310781.cif $
#------------------------------------------------------------------------------
#
# This file is available in the Crystallography Open Database (COD),
# http://www.crystallography.net/. The original data for this entry
# were provided by IUCr Journals, http://journals.iucr.org/.
#
# The file may be used within the scientific community so long as
# proper attribution is given to the journal article from which the
# data were obtained.
#
data_2310781
loop_
_publ_author_name
'Batuk, Dmitry'
'Batuk, Maria'
'Abakumov, Artem M.'
'Hadermann, Joke'
_publ_section_title
;
 Synergy between transmission electron microscopy and powder diffraction:
 application to modulated structures.
;
_journal_coden_ASTM              ACSBDA
_journal_coeditor_code           DQ5010
_journal_issue                   2
_journal_name_full
;
 Acta Crystallographica, Section B: Structural Science, Crystal Engineering
 and Materials
;
_journal_page_first              127
_journal_page_last               143
_journal_paper_doi               10.1107/S2052520615005466
_journal_volume                  71
_journal_year                    2015
_chemical_formula_sum            'Bi0.195 Fe1.046 O2.633 Pb0.763'
_chemical_formula_weight         299.4
_space_group_crystal_system      monoclinic
_space_group_IT_number           12
_space_group_name_Hall           '-I 2y'
_space_group_name_H-M_alt        'I 1 2/m 1'
_space_group_ssg_name            X2/m(\a0\g)00
_cell_angle_alpha                90
_cell_angle_beta                 92.209(3)
_cell_angle_gamma                90
_cell_formula_units_Z            1
_cell_length_a                   3.92822(13)
_cell_length_b                   3.92661(10)
_cell_length_c                   4.05202(14)
_cell_measurement_temperature    900
_cell_modulation_dimension       1
_cell_volume                     62.454(3)
_diffrn_ambient_temperature      900
_diffrn_radiation_probe          neutron
_diffrn_radiation_wavelength     1.8857
_exptl_absorpt_coefficient_mu    0.005
_exptl_crystal_density_diffrn    7.9599
_exptl_crystal_F_000             127
_pd_instr_location               ' ?'
_pd_meas_2theta_range_inc        0.05
_pd_meas_2theta_range_max        164.600
_pd_meas_2theta_range_min        3.650
_pd_meas_number_of_points        3220
_pd_proc_2theta_range_inc        0.05
_pd_proc_2theta_range_max        159.95
_pd_proc_2theta_range_min        7.05
_pd_proc_ls_background_function  '7 Legendre polynoms'
_pd_proc_ls_pref_orient_corr     none
_pd_proc_ls_profile_function     Pseudo-Voigt
_pd_proc_ls_prof_R_factor        0.0360
_pd_proc_ls_prof_wR_expected     0.0195
_pd_proc_ls_prof_wR_factor       0.0464
_refine_ls_goodness_of_fit_all   2.38
_refine_ls_number_constraints    7
_refine_ls_number_parameters     63
_refine_ls_number_restraints     0
_refine_ls_R_factor_all          0.0406
_refine_ls_R_factor_gt           0.0400
_refine_ls_shift/su_max          0.0511
_refine_ls_shift/su_mean         0.0345
_refine_ls_weighting_scheme      sigma
_refine_ls_wR_factor_all         0.0555
_refine_ls_wR_factor_gt          0.0554
_cod_data_source_file            dq5010sup2.cif
_cod_data_source_block           I
_cod_depositor_comments
;
 Updating space group information.

 Antanas Vaitkus,
 2018-07-22
;
_cod_database_code               2310781
loop_
_space_group_symop_id
_space_group_symop_operation_xyz
1 x,y,z
2 -x,y,-z
3 x+0.5,y+0.5,z+0.5
4 -x+0.5,y+0.5,-z+0.5
5 -x,-y,-z
6 x,-y,z
7 -x+0.5,-y+0.5,-z+0.5
8 x+0.5,-y+0.5,z+0.5
loop_
_space_group_symop_ssg_id
_space_group_symop_ssg_operation_algebraic
1 x1,x2,x3,x4
2 -x1,x2,-x3,-x4
3 -x1,-x2,-x3,-x4
4 x1,-x2,x3,x4
5 x1+1/2,x2+1/2,x3+1/2,x4+1/2
6 -x1+1/2,x2+1/2,-x3+1/2,-x4+1/2
7 -x1+1/2,-x2+1/2,-x3+1/2,-x4+1/2
8 x1+1/2,-x2+1/2,x3+1/2,x4+1/2
loop_
_atom_site_label
_atom_site_type_symbol
_atom_site_fract_x
_atom_site_fract_y
_atom_site_fract_z
_atom_site_adp_type
_atom_site_U_iso_or_equiv
_atom_site_site_symmetry_multiplicity
_atom_site_occupancy
_atom_site_calc_flag
Fe1 Fe 0 0 0 Uiso 0.0177(4) 2 0.52323(10) d
Pb1 Pb 0 0 0 Uiso 0.0519(10) 2 0.38141(8) d
Bi1 Bi 0 0 0 Uiso 0.0519(10) 2 0.0974 d
O1 O 0 0.5 0 Uani 0.0458(18) 2 0.52323(10) d
O2 O 0.5 0 0 Uiso 0.0402(15) 2 0.37329(20) d
O3 O 0 0 0.5 Uiso 0.0491(12) 2 0.41976(10) d
loop_
_atom_site_aniso_label
_atom_site_aniso_type_symbol
_atom_site_aniso_U_11
_atom_site_aniso_U_22
_atom_site_aniso_U_33
_atom_site_aniso_U_12
_atom_site_aniso_U_13
_atom_site_aniso_U_23
O1 O 0.061(4) 0.0084(13) 0.067(4) 0 0 0
loop_
_atom_site_Fourier_wave_vector_seq_id
_jana_atom_site_fourier_wave_vector_q1_coeff
1 1
2 2
loop_
_atom_site_occ_special_func_atom_site_label
_atom_site_occ_special_func_crenel_c
_atom_site_occ_special_func_crenel_w
Fe1 0 0.52323(10)
Pb1 0.5 0.47677(10)
Bi1 0.5 0.4868
O1 0 0.52323(10)
O2 0 0.37329(20)
O3 0 0.41976(10)
loop_
_atom_type_symbol
_atom_type_scat_length_neutron
_atom_type_scat_source
Pb 9.405 International_Tables_Vol_C
Bi 8.532 International_Tables_Vol_C
Fe 9.450 International_Tables_Vol_C
O 5.803 International_Tables_Vol_C
loop_
_cell_wave_vector_seq_id
_cell_wave_vector_x
_cell_wave_vector_y
_cell_wave_vector_z
1 0.057008 0.000000 0.103473
loop_
_geom_angle_atom_site_label_1
_geom_angle_atom_site_label_2
_geom_angle_atom_site_label_3
_geom_angle_site_ssg_symmetry_1
_geom_angle_site_ssg_symmetry_3
_geom_angle_av
_geom_angle_min
_geom_angle_max
Fe1 Fe1 Fe1 1_4555 1_5455 90.0(3) 90.0(2) 90.0(2)
Fe1 Fe1 Fe1 1_4555 1_5545 90.7(3) 86.5(2) 92.1(2)
Fe1 Fe1 Fe1 1_4555 1_5565 89.2(3) 87.2(3) 94.4(3)
Fe1 Fe1 Fe1 1_4555 1_5655 90.0(3) 90.0(2) 90.0(2)
Fe1 Fe1 Fe1 1_4555 1_6555 178.3(4) 176.5(4) 180.0(5)
Fe1 Fe1 Fe1 1_4555 5_4445 51.9(3) 51.6(3) 52.0(3)
Fe1 Fe1 Fe1 1_4555 5_4455 50.2(3) 49.4(3) 50.9(3)
Fe1 Fe1 Fe1 1_4555 5_4545 51.9(3) 51.6(3) 52.0(3)
Fe1 Fe1 Fe1 1_4555 5_4555 50.2(3) 49.4(3) 50.9(3)
Fe1 Fe1 Fe1 1_4555 5_5455 127.2(3) 126.0(4) 129.9(3)
Fe1 Fe1 Fe1 1_4555 5_5555 127.2(3) 126.0(4) 129.9(3)
Fe1 Fe1 Pb1 1_4555 1_5545 86.1(5) 85.4(5) 86.5(4)
Fe1 Fe1 Pb1 1_4555 1_5565 90.8(5) 90.0(5) 91.9(5)
Fe1 Fe1 Pb1 1_4555 1_6555 169.4(4) 166.5(4) 171.4(5)
Fe1 Fe1 Pb1 1_4555 5_4445 55.8(5) 53.4(4) 60.3(5)
Fe1 Fe1 Pb1 1_4555 5_4455 54.5(4) 51.9(4) 61.7(4)
Fe1 Fe1 Pb1 1_4555 5_4545 55.8(5) 53.4(4) 60.3(5)
Fe1 Fe1 Pb1 1_4555 5_4555 54.5(4) 51.9(4) 61.7(4)
Fe1 Fe1 Pb1 1_4555 5_5445 124.4(5) 113.6(4) 126.9(4)
Fe1 Fe1 Pb1 1_4555 5_5455 124.8(5) 117.9(6) 126.6(4)
Fe1 Fe1 Pb1 1_4555 5_5545 124.4(5) 113.6(4) 126.9(4)
Fe1 Fe1 Pb1 1_4555 5_5555 124.8(5) 117.9(6) 126.6(4)
Fe1 Fe1 Bi1 1_4555 1_5545 86.5(4) 86.0(5) 86.8(4)
Fe1 Fe1 Bi1 1_4555 . 103.7(19) 103.7(19) 103.7(19)
Fe1 Fe1 Bi1 1_4555 1_5565 90.5(5) 89.8(5) 91.8(4)
Fe1 Fe1 Bi1 1_4555 1_6555 170.1(4) 166.7(4) 172.2(5)
Fe1 Fe1 Bi1 1_4555 5_4445 55.8(5) 53.4(4) 60.6(5)
Fe1 Fe1 Bi1 1_4555 5_4455 54.5(4) 51.8(4) 61.7(4)
Fe1 Fe1 Bi1 1_4555 5_4545 55.8(5) 53.4(4) 60.6(5)
Fe1 Fe1 Bi1 1_4555 5_4555 54.5(4) 51.8(4) 61.7(4)
Fe1 Fe1 Bi1 1_4555 5_5445 124.4(5) 113.9(4) 126.9(4)
Fe1 Fe1 Bi1 1_4555 5_5455 124.7(5) 117.4(6) 126.5(4)
Fe1 Fe1 Bi1 1_4555 5_5545 124.4(5) 113.9(4) 126.9(4)
Fe1 Fe1 Bi1 1_4555 5_5555 124.7(5) 117.4(6) 126.5(4)
Fe1 Fe1 O1 1_4555 1_5455 89.4(17) 83.3(16) 93.2(18)
Fe1 Fe1 O1 1_4555 . 89.4(17) 83.3(16) 93.2(18)
Fe1 Fe1 O1 1_4555 5_4445 19.4(11) 16.5(10) 21.6(12)
Fe1 Fe1 O1 1_4555 5_4455 21.0(10) 20.1(11) 21.4(10)
Fe1 Fe1 O1 1_4555 5_5455 156.6(12) 154.4(12) 160.8(11)
Fe1 Fe1 O2 1_4555 1_4555 10.1(6) 0.2(3) 15.8(9)
Fe1 Fe1 O2 1_4555 . 168.5(7) 161.1(7) 179.3(3)
Fe1 Fe1 O3 1_4555 1_5545 90.8(4) 88.3(4) 92.5(3)
Fe1 Fe1 O3 1_4555 . 89.3(4) 87.0(3) 94.2(4)
Fe1 Fe1 Fe1 1_5455 1_5545 90.00(16) 90 90
Fe1 Fe1 Fe1 1_5455 1_5565 90.00(16) 90 90
Fe1 Fe1 Fe1 1_5455 1_5655 180.0(5) 180.0(5) 180.0(5)
Fe1 Fe1 Fe1 1_5455 1_6555 90.00(17) 90 90
Fe1 Fe1 Fe1 1_5455 5_4445 50.0(2) 49.3(2) 50.4(2)
Fe1 Fe1 Fe1 1_5455 5_4455 51.1(2) 50.9(2) 51.3(2)
Fe1 Fe1 Fe1 1_5455 5_4545 130.0(3) 129.6(3) 130.7(2)
Fe1 Fe1 Fe1 1_5455 5_4555 128.9(3) 128.7(2) 129.1(2)
Fe1 Fe1 Fe1 1_5455 5_5445 51.1(2) 50.9(2) 51.3(2)
Fe1 Fe1 Fe1 1_5455 5_5455 50.0(2) 49.3(2) 50.4(2)
Fe1 Fe1 Fe1 1_5455 5_5545 128.9(3) 128.7(2) 129.1(2)
Fe1 Fe1 Fe1 1_5455 5_5555 130.0(3) 129.6(3) 130.7(2)
Fe1 Fe1 Pb1 1_5455 1_4555 90.00(13) 90.00(11) 90.00(11)
Fe1 Fe1 Pb1 1_5455 1_5545 90.00(15) 90.00(8) 90.00(8)
Fe1 Fe1 Pb1 1_5455 1_5565 90.00(15) 90.0(3) 90.0(3)
Fe1 Fe1 Pb1 1_5455 1_6555 90.00(13) 90.00(16) 90.00(16)
Fe1 Fe1 Pb1 1_5455 5_4445 55.1(3) 53.8(3) 59.6(2)
Fe1 Fe1 Pb1 1_5455 5_4455 55.9(3) 54.0(3) 57.8(3)
Fe1 Fe1 Pb1 1_5455 5_4545 124.9(3) 120.4(2) 126.2(5)
Fe1 Fe1 Pb1 1_5455 5_4555 124.1(4) 122.2(3) 126.0(4)
Fe1 Fe1 Pb1 1_5455 5_5445 55.9(3) 54.0(3) 57.8(3)
Fe1 Fe1 Pb1 1_5455 5_5455 55.1(3) 53.8(3) 59.6(2)
Fe1 Fe1 Pb1 1_5455 5_5545 124.1(4) 122.2(3) 126.0(4)
Fe1 Fe1 Pb1 1_5455 5_5555 124.9(3) 120.4(2) 126.2(5)
Fe1 Fe1 Bi1 1_5455 1_4555 90.00(13) 90.00(11) 90.00(11)
Fe1 Fe1 Bi1 1_5455 1_5545 90.00(15) 90.00(8) 90.00(8)
Fe1 Fe1 Bi1 1_5455 . 90.00(9) 90.00(9) 90.00(9)
Fe1 Fe1 Bi1 1_5455 1_5565 90.00(15) 90.0(3) 90.0(3)
Fe1 Fe1 Bi1 1_5455 1_6555 90.00(13) 90.00(18) 90.00(18)
Fe1 Fe1 Bi1 1_5455 5_4445 55.1(3) 53.7(3) 59.7(2)
Fe1 Fe1 Bi1 1_5455 5_4455 55.9(3) 54.1(3) 57.9(2)
Fe1 Fe1 Bi1 1_5455 5_4545 124.9(3) 120.3(2) 126.3(5)
Fe1 Fe1 Bi1 1_5455 5_4555 124.1(4) 122.1(3) 125.9(4)
Fe1 Fe1 Bi1 1_5455 5_5445 55.9(3) 54.1(3) 57.9(2)
Fe1 Fe1 Bi1 1_5455 5_5455 55.1(3) 53.7(3) 59.7(2)
Fe1 Fe1 Bi1 1_5455 5_5545 124.1(4) 122.1(3) 125.9(4)
Fe1 Fe1 Bi1 1_5455 5_5555 124.9(3) 120.3(2) 126.3(5)
Fe1 Fe1 O1 1_5455 1_5455 12.2(10) 0.0(5) 20.5(10)
Fe1 Fe1 O1 1_5455 . 167.8(10) 159.5(11) 180.0(5)
Fe1 Fe1 O1 1_5455 5_4445 90.00(16) 90.00(11) 90.00(11)
Fe1 Fe1 O1 1_5455 5_4455 90.00(12) 90.00(14) 90.00(14)
Fe1 Fe1 O1 1_5455 5_5445 90.00(12) 90.00(11) 90.00(11)
Fe1 Fe1 O1 1_5455 5_5455 90.00(16) 90.0(3) 90.0(3)
Fe1 Fe1 O2 1_5455 1_4555 90.00(16) 90 90
Fe1 Fe1 O2 1_5455 . 90.00(16) 90 90
Fe1 Fe1 O3 1_5455 1_5545 90.00(16) 90 90
Fe1 Fe1 O3 1_5455 . 90.00(16) 90 90
Fe1 Fe1 Fe1 1_5545 1_5565 179.1(4) 178.4(4) 180.0(5)
Fe1 Fe1 Fe1 1_5545 1_5655 90.0(3) 90.0(2) 90.0(2)
Fe1 Fe1 Fe1 1_5545 1_6555 89.2(3) 87.2(3) 94.4(3)
Fe1 Fe1 Fe1 1_5545 5_4455 114.5(3) 114.0(3) 114.7(3)
Fe1 Fe1 Fe1 1_5545 5_4555 114.5(3) 114.0(3) 114.7(3)
Fe1 Fe1 Fe1 1_5545 5_5455 119.0(4) 116.4(3) 120.3(3)
Fe1 Fe1 Fe1 1_5545 5_5555 119.0(4) 116.4(3) 120.3(3)
Fe1 Fe1 Pb1 1_5545 1_5565 178.7(5) 177.8(5) 179.7(5)
Fe1 Fe1 Pb1 1_5545 1_6555 81.8(4) 80.1(4) 82.7(4)
Fe1 Fe1 Pb1 1_5545 5_4445 53.9(4) 46.2(4) 58.2(5)
Fe1 Fe1 Pb1 1_5545 5_4455 125.9(4) 124.4(4) 130.1(5)
Fe1 Fe1 Pb1 1_5545 5_4545 53.9(4) 46.2(4) 58.2(5)
Fe1 Fe1 Pb1 1_5545 5_4555 125.9(4) 124.4(4) 130.1(5)
Fe1 Fe1 Pb1 1_5545 5_5445 52.4(4) 45.0(4) 54.6(4)
Fe1 Fe1 Pb1 1_5545 5_5455 124.2(5) 121.8(4) 130.8(5)
Fe1 Fe1 Pb1 1_5545 5_5545 52.4(4) 45.0(4) 54.6(4)
Fe1 Fe1 Pb1 1_5545 5_5555 124.2(5) 121.8(4) 130.8(5)
Fe1 Fe1 Bi1 1_5545 . 17.2(19) 17.2(19) 17.2(19)
Fe1 Fe1 Bi1 1_5545 1_5565 178.7(5) 178.1(5) 180.0(5)
Fe1 Fe1 Bi1 1_5545 1_6555 82.3(4) 80.3(4) 83.2(4)
Fe1 Fe1 Bi1 1_5545 5_4445 54.0(4) 46.0(4) 58.1(5)
Fe1 Fe1 Bi1 1_5545 5_4455 125.8(4) 124.1(4) 130.1(5)
Fe1 Fe1 Bi1 1_5545 5_4545 54.0(4) 46.0(4) 58.1(5)
Fe1 Fe1 Bi1 1_5545 5_4555 125.8(4) 124.1(4) 130.1(5)
Fe1 Fe1 Bi1 1_5545 5_5445 52.3(4) 44.8(4) 54.6(4)
Fe1 Fe1 Bi1 1_5545 5_5455 124.4(5) 121.9(4) 131.3(5)
Fe1 Fe1 Bi1 1_5545 5_5545 52.3(4) 44.8(4) 54.6(4)
Fe1 Fe1 Bi1 1_5545 5_5555 124.4(5) 121.9(4) 131.3(5)
Fe1 Fe1 O1 1_5545 1_5455 94.5(10) 75.4(10) 108.8(9)
Fe1 Fe1 O1 1_5545 . 94.5(10) 75.4(10) 108.8(9)
Fe1 Fe1 O1 1_5545 5_4455 108.4(11) 107.8(10) 108.7(11)
Fe1 Fe1 O1 1_5545 5_5455 114.8(12) 108.9(11) 117.3(12)
Fe1 Fe1 O2 1_5545 1_4555 91.2(6) 73.8(9) 105.2(7)
Fe1 Fe1 O2 1_5545 . 91.3(6) 73.6(7) 107.8(10)
Fe1 Fe1 O3 1_5545 1_5545 0.5(4) 0.0(5) 2.4(4)
Fe1 Fe1 O3 1_5545 . 179.1(5) 177.9(7) 180.0(5)
Fe1 Fe1 Fe1 1_5565 1_5655 90.0(3) 90.0(2) 90.0(2)
Fe1 Fe1 Fe1 1_5565 1_6555 90.7(3) 86.5(3) 92.1(3)
Fe1 Fe1 Fe1 1_5565 5_4445 119.0(4) 116.4(3) 120.3(3)
Fe1 Fe1 Fe1 1_5565 5_4545 119.0(4) 116.4(3) 120.3(3)
Fe1 Fe1 Fe1 1_5565 5_5445 114.5(3) 114.0(3) 114.7(3)
Fe1 Fe1 Fe1 1_5565 5_5545 114.5(3) 114.0(3) 114.7(3)
Fe1 Fe1 Pb1 1_5565 1_4555 81.8(4) 80.1(4) 82.7(4)
Fe1 Fe1 Pb1 1_5565 1_5545 178.7(5) 177.8(5) 179.7(5)
Fe1 Fe1 Pb1 1_5565 5_4445 124.2(5) 121.8(4) 130.8(5)
Fe1 Fe1 Pb1 1_5565 5_4455 52.4(4) 45.0(4) 54.6(4)
Fe1 Fe1 Pb1 1_5565 5_4545 124.2(5) 121.8(4) 130.8(5)
Fe1 Fe1 Pb1 1_5565 5_4555 52.4(4) 45.0(4) 54.6(4)
Fe1 Fe1 Pb1 1_5565 5_5445 125.9(4) 124.4(4) 130.1(5)
Fe1 Fe1 Pb1 1_5565 5_5455 53.9(4) 46.2(4) 58.2(5)
Fe1 Fe1 Pb1 1_5565 5_5545 125.9(4) 124.4(4) 130.1(5)
Fe1 Fe1 Pb1 1_5565 5_5555 53.9(4) 46.2(4) 58.2(5)
Fe1 Fe1 Bi1 1_5565 1_4555 82.3(4) 80.3(4) 83.2(4)
Fe1 Fe1 Bi1 1_5565 1_5545 178.7(5) 178.1(5) 180.0(5)
Fe1 Fe1 Bi1 1_5565 . 17.2(19) 17.2(19) 17.2(19)
Fe1 Fe1 Bi1 1_5565 5_4445 124.4(5) 121.9(4) 131.3(5)
Fe1 Fe1 Bi1 1_5565 5_4455 52.3(4) 44.8(4) 54.6(4)
Fe1 Fe1 Bi1 1_5565 5_4545 124.4(5) 121.9(4) 131.3(5)
Fe1 Fe1 Bi1 1_5565 5_4555 52.3(4) 44.8(4) 54.6(4)
Fe1 Fe1 Bi1 1_5565 5_5445 125.8(4) 124.1(4) 130.1(5)
Fe1 Fe1 Bi1 1_5565 5_5455 54.0(4) 46.0(4) 58.1(5)
Fe1 Fe1 Bi1 1_5565 5_5545 125.8(4) 124.1(4) 130.1(5)
Fe1 Fe1 Bi1 1_5565 5_5555 54.0(4) 46.0(4) 58.1(5)
Fe1 Fe1 O1 1_5565 1_5455 94.5(10) 75.4(10) 108.8(9)
Fe1 Fe1 O1 1_5565 . 94.5(10) 75.4(10) 108.8(9)
Fe1 Fe1 O1 1_5565 5_4445 114.8(12) 108.9(11) 117.3(12)
Fe1 Fe1 O1 1_5565 5_5445 108.4(11) 107.8(10) 108.7(11)
Fe1 Fe1 O2 1_5565 1_4555 91.3(6) 73.6(7) 107.8(10)
Fe1 Fe1 O2 1_5565 . 91.2(6) 73.8(9) 105.2(7)
Fe1 Fe1 O3 1_5565 1_5545 179.1(5) 177.9(7) 180.0(5)
Fe1 Fe1 O3 1_5565 . 0.5(4) 0.0(5) 2.4(4)
Fe1 Fe1 Fe1 1_5655 1_6555 90.00(17) 90 90
Fe1 Fe1 Fe1 1_5655 5_4445 130.0(3) 129.6(3) 130.7(2)
Fe1 Fe1 Fe1 1_5655 5_4455 128.9(3) 128.7(2) 129.1(2)
Fe1 Fe1 Fe1 1_5655 5_4545 50.0(2) 49.3(2) 50.4(2)
Fe1 Fe1 Fe1 1_5655 5_4555 51.1(2) 50.9(2) 51.3(2)
Fe1 Fe1 Fe1 1_5655 5_5445 128.9(3) 128.7(2) 129.1(2)
Fe1 Fe1 Fe1 1_5655 5_5455 130.0(3) 129.6(3) 130.7(2)
Fe1 Fe1 Fe1 1_5655 5_5545 51.1(2) 50.9(2) 51.3(2)
Fe1 Fe1 Fe1 1_5655 5_5555 50.0(2) 49.3(2) 50.4(2)
Fe1 Fe1 Pb1 1_5655 1_4555 90.00(13) 90.00(11) 90.00(11)
Fe1 Fe1 Pb1 1_5655 1_5545 90.00(15) 90.00(8) 90.00(8)
Fe1 Fe1 Pb1 1_5655 1_5565 90.00(15) 90.0(3) 90.0(3)
Fe1 Fe1 Pb1 1_5655 1_6555 90.00(13) 90.00(16) 90.00(16)
Fe1 Fe1 Pb1 1_5655 5_4445 124.9(3) 120.4(2) 126.2(5)
Fe1 Fe1 Pb1 1_5655 5_4455 124.1(4) 122.2(3) 126.0(4)
Fe1 Fe1 Pb1 1_5655 5_4545 55.1(3) 53.8(3) 59.6(2)
Fe1 Fe1 Pb1 1_5655 5_4555 55.9(3) 54.0(3) 57.8(3)
Fe1 Fe1 Pb1 1_5655 5_5445 124.1(4) 122.2(3) 126.0(4)
Fe1 Fe1 Pb1 1_5655 5_5455 124.9(3) 120.4(2) 126.2(5)
Fe1 Fe1 Pb1 1_5655 5_5545 55.9(3) 54.0(3) 57.8(3)
Fe1 Fe1 Pb1 1_5655 5_5555 55.1(3) 53.8(3) 59.6(2)
Fe1 Fe1 Bi1 1_5655 1_4555 90.00(13) 90.00(11) 90.00(11)
Fe1 Fe1 Bi1 1_5655 1_5545 90.00(15) 90.00(8) 90.00(8)
Fe1 Fe1 Bi1 1_5655 . 90.00(9) 90.00(9) 90.00(9)
Fe1 Fe1 Bi1 1_5655 1_5565 90.00(15) 90.0(3) 90.0(3)
Fe1 Fe1 Bi1 1_5655 1_6555 90.00(13) 90.00(18) 90.00(18)
Fe1 Fe1 Bi1 1_5655 5_4445 124.9(3) 120.3(2) 126.3(5)
Fe1 Fe1 Bi1 1_5655 5_4455 124.1(4) 122.1(3) 125.9(4)
Fe1 Fe1 Bi1 1_5655 5_4545 55.1(3) 53.7(3) 59.7(2)
Fe1 Fe1 Bi1 1_5655 5_4555 55.9(3) 54.1(3) 57.9(2)
Fe1 Fe1 Bi1 1_5655 5_5445 124.1(4) 122.1(3) 125.9(4)
Fe1 Fe1 Bi1 1_5655 5_5455 124.9(3) 120.3(2) 126.3(5)
Fe1 Fe1 Bi1 1_5655 5_5545 55.9(3) 54.1(3) 57.9(2)
Fe1 Fe1 Bi1 1_5655 5_5555 55.1(3) 53.7(3) 59.7(2)
Fe1 Fe1 O1 1_5655 1_5455 167.8(10) 159.5(11) 180.0(5)
Fe1 Fe1 O1 1_5655 . 12.2(10) 0.0(5) 20.5(10)
Fe1 Fe1 O1 1_5655 5_4445 90.00(16) 90.00(11) 90.00(11)
Fe1 Fe1 O1 1_5655 5_4455 90.00(12) 90.00(14) 90.00(14)
Fe1 Fe1 O1 1_5655 5_5445 90.00(12) 90.00(11) 90.00(11)
Fe1 Fe1 O1 1_5655 5_5455 90.00(16) 90.0(3) 90.0(3)
Fe1 Fe1 O2 1_5655 1_4555 90.00(16) 90 90
Fe1 Fe1 O2 1_5655 . 90.00(16) 90 90
Fe1 Fe1 O3 1_5655 1_5545 90.00(16) 90 90
Fe1 Fe1 O3 1_5655 . 90.00(16) 90 90
Fe1 Fe1 Fe1 1_6555 5_4445 127.2(3) 126.0(4) 129.9(3)
Fe1 Fe1 Fe1 1_6555 5_4545 127.2(3) 126.0(4) 129.9(3)
Fe1 Fe1 Fe1 1_6555 5_5445 50.2(3) 49.4(3) 50.9(3)
Fe1 Fe1 Fe1 1_6555 5_5455 51.9(3) 51.6(3) 52.0(3)
Fe1 Fe1 Fe1 1_6555 5_5545 50.2(3) 49.4(3) 50.9(3)
Fe1 Fe1 Fe1 1_6555 5_5555 51.9(3) 51.6(3) 52.0(3)
Fe1 Fe1 Pb1 1_6555 1_4555 169.4(4) 166.5(4) 171.4(5)
Fe1 Fe1 Pb1 1_6555 1_5545 90.8(5) 90.0(5) 91.9(5)
Fe1 Fe1 Pb1 1_6555 1_5565 86.1(5) 85.4(5) 86.5(4)
Fe1 Fe1 Pb1 1_6555 5_4445 124.8(5) 117.9(6) 126.6(4)
Fe1 Fe1 Pb1 1_6555 5_4455 124.4(5) 113.6(4) 126.9(4)
Fe1 Fe1 Pb1 1_6555 5_4545 124.8(5) 117.9(6) 126.6(4)
Fe1 Fe1 Pb1 1_6555 5_4555 124.4(5) 113.6(4) 126.9(4)
Fe1 Fe1 Pb1 1_6555 5_5445 54.5(4) 51.9(4) 61.7(4)
Fe1 Fe1 Pb1 1_6555 5_5455 55.8(5) 53.4(4) 60.3(5)
Fe1 Fe1 Pb1 1_6555 5_5545 54.5(4) 51.9(4) 61.7(4)
Fe1 Fe1 Pb1 1_6555 5_5555 55.8(5) 53.4(4) 60.3(5)
Fe1 Fe1 Bi1 1_6555 1_4555 170.1(4) 166.7(4) 172.2(5)
Fe1 Fe1 Bi1 1_6555 1_5545 90.5(5) 89.8(5) 91.8(4)
Fe1 Fe1 Bi1 1_6555 . 103.7(19) 103.7(19) 103.7(19)
Fe1 Fe1 Bi1 1_6555 1_5565 86.5(4) 86.0(5) 86.8(4)
Fe1 Fe1 Bi1 1_6555 5_4445 124.7(5) 117.4(6) 126.5(4)
Fe1 Fe1 Bi1 1_6555 5_4455 124.4(5) 113.9(4) 126.9(4)
Fe1 Fe1 Bi1 1_6555 5_4545 124.7(5) 117.4(6) 126.5(4)
Fe1 Fe1 Bi1 1_6555 5_4555 124.4(5) 113.9(4) 126.9(4)
Fe1 Fe1 Bi1 1_6555 5_5445 54.5(4) 51.8(4) 61.7(4)
Fe1 Fe1 Bi1 1_6555 5_5455 55.8(5) 53.4(4) 60.6(5)
Fe1 Fe1 Bi1 1_6555 5_5545 54.5(4) 51.8(4) 61.7(4)
Fe1 Fe1 Bi1 1_6555 5_5555 55.8(5) 53.4(4) 60.6(5)
Fe1 Fe1 O1 1_6555 1_5455 89.4(17) 83.3(16) 93.2(18)
Fe1 Fe1 O1 1_6555 . 89.4(17) 83.3(16) 93.2(18)
Fe1 Fe1 O1 1_6555 5_4445 156.6(12) 154.4(12) 160.8(11)
Fe1 Fe1 O1 1_6555 5_5445 21.0(10) 20.1(11) 21.4(10)
Fe1 Fe1 O1 1_6555 5_5455 19.4(11) 16.5(10) 21.6(12)
Fe1 Fe1 O2 1_6555 1_4555 168.5(7) 161.1(7) 179.3(3)
Fe1 Fe1 O2 1_6555 . 10.1(6) 0.2(3) 15.8(9)
Fe1 Fe1 O3 1_6555 1_5545 89.3(4) 87.0(3) 94.2(4)
Fe1 Fe1 O3 1_6555 . 90.8(4) 88.3(4) 92.5(3)
Fe1 Fe1 Fe1 5_4445 5_4545 80.1(3) 79.2(3) 81.3(3)
Fe1 Fe1 Fe1 5_4445 5_5445 78.0(3) 77.4(3) 79.1(3)
Fe1 Fe1 Fe1 5_4445 5_5545 126.9(4) 125.8(4) 129.2(4)
Fe1 Fe1 Pb1 5_4445 1_4555 58.6(3) 58.0(3) 59.1(3)
Fe1 Fe1 Pb1 5_4445 1_5545 61.5(3) 60.2(3) 64.8(4)
Fe1 Fe1 Pb1 5_4445 5_4455 71.0(4) 66.9(4) 72.6(4)
Fe1 Fe1 Pb1 5_4445 5_4555 111.7(5) 108.0(5) 113.5(5)
Fe1 Fe1 Pb1 5_4445 5_5445 74.3(4) 73.9(4) 75.0(4)
Fe1 Fe1 Pb1 5_4445 5_5455 106.6(3) 104.4(3) 107.5(3)
Fe1 Fe1 Pb1 5_4445 5_5545 116.0(5) 114.9(4) 118.0(6)
Fe1 Fe1 Pb1 5_4445 5_5555 167.6(4) 162.5(4) 169.7(5)
Fe1 Fe1 Bi1 5_4445 1_4555 58.5(3) 57.9(3) 58.9(3)
Fe1 Fe1 Bi1 5_4445 1_5545 61.6(3) 60.4(3) 64.8(4)
Fe1 Fe1 Bi1 5_4445 . 104.0(14) 104.0(14) 104.0(14)
Fe1 Fe1 Bi1 5_4445 5_4445 14.3(5) 14.3(5) 14.3(5)
Fe1 Fe1 Bi1 5_4445 5_4455 71.1(4) 66.9(4) 72.7(4)
Fe1 Fe1 Bi1 5_4445 5_4545 78.5(4) 78.5(4) 78.5(4)
Fe1 Fe1 Bi1 5_4445 5_4555 111.5(5) 108.0(5) 113.2(5)
Fe1 Fe1 Bi1 5_4445 5_5445 74.3(4) 73.8(4) 75.6(4)
Fe1 Fe1 Bi1 5_4445 5_5455 106.6(3) 104.4(3) 107.5(3)
Fe1 Fe1 Bi1 5_4445 5_5545 116.1(5) 115.2(4) 118.1(6)
Fe1 Fe1 Bi1 5_4445 5_5555 167.6(4) 162.3(4) 169.7(5)
Fe1 Fe1 O1 5_4445 1_5455 42.1(15) 39.0(16) 48.0(16)
Fe1 Fe1 O1 5_4445 . 118.9(13) 117.1(13) 123.4(12)
Fe1 Fe1 O1 5_4445 5_4445 42.2(4) 41.4(3) 44.0(4)
Fe1 Fe1 O1 5_4445 5_5445 114.6(8) 113.3(8) 116.7(7)
Fe1 Fe1 O2 5_4445 . 116.3(5) 115.7(5) 117.5(6)
Fe1 Fe1 O3 5_4445 . 118.5(4) 114.7(4) 120.2(4)
Fe1 Fe1 Fe1 5_4455 5_4555 77.8(2) 77.5(2) 78.1(2)
Fe1 Fe1 Fe1 5_4455 5_5455 78.0(3) 77.4(3) 79.1(3)
Fe1 Fe1 Fe1 5_4455 5_5555 126.9(3) 125.8(3) 129.2(3)
Fe1 Fe1 Pb1 5_4455 1_5565 64.3(3) 64.0(3) 64.9(3)
Fe1 Fe1 Pb1 5_4455 1_6555 135.4(2) 135.1(2) 136.0(2)
Fe1 Fe1 Pb1 5_4455 5_4445 67.4(4) 66.0(4) 68.2(4)
Fe1 Fe1 Pb1 5_4455 5_4545 105.5(4) 105.2(4) 105.7(4)
Fe1 Fe1 Pb1 5_4455 5_5445 105.0(3) 103.8(3) 105.6(3)
Fe1 Fe1 Pb1 5_4455 5_5545 160.3(4) 158.5(4) 161.4(4)
Fe1 Fe1 Bi1 5_4455 . 126.1(12) 126.1(12) 126.1(12)
Fe1 Fe1 Bi1 5_4455 1_5565 64.2(3) 63.9(3) 64.7(3)
Fe1 Fe1 Bi1 5_4455 1_6555 135.3(2) 135.0(2) 135.9(2)
Fe1 Fe1 Bi1 5_4455 5_4445 67.5(4) 66.1(4) 68.4(4)
Fe1 Fe1 Bi1 5_4455 5_4455 10.5(3) 10.5(3) 10.5(3)
Fe1 Fe1 Bi1 5_4455 5_4545 105.6(4) 105.3(4) 105.8(4)
Fe1 Fe1 Bi1 5_4455 5_4555 71.7(3) 71.7(3) 71.7(3)
Fe1 Fe1 Bi1 5_4455 5_5445 105.3(3) 104.3(3) 105.9(3)
Fe1 Fe1 Bi1 5_4455 5_5545 160.2(4) 158.5(4) 161.3(4)
Fe1 Fe1 O1 5_4455 1_5455 38.8(16) 35.6(16) 41.6(16)
Fe1 Fe1 O1 5_4455 . 113.9(14) 111.6(14) 116.5(14)
Fe1 Fe1 O1 5_4455 5_4455 40.9(3) 40.7(3) 41.2(3)
Fe1 Fe1 O1 5_4455 5_5455 114.0(9) 113.3(9) 115.2(9)
Fe1 Fe1 O3 5_4455 1_5545 115.6(3) 114.6(3) 116.1(3)
Fe1 Fe1 Fe1 5_4545 5_5445 126.9(4) 125.8(4) 129.2(4)
Fe1 Fe1 Fe1 5_4545 5_5545 78.0(3) 77.4(3) 79.1(3)
Fe1 Fe1 Pb1 5_4545 1_4555 58.6(3) 58.0(3) 59.1(3)
Fe1 Fe1 Pb1 5_4545 1_5545 61.5(3) 60.2(3) 64.8(4)
Fe1 Fe1 Pb1 5_4545 5_4455 111.7(5) 108.0(5) 113.5(5)
Fe1 Fe1 Pb1 5_4545 5_4555 71.0(4) 66.9(4) 72.6(4)
Fe1 Fe1 Pb1 5_4545 5_5445 116.0(5) 114.9(4) 118.0(6)
Fe1 Fe1 Pb1 5_4545 5_5455 167.6(4) 162.5(4) 169.7(5)
Fe1 Fe1 Pb1 5_4545 5_5545 74.3(4) 73.9(4) 75.0(4)
Fe1 Fe1 Pb1 5_4545 5_5555 106.6(3) 104.4(3) 107.5(3)
Fe1 Fe1 Bi1 5_4545 1_4555 58.5(3) 57.9(3) 58.9(3)
Fe1 Fe1 Bi1 5_4545 1_5545 61.6(3) 60.4(3) 64.8(4)
Fe1 Fe1 Bi1 5_4545 . 104.0(14) 104.0(14) 104.0(14)
Fe1 Fe1 Bi1 5_4545 5_4445 78.5(4) 78.5(4) 78.5(4)
Fe1 Fe1 Bi1 5_4545 5_4455 111.5(5) 108.0(5) 113.2(5)
Fe1 Fe1 Bi1 5_4545 5_4545 14.3(5) 14.3(5) 14.3(5)
Fe1 Fe1 Bi1 5_4545 5_4555 71.1(4) 66.9(4) 72.7(4)
Fe1 Fe1 Bi1 5_4545 5_5445 116.1(5) 115.2(4) 118.1(6)
Fe1 Fe1 Bi1 5_4545 5_5455 167.6(4) 162.3(4) 169.7(5)
Fe1 Fe1 Bi1 5_4545 5_5545 74.3(4) 73.8(4) 75.6(4)
Fe1 Fe1 Bi1 5_4545 5_5555 106.6(3) 104.4(3) 107.5(3)
Fe1 Fe1 O1 5_4545 1_5455 118.9(13) 117.1(13) 123.4(12)
Fe1 Fe1 O1 5_4545 . 42.1(15) 39.0(16) 48.0(16)
Fe1 Fe1 O1 5_4545 5_4445 42.2(4) 41.4(3) 44.0(4)
Fe1 Fe1 O1 5_4545 5_5445 114.6(8) 113.3(8) 116.7(7)
Fe1 Fe1 O2 5_4545 . 116.3(5) 115.7(5) 117.5(6)
Fe1 Fe1 O3 5_4545 . 118.5(4) 114.7(4) 120.2(4)
Fe1 Fe1 Fe1 5_4555 5_5455 126.9(3) 125.8(3) 129.2(3)
Fe1 Fe1 Fe1 5_4555 5_5555 78.0(3) 77.4(3) 79.1(3)
Fe1 Fe1 Pb1 5_4555 1_5565 64.3(3) 64.0(3) 64.9(3)
Fe1 Fe1 Pb1 5_4555 1_6555 135.4(2) 135.1(2) 136.0(2)
Fe1 Fe1 Pb1 5_4555 5_4445 105.5(4) 105.2(4) 105.7(4)
Fe1 Fe1 Pb1 5_4555 5_4545 67.4(4) 66.0(4) 68.2(4)
Fe1 Fe1 Pb1 5_4555 5_5445 160.3(4) 158.5(4) 161.4(4)
Fe1 Fe1 Pb1 5_4555 5_5545 105.0(3) 103.8(3) 105.6(3)
Fe1 Fe1 Bi1 5_4555 . 126.1(12) 126.1(12) 126.1(12)
Fe1 Fe1 Bi1 5_4555 1_5565 64.2(3) 63.9(3) 64.7(3)
Fe1 Fe1 Bi1 5_4555 1_6555 135.3(2) 135.0(2) 135.9(2)
Fe1 Fe1 Bi1 5_4555 5_4445 105.6(4) 105.3(4) 105.8(4)
Fe1 Fe1 Bi1 5_4555 5_4455 71.7(3) 71.7(3) 71.7(3)
Fe1 Fe1 Bi1 5_4555 5_4545 67.5(4) 66.1(4) 68.4(4)
Fe1 Fe1 Bi1 5_4555 5_4555 10.5(3) 10.5(3) 10.5(3)
Fe1 Fe1 Bi1 5_4555 5_5445 160.2(4) 158.5(4) 161.3(4)
Fe1 Fe1 Bi1 5_4555 5_5545 105.3(3) 104.3(3) 105.9(3)
Fe1 Fe1 O1 5_4555 1_5455 113.9(14) 111.6(14) 116.5(14)
Fe1 Fe1 O1 5_4555 . 38.8(16) 35.6(16) 41.6(16)
Fe1 Fe1 O1 5_4555 5_4455 40.9(3) 40.7(3) 41.2(3)
Fe1 Fe1 O1 5_4555 5_5455 114.0(9) 113.3(9) 115.2(9)
Fe1 Fe1 O3 5_4555 1_5545 115.6(3) 114.6(3) 116.1(3)
Fe1 Fe1 Fe1 5_5445 5_5545 77.8(2) 77.5(2) 78.1(2)
Fe1 Fe1 Pb1 5_5445 1_4555 135.4(2) 135.1(2) 136.0(2)
Fe1 Fe1 Pb1 5_5445 1_5545 64.3(3) 64.0(3) 64.9(3)
Fe1 Fe1 Pb1 5_5445 5_4455 105.0(3) 103.8(3) 105.6(3)
Fe1 Fe1 Pb1 5_5445 5_4555 160.3(4) 158.5(4) 161.4(4)
Fe1 Fe1 Pb1 5_5445 5_5455 67.4(4) 66.0(4) 68.2(4)
Fe1 Fe1 Pb1 5_5445 5_5555 105.5(4) 105.2(4) 105.7(4)
Fe1 Fe1 Bi1 5_5445 1_4555 135.3(2) 135.0(2) 135.9(2)
Fe1 Fe1 Bi1 5_5445 1_5545 64.2(3) 63.9(3) 64.7(3)
Fe1 Fe1 Bi1 5_5445 . 126.1(12) 126.1(12) 126.1(12)
Fe1 Fe1 Bi1 5_5445 5_4455 105.3(3) 104.3(3) 105.9(3)
Fe1 Fe1 Bi1 5_5445 5_4555 160.2(4) 158.5(4) 161.3(4)
Fe1 Fe1 Bi1 5_5445 5_5445 10.5(3) 10.5(3) 10.5(3)
Fe1 Fe1 Bi1 5_5445 5_5455 67.5(4) 66.1(4) 68.4(4)
Fe1 Fe1 Bi1 5_5445 5_5545 71.7(3) 71.7(3) 71.7(3)
Fe1 Fe1 Bi1 5_5445 5_5555 105.6(4) 105.3(4) 105.8(4)
Fe1 Fe1 O1 5_5445 1_5455 38.8(16) 35.6(16) 41.6(16)
Fe1 Fe1 O1 5_5445 . 113.9(14) 111.6(14) 116.5(14)
Fe1 Fe1 O1 5_5445 5_4445 114.0(9) 113.3(9) 115.2(9)
Fe1 Fe1 O1 5_5445 5_5445 40.9(3) 40.7(3) 41.2(3)
Fe1 Fe1 O3 5_5445 . 115.6(3) 114.6(3) 116.1(3)
Fe1 Fe1 Fe1 5_5455 5_5555 80.1(3) 79.2(3) 81.3(3)
Fe1 Fe1 Pb1 5_5455 1_5565 61.5(3) 60.2(3) 64.8(4)
Fe1 Fe1 Pb1 5_5455 1_6555 58.6(3) 58.0(3) 59.1(3)
Fe1 Fe1 Pb1 5_5455 5_4445 106.6(3) 104.4(3) 107.5(3)
Fe1 Fe1 Pb1 5_5455 5_4455 74.3(4) 73.9(4) 75.0(4)
Fe1 Fe1 Pb1 5_5455 5_4545 167.6(4) 162.5(4) 169.7(5)
Fe1 Fe1 Pb1 5_5455 5_4555 116.0(5) 114.9(4) 118.0(6)
Fe1 Fe1 Pb1 5_5455 5_5445 71.0(4) 66.9(4) 72.6(4)
Fe1 Fe1 Pb1 5_5455 5_5545 111.7(5) 108.0(5) 113.5(5)
Fe1 Fe1 Bi1 5_5455 . 104.0(14) 104.0(14) 104.0(14)
Fe1 Fe1 Bi1 5_5455 1_5565 61.6(3) 60.4(3) 64.8(4)
Fe1 Fe1 Bi1 5_5455 1_6555 58.5(3) 57.9(3) 58.9(3)
Fe1 Fe1 Bi1 5_5455 5_4445 106.6(3) 104.4(3) 107.5(3)
Fe1 Fe1 Bi1 5_5455 5_4455 74.3(4) 73.8(4) 75.6(4)
Fe1 Fe1 Bi1 5_5455 5_4545 167.6(4) 162.3(4) 169.7(5)
Fe1 Fe1 Bi1 5_5455 5_4555 116.1(5) 115.2(4) 118.1(6)
Fe1 Fe1 Bi1 5_5455 5_5445 71.1(4) 66.9(4) 72.7(4)
Fe1 Fe1 Bi1 5_5455 5_5455 14.3(5) 14.3(5) 14.3(5)
Fe1 Fe1 Bi1 5_5455 5_5545 111.5(5) 108.0(5) 113.2(5)
Fe1 Fe1 Bi1 5_5455 5_5555 78.5(4) 78.5(4) 78.5(4)
Fe1 Fe1 O1 5_5455 1_5455 42.1(15) 39.0(16) 48.0(16)
Fe1 Fe1 O1 5_5455 . 118.9(13) 117.1(13) 123.4(12)
Fe1 Fe1 O1 5_5455 5_4455 114.6(8) 113.3(8) 116.7(7)
Fe1 Fe1 O1 5_5455 5_5455 42.2(4) 41.4(3) 44.0(4)
Fe1 Fe1 O2 5_5455 1_4555 116.3(5) 115.7(5) 117.5(6)
Fe1 Fe1 O3 5_5455 1_5545 118.5(4) 114.7(4) 120.2(4)
Fe1 Fe1 Pb1 5_5545 1_4555 135.4(2) 135.1(2) 136.0(2)
Fe1 Fe1 Pb1 5_5545 1_5545 64.3(3) 64.0(3) 64.9(3)
Fe1 Fe1 Pb1 5_5545 5_4455 160.3(4) 158.5(4) 161.4(4)
Fe1 Fe1 Pb1 5_5545 5_4555 105.0(3) 103.8(3) 105.6(3)
Fe1 Fe1 Pb1 5_5545 5_5455 105.5(4) 105.2(4) 105.7(4)
Fe1 Fe1 Pb1 5_5545 5_5555 67.4(4) 66.0(4) 68.2(4)
Fe1 Fe1 Bi1 5_5545 1_4555 135.3(2) 135.0(2) 135.9(2)
Fe1 Fe1 Bi1 5_5545 1_5545 64.2(3) 63.9(3) 64.7(3)
Fe1 Fe1 Bi1 5_5545 . 126.1(12) 126.1(12) 126.1(12)
Fe1 Fe1 Bi1 5_5545 5_4455 160.2(4) 158.5(4) 161.3(4)
Fe1 Fe1 Bi1 5_5545 5_4555 105.3(3) 104.3(3) 105.9(3)
Fe1 Fe1 Bi1 5_5545 5_5445 71.7(3) 71.7(3) 71.7(3)
Fe1 Fe1 Bi1 5_5545 5_5455 105.6(4) 105.3(4) 105.8(4)
Fe1 Fe1 Bi1 5_5545 5_5545 10.5(3) 10.5(3) 10.5(3)
Fe1 Fe1 Bi1 5_5545 5_5555 67.5(4) 66.1(4) 68.4(4)
Fe1 Fe1 O1 5_5545 1_5455 113.9(14) 111.6(14) 116.5(14)
Fe1 Fe1 O1 5_5545 . 38.8(16) 35.6(16) 41.6(16)
Fe1 Fe1 O1 5_5545 5_4445 114.0(9) 113.3(9) 115.2(9)
Fe1 Fe1 O1 5_5545 5_5445 40.9(3) 40.7(3) 41.2(3)
Fe1 Fe1 O3 5_5545 . 115.6(3) 114.6(3) 116.1(3)
Fe1 Fe1 Pb1 5_5555 1_5565 61.5(3) 60.2(3) 64.8(4)
Fe1 Fe1 Pb1 5_5555 1_6555 58.6(3) 58.0(3) 59.1(3)
Fe1 Fe1 Pb1 5_5555 5_4445 167.6(4) 162.5(4) 169.7(5)
Fe1 Fe1 Pb1 5_5555 5_4455 116.0(5) 114.9(4) 118.0(6)
Fe1 Fe1 Pb1 5_5555 5_4545 106.6(3) 104.4(3) 107.5(3)
Fe1 Fe1 Pb1 5_5555 5_4555 74.3(4) 73.9(4) 75.0(4)
Fe1 Fe1 Pb1 5_5555 5_5445 111.7(5) 108.0(5) 113.5(5)
Fe1 Fe1 Pb1 5_5555 5_5545 71.0(4) 66.9(4) 72.6(4)
Fe1 Fe1 Bi1 5_5555 . 104.0(14) 104.0(14) 104.0(14)
Fe1 Fe1 Bi1 5_5555 1_5565 61.6(3) 60.4(3) 64.8(4)
Fe1 Fe1 Bi1 5_5555 1_6555 58.5(3) 57.9(3) 58.9(3)
Fe1 Fe1 Bi1 5_5555 5_4445 167.6(4) 162.3(4) 169.7(5)
Fe1 Fe1 Bi1 5_5555 5_4455 116.1(5) 115.2(4) 118.1(6)
Fe1 Fe1 Bi1 5_5555 5_4545 106.6(3) 104.4(3) 107.5(3)
Fe1 Fe1 Bi1 5_5555 5_4555 74.3(4) 73.8(4) 75.6(4)
Fe1 Fe1 Bi1 5_5555 5_5445 111.5(5) 108.0(5) 113.2(5)
Fe1 Fe1 Bi1 5_5555 5_5455 78.5(4) 78.5(4) 78.5(4)
Fe1 Fe1 Bi1 5_5555 5_5545 71.1(4) 66.9(4) 72.7(4)
Fe1 Fe1 Bi1 5_5555 5_5555 14.3(5) 14.3(5) 14.3(5)
Fe1 Fe1 O1 5_5555 1_5455 118.9(13) 117.1(13) 123.4(12)
Fe1 Fe1 O1 5_5555 . 42.1(15) 39.0(16) 48.0(16)
Fe1 Fe1 O1 5_5555 5_4455 114.6(8) 113.3(8) 116.7(7)
Fe1 Fe1 O1 5_5555 5_5455 42.2(4) 41.4(3) 44.0(4)
Fe1 Fe1 O2 5_5555 1_4555 116.3(5) 115.7(5) 117.5(6)
Fe1 Fe1 O3 5_5555 1_5545 118.5(4) 114.7(4) 120.2(4)
Pb1 Fe1 Pb1 1_4555 1_5545 99.8(5) 98.6(4) 101.6(5)
Pb1 Fe1 Pb1 1_4555 5_4455 54.8(4) 53.4(4) 55.9(4)
Pb1 Fe1 Pb1 1_4555 5_4555 54.8(4) 53.4(4) 55.9(4)
Pb1 Fe1 Pb1 1_4555 5_5445 134.2(4) 134.2(4) 134.2(4)
Pb1 Fe1 Pb1 1_4555 5_5455 114.5(4) 112.9(5) 115.7(5)
Pb1 Fe1 Pb1 1_4555 5_5545 134.2(4) 134.2(4) 134.2(4)
Pb1 Fe1 Pb1 1_4555 5_5555 114.5(4) 112.9(5) 115.7(5)
Pb1 Fe1 Bi1 1_4555 1_4555 0.3(4) 0.2(5) 0.5(4)
Pb1 Fe1 Bi1 1_4555 1_5545 99.9(5) 98.8(4) 101.6(5)
Pb1 Fe1 Bi1 1_4555 . 62.9(19) 62.9(19) 62.9(19)
Pb1 Fe1 Bi1 1_4555 5_4455 54.6(4) 53.3(4) 55.6(4)
Pb1 Fe1 Bi1 1_4555 5_4555 54.6(4) 53.3(4) 55.6(4)
Pb1 Fe1 Bi1 1_4555 5_5445 134.3(4) 134.0(4) 134.6(4)
Pb1 Fe1 Bi1 1_4555 5_5455 114.4(4) 112.6(5) 115.7(5)
Pb1 Fe1 Bi1 1_4555 5_5545 134.3(4) 134.0(4) 134.6(4)
Pb1 Fe1 Bi1 1_4555 5_5555 114.4(4) 112.6(5) 115.7(5)
Pb1 Fe1 O1 1_4555 1_5455 96.7(17) 93.1(17) 100.9(16)
Pb1 Fe1 O1 1_4555 . 96.7(17) 93.1(17) 100.9(16)
Pb1 Fe1 O1 1_4555 5_4445 34.7(12) 34.1(12) 35.0(12)
Pb1 Fe1 O1 1_4555 5_5445 170.0(11) 168.9(11) 172.1(10)
Pb1 Fe1 O2 1_4555 . 173.3(6) 173.3(6) 173.3(6)
Pb1 Fe1 O3 1_4555 . 80.5(4) 77.7(4) 82.3(4)
Pb1 Fe1 Pb1 1_5545 5_4455 132.4(4) 127.7(5) 136.0(4)
Pb1 Fe1 Pb1 1_5545 5_4555 132.4(4) 127.7(5) 136.0(4)
Pb1 Fe1 Pb1 1_5545 5_5445 55.7(4) 54.6(4) 57.2(5)
Pb1 Fe1 Pb1 1_5545 5_5455 130.8(5) 129.9(5) 132.6(5)
Pb1 Fe1 Pb1 1_5545 5_5545 55.7(4) 54.6(4) 57.2(5)
Pb1 Fe1 Pb1 1_5545 5_5555 130.8(5) 129.9(5) 132.6(5)
Pb1 Fe1 Bi1 1_5545 1_4555 99.2(5) 97.7(5) 101.4(5)
Pb1 Fe1 Bi1 1_5545 1_5545 0.2(5) 0.0(5) 0.6(4)
Pb1 Fe1 Bi1 1_5545 . 164.4(19) 164.4(19) 164.4(19)
Pb1 Fe1 Bi1 1_5545 5_4445 47.4(4) 47.4(4) 47.4(4)
Pb1 Fe1 Bi1 1_5545 5_4455 132.5(4) 127.7(5) 136.3(4)
Pb1 Fe1 Bi1 1_5545 5_4545 47.4(4) 47.4(4) 47.4(4)
Pb1 Fe1 Bi1 1_5545 5_4555 132.5(4) 127.7(5) 136.3(4)
Pb1 Fe1 Bi1 1_5545 5_5445 55.8(4) 54.8(4) 57.3(5)
Pb1 Fe1 Bi1 1_5545 5_5455 130.9(5) 129.9(5) 132.9(5)
Pb1 Fe1 Bi1 1_5545 5_5545 55.8(4) 54.8(4) 57.3(5)
Pb1 Fe1 Bi1 1_5545 5_5555 130.9(5) 129.9(5) 132.9(5)
Pb1 Fe1 O1 1_5545 1_5455 72.4(9) 71.0(9) 74.6(10)
Pb1 Fe1 O1 1_5545 . 72.4(9) 71.0(9) 74.6(10)
Pb1 Fe1 O1 1_5545 5_4445 65.8(12) 64.3(12) 68.9(10)
Pb1 Fe1 O1 1_5545 5_5445 69.9(11) 69.5(11) 70.6(10)
Pb1 Fe1 O2 1_5545 . 75.4(7) 74.6(6) 77.2(7)
Pb1 Fe1 O3 1_5545 . 179.3(6) 178.1(7) 179.9(5)
Pb1 Fe1 Pb1 1_5565 1_6555 99.8(5) 98.6(5) 101.6(5)
Pb1 Fe1 Pb1 1_5565 5_4445 130.8(5) 129.9(5) 132.6(5)
Pb1 Fe1 Pb1 1_5565 5_4455 55.7(4) 54.6(4) 57.2(5)
Pb1 Fe1 Pb1 1_5565 5_4545 130.8(5) 129.9(5) 132.6(5)
Pb1 Fe1 Pb1 1_5565 5_4555 55.7(4) 54.6(4) 57.2(5)
Pb1 Fe1 Pb1 1_5565 5_5445 132.4(4) 127.7(5) 136.0(4)
Pb1 Fe1 Pb1 1_5565 5_5545 132.4(4) 127.7(5) 136.0(4)
Pb1 Fe1 Bi1 1_5565 . 164.4(19) 164.4(19) 164.4(19)
Pb1 Fe1 Bi1 1_5565 1_5565 0.2(5) 0.0(5) 0.6(4)
Pb1 Fe1 Bi1 1_5565 1_6555 99.2(5) 97.7(5) 101.4(5)
Pb1 Fe1 Bi1 1_5565 5_4445 130.9(5) 129.9(5) 132.9(5)
Pb1 Fe1 Bi1 1_5565 5_4455 55.8(4) 54.8(4) 57.3(5)
Pb1 Fe1 Bi1 1_5565 5_4545 130.9(5) 129.9(5) 132.9(5)
Pb1 Fe1 Bi1 1_5565 5_4555 55.8(4) 54.8(4) 57.3(5)
Pb1 Fe1 Bi1 1_5565 5_5445 132.5(4) 127.7(5) 136.3(4)
Pb1 Fe1 Bi1 1_5565 5_5455 47.4(4) 47.4(4) 47.4(4)
Pb1 Fe1 Bi1 1_5565 5_5545 132.5(4) 127.7(5) 136.3(4)
Pb1 Fe1 Bi1 1_5565 5_5555 47.4(4) 47.4(4) 47.4(4)
Pb1 Fe1 O1 1_5565 1_5455 72.4(9) 71.0(9) 74.6(10)
Pb1 Fe1 O1 1_5565 . 72.4(9) 71.0(9) 74.6(10)
Pb1 Fe1 O1 1_5565 5_4455 69.9(11) 69.5(11) 70.6(10)
Pb1 Fe1 O1 1_5565 5_5455 65.8(12) 64.3(12) 68.9(10)
Pb1 Fe1 O2 1_5565 1_4555 75.4(7) 74.6(6) 77.2(7)
Pb1 Fe1 O3 1_5565 1_5545 179.3(6) 178.1(7) 179.9(5)
Pb1 Fe1 Pb1 1_6555 5_4445 114.5(4) 112.9(5) 115.7(5)
Pb1 Fe1 Pb1 1_6555 5_4455 134.2(4) 134.2(4) 134.2(4)
Pb1 Fe1 Pb1 1_6555 5_4545 114.5(4) 112.9(5) 115.7(5)
Pb1 Fe1 Pb1 1_6555 5_4555 134.2(4) 134.2(4) 134.2(4)
Pb1 Fe1 Pb1 1_6555 5_5445 54.8(4) 53.4(4) 55.9(4)
Pb1 Fe1 Pb1 1_6555 5_5545 54.8(4) 53.4(4) 55.9(4)
Pb1 Fe1 Bi1 1_6555 . 62.9(19) 62.9(19) 62.9(19)
Pb1 Fe1 Bi1 1_6555 1_5565 99.9(5) 98.8(4) 101.6(5)
Pb1 Fe1 Bi1 1_6555 1_6555 0.3(4) 0.2(5) 0.5(4)
Pb1 Fe1 Bi1 1_6555 5_4445 114.4(4) 112.6(5) 115.7(5)
Pb1 Fe1 Bi1 1_6555 5_4455 134.3(4) 134.0(4) 134.6(4)
Pb1 Fe1 Bi1 1_6555 5_4545 114.4(4) 112.6(5) 115.7(5)
Pb1 Fe1 Bi1 1_6555 5_4555 134.3(4) 134.0(4) 134.6(4)
Pb1 Fe1 Bi1 1_6555 5_5445 54.6(4) 53.3(4) 55.6(4)
Pb1 Fe1 Bi1 1_6555 5_5545 54.6(4) 53.3(4) 55.6(4)
Pb1 Fe1 O1 1_6555 1_5455 96.7(17) 93.1(17) 100.9(16)
Pb1 Fe1 O1 1_6555 . 96.7(17) 93.1(17) 100.9(16)
Pb1 Fe1 O1 1_6555 5_4455 170.0(11) 168.9(11) 172.1(10)
Pb1 Fe1 O1 1_6555 5_5455 34.7(12) 34.1(12) 35.0(12)
Pb1 Fe1 O2 1_6555 1_4555 173.3(6) 173.3(6) 173.3(6)
Pb1 Fe1 O3 1_6555 1_5545 80.5(4) 77.7(4) 82.3(4)
Pb1 Fe1 Pb1 5_4445 5_4455 71.1(5) 67.4(5) 80.0(4)
Pb1 Fe1 Pb1 5_4445 5_4545 69.8(3) 60.7(2) 72.4(4)
Pb1 Fe1 Pb1 5_4445 5_4555 109.4(5) 106.8(5) 117.6(6)
Pb1 Fe1 Pb1 5_4445 5_5445 68.6(5) 57.5(5) 73.1(5)
Pb1 Fe1 Pb1 5_4445 5_5455 108.5(3) 108.4(3) 109.1(3)
Pb1 Fe1 Pb1 5_4445 5_5545 106.3(5) 91.0(4) 112.7(5)
Pb1 Fe1 Pb1 5_4445 5_5555 178.7(5) 174.9(7) 180.0(5)
Pb1 Fe1 Bi1 5_4445 . 59.4(15) 59.4(15) 59.4(15)
Pb1 Fe1 Bi1 5_4445 1_5565 130.7(4) 129.6(5) 132.6(4)
Pb1 Fe1 Bi1 5_4445 1_6555 115.0(5) 113.0(4) 116.3(5)
Pb1 Fe1 Bi1 5_4445 5_4445 0.1(5) 0.0(5) 0.9(5)
Pb1 Fe1 Bi1 5_4445 5_4455 71.2(5) 67.4(5) 80.0(4)
Pb1 Fe1 Bi1 5_4445 5_4545 69.8(3) 60.7(2) 72.4(4)
Pb1 Fe1 Bi1 5_4445 5_4555 109.4(5) 106.8(5) 117.6(6)
Pb1 Fe1 Bi1 5_4445 5_5445 68.6(5) 57.8(5) 73.1(5)
Pb1 Fe1 Bi1 5_4445 5_5455 108.6(3) 108.4(3) 109.3(3)
Pb1 Fe1 Bi1 5_4445 5_5545 106.3(5) 90.8(4) 112.7(5)
Pb1 Fe1 Bi1 5_4445 5_5555 178.7(5) 174.7(7) 180.0(5)
Pb1 Fe1 O1 5_4445 1_5455 58.6(13) 40.6(13) 71.7(11)
Pb1 Fe1 O1 5_4445 . 127.7(14) 112.3(13) 137.0(15)
Pb1 Fe1 O1 5_4445 5_4455 74.0(9) 73.7(10) 74.3(9)
Pb1 Fe1 O1 5_4445 5_5455 138.9(7) 135.8(7) 140.3(8)
Pb1 Fe1 O2 5_4445 1_4555 56.2(5) 46.5(5) 69.9(6)
Pb1 Fe1 O2 5_4445 . 126.3(5) 107.0(7) 135.3(6)
Pb1 Fe1 O3 5_4445 1_5545 54.0(3) 48.0(3) 58.5(4)
Pb1 Fe1 O3 5_4445 . 124.3(4) 121.6(3) 131.1(5)
Pb1 Fe1 Pb1 5_4455 5_4545 109.4(5) 106.8(4) 117.6(7)
Pb1 Fe1 Pb1 5_4455 5_4555 68.2(3) 64.4(3) 71.9(4)
Pb1 Fe1 Pb1 5_4455 5_5445 111.4(3) 109.7(3) 114.5(3)
Pb1 Fe1 Pb1 5_4455 5_5455 68.6(5) 57.5(4) 73.1(4)
Pb1 Fe1 Pb1 5_4455 5_5545 176.5(5) 171.2(5) 180.0(5)
Pb1 Fe1 Pb1 5_4455 5_5555 106.3(5) 91.0(4) 112.7(4)
Pb1 Fe1 Bi1 5_4455 1_4555 54.8(4) 53.1(4) 56.1(3)
Pb1 Fe1 Bi1 5_4455 1_5545 132.6(4) 128.2(5) 136.1(3)
Pb1 Fe1 Bi1 5_4455 . 36.2(7) 36.2(7) 36.2(7)
Pb1 Fe1 Bi1 5_4455 1_5565 55.5(4) 54.5(3) 56.8(4)
Pb1 Fe1 Bi1 5_4455 5_4445 71.2(5) 67.4(4) 80.9(6)
Pb1 Fe1 Bi1 5_4455 5_4455 0.1(4) 0.0(5) 0.5(3)
Pb1 Fe1 Bi1 5_4455 5_4545 109.5(5) 106.9(4) 118.6(7)
Pb1 Fe1 Bi1 5_4455 5_4555 68.2(3) 64.8(3) 71.9(4)
Pb1 Fe1 Bi1 5_4455 5_5445 111.4(3) 109.7(3) 114.7(3)
Pb1 Fe1 Bi1 5_4455 5_5455 68.5(5) 57.2(4) 73.1(4)
Pb1 Fe1 Bi1 5_4455 5_5545 176.3(5) 170.0(5) 180.0(5)
Pb1 Fe1 Bi1 5_4455 5_5555 106.3(5) 90.8(4) 112.7(4)
Pb1 Fe1 O1 5_4455 1_5455 58.5(14) 46.3(15) 76.9(11)
Pb1 Fe1 O1 5_4455 . 125.7(15) 108.9(14) 143.4(12)
Pb1 Fe1 O1 5_4455 5_4445 79.5(10) 71.3(9) 83.8(11)
Pb1 Fe1 O1 5_4455 5_5445 132.1(7) 129.8(7) 133.7(8)
Pb1 Fe1 O1 5_4455 5_5455 109.7(9) 107.9(10) 112.5(9)
Pb1 Fe1 O2 5_4455 1_4555 54.3(4) 41.6(4) 70.0(8)
Pb1 Fe1 O2 5_4455 . 125.3(5) 113.1(8) 134.6(6)
Pb1 Fe1 O3 5_4455 1_5545 125.8(4) 124.1(6) 129.1(5)
Pb1 Fe1 O3 5_4455 . 52.3(3) 43.5(2) 55.4(4)
Pb1 Fe1 Pb1 5_4545 5_4555 71.1(5) 67.4(5) 80.0(4)
Pb1 Fe1 Pb1 5_4545 5_5445 106.3(5) 91.0(4) 112.7(5)
Pb1 Fe1 Pb1 5_4545 5_5455 178.7(5) 174.9(7) 180.0(5)
Pb1 Fe1 Pb1 5_4545 5_5545 68.6(5) 57.5(5) 73.1(5)
Pb1 Fe1 Pb1 5_4545 5_5555 108.5(3) 108.4(3) 109.1(3)
Pb1 Fe1 Bi1 5_4545 . 59.4(15) 59.4(15) 59.4(15)
Pb1 Fe1 Bi1 5_4545 1_5565 130.7(4) 129.6(5) 132.6(4)
Pb1 Fe1 Bi1 5_4545 1_6555 115.0(5) 113.0(4) 116.3(5)
Pb1 Fe1 Bi1 5_4545 5_4445 69.8(3) 60.7(2) 72.4(4)
Pb1 Fe1 Bi1 5_4545 5_4455 109.4(5) 106.8(5) 117.6(6)
Pb1 Fe1 Bi1 5_4545 5_4545 0.1(5) 0.0(5) 0.9(5)
Pb1 Fe1 Bi1 5_4545 5_4555 71.2(5) 67.4(5) 80.0(4)
Pb1 Fe1 Bi1 5_4545 5_5445 106.3(5) 90.8(4) 112.7(5)
Pb1 Fe1 Bi1 5_4545 5_5455 178.7(5) 174.7(7) 180.0(5)
Pb1 Fe1 Bi1 5_4545 5_5545 68.6(5) 57.8(5) 73.1(5)
Pb1 Fe1 Bi1 5_4545 5_5555 108.6(3) 108.4(3) 109.3(3)
Pb1 Fe1 O1 5_4545 1_5455 127.7(14) 112.3(13) 137.0(15)
Pb1 Fe1 O1 5_4545 . 58.6(13) 40.6(13) 71.7(11)
Pb1 Fe1 O1 5_4545 5_4455 74.0(9) 73.7(10) 74.3(9)
Pb1 Fe1 O1 5_4545 5_5455 138.9(7) 135.8(7) 140.3(8)
Pb1 Fe1 O2 5_4545 1_4555 56.2(5) 46.5(5) 69.9(6)
Pb1 Fe1 O2 5_4545 . 126.3(5) 107.0(7) 135.3(6)
Pb1 Fe1 O3 5_4545 1_5545 54.0(3) 48.0(3) 58.5(4)
Pb1 Fe1 O3 5_4545 . 124.3(4) 121.6(3) 131.1(5)
Pb1 Fe1 Pb1 5_4555 5_5445 176.5(5) 171.2(5) 180.0(5)
Pb1 Fe1 Pb1 5_4555 5_5455 106.3(5) 91.0(4) 112.7(4)
Pb1 Fe1 Pb1 5_4555 5_5545 111.4(3) 109.7(3) 114.5(3)
Pb1 Fe1 Pb1 5_4555 5_5555 68.6(5) 57.5(4) 73.1(4)
Pb1 Fe1 Bi1 5_4555 1_4555 54.8(4) 53.1(4) 56.1(3)
Pb1 Fe1 Bi1 5_4555 1_5545 132.6(4) 128.2(5) 136.1(3)
Pb1 Fe1 Bi1 5_4555 . 36.2(7) 36.2(7) 36.2(7)
Pb1 Fe1 Bi1 5_4555 1_5565 55.5(4) 54.5(3) 56.8(4)
Pb1 Fe1 Bi1 5_4555 5_4445 109.5(5) 106.9(4) 118.6(7)
Pb1 Fe1 Bi1 5_4555 5_4455 68.2(3) 64.8(3) 71.9(4)
Pb1 Fe1 Bi1 5_4555 5_4545 71.2(5) 67.4(4) 80.9(6)
Pb1 Fe1 Bi1 5_4555 5_4555 0.1(4) 0.0(5) 0.5(3)
Pb1 Fe1 Bi1 5_4555 5_5445 176.3(5) 170.0(5) 180.0(5)
Pb1 Fe1 Bi1 5_4555 5_5455 106.3(5) 90.8(4) 112.7(4)
Pb1 Fe1 Bi1 5_4555 5_5545 111.4(3) 109.7(3) 114.7(3)
Pb1 Fe1 Bi1 5_4555 5_5555 68.5(5) 57.2(4) 73.1(4)
Pb1 Fe1 O1 5_4555 1_5455 125.7(15) 108.9(14) 143.4(12)
Pb1 Fe1 O1 5_4555 . 58.5(14) 46.3(15) 76.9(11)
Pb1 Fe1 O1 5_4555 5_4445 79.5(10) 71.3(9) 83.8(11)
Pb1 Fe1 O1 5_4555 5_5445 132.1(7) 129.8(7) 133.7(8)
Pb1 Fe1 O1 5_4555 5_5455 109.7(9) 107.9(10) 112.5(9)
Pb1 Fe1 O2 5_4555 1_4555 54.3(4) 41.6(4) 70.0(8)
Pb1 Fe1 O2 5_4555 . 125.3(5) 113.1(8) 134.6(6)
Pb1 Fe1 O3 5_4555 1_5545 125.8(4) 124.1(6) 129.1(5)
Pb1 Fe1 O3 5_4555 . 52.3(3) 43.5(2) 55.4(4)
Pb1 Fe1 Pb1 5_5445 5_5455 71.1(5) 67.4(4) 80.0(6)
Pb1 Fe1 Pb1 5_5445 5_5545 68.2(3) 64.4(3) 71.9(4)
Pb1 Fe1 Pb1 5_5445 5_5555 109.4(5) 106.8(4) 117.6(7)
Pb1 Fe1 Bi1 5_5445 1_5545 55.5(4) 54.5(3) 56.8(4)
Pb1 Fe1 Bi1 5_5445 . 36.2(7) 36.2(7) 36.2(7)
Pb1 Fe1 Bi1 5_5445 1_5565 132.6(4) 128.2(5) 136.1(3)
Pb1 Fe1 Bi1 5_5445 1_6555 54.8(4) 53.1(4) 56.1(3)
Pb1 Fe1 Bi1 5_5445 5_4445 68.5(5) 57.2(4) 73.1(4)
Pb1 Fe1 Bi1 5_5445 5_4455 111.4(3) 109.7(3) 114.7(3)
Pb1 Fe1 Bi1 5_5445 5_4545 106.3(5) 90.8(4) 112.7(4)
Pb1 Fe1 Bi1 5_5445 5_4555 176.3(5) 170.0(5) 180.0(5)
Pb1 Fe1 Bi1 5_5445 5_5445 0.1(4) 0.0(5) 0.5(3)
Pb1 Fe1 Bi1 5_5445 5_5455 71.2(5) 67.4(4) 80.9(6)
Pb1 Fe1 Bi1 5_5445 5_5545 68.2(3) 64.8(3) 71.9(4)
Pb1 Fe1 Bi1 5_5445 5_5555 109.5(5) 106.9(4) 118.6(7)
Pb1 Fe1 O1 5_5445 1_5455 58.5(14) 46.3(15) 76.9(11)
Pb1 Fe1 O1 5_5445 . 125.7(15) 108.9(14) 143.4(12)
Pb1 Fe1 O1 5_5445 5_4445 109.7(9) 107.9(10) 112.5(9)
Pb1 Fe1 O1 5_5445 5_4455 132.1(7) 129.8(7) 133.7(8)
Pb1 Fe1 O1 5_5445 5_5455 79.5(10) 71.3(9) 83.8(11)
Pb1 Fe1 O2 5_5445 1_4555 125.3(5) 113.1(8) 134.6(6)
Pb1 Fe1 O2 5_5445 . 54.3(4) 41.6(4) 70.0(8)
Pb1 Fe1 O3 5_5445 1_5545 52.3(3) 43.5(2) 55.4(4)
Pb1 Fe1 O3 5_5445 . 125.8(4) 124.1(6) 129.1(5)
Pb1 Fe1 Pb1 5_5455 5_5545 109.4(5) 106.8(5) 117.6(6)
Pb1 Fe1 Pb1 5_5455 5_5555 69.8(3) 60.7(2) 72.4(4)
Pb1 Fe1 Bi1 5_5455 1_4555 115.0(5) 113.0(4) 116.3(5)
Pb1 Fe1 Bi1 5_5455 1_5545 130.7(4) 129.6(5) 132.6(4)
Pb1 Fe1 Bi1 5_5455 . 59.4(15) 59.4(15) 59.4(15)
Pb1 Fe1 Bi1 5_5455 5_4445 108.6(3) 108.4(3) 109.3(3)
Pb1 Fe1 Bi1 5_5455 5_4455 68.6(5) 57.8(5) 73.1(5)
Pb1 Fe1 Bi1 5_5455 5_4545 178.7(5) 174.7(7) 180.0(5)
Pb1 Fe1 Bi1 5_5455 5_4555 106.3(5) 90.8(4) 112.7(5)
Pb1 Fe1 Bi1 5_5455 5_5445 71.2(5) 67.4(5) 80.0(4)
Pb1 Fe1 Bi1 5_5455 5_5455 0.1(5) 0.0(5) 0.9(5)
Pb1 Fe1 Bi1 5_5455 5_5545 109.4(5) 106.8(5) 117.6(6)
Pb1 Fe1 Bi1 5_5455 5_5555 69.8(3) 60.7(2) 72.4(4)
Pb1 Fe1 O1 5_5455 1_5455 58.6(13) 40.6(13) 71.7(11)
Pb1 Fe1 O1 5_5455 . 127.7(14) 112.3(13) 137.0(15)
Pb1 Fe1 O1 5_5455 5_4445 138.9(7) 135.8(7) 140.3(8)
Pb1 Fe1 O1 5_5455 5_5445 74.0(9) 73.7(10) 74.3(9)
Pb1 Fe1 O2 5_5455 1_4555 126.3(5) 107.0(7) 135.3(6)
Pb1 Fe1 O2 5_5455 . 56.2(5) 46.5(5) 69.9(6)
Pb1 Fe1 O3 5_5455 1_5545 124.3(4) 121.6(3) 131.1(5)
Pb1 Fe1 O3 5_5455 . 54.0(3) 48.0(3) 58.5(4)
Pb1 Fe1 Pb1 5_5545 5_5555 71.1(5) 67.4(4) 80.0(6)
Pb1 Fe1 Bi1 5_5545 1_5545 55.5(4) 54.5(3) 56.8(4)
Pb1 Fe1 Bi1 5_5545 . 36.2(7) 36.2(7) 36.2(7)
Pb1 Fe1 Bi1 5_5545 1_5565 132.6(4) 128.2(5) 136.1(3)
Pb1 Fe1 Bi1 5_5545 1_6555 54.8(4) 53.1(4) 56.1(3)
Pb1 Fe1 Bi1 5_5545 5_4445 106.3(5) 90.8(4) 112.7(4)
Pb1 Fe1 Bi1 5_5545 5_4455 176.3(5) 170.0(5) 180.0(5)
Pb1 Fe1 Bi1 5_5545 5_4545 68.5(5) 57.2(4) 73.1(4)
Pb1 Fe1 Bi1 5_5545 5_4555 111.4(3) 109.7(3) 114.7(3)
Pb1 Fe1 Bi1 5_5545 5_5445 68.2(3) 64.8(3) 71.9(4)
Pb1 Fe1 Bi1 5_5545 5_5455 109.5(5) 106.9(4) 118.6(7)
Pb1 Fe1 Bi1 5_5545 5_5545 0.1(4) 0.0(5) 0.5(3)
Pb1 Fe1 Bi1 5_5545 5_5555 71.2(5) 67.4(4) 80.9(6)
Pb1 Fe1 O1 5_5545 1_5455 125.7(15) 108.9(14) 143.4(12)
Pb1 Fe1 O1 5_5545 . 58.5(14) 46.3(15) 76.9(11)
Pb1 Fe1 O1 5_5545 5_4445 109.7(9) 107.9(10) 112.5(9)
Pb1 Fe1 O1 5_5545 5_4455 132.1(7) 129.8(7) 133.7(8)
Pb1 Fe1 O1 5_5545 5_5455 79.5(10) 71.3(9) 83.8(11)
Pb1 Fe1 O2 5_5545 1_4555 125.3(5) 113.1(8) 134.6(6)
Pb1 Fe1 O2 5_5545 . 54.3(4) 41.6(4) 70.0(8)
Pb1 Fe1 O3 5_5545 1_5545 52.3(3) 43.5(2) 55.4(4)
Pb1 Fe1 O3 5_5545 . 125.8(4) 124.1(6) 129.1(5)
Pb1 Fe1 Bi1 5_5555 1_4555 115.0(5) 113.0(4) 116.3(5)
Pb1 Fe1 Bi1 5_5555 1_5545 130.7(4) 129.6(5) 132.6(4)
Pb1 Fe1 Bi1 5_5555 . 59.4(15) 59.4(15) 59.4(15)
Pb1 Fe1 Bi1 5_5555 5_4445 178.7(5) 174.7(7) 180.0(5)
Pb1 Fe1 Bi1 5_5555 5_4455 106.3(5) 90.8(4) 112.7(5)
Pb1 Fe1 Bi1 5_5555 5_4545 108.6(3) 108.4(3) 109.3(3)
Pb1 Fe1 Bi1 5_5555 5_4555 68.6(5) 57.8(5) 73.1(5)
Pb1 Fe1 Bi1 5_5555 5_5445 109.4(5) 106.8(5) 117.6(6)
Pb1 Fe1 Bi1 5_5555 5_5455 69.8(3) 60.7(2) 72.4(4)
Pb1 Fe1 Bi1 5_5555 5_5545 71.2(5) 67.4(5) 80.0(4)
Pb1 Fe1 Bi1 5_5555 5_5555 0.1(5) 0.0(5) 0.9(5)
Pb1 Fe1 O1 5_5555 1_5455 127.7(14) 112.3(13) 137.0(15)
Pb1 Fe1 O1 5_5555 . 58.6(13) 40.6(13) 71.7(11)
Pb1 Fe1 O1 5_5555 5_4445 138.9(7) 135.8(7) 140.3(8)
Pb1 Fe1 O1 5_5555 5_5445 74.0(9) 73.7(10) 74.3(9)
Pb1 Fe1 O2 5_5555 1_4555 126.3(5) 107.0(7) 135.3(6)
Pb1 Fe1 O2 5_5555 . 56.2(5) 46.5(5) 69.9(6)
Pb1 Fe1 O3 5_5555 1_5545 124.3(4) 121.6(3) 131.1(5)
Pb1 Fe1 O3 5_5555 . 54.0(3) 48.0(3) 58.5(4)
Bi1 Fe1 Bi1 1_4555 1_5545 99.4(5) 98.0(4) 101.4(5)
Bi1 Fe1 Bi1 1_4555 . 63.1(19) 63.1(19) 63.1(19)
Bi1 Fe1 Bi1 1_4555 5_4455 54.6(4) 53.0(4) 55.7(4)
Bi1 Fe1 Bi1 1_4555 5_4555 54.6(4) 53.0(4) 55.7(4)
Bi1 Fe1 Bi1 1_4555 5_5445 133.7(4) 133.1(4) 134.3(4)
Bi1 Fe1 Bi1 1_4555 5_5455 114.9(5) 112.7(5) 116.3(5)
Bi1 Fe1 Bi1 1_4555 5_5545 133.7(4) 133.1(4) 134.3(4)
Bi1 Fe1 Bi1 1_4555 5_5555 114.9(5) 112.7(5) 116.3(5)
Bi1 Fe1 O1 1_4555 1_5455 95.9(17) 92.0(17) 100.9(16)
Bi1 Fe1 O1 1_4555 . 95.9(17) 92.0(17) 100.9(16)
Bi1 Fe1 O1 1_4555 5_4445 34.1(12) 32.9(12) 34.7(12)
Bi1 Fe1 O1 1_4555 5_5445 169.7(11) 168.4(11) 171.9(10)
Bi1 Fe1 O2 1_4555 . 172.6(6) 172.3(7) 172.8(6)
Bi1 Fe1 O3 1_4555 . 81.1(4) 77.8(4) 82.9(4)
Bi1 Fe1 Bi1 1_5545 . 164.5(19) 164.5(19) 164.5(19)
Bi1 Fe1 Bi1 1_5545 5_4445 47.7(4) 47.7(4) 47.7(4)
Bi1 Fe1 Bi1 1_5545 5_4455 132.6(4) 128.2(5) 136.3(4)
Bi1 Fe1 Bi1 1_5545 5_4545 47.7(4) 47.7(4) 47.7(4)
Bi1 Fe1 Bi1 1_5545 5_4555 132.6(4) 128.2(5) 136.3(4)
Bi1 Fe1 Bi1 1_5545 5_5445 55.5(4) 54.6(4) 56.9(5)
Bi1 Fe1 Bi1 1_5545 5_5455 130.7(5) 129.5(5) 132.8(5)
Bi1 Fe1 Bi1 1_5545 5_5545 55.5(4) 54.6(4) 56.9(5)
Bi1 Fe1 Bi1 1_5545 5_5555 130.7(5) 129.5(5) 132.8(5)
Bi1 Fe1 O1 1_5545 1_5455 72.4(9) 71.0(9) 74.6(10)
Bi1 Fe1 O1 1_5545 . 72.4(9) 71.0(9) 74.6(10)
Bi1 Fe1 O1 1_5545 5_4445 66.1(12) 64.4(12) 69.5(10)
Bi1 Fe1 O1 1_5545 5_5445 69.8(11) 69.4(11) 70.5(10)
Bi1 Fe1 O2 1_5545 . 75.0(7) 74.3(6) 76.6(7)
Bi1 Fe1 O3 1_5545 . 179.3(6) 178.7(7) 180.0(5)
Bi1 Fe1 Bi1 . 1_5565 164.5(8) 164.5(8) 164.5(8)
Bi1 Fe1 Bi1 . 1_6555 63.1(8) 63.1(8) 63.1(8)
Bi1 Fe1 Bi1 . 5_4445 59.2(7) 59.2(7) 59.2(7)
Bi1 Fe1 Bi1 . 5_4455 35.8(4) 35.8(4) 35.8(4)
Bi1 Fe1 Bi1 . 5_4545 59.2(7) 59.2(7) 59.2(7)
Bi1 Fe1 Bi1 . 5_4555 35.8(4) 35.8(4) 35.8(4)
Bi1 Fe1 Bi1 . 5_5445 35.8(4) 35.8(4) 35.8(4)
Bi1 Fe1 Bi1 . 5_5455 59.2(7) 59.2(7) 59.2(7)
Bi1 Fe1 Bi1 . 5_5545 35.8(4) 35.8(4) 35.8(4)
Bi1 Fe1 Bi1 . 5_5555 59.2(7) 59.2(7) 59.2(7)
Bi1 Fe1 O1 . 1_5455 110.4(10) 110.4(10) 110.4(10)
Bi1 Fe1 O1 . . 110.4(10) 110.4(10) 110.4(10)
Bi1 Fe1 O1 . 5_4445 97.5(14) 97.5(14) 97.5(14)
Bi1 Fe1 O1 . 5_4455 125.0(12) 125.0(12) 125.0(12)
Bi1 Fe1 O1 . 5_5445 125.0(12) 125.0(12) 125.0(12)
Bi1 Fe1 O1 . 5_5455 97.5(14) 97.5(14) 97.5(14)
Bi1 Fe1 O3 . 1_5545 14.8(7) 14.8(7) 14.8(7)
Bi1 Fe1 O3 . . 14.8(7) 14.8(7) 14.8(7)
Bi1 Fe1 Bi1 1_5565 1_6555 99.4(5) 98.0(5) 101.4(5)
Bi1 Fe1 Bi1 1_5565 5_4445 130.7(5) 129.5(5) 132.8(5)
Bi1 Fe1 Bi1 1_5565 5_4455 55.5(4) 54.6(4) 56.9(5)
Bi1 Fe1 Bi1 1_5565 5_4545 130.7(5) 129.5(5) 132.8(5)
Bi1 Fe1 Bi1 1_5565 5_4555 55.5(4) 54.6(4) 56.9(5)
Bi1 Fe1 Bi1 1_5565 5_5445 132.6(4) 128.2(5) 136.3(4)
Bi1 Fe1 Bi1 1_5565 5_5455 47.7(4) 47.7(4) 47.7(4)
Bi1 Fe1 Bi1 1_5565 5_5545 132.6(4) 128.2(5) 136.3(4)
Bi1 Fe1 Bi1 1_5565 5_5555 47.7(4) 47.7(4) 47.7(4)
Bi1 Fe1 O1 1_5565 1_5455 72.4(9) 71.0(9) 74.6(10)
Bi1 Fe1 O1 1_5565 . 72.4(9) 71.0(9) 74.6(10)
Bi1 Fe1 O1 1_5565 5_4455 69.8(11) 69.4(11) 70.5(10)
Bi1 Fe1 O1 1_5565 5_5455 66.1(12) 64.4(12) 69.5(10)
Bi1 Fe1 O2 1_5565 1_4555 75.0(7) 74.3(6) 76.6(7)
Bi1 Fe1 O3 1_5565 1_5545 179.3(6) 178.7(7) 180.0(5)
Bi1 Fe1 Bi1 1_6555 5_4445 114.9(5) 112.7(5) 116.3(5)
Bi1 Fe1 Bi1 1_6555 5_4455 133.7(4) 133.1(4) 134.3(4)
Bi1 Fe1 Bi1 1_6555 5_4545 114.9(5) 112.7(5) 116.3(5)
Bi1 Fe1 Bi1 1_6555 5_4555 133.7(4) 133.1(4) 134.3(4)
Bi1 Fe1 Bi1 1_6555 5_5445 54.6(4) 53.0(4) 55.7(4)
Bi1 Fe1 Bi1 1_6555 5_5545 54.6(4) 53.0(4) 55.7(4)
Bi1 Fe1 O1 1_6555 1_5455 95.9(17) 92.0(17) 100.9(16)
Bi1 Fe1 O1 1_6555 . 95.9(17) 92.0(17) 100.9(16)
Bi1 Fe1 O1 1_6555 5_4455 169.7(11) 168.4(11) 171.9(10)
Bi1 Fe1 O1 1_6555 5_5455 34.1(12) 32.9(12) 34.7(12)
Bi1 Fe1 O2 1_6555 1_4555 172.6(6) 172.3(7) 172.8(6)
Bi1 Fe1 O3 1_6555 1_5545 81.1(4) 77.8(4) 82.9(4)
Bi1 Fe1 Bi1 5_4445 5_4455 71.3(5) 67.5(5) 80.9(4)
Bi1 Fe1 Bi1 5_4445 5_4545 69.8(3) 60.7(2) 72.5(4)
Bi1 Fe1 Bi1 5_4445 5_4555 109.5(5) 106.9(5) 118.6(5)
Bi1 Fe1 Bi1 5_4445 5_5445 68.6(5) 57.5(5) 73.1(5)
Bi1 Fe1 Bi1 5_4445 5_5455 108.6(3) 108.4(3) 109.3(3)
Bi1 Fe1 Bi1 5_4445 5_5545 106.3(5) 90.6(4) 112.6(5)
Bi1 Fe1 Bi1 5_4445 5_5555 178.7(5) 174.6(7) 180.0(5)
Bi1 Fe1 O1 5_4445 1_5455 58.2(13) 40.1(13) 71.8(11)
Bi1 Fe1 O1 5_4445 . 127.4(14) 112.0(12) 137.0(15)
Bi1 Fe1 O1 5_4445 5_4445 49.3(7) 49.3(7) 49.3(7)
Bi1 Fe1 O1 5_4445 5_4455 74.2(9) 73.7(10) 74.5(9)
Bi1 Fe1 O1 5_4445 5_5455 138.9(7) 135.8(7) 140.2(8)
Bi1 Fe1 O2 5_4445 1_4555 56.1(5) 46.3(5) 69.9(6)
Bi1 Fe1 O2 5_4445 . 125.8(5) 106.1(6) 135.4(6)
Bi1 Fe1 O3 5_4445 1_5545 54.1(3) 47.7(3) 58.4(4)
Bi1 Fe1 O3 5_4445 . 124.4(4) 121.6(3) 131.5(4)
Bi1 Fe1 Bi1 5_4455 5_4545 109.5(5) 106.9(4) 118.6(7)
Bi1 Fe1 Bi1 5_4455 5_4555 68.1(3) 64.2(3) 71.9(4)
Bi1 Fe1 Bi1 5_4455 5_5445 111.5(3) 109.7(3) 114.5(3)
Bi1 Fe1 Bi1 5_4455 5_5455 68.6(5) 57.5(4) 73.1(4)
Bi1 Fe1 Bi1 5_4455 5_5545 176.2(5) 170.0(5) 180.0(5)
Bi1 Fe1 Bi1 5_4455 5_5555 106.3(5) 90.6(4) 112.6(4)
Bi1 Fe1 O1 5_4455 1_5455 58.3(14) 45.4(15) 77.4(11)
Bi1 Fe1 O1 5_4455 . 125.4(14) 107.9(14) 142.9(12)
Bi1 Fe1 O1 5_4455 5_4445 79.4(10) 71.3(9) 83.6(11)
Bi1 Fe1 O1 5_4455 5_4455 38.7(6) 38.7(6) 38.7(6)
Bi1 Fe1 O1 5_4455 5_5445 132.3(7) 130.2(7) 133.9(8)
Bi1 Fe1 O1 5_4455 5_5455 109.5(10) 107.9(10) 112.5(9)
Bi1 Fe1 O2 5_4455 1_4555 54.4(4) 41.9(4) 70.0(8)
Bi1 Fe1 O2 5_4455 . 125.3(5) 113.1(8) 134.6(6)
Bi1 Fe1 O3 5_4455 1_5545 125.7(4) 124.1(6) 129.1(5)
Bi1 Fe1 O3 5_4455 . 52.3(3) 43.2(2) 55.4(4)
Bi1 Fe1 Bi1 5_4545 5_4555 71.3(5) 67.5(5) 80.9(4)
Bi1 Fe1 Bi1 5_4545 5_5445 106.3(5) 90.6(4) 112.6(5)
Bi1 Fe1 Bi1 5_4545 5_5455 178.7(5) 174.6(7) 180.0(5)
Bi1 Fe1 Bi1 5_4545 5_5545 68.6(5) 57.5(5) 73.1(5)
Bi1 Fe1 Bi1 5_4545 5_5555 108.6(3) 108.4(3) 109.3(3)
Bi1 Fe1 O1 5_4545 1_5455 127.4(14) 112.0(12) 137.0(15)
Bi1 Fe1 O1 5_4545 . 58.2(13) 40.1(13) 71.8(11)
Bi1 Fe1 O1 5_4545 5_4445 49.3(7) 49.3(7) 49.3(7)
Bi1 Fe1 O1 5_4545 5_4455 74.2(9) 73.7(10) 74.5(9)
Bi1 Fe1 O1 5_4545 5_5455 138.9(7) 135.8(7) 140.2(8)
Bi1 Fe1 O2 5_4545 1_4555 56.1(5) 46.3(5) 69.9(6)
Bi1 Fe1 O2 5_4545 . 125.8(5) 106.1(6) 135.4(6)
Bi1 Fe1 O3 5_4545 1_5545 54.1(3) 47.7(3) 58.4(4)
Bi1 Fe1 O3 5_4545 . 124.4(4) 121.6(3) 131.5(4)
Bi1 Fe1 Bi1 5_4555 5_5445 176.2(5) 170.0(5) 180.0(5)
Bi1 Fe1 Bi1 5_4555 5_5455 106.3(5) 90.6(4) 112.6(4)
Bi1 Fe1 Bi1 5_4555 5_5545 111.5(3) 109.7(3) 114.5(3)
Bi1 Fe1 Bi1 5_4555 5_5555 68.6(5) 57.5(4) 73.1(4)
Bi1 Fe1 O1 5_4555 1_5455 125.4(14) 107.9(14) 142.9(12)
Bi1 Fe1 O1 5_4555 . 58.3(14) 45.4(15) 77.4(11)
Bi1 Fe1 O1 5_4555 5_4445 79.4(10) 71.3(9) 83.6(11)
Bi1 Fe1 O1 5_4555 5_4455 38.7(6) 38.7(6) 38.7(6)
Bi1 Fe1 O1 5_4555 5_5445 132.3(7) 130.2(7) 133.9(8)
Bi1 Fe1 O1 5_4555 5_5455 109.5(10) 107.9(10) 112.5(9)
Bi1 Fe1 O2 5_4555 1_4555 54.4(4) 41.9(4) 70.0(8)
Bi1 Fe1 O2 5_4555 . 125.3(5) 113.1(8) 134.6(6)
Bi1 Fe1 O3 5_4555 1_5545 125.7(4) 124.1(6) 129.1(5)
Bi1 Fe1 O3 5_4555 . 52.3(3) 43.2(2) 55.4(4)
Bi1 Fe1 Bi1 5_5445 5_5455 71.3(5) 67.5(4) 80.9(6)
Bi1 Fe1 Bi1 5_5445 5_5545 68.1(3) 64.2(3) 71.9(4)
Bi1 Fe1 Bi1 5_5445 5_5555 109.5(5) 106.9(4) 118.6(7)
Bi1 Fe1 O1 5_5445 1_5455 58.3(14) 45.4(15) 77.4(11)
Bi1 Fe1 O1 5_5445 . 125.4(14) 107.9(14) 142.9(12)
Bi1 Fe1 O1 5_5445 5_4445 109.5(10) 107.9(10) 112.5(9)
Bi1 Fe1 O1 5_5445 5_4455 132.3(7) 130.2(7) 133.9(8)
Bi1 Fe1 O1 5_5445 5_5445 38.7(6) 38.7(6) 38.7(6)
Bi1 Fe1 O1 5_5445 5_5455 79.4(10) 71.3(9) 83.6(11)
Bi1 Fe1 O2 5_5445 1_4555 125.3(5) 113.1(8) 134.6(6)
Bi1 Fe1 O2 5_5445 . 54.4(4) 41.9(4) 70.0(8)
Bi1 Fe1 O3 5_5445 1_5545 52.3(3) 43.2(2) 55.4(4)
Bi1 Fe1 O3 5_5445 . 125.7(4) 124.1(6) 129.1(5)
Bi1 Fe1 Bi1 5_5455 5_5545 109.5(5) 106.9(5) 118.6(5)
Bi1 Fe1 Bi1 5_5455 5_5555 69.8(3) 60.7(2) 72.5(4)
Bi1 Fe1 O1 5_5455 1_5455 58.2(13) 40.1(13) 71.8(11)
Bi1 Fe1 O1 5_5455 . 127.4(14) 112.0(12) 137.0(15)
Bi1 Fe1 O1 5_5455 5_4445 138.9(7) 135.8(7) 140.2(8)
Bi1 Fe1 O1 5_5455 5_5445 74.2(9) 73.7(10) 74.5(9)
Bi1 Fe1 O1 5_5455 5_5455 49.3(7) 49.3(7) 49.3(7)
Bi1 Fe1 O2 5_5455 1_4555 125.8(5) 106.1(6) 135.4(6)
Bi1 Fe1 O2 5_5455 . 56.1(5) 46.3(5) 69.9(6)
Bi1 Fe1 O3 5_5455 1_5545 124.4(4) 121.6(3) 131.5(4)
Bi1 Fe1 O3 5_5455 . 54.1(3) 47.7(3) 58.4(4)
Bi1 Fe1 Bi1 5_5545 5_5555 71.3(5) 67.5(4) 80.9(6)
Bi1 Fe1 O1 5_5545 1_5455 125.4(14) 107.9(14) 142.9(12)
Bi1 Fe1 O1 5_5545 . 58.3(14) 45.4(15) 77.4(11)
Bi1 Fe1 O1 5_5545 5_4445 109.5(10) 107.9(10) 112.5(9)
Bi1 Fe1 O1 5_5545 5_4455 132.3(7) 130.2(7) 133.9(8)
Bi1 Fe1 O1 5_5545 5_5445 38.7(6) 38.7(6) 38.7(6)
Bi1 Fe1 O1 5_5545 5_5455 79.4(10) 71.3(9) 83.6(11)
Bi1 Fe1 O2 5_5545 1_4555 125.3(5) 113.1(8) 134.6(6)
Bi1 Fe1 O2 5_5545 . 54.4(4) 41.9(4) 70.0(8)
Bi1 Fe1 O3 5_5545 1_5545 52.3(3) 43.2(2) 55.4(4)
Bi1 Fe1 O3 5_5545 . 125.7(4) 124.1(6) 129.1(5)
Bi1 Fe1 O1 5_5555 1_5455 127.4(14) 112.0(12) 137.0(15)
Bi1 Fe1 O1 5_5555 . 58.2(13) 40.1(13) 71.8(11)
Bi1 Fe1 O1 5_5555 5_4445 138.9(7) 135.8(7) 140.2(8)
Bi1 Fe1 O1 5_5555 5_5445 74.2(9) 73.7(10) 74.5(9)
Bi1 Fe1 O1 5_5555 5_5455 49.3(7) 49.3(7) 49.3(7)
Bi1 Fe1 O2 5_5555 1_4555 125.8(5) 106.1(6) 135.4(6)
Bi1 Fe1 O2 5_5555 . 56.1(5) 46.3(5) 69.9(6)
Bi1 Fe1 O3 5_5555 1_5545 124.4(4) 121.6(3) 131.5(4)
Bi1 Fe1 O3 5_5555 . 54.1(3) 47.7(3) 58.4(4)
O1 Fe1 O1 1_5455 . 155.6(12) 139.0(11) 180.0(5)
O1 Fe1 O1 1_5455 5_4445 84.1(9) 82.2(11) 89.4(6)
O1 Fe1 O1 1_5455 5_4455 79.7(6) 76.8(6) 82.4(7)
O1 Fe1 O1 1_5455 5_5445 79.7(6) 76.8(6) 82.4(7)
O1 Fe1 O1 1_5455 5_5455 84.1(9) 82.2(11) 89.4(6)
O1 Fe1 O2 1_5455 1_4555 88.1(9) 82.7(14) 91.8(8)
O1 Fe1 O2 1_5455 . 88.1(9) 82.7(14) 91.8(8)
O1 Fe1 O3 1_5455 1_5545 94.5(5) 75.4(8) 109.1(3)
O1 Fe1 O3 1_5455 . 94.5(5) 75.4(8) 109.1(3)
O1 Fe1 O1 . 5_4445 84.1(9) 82.2(11) 89.4(6)
O1 Fe1 O1 . 5_4455 79.7(6) 76.8(6) 82.4(7)
O1 Fe1 O1 . 5_5445 79.7(6) 76.8(6) 82.4(7)
O1 Fe1 O1 . 5_5455 84.1(9) 82.2(11) 89.4(6)
O1 Fe1 O2 . 1_4555 88.1(9) 82.7(14) 91.8(8)
O1 Fe1 O2 . . 88.1(9) 82.7(14) 91.8(8)
O1 Fe1 O3 . 1_5545 94.5(5) 75.4(8) 109.1(3)
O1 Fe1 O3 . . 94.5(5) 75.4(8) 109.1(3)
O1 Fe1 O1 5_4445 5_5445 135.2(13) 134.0(13) 137.5(14)
O1 Fe1 O2 5_4445 . 141.8(9) 139.2(8) 146.1(10)
O1 Fe1 O3 5_4445 . 114.1(8) 109.3(8) 116.5(8)
O1 Fe1 O1 5_4455 5_5455 135.2(13) 134.0(13) 137.5(13)
O1 Fe1 O3 5_4455 1_5545 109.9(6) 109.2(6) 110.3(6)
O1 Fe1 O3 5_5445 . 109.9(6) 109.2(6) 110.3(6)
O1 Fe1 O2 5_5455 1_4555 141.8(9) 139.2(8) 146.1(10)
O1 Fe1 O3 5_5455 1_5545 114.1(8) 109.3(8) 116.5(8)
O2 Fe1 O2 1_4555 . 161.3(8) 147.5(12) 180.0(5)
O2 Fe1 O3 1_4555 1_5545 91.1(6) 72.5(7) 105.0(8)
O2 Fe1 O3 1_4555 . 91.4(5) 75.0(7) 108.2(9)
O2 Fe1 O3 . 1_5545 91.4(5) 75.0(7) 108.2(9)
O2 Fe1 O3 . . 91.1(6) 72.5(7) 105.0(8)
O3 Fe1 O3 1_5545 . 179.1(5) 178.6(7) 180.0(5)
Fe1 Pb1 Fe1 1_4555 1_5545 97.2(4) 95.0(3) 99.5(4)
Fe1 Pb1 Fe1 1_4555 5_4455 47.1(3) 46.1(2) 47.7(3)
Fe1 Pb1 Fe1 1_4555 5_4555 47.1(3) 46.1(2) 47.7(3)
Fe1 Pb1 Fe1 1_4555 5_5445 125.2(4) 123.4(3) 127.2(4)
Fe1 Pb1 Fe1 1_4555 5_5455 116.0(4) 113.5(3) 117.9(5)
Fe1 Pb1 Fe1 1_4555 5_5545 125.2(4) 123.4(3) 127.2(4)
Fe1 Pb1 Fe1 1_4555 5_5555 116.0(4) 113.5(3) 117.9(5)
Fe1 Pb1 Pb1 1_4555 1_5455 90.0(4) 90.0(4) 90.0(4)
Fe1 Pb1 Pb1 1_4555 1_5655 90.0(4) 90.0(4) 90.0(4)
Fe1 Pb1 Pb1 1_4555 1_6555 171.1(5) 170.0(5) 171.7(6)
Fe1 Pb1 Pb1 1_4555 5_4445 56.8(5) 56.2(4) 57.1(5)
Fe1 Pb1 Pb1 1_4555 5_4545 56.8(5) 56.2(4) 57.1(5)
Fe1 Pb1 Bi1 1_4555 1_5455 89.6(4) 89.4(4) 89.7(5)
Fe1 Pb1 Bi1 1_4555 . 40(50) 40(70) 40(30)
Fe1 Pb1 Bi1 1_4555 1_5655 89.6(4) 89.4(4) 89.7(5)
Fe1 Pb1 Bi1 1_4555 1_6555 171.0(5) 169.8(5) 171.7(6)
Fe1 Pb1 Bi1 1_4555 5_4445 57.4(5) 56.6(4) 57.9(5)
Fe1 Pb1 Bi1 1_4555 5_4545 57.4(5) 56.6(4) 57.9(5)
Fe1 Pb1 O1 1_4555 1_5445 96.7(9) 95.3(9) 98.1(9)
Fe1 Pb1 O1 1_4555 1_5545 96.7(9) 95.3(9) 98.1(9)
Fe1 Pb1 O1 1_4555 5_4455 25.4(9) 25.1(9) 25.5(9)
Fe1 Pb1 O1 1_4555 5_5445 129.1(9) 128.5(9) 130.3(9)
Fe1 Pb1 O1 1_4555 5_5455 128.0(13) 125.2(14) 129.9(13)
Fe1 Pb1 O2 1_4555 1_4545 67.4(11) 65.3(11) 69.6(11)
Fe1 Pb1 O2 1_4555 5_4455 80.5(19) 78.7(19) 82(2)
Fe1 Pb1 O2 1_4555 5_4555 80.5(19) 78.7(19) 82(2)
Fe1 Pb1 O3 1_4555 5_5445 131.8(3) 129.3(2) 133.9(3)
Fe1 Pb1 O3 1_4555 5_5545 131.8(3) 129.3(2) 133.9(3)
Fe1 Pb1 Fe1 1_5545 5_4445 48.2(3) 46.7(3) 49.7(4)
Fe1 Pb1 Fe1 1_5545 5_4455 125.5(4) 122.8(3) 127.1(6)
Fe1 Pb1 Fe1 1_5545 5_4545 48.2(3) 46.7(3) 49.7(4)
Fe1 Pb1 Fe1 1_5545 5_4555 125.5(4) 122.8(3) 127.1(6)
Fe1 Pb1 Fe1 1_5545 5_5445 47.5(3) 47.2(3) 48.3(4)
Fe1 Pb1 Fe1 1_5545 5_5455 124.9(5) 120.3(6) 131.6(3)
Fe1 Pb1 Fe1 1_5545 5_5545 47.5(3) 47.2(3) 48.3(4)
Fe1 Pb1 Fe1 1_5545 5_5555 124.9(5) 120.3(6) 131.6(3)
Fe1 Pb1 Pb1 1_5545 1_4555 90.3(6) 88.1(6) 92.2(6)
Fe1 Pb1 Pb1 1_5545 1_5455 90.0(5) 90.0(4) 90.0(4)
Fe1 Pb1 Pb1 1_5545 1_5565 177.0(6) 172.7(5) 179.9(6)
Fe1 Pb1 Pb1 1_5545 1_5655 90.0(5) 90.0(4) 90.0(4)
Fe1 Pb1 Pb1 1_5545 1_6555 88.9(6) 84.8(6) 95.0(5)
Fe1 Pb1 Pb1 1_5545 5_4445 56.4(5) 55.5(4) 57.9(5)
Fe1 Pb1 Pb1 1_5545 5_4545 56.4(5) 55.5(4) 57.9(5)
Fe1 Pb1 Bi1 1_5545 1_4555 90.8(6) 88.9(6) 92.5(6)
Fe1 Pb1 Bi1 1_5545 1_5455 90.3(5) 90.0(5) 90.6(4)
Fe1 Pb1 Bi1 1_5545 . 140(130) 100(400) 140(70)
Fe1 Pb1 Bi1 1_5545 1_5565 177.0(6) 172.7(5) 179.8(6)
Fe1 Pb1 Bi1 1_5545 1_5655 90.3(5) 90.0(5) 90.6(4)
Fe1 Pb1 Bi1 1_5545 1_6555 89.0(6) 84.8(6) 95.2(5)
Fe1 Pb1 Bi1 1_5545 5_4445 56.3(5) 55.1(4) 58.3(5)
Fe1 Pb1 Bi1 1_5545 5_4545 56.3(5) 55.1(4) 58.3(5)
Fe1 Pb1 O1 1_5545 1_5445 30.9(3) 30.1(3) 32.9(4)
Fe1 Pb1 O1 1_5545 1_5545 30.9(3) 30.1(3) 32.9(4)
Fe1 Pb1 O1 1_5545 5_4445 30.4(9) 27.7(9) 33.0(9)
Fe1 Pb1 O1 1_5545 5_4455 125.0(11) 120.2(9) 129.2(12)
Fe1 Pb1 O1 1_5545 5_5445 31.2(9) 30.4(9) 33.5(8)
Fe1 Pb1 O1 1_5545 5_5455 131.1(14) 126.0(14) 139.7(14)
Fe1 Pb1 O2 1_5545 1_4545 29.7(11) 29.6(11) 29.9(11)
Fe1 Pb1 O2 1_5545 5_4455 126.7(4) 126.1(4) 127.9(3)
Fe1 Pb1 O2 1_5545 5_4555 126.7(4) 126.1(4) 127.9(3)
Fe1 Pb1 O3 1_5545 5_4445 76.3(9) 73.8(8) 78.8(10)
Fe1 Pb1 O3 1_5545 5_4545 76.3(9) 73.8(8) 78.8(10)
Fe1 Pb1 O3 1_5545 5_5445 77.0(9) 76.5(9) 78.2(10)
Fe1 Pb1 O3 1_5545 5_5545 77.0(9) 76.5(9) 78.2(10)
Fe1 Pb1 Fe1 1_5565 1_6555 97.2(4) 95.0(3) 99.5(4)
Fe1 Pb1 Fe1 1_5565 5_4445 124.9(5) 120.3(6) 131.6(3)
Fe1 Pb1 Fe1 1_5565 5_4455 47.5(3) 47.2(3) 48.3(4)
Fe1 Pb1 Fe1 1_5565 5_4545 124.9(5) 120.3(6) 131.6(3)
Fe1 Pb1 Fe1 1_5565 5_4555 47.5(3) 47.2(3) 48.3(4)
Fe1 Pb1 Fe1 1_5565 5_5445 125.5(4) 122.8(3) 127.1(6)
Fe1 Pb1 Fe1 1_5565 5_5455 48.2(3) 46.7(3) 49.7(4)
Fe1 Pb1 Fe1 1_5565 5_5545 125.5(4) 122.8(3) 127.1(6)
Fe1 Pb1 Fe1 1_5565 5_5555 48.2(3) 46.7(3) 49.7(4)
Fe1 Pb1 Pb1 1_5565 1_4555 88.9(6) 84.8(6) 95.0(5)
Fe1 Pb1 Pb1 1_5565 1_5455 90.0(5) 90.0(5) 90.0(5)
Fe1 Pb1 Pb1 1_5565 1_5545 177.0(6) 172.7(5) 179.9(6)
Fe1 Pb1 Pb1 1_5565 1_5655 90.0(5) 90.0(5) 90.0(5)
Fe1 Pb1 Pb1 1_5565 1_6555 90.3(6) 88.1(6) 92.2(6)
Fe1 Pb1 Pb1 1_5565 5_5455 56.4(5) 55.5(4) 57.9(5)
Fe1 Pb1 Pb1 1_5565 5_5555 56.4(5) 55.5(4) 57.9(5)
Fe1 Pb1 Bi1 1_5565 1_4555 89.0(6) 84.8(6) 95.2(5)
Fe1 Pb1 Bi1 1_5565 1_5455 90.3(5) 90.0(5) 90.6(4)
Fe1 Pb1 Bi1 1_5565 1_5545 177.0(6) 172.7(5) 179.8(6)
Fe1 Pb1 Bi1 1_5565 . 140(130) 100(400) 140(70)
Fe1 Pb1 Bi1 1_5565 1_5655 90.3(5) 90.0(5) 90.6(4)
Fe1 Pb1 Bi1 1_5565 1_6555 90.8(6) 88.9(6) 92.5(6)
Fe1 Pb1 Bi1 1_5565 5_5455 56.3(5) 55.1(4) 58.3(5)
Fe1 Pb1 Bi1 1_5565 5_5555 56.3(5) 55.1(4) 58.3(5)
Fe1 Pb1 O1 1_5565 1_5465 30.9(3) 30.1(3) 32.9(4)
Fe1 Pb1 O1 1_5565 1_5565 30.9(3) 30.1(3) 32.9(4)
Fe1 Pb1 O1 1_5565 5_4445 131.1(14) 126.0(14) 139.7(14)
Fe1 Pb1 O1 1_5565 5_4455 31.2(9) 30.4(9) 33.5(8)
Fe1 Pb1 O1 1_5565 5_5445 125.0(11) 120.2(9) 129.2(12)
Fe1 Pb1 O1 1_5565 5_5455 30.4(9) 27.7(9) 33.0(9)
Fe1 Pb1 O2 1_5565 1_5565 29.7(11) 29.6(11) 29.9(11)
Fe1 Pb1 O2 1_5565 5_4445 126.7(4) 126.1(4) 127.9(3)
Fe1 Pb1 O2 1_5565 5_4545 126.7(4) 126.1(4) 127.9(3)
Fe1 Pb1 O3 1_5565 5_4445 77.0(9) 76.5(9) 78.2(10)
Fe1 Pb1 O3 1_5565 5_4545 77.0(9) 76.5(9) 78.2(10)
Fe1 Pb1 O3 1_5565 5_5445 76.3(9) 73.8(8) 78.8(10)
Fe1 Pb1 O3 1_5565 5_5545 76.3(9) 73.8(8) 78.8(10)
Fe1 Pb1 Fe1 1_6555 5_4445 116.0(4) 113.5(3) 117.9(5)
Fe1 Pb1 Fe1 1_6555 5_4455 125.2(4) 123.4(3) 127.2(4)
Fe1 Pb1 Fe1 1_6555 5_4545 116.0(4) 113.5(3) 117.9(5)
Fe1 Pb1 Fe1 1_6555 5_4555 125.2(4) 123.4(3) 127.2(4)
Fe1 Pb1 Fe1 1_6555 5_5445 47.1(3) 46.1(2) 47.7(3)
Fe1 Pb1 Fe1 1_6555 5_5545 47.1(3) 46.1(2) 47.7(3)
Fe1 Pb1 Pb1 1_6555 1_4555 171.1(5) 170.0(5) 171.7(6)
Fe1 Pb1 Pb1 1_6555 1_5455 90.0(4) 90.0(5) 90.0(5)
Fe1 Pb1 Pb1 1_6555 1_5655 90.0(4) 90.0(5) 90.0(5)
Fe1 Pb1 Pb1 1_6555 5_5455 56.8(5) 56.2(4) 57.1(5)
Fe1 Pb1 Pb1 1_6555 5_5555 56.8(5) 56.2(4) 57.1(5)
Fe1 Pb1 Bi1 1_6555 1_4555 171.0(5) 169.8(5) 171.7(6)
Fe1 Pb1 Bi1 1_6555 1_5455 89.6(4) 89.4(4) 89.7(5)
Fe1 Pb1 Bi1 1_6555 . 40(50) 40(70) 40(30)
Fe1 Pb1 Bi1 1_6555 1_5655 89.6(4) 89.4(4) 89.7(5)
Fe1 Pb1 Bi1 1_6555 5_5455 57.4(5) 56.6(4) 57.9(5)
Fe1 Pb1 Bi1 1_6555 5_5555 57.4(5) 56.6(4) 57.9(5)
Fe1 Pb1 O1 1_6555 1_5465 96.7(9) 95.3(9) 98.1(9)
Fe1 Pb1 O1 1_6555 1_5565 96.7(9) 95.3(9) 98.1(9)
Fe1 Pb1 O1 1_6555 5_4445 128.0(13) 125.2(14) 129.9(13)
Fe1 Pb1 O1 1_6555 5_4455 129.1(9) 128.5(9) 130.3(9)
Fe1 Pb1 O1 1_6555 5_5445 25.4(9) 25.1(9) 25.5(9)
Fe1 Pb1 O2 1_6555 1_5565 67.4(11) 65.3(11) 69.6(11)
Fe1 Pb1 O2 1_6555 5_4445 80.5(19) 78.7(19) 82(2)
Fe1 Pb1 O2 1_6555 5_4545 80.5(19) 78.7(19) 82(2)
Fe1 Pb1 O3 1_6555 5_4445 131.8(3) 129.3(2) 133.9(3)
Fe1 Pb1 O3 1_6555 5_4545 131.8(3) 129.3(2) 133.9(3)
Fe1 Pb1 Fe1 5_4445 5_4455 73.7(3) 68.9(3) 84.3(3)
Fe1 Pb1 Fe1 5_4445 5_4545 69.7(3) 60.7(3) 72.4(3)
Fe1 Pb1 Fe1 5_4445 5_4555 111.2(5) 106.6(5) 123.1(4)
Fe1 Pb1 Fe1 5_4445 5_5445 69.6(3) 61.8(3) 73.0(3)
Fe1 Pb1 Fe1 5_4445 5_5455 110.17(18) 108.89(18) 112.97(18)
Fe1 Pb1 Fe1 5_4445 5_5545 107.2(5) 94.1(4) 113.3(6)
Fe1 Pb1 Fe1 5_4445 5_5555 172.9(6) 169.9(7) 180.0(5)
Fe1 Pb1 Pb1 5_4445 1_4555 56.4(4) 53.9(4) 59.0(4)
Fe1 Pb1 Pb1 5_4445 1_5455 55.1(4) 53.8(4) 59.6(4)
Fe1 Pb1 Pb1 5_4445 1_5545 55.2(4) 52.4(4) 57.3(4)
Fe1 Pb1 Pb1 5_4445 1_5565 126.2(4) 117.8(6) 133.4(5)
Fe1 Pb1 Pb1 5_4445 1_5655 124.9(5) 120.4(5) 126.2(5)
Fe1 Pb1 Pb1 5_4445 1_6555 123.6(5) 119.1(6) 127.9(6)
Fe1 Pb1 Pb1 5_4445 5_5455 109.6(3) 109.1(3) 109.9(3)
Fe1 Pb1 Pb1 5_4445 5_5555 172.8(6) 169.6(6) 175.0(7)
Fe1 Pb1 Bi1 5_4445 1_4555 56.5(4) 53.9(4) 59.0(5)
Fe1 Pb1 Bi1 5_4445 1_5455 55.1(4) 53.7(4) 59.7(4)
Fe1 Pb1 Bi1 5_4445 1_5545 55.2(4) 52.1(4) 57.3(4)
Fe1 Pb1 Bi1 5_4445 . 100(400) 0 100(800)
Fe1 Pb1 Bi1 5_4445 1_5565 126.2(4) 118.1(6) 133.4(5)
Fe1 Pb1 Bi1 5_4445 1_5655 124.8(5) 120.4(5) 126.1(5)
Fe1 Pb1 Bi1 5_4445 1_6555 123.6(5) 119.0(6) 127.7(6)
Fe1 Pb1 Bi1 5_4445 5_4445 11.9(4) 11.9(4) 11.9(4)
Fe1 Pb1 Bi1 5_4445 5_4545 65.4(4) 65.4(4) 65.4(4)
Fe1 Pb1 Bi1 5_4445 5_5455 109.7(3) 109.2(3) 110.0(3)
Fe1 Pb1 Bi1 5_4445 5_5555 173.8(6) 170.0(6) 176.0(7)
Fe1 Pb1 O1 5_4445 1_5445 30.9(9) 30.0(10) 31.5(9)
Fe1 Pb1 O1 5_4445 1_5465 101.4(6) 98.6(7) 105.5(5)
Fe1 Pb1 O1 5_4445 1_5545 71.6(6) 70.1(6) 73.0(7)
Fe1 Pb1 O1 5_4445 1_5565 143.4(10) 140.7(11) 149.7(9)
Fe1 Pb1 O1 5_4445 5_4445 35.1(2) 31.7(3) 36.5(2)
Fe1 Pb1 O1 5_4445 5_4455 93.3(9) 88.6(9) 107.5(7)
Fe1 Pb1 O1 5_4445 5_5445 88.9(9) 71.0(8) 99.9(10)
Fe1 Pb1 O1 5_4445 5_5455 143.4(4) 139.8(5) 147.0(5)
Fe1 Pb1 O2 5_4445 1_5565 142.4(3) 141.3(4) 143.5(2)
Fe1 Pb1 O2 5_4445 5_4445 36.1(17) 33.5(14) 38.0(19)
Fe1 Pb1 O2 5_4445 5_4455 91.5(10) 88.7(10) 95.2(9)
Fe1 Pb1 O2 5_4445 5_4545 90.6(11) 76.6(8) 99.4(12)
Fe1 Pb1 O2 5_4445 5_4555 143.8(17) 138.2(15) 148.0(19)
Fe1 Pb1 O3 5_4445 5_4445 37.1(9) 27.1(8) 55.0(9)
Fe1 Pb1 O3 5_4445 5_4545 90.5(6) 77.0(6) 108.4(7)
Fe1 Pb1 O3 5_4445 5_5445 90.4(5) 80.9(6) 100.3(5)
Fe1 Pb1 O3 5_4445 5_5545 144.8(10) 123.5(10) 162.5(10)
Fe1 Pb1 Fe1 5_4455 5_4545 111.2(5) 106.6(5) 123.1(4)
Fe1 Pb1 Fe1 5_4455 5_4555 68.2(3) 64.8(2) 71.9(4)
Fe1 Pb1 Fe1 5_4455 5_5445 111.55(18) 110.54(15) 113.12(17)
Fe1 Pb1 Fe1 5_4455 5_5455 69.6(4) 61.8(3) 73.0(4)
Fe1 Pb1 Fe1 5_4455 5_5545 175.4(5) 168.1(4) 180.0(5)
Fe1 Pb1 Fe1 5_4455 5_5555 107.2(5) 94.1(5) 113.3(6)
Fe1 Pb1 Pb1 5_4455 1_4555 55.0(4) 52.2(3) 64.5(4)
Fe1 Pb1 Pb1 5_4455 1_5455 55.9(4) 54.0(4) 57.6(4)
Fe1 Pb1 Pb1 5_4455 1_5545 128.3(4) 125.0(3) 137.2(3)
Fe1 Pb1 Pb1 5_4455 1_5565 53.5(4) 46.7(4) 56.2(4)
Fe1 Pb1 Pb1 5_4455 1_5655 124.1(5) 122.4(5) 126.0(6)
Fe1 Pb1 Pb1 5_4455 1_6555 126.0(4) 118.7(5) 127.5(3)
Fe1 Pb1 Pb1 5_4455 5_4445 67.9(5) 67.3(4) 68.3(5)
Fe1 Pb1 Pb1 5_4455 5_4545 103.7(5) 102.1(5) 104.4(6)
Fe1 Pb1 Pb1 5_4455 5_5455 68.4(5) 67.2(4) 70.1(5)
Fe1 Pb1 Pb1 5_4455 5_5555 103.5(5) 102.7(5) 105.0(6)
Fe1 Pb1 Bi1 5_4455 1_4555 54.9(4) 52.2(3) 64.6(4)
Fe1 Pb1 Bi1 5_4455 1_5455 55.9(4) 54.1(4) 57.8(4)
Fe1 Pb1 Bi1 5_4455 1_5545 128.2(4) 125.0(3) 137.2(3)
Fe1 Pb1 Bi1 5_4455 . 100(200) 0 147(15)
Fe1 Pb1 Bi1 5_4455 1_5565 53.6(4) 46.9(4) 56.2(4)
Fe1 Pb1 Bi1 5_4455 1_5655 124.1(5) 121.6(5) 126.0(6)
Fe1 Pb1 Bi1 5_4455 1_6555 126.0(4) 119.3(5) 127.5(3)
Fe1 Pb1 Bi1 5_4455 5_4445 68.4(5) 67.7(4) 68.9(5)
Fe1 Pb1 Bi1 5_4455 5_4545 104.3(6) 102.5(5) 105.2(6)
Fe1 Pb1 Bi1 5_4455 5_5455 68.3(5) 66.8(4) 70.6(5)
Fe1 Pb1 Bi1 5_4455 5_5555 103.4(5) 102.4(5) 105.5(6)
Fe1 Pb1 O1 5_4455 1_5445 101.7(7) 99.0(7) 102.8(6)
Fe1 Pb1 O1 5_4455 1_5465 31.9(9) 29.7(9) 35.5(10)
Fe1 Pb1 O1 5_4455 1_5545 141.3(10) 138.5(9) 142.4(11)
Fe1 Pb1 O1 5_4455 1_5565 72.8(6) 71.3(6) 76.4(8)
Fe1 Pb1 O1 5_4455 5_4445 94.1(9) 87.4(10) 104.8(8)
Fe1 Pb1 O1 5_4455 5_4455 34.6(2) 33.02(19) 36.6(3)
Fe1 Pb1 O1 5_4455 5_5445 144.1(3) 140.0(5) 146.3(3)
Fe1 Pb1 O1 5_4455 5_5455 86.9(9) 68.5(8) 94.9(11)
Fe1 Pb1 O2 5_4455 1_4545 100.7(9) 98.6(9) 102.3(10)
Fe1 Pb1 O2 5_4455 1_5565 69.9(9) 69.8(9) 70.2(9)
Fe1 Pb1 O2 5_4455 5_4445 92.1(10) 87.2(12) 99.8(9)
Fe1 Pb1 O2 5_4455 5_4455 35.1(17) 32.3(14) 36.3(18)
Fe1 Pb1 O2 5_4455 5_4545 145.5(17) 143.0(19) 155.6(17)
Fe1 Pb1 O2 5_4455 5_4555 89.0(11) 75.9(9) 97.0(14)
Fe1 Pb1 O3 5_4455 5_4445 36.6(9) 29.3(9) 52.3(8)
Fe1 Pb1 O3 5_4455 5_4545 89.4(7) 82.6(8) 98.4(8)
Fe1 Pb1 O3 5_4455 5_5445 90.5(6) 79.0(6) 97.2(5)
Fe1 Pb1 O3 5_4455 5_5545 144.2(10) 121.1(9) 158.2(9)
Fe1 Pb1 Fe1 5_4545 5_4555 73.7(3) 68.9(3) 84.3(3)
Fe1 Pb1 Fe1 5_4545 5_5445 107.2(5) 94.1(4) 113.3(6)
Fe1 Pb1 Fe1 5_4545 5_5455 172.9(6) 169.9(7) 180.0(5)
Fe1 Pb1 Fe1 5_4545 5_5545 69.6(3) 61.8(3) 73.0(3)
Fe1 Pb1 Fe1 5_4545 5_5555 110.17(18) 108.89(18) 112.97(18)
Fe1 Pb1 Pb1 5_4545 1_4555 56.4(4) 53.9(4) 59.0(4)
Fe1 Pb1 Pb1 5_4545 1_5455 124.9(5) 120.4(5) 126.2(5)
Fe1 Pb1 Pb1 5_4545 1_5545 55.2(4) 52.4(4) 57.3(4)
Fe1 Pb1 Pb1 5_4545 1_5565 126.2(4) 117.8(6) 133.4(5)
Fe1 Pb1 Pb1 5_4545 1_5655 55.1(4) 53.8(4) 59.6(4)
Fe1 Pb1 Pb1 5_4545 1_6555 123.6(5) 119.1(6) 127.9(6)
Fe1 Pb1 Pb1 5_4545 5_5455 172.8(6) 169.6(6) 175.0(7)
Fe1 Pb1 Pb1 5_4545 5_5555 109.6(3) 109.1(3) 109.9(3)
Fe1 Pb1 Bi1 5_4545 1_4555 56.5(4) 53.9(4) 59.0(5)
Fe1 Pb1 Bi1 5_4545 1_5455 124.8(5) 120.4(5) 126.1(5)
Fe1 Pb1 Bi1 5_4545 1_5545 55.2(4) 52.1(4) 57.3(4)
Fe1 Pb1 Bi1 5_4545 . 100(400) 0 100(800)
Fe1 Pb1 Bi1 5_4545 1_5565 126.2(4) 118.1(6) 133.4(5)
Fe1 Pb1 Bi1 5_4545 1_5655 55.1(4) 53.7(4) 59.7(4)
Fe1 Pb1 Bi1 5_4545 1_6555 123.6(5) 119.0(6) 127.7(6)
Fe1 Pb1 Bi1 5_4545 5_4445 65.4(4) 65.4(4) 65.4(4)
Fe1 Pb1 Bi1 5_4545 5_4545 11.9(4) 11.9(4) 11.9(4)
Fe1 Pb1 Bi1 5_4545 5_5455 173.8(6) 170.0(6) 176.0(7)
Fe1 Pb1 Bi1 5_4545 5_5555 109.7(3) 109.2(3) 110.0(3)
Fe1 Pb1 O1 5_4545 1_5445 71.6(6) 70.1(6) 73.0(7)
Fe1 Pb1 O1 5_4545 1_5465 143.4(10) 140.7(11) 149.7(9)
Fe1 Pb1 O1 5_4545 1_5545 30.9(9) 30.0(10) 31.5(9)
Fe1 Pb1 O1 5_4545 1_5565 101.4(6) 98.6(7) 105.5(5)
Fe1 Pb1 O1 5_4545 5_4445 35.1(2) 31.7(3) 36.5(2)
Fe1 Pb1 O1 5_4545 5_4455 93.3(9) 88.6(9) 107.5(7)
Fe1 Pb1 O1 5_4545 5_5445 88.9(9) 71.0(8) 99.9(10)
Fe1 Pb1 O1 5_4545 5_5455 143.4(4) 139.8(5) 147.0(5)
Fe1 Pb1 O2 5_4545 1_5565 142.4(3) 141.3(4) 143.5(2)
Fe1 Pb1 O2 5_4545 5_4445 90.6(11) 76.6(8) 99.4(12)
Fe1 Pb1 O2 5_4545 5_4455 143.8(17) 138.2(15) 148.0(19)
Fe1 Pb1 O2 5_4545 5_4545 36.1(17) 33.5(14) 38.0(19)
Fe1 Pb1 O2 5_4545 5_4555 91.5(10) 88.7(10) 95.2(9)
Fe1 Pb1 O3 5_4545 5_4445 90.5(6) 77.0(6) 108.4(7)
Fe1 Pb1 O3 5_4545 5_4545 37.1(9) 27.1(8) 55.0(9)
Fe1 Pb1 O3 5_4545 5_5445 144.8(10) 123.5(10) 162.5(10)
Fe1 Pb1 O3 5_4545 5_5545 90.4(5) 80.9(6) 100.3(5)
Fe1 Pb1 Fe1 5_4555 5_5445 175.4(5) 168.1(4) 180.0(5)
Fe1 Pb1 Fe1 5_4555 5_5455 107.2(5) 94.1(5) 113.3(6)
Fe1 Pb1 Fe1 5_4555 5_5545 111.55(18) 110.54(15) 113.12(17)
Fe1 Pb1 Fe1 5_4555 5_5555 69.6(4) 61.8(3) 73.0(4)
Fe1 Pb1 Pb1 5_4555 1_4555 55.0(4) 52.2(3) 64.5(4)
Fe1 Pb1 Pb1 5_4555 1_5455 124.1(5) 122.4(5) 126.0(6)
Fe1 Pb1 Pb1 5_4555 1_5545 128.3(4) 125.0(3) 137.2(3)
Fe1 Pb1 Pb1 5_4555 1_5565 53.5(4) 46.7(4) 56.2(4)
Fe1 Pb1 Pb1 5_4555 1_5655 55.9(4) 54.0(4) 57.6(4)
Fe1 Pb1 Pb1 5_4555 1_6555 126.0(4) 118.7(5) 127.5(3)
Fe1 Pb1 Pb1 5_4555 5_4445 103.7(5) 102.1(5) 104.4(6)
Fe1 Pb1 Pb1 5_4555 5_4545 67.9(5) 67.3(4) 68.3(5)
Fe1 Pb1 Pb1 5_4555 5_5455 103.5(5) 102.7(5) 105.0(6)
Fe1 Pb1 Pb1 5_4555 5_5555 68.4(5) 67.2(4) 70.1(5)
Fe1 Pb1 Bi1 5_4555 1_4555 54.9(4) 52.2(3) 64.6(4)
Fe1 Pb1 Bi1 5_4555 1_5455 124.1(5) 121.6(5) 126.0(6)
Fe1 Pb1 Bi1 5_4555 1_5545 128.2(4) 125.0(3) 137.2(3)
Fe1 Pb1 Bi1 5_4555 . 100(200) 0 147(15)
Fe1 Pb1 Bi1 5_4555 1_5565 53.6(4) 46.9(4) 56.2(4)
Fe1 Pb1 Bi1 5_4555 1_5655 55.9(4) 54.1(4) 57.8(4)
Fe1 Pb1 Bi1 5_4555 1_6555 126.0(4) 119.3(5) 127.5(3)
Fe1 Pb1 Bi1 5_4555 5_4445 104.3(6) 102.5(5) 105.2(6)
Fe1 Pb1 Bi1 5_4555 5_4545 68.4(5) 67.7(4) 68.9(5)
Fe1 Pb1 Bi1 5_4555 5_5455 103.4(5) 102.4(5) 105.5(6)
Fe1 Pb1 Bi1 5_4555 5_5555 68.3(5) 66.8(4) 70.6(5)
Fe1 Pb1 O1 5_4555 1_5445 141.3(10) 138.5(9) 142.4(11)
Fe1 Pb1 O1 5_4555 1_5465 72.8(6) 71.3(6) 76.4(8)
Fe1 Pb1 O1 5_4555 1_5545 101.7(7) 99.0(7) 102.8(6)
Fe1 Pb1 O1 5_4555 1_5565 31.9(9) 29.7(9) 35.5(10)
Fe1 Pb1 O1 5_4555 5_4445 94.1(9) 87.4(10) 104.8(8)
Fe1 Pb1 O1 5_4555 5_4455 34.6(2) 33.02(19) 36.6(3)
Fe1 Pb1 O1 5_4555 5_5445 144.1(3) 140.0(5) 146.3(3)
Fe1 Pb1 O1 5_4555 5_5455 86.9(9) 68.5(8) 94.9(11)
Fe1 Pb1 O2 5_4555 1_4545 100.7(9) 98.6(9) 102.3(10)
Fe1 Pb1 O2 5_4555 1_5565 69.9(9) 69.8(9) 70.2(9)
Fe1 Pb1 O2 5_4555 5_4445 145.5(17) 143.0(19) 155.6(17)
Fe1 Pb1 O2 5_4555 5_4455 89.0(11) 75.9(9) 97.0(14)
Fe1 Pb1 O2 5_4555 5_4545 92.1(10) 87.2(12) 99.8(9)
Fe1 Pb1 O2 5_4555 5_4555 35.1(17) 32.3(14) 36.3(18)
Fe1 Pb1 O3 5_4555 5_4445 89.4(7) 82.6(8) 98.4(8)
Fe1 Pb1 O3 5_4555 5_4545 36.6(9) 29.3(9) 52.3(8)
Fe1 Pb1 O3 5_4555 5_5445 144.2(10) 121.1(9) 158.2(9)
Fe1 Pb1 O3 5_4555 5_5545 90.5(6) 79.0(6) 97.2(5)
Fe1 Pb1 Fe1 5_5445 5_5455 73.7(4) 68.9(3) 84.3(3)
Fe1 Pb1 Fe1 5_5445 5_5545 68.2(3) 64.8(2) 71.9(4)
Fe1 Pb1 Fe1 5_5445 5_5555 111.2(5) 106.6(5) 123.1(4)
Fe1 Pb1 Pb1 5_5445 1_4555 126.0(4) 118.7(5) 127.5(3)
Fe1 Pb1 Pb1 5_5445 1_5455 55.9(4) 54.0(4) 57.6(4)
Fe1 Pb1 Pb1 5_5445 1_5545 53.5(4) 46.7(4) 56.2(4)
Fe1 Pb1 Pb1 5_5445 1_5565 128.3(4) 125.0(3) 137.2(3)
Fe1 Pb1 Pb1 5_5445 1_5655 124.1(5) 122.4(5) 126.0(6)
Fe1 Pb1 Pb1 5_5445 1_6555 55.0(4) 52.2(3) 64.5(4)
Fe1 Pb1 Pb1 5_5445 5_4445 68.4(5) 67.2(4) 70.1(5)
Fe1 Pb1 Pb1 5_5445 5_4545 103.5(5) 102.7(5) 105.0(6)
Fe1 Pb1 Pb1 5_5445 5_5455 67.9(5) 67.3(4) 68.3(5)
Fe1 Pb1 Pb1 5_5445 5_5555 103.7(5) 102.1(5) 104.4(6)
Fe1 Pb1 Bi1 5_5445 1_4555 126.0(4) 119.3(5) 127.5(3)
Fe1 Pb1 Bi1 5_5445 1_5455 55.9(4) 54.1(4) 57.8(4)
Fe1 Pb1 Bi1 5_5445 1_5545 53.6(4) 46.9(4) 56.2(4)
Fe1 Pb1 Bi1 5_5445 . 100(200) 0 147(15)
Fe1 Pb1 Bi1 5_5445 1_5565 128.2(4) 125.0(3) 137.2(3)
Fe1 Pb1 Bi1 5_5445 1_5655 124.1(5) 121.6(5) 126.0(6)
Fe1 Pb1 Bi1 5_5445 1_6555 54.9(4) 52.2(3) 64.6(4)
Fe1 Pb1 Bi1 5_5445 5_4445 68.3(5) 66.8(4) 70.6(5)
Fe1 Pb1 Bi1 5_5445 5_4545 103.4(5) 102.4(5) 105.5(6)
Fe1 Pb1 Bi1 5_5445 5_5455 68.4(5) 67.7(4) 68.9(5)
Fe1 Pb1 Bi1 5_5445 5_5555 104.3(6) 102.5(5) 105.2(6)
Fe1 Pb1 O1 5_5445 1_5445 31.9(9) 29.7(9) 35.5(10)
Fe1 Pb1 O1 5_5445 1_5465 101.7(7) 99.0(7) 102.8(6)
Fe1 Pb1 O1 5_5445 1_5545 72.8(6) 71.3(6) 76.4(8)
Fe1 Pb1 O1 5_5445 1_5565 141.3(10) 138.5(9) 142.4(11)
Fe1 Pb1 O1 5_5445 5_4445 86.9(9) 68.5(8) 94.9(11)
Fe1 Pb1 O1 5_5445 5_4455 144.1(3) 140.0(5) 146.3(3)
Fe1 Pb1 O1 5_5445 5_5445 34.6(2) 33.02(19) 36.6(3)
Fe1 Pb1 O1 5_5445 5_5455 94.1(9) 87.4(10) 104.8(8)
Fe1 Pb1 O2 5_5445 1_4545 69.9(9) 69.8(9) 70.2(9)
Fe1 Pb1 O2 5_5445 1_5565 100.7(9) 98.6(9) 102.3(10)
Fe1 Pb1 O2 5_5445 5_4445 35.1(17) 32.3(14) 36.3(18)
Fe1 Pb1 O2 5_5445 5_4455 92.1(10) 87.2(12) 99.8(9)
Fe1 Pb1 O2 5_5445 5_4545 89.0(11) 75.9(9) 97.0(14)
Fe1 Pb1 O2 5_5445 5_4555 145.5(17) 143.0(19) 155.6(17)
Fe1 Pb1 O3 5_5445 5_4445 90.5(6) 79.0(6) 97.2(5)
Fe1 Pb1 O3 5_5445 5_4545 144.2(10) 121.1(9) 158.2(9)
Fe1 Pb1 O3 5_5445 5_5445 36.6(9) 29.3(9) 52.3(8)
Fe1 Pb1 O3 5_5445 5_5545 89.4(7) 82.6(8) 98.4(8)
Fe1 Pb1 Fe1 5_5455 5_5545 111.2(5) 106.6(5) 123.1(4)
Fe1 Pb1 Fe1 5_5455 5_5555 69.7(3) 60.7(3) 72.4(3)
Fe1 Pb1 Pb1 5_5455 1_4555 123.6(5) 119.1(6) 127.9(6)
Fe1 Pb1 Pb1 5_5455 1_5455 55.1(4) 53.8(4) 59.6(4)
Fe1 Pb1 Pb1 5_5455 1_5545 126.2(4) 117.8(6) 133.4(5)
Fe1 Pb1 Pb1 5_5455 1_5565 55.2(4) 52.4(4) 57.3(4)
Fe1 Pb1 Pb1 5_5455 1_5655 124.9(5) 120.4(5) 126.2(5)
Fe1 Pb1 Pb1 5_5455 1_6555 56.4(4) 53.9(4) 59.0(4)
Fe1 Pb1 Pb1 5_5455 5_4445 109.6(3) 109.1(3) 109.9(3)
Fe1 Pb1 Pb1 5_5455 5_4545 172.8(6) 169.6(6) 175.0(7)
Fe1 Pb1 Bi1 5_5455 1_4555 123.6(5) 119.0(6) 127.7(6)
Fe1 Pb1 Bi1 5_5455 1_5455 55.1(4) 53.7(4) 59.7(4)
Fe1 Pb1 Bi1 5_5455 1_5545 126.2(4) 118.1(6) 133.4(5)
Fe1 Pb1 Bi1 5_5455 . 100(400) 0 100(800)
Fe1 Pb1 Bi1 5_5455 1_5565 55.2(4) 52.1(4) 57.3(4)
Fe1 Pb1 Bi1 5_5455 1_5655 124.8(5) 120.4(5) 126.1(5)
Fe1 Pb1 Bi1 5_5455 1_6555 56.5(4) 53.9(4) 59.0(5)
Fe1 Pb1 Bi1 5_5455 5_4445 109.7(3) 109.2(3) 110.0(3)
Fe1 Pb1 Bi1 5_5455 5_4545 173.8(6) 170.0(6) 176.0(7)
Fe1 Pb1 Bi1 5_5455 5_5455 11.9(4) 11.9(4) 11.9(4)
Fe1 Pb1 Bi1 5_5455 5_5555 65.4(4) 65.4(4) 65.4(4)
Fe1 Pb1 O1 5_5455 1_5445 101.4(6) 98.6(7) 105.5(5)
Fe1 Pb1 O1 5_5455 1_5465 30.9(9) 30.0(10) 31.5(9)
Fe1 Pb1 O1 5_5455 1_5545 143.4(10) 140.7(11) 149.7(9)
Fe1 Pb1 O1 5_5455 1_5565 71.6(6) 70.1(6) 73.0(7)
Fe1 Pb1 O1 5_5455 5_4445 143.4(4) 139.8(5) 147.0(5)
Fe1 Pb1 O1 5_5455 5_4455 88.9(9) 71.0(8) 99.9(10)
Fe1 Pb1 O1 5_5455 5_5445 93.3(9) 88.6(9) 107.5(7)
Fe1 Pb1 O1 5_5455 5_5455 35.1(2) 31.7(3) 36.5(2)
Fe1 Pb1 O2 5_5455 1_4545 142.4(3) 141.3(4) 143.5(2)
Fe1 Pb1 O2 5_5455 5_4445 91.5(10) 88.7(10) 95.2(9)
Fe1 Pb1 O2 5_5455 5_4455 36.1(17) 33.5(14) 38.0(19)
Fe1 Pb1 O2 5_5455 5_4545 143.8(17) 138.2(15) 148.0(19)
Fe1 Pb1 O2 5_5455 5_4555 90.6(11) 76.6(8) 99.4(12)
Fe1 Pb1 O3 5_5455 5_4445 90.4(5) 80.9(6) 100.3(5)
Fe1 Pb1 O3 5_5455 5_4545 144.8(10) 123.5(10) 162.5(10)
Fe1 Pb1 O3 5_5455 5_5445 37.1(9) 27.1(8) 55.0(9)
Fe1 Pb1 O3 5_5455 5_5545 90.5(6) 77.0(6) 108.4(7)
Fe1 Pb1 Fe1 5_5545 5_5555 73.7(4) 68.9(3) 84.3(3)
Fe1 Pb1 Pb1 5_5545 1_4555 126.0(4) 118.7(5) 127.5(3)
Fe1 Pb1 Pb1 5_5545 1_5455 124.1(5) 122.4(5) 126.0(6)
Fe1 Pb1 Pb1 5_5545 1_5545 53.5(4) 46.7(4) 56.2(4)
Fe1 Pb1 Pb1 5_5545 1_5565 128.3(4) 125.0(3) 137.2(3)
Fe1 Pb1 Pb1 5_5545 1_5655 55.9(4) 54.0(4) 57.6(4)
Fe1 Pb1 Pb1 5_5545 1_6555 55.0(4) 52.2(3) 64.5(4)
Fe1 Pb1 Pb1 5_5545 5_4445 103.5(5) 102.7(5) 105.0(6)
Fe1 Pb1 Pb1 5_5545 5_4545 68.4(5) 67.2(4) 70.1(5)
Fe1 Pb1 Pb1 5_5545 5_5455 103.7(5) 102.1(5) 104.4(6)
Fe1 Pb1 Pb1 5_5545 5_5555 67.9(5) 67.3(4) 68.3(5)
Fe1 Pb1 Bi1 5_5545 1_4555 126.0(4) 119.3(5) 127.5(3)
Fe1 Pb1 Bi1 5_5545 1_5455 124.1(5) 121.6(5) 126.0(6)
Fe1 Pb1 Bi1 5_5545 1_5545 53.6(4) 46.9(4) 56.2(4)
Fe1 Pb1 Bi1 5_5545 . 100(200) 0 147(15)
Fe1 Pb1 Bi1 5_5545 1_5565 128.2(4) 125.0(3) 137.2(3)
Fe1 Pb1 Bi1 5_5545 1_5655 55.9(4) 54.1(4) 57.8(4)
Fe1 Pb1 Bi1 5_5545 1_6555 54.9(4) 52.2(3) 64.6(4)
Fe1 Pb1 Bi1 5_5545 5_4445 103.4(5) 102.4(5) 105.5(6)
Fe1 Pb1 Bi1 5_5545 5_4545 68.3(5) 66.8(4) 70.6(5)
Fe1 Pb1 Bi1 5_5545 5_5455 104.3(6) 102.5(5) 105.2(6)
Fe1 Pb1 Bi1 5_5545 5_5555 68.4(5) 67.7(4) 68.9(5)
Fe1 Pb1 O1 5_5545 1_5445 72.8(6) 71.3(6) 76.4(8)
Fe1 Pb1 O1 5_5545 1_5465 141.3(10) 138.5(9) 142.4(11)
Fe1 Pb1 O1 5_5545 1_5545 31.9(9) 29.7(9) 35.5(10)
Fe1 Pb1 O1 5_5545 1_5565 101.7(7) 99.0(7) 102.8(6)
Fe1 Pb1 O1 5_5545 5_4445 86.9(9) 68.5(8) 94.9(11)
Fe1 Pb1 O1 5_5545 5_4455 144.1(3) 140.0(5) 146.3(3)
Fe1 Pb1 O1 5_5545 5_5445 34.6(2) 33.02(19) 36.6(3)
Fe1 Pb1 O1 5_5545 5_5455 94.1(9) 87.4(10) 104.8(8)
Fe1 Pb1 O2 5_5545 1_4545 69.9(9) 69.8(9) 70.2(9)
Fe1 Pb1 O2 5_5545 1_5565 100.7(9) 98.6(9) 102.3(10)
Fe1 Pb1 O2 5_5545 5_4445 89.0(11) 75.9(9) 97.0(14)
Fe1 Pb1 O2 5_5545 5_4455 145.5(17) 143.0(19) 155.6(17)
Fe1 Pb1 O2 5_5545 5_4545 35.1(17) 32.3(14) 36.3(18)
Fe1 Pb1 O2 5_5545 5_4555 92.1(10) 87.2(12) 99.8(9)
Fe1 Pb1 O3 5_5545 5_4445 144.2(10) 121.1(9) 158.2(9)
Fe1 Pb1 O3 5_5545 5_4545 90.5(6) 79.0(6) 97.2(5)
Fe1 Pb1 O3 5_5545 5_5445 89.4(7) 82.6(8) 98.4(8)
Fe1 Pb1 O3 5_5545 5_5545 36.6(9) 29.3(9) 52.3(8)
Fe1 Pb1 Pb1 5_5555 1_4555 123.6(5) 119.1(6) 127.9(6)
Fe1 Pb1 Pb1 5_5555 1_5455 124.9(5) 120.4(5) 126.2(5)
Fe1 Pb1 Pb1 5_5555 1_5545 126.2(4) 117.8(6) 133.4(5)
Fe1 Pb1 Pb1 5_5555 1_5565 55.2(4) 52.4(4) 57.3(4)
Fe1 Pb1 Pb1 5_5555 1_5655 55.1(4) 53.8(4) 59.6(4)
Fe1 Pb1 Pb1 5_5555 1_6555 56.4(4) 53.9(4) 59.0(4)
Fe1 Pb1 Pb1 5_5555 5_4445 172.8(6) 169.6(6) 175.0(7)
Fe1 Pb1 Pb1 5_5555 5_4545 109.6(3) 109.1(3) 109.9(3)
Fe1 Pb1 Bi1 5_5555 1_4555 123.6(5) 119.0(6) 127.7(6)
Fe1 Pb1 Bi1 5_5555 1_5455 124.8(5) 120.4(5) 126.1(5)
Fe1 Pb1 Bi1 5_5555 1_5545 126.2(4) 118.1(6) 133.4(5)
Fe1 Pb1 Bi1 5_5555 . 100(400) 0 100(800)
Fe1 Pb1 Bi1 5_5555 1_5565 55.2(4) 52.1(4) 57.3(4)
Fe1 Pb1 Bi1 5_5555 1_5655 55.1(4) 53.7(4) 59.7(4)
Fe1 Pb1 Bi1 5_5555 1_6555 56.5(4) 53.9(4) 59.0(5)
Fe1 Pb1 Bi1 5_5555 5_4445 173.8(6) 170.0(6) 176.0(7)
Fe1 Pb1 Bi1 5_5555 5_4545 109.7(3) 109.2(3) 110.0(3)
Fe1 Pb1 Bi1 5_5555 5_5455 65.4(4) 65.4(4) 65.4(4)
Fe1 Pb1 Bi1 5_5555 5_5555 11.9(4) 11.9(4) 11.9(4)
Fe1 Pb1 O1 5_5555 1_5445 143.4(10) 140.7(11) 149.7(9)
Fe1 Pb1 O1 5_5555 1_5465 71.6(6) 70.1(6) 73.0(7)
Fe1 Pb1 O1 5_5555 1_5545 101.4(6) 98.6(7) 105.5(5)
Fe1 Pb1 O1 5_5555 1_5565 30.9(9) 30.0(10) 31.5(9)
Fe1 Pb1 O1 5_5555 5_4445 143.4(4) 139.8(5) 147.0(5)
Fe1 Pb1 O1 5_5555 5_4455 88.9(9) 71.0(8) 99.9(10)
Fe1 Pb1 O1 5_5555 5_5445 93.3(9) 88.6(9) 107.5(7)
Fe1 Pb1 O1 5_5555 5_5455 35.1(2) 31.7(3) 36.5(2)
Fe1 Pb1 O2 5_5555 1_4545 142.4(3) 141.3(4) 143.5(2)
Fe1 Pb1 O2 5_5555 5_4445 143.8(17) 138.2(15) 148.0(19)
Fe1 Pb1 O2 5_5555 5_4455 90.6(11) 76.6(8) 99.4(12)
Fe1 Pb1 O2 5_5555 5_4545 91.5(10) 88.7(10) 95.2(9)
Fe1 Pb1 O2 5_5555 5_4555 36.1(17) 33.5(14) 38.0(19)
Fe1 Pb1 O3 5_5555 5_4445 144.8(10) 123.5(10) 162.5(10)
Fe1 Pb1 O3 5_5555 5_4545 90.4(5) 80.9(6) 100.3(5)
Fe1 Pb1 O3 5_5555 5_5445 90.5(6) 77.0(6) 108.4(7)
Fe1 Pb1 O3 5_5555 5_5545 37.1(9) 27.1(8) 55.0(9)
Pb1 Pb1 Pb1 1_4555 1_5455 90.0(5) 90.0(5) 90.0(5)
Pb1 Pb1 Pb1 1_4555 1_5545 92.6(6) 91.4(5) 95.6(6)
Pb1 Pb1 Pb1 1_4555 1_5565 87.9(5) 81.6(6) 92.0(6)
Pb1 Pb1 Pb1 1_4555 1_5655 90.0(5) 90.0(5) 90.0(5)
Pb1 Pb1 Pb1 1_4555 1_6555 178.1(6) 175.9(8) 180.0(5)
Pb1 Pb1 Pb1 1_4555 5_5455 129.6(5) 128.9(6) 131.0(5)
Pb1 Pb1 Pb1 1_4555 5_5555 129.6(5) 128.9(6) 131.0(5)
Pb1 Pb1 Bi1 1_4555 1_4555 0.1(5) 0.0(5) 0.7(4)
Pb1 Pb1 Bi1 1_4555 1_5455 90.0(5) 89.8(5) 90.5(4)
Pb1 Pb1 Bi1 1_4555 1_5545 92.6(6) 91.4(5) 95.2(6)
Pb1 Pb1 Bi1 1_4555 . 100(600) 0 200(800)
Pb1 Pb1 Bi1 1_4555 1_5565 87.9(5) 82.1(6) 92.0(6)
Pb1 Pb1 Bi1 1_4555 1_5655 90.0(5) 89.8(5) 90.5(4)
Pb1 Pb1 Bi1 1_4555 1_6555 178.1(6) 175.9(7) 180.0(5)
Pb1 Pb1 Bi1 1_4555 5_4445 48.7(5) 48.7(5) 48.7(5)
Pb1 Pb1 Bi1 1_4555 5_4545 48.7(5) 48.7(5) 48.7(5)
Pb1 Pb1 Bi1 1_4555 5_5455 129.0(5) 128.2(6) 130.6(5)
Pb1 Pb1 Bi1 1_4555 5_5555 129.0(5) 128.2(6) 130.6(5)
Pb1 Pb1 O1 1_4555 1_5445 88.2(10) 87.8(10) 88.5(10)
Pb1 Pb1 O1 1_4555 1_5465 89.9(10) 88.5(10) 93.3(9)
Pb1 Pb1 O1 1_4555 1_5545 88.2(10) 87.8(10) 88.5(10)
Pb1 Pb1 O1 1_4555 1_5565 89.9(10) 88.5(10) 93.3(9)
Pb1 Pb1 O1 1_4555 5_4445 49.1(11) 41.1(12) 60.4(9)
Pb1 Pb1 O1 1_4555 5_4455 46.7(10) 37.0(10) 61.5(9)
Pb1 Pb1 O1 1_4555 5_5445 136.4(11) 118.7(10) 146.6(12)
Pb1 Pb1 O1 1_4555 5_5455 130.1(11) 115.4(10) 142.7(14)
Pb1 Pb1 O2 1_4555 1_5565 121.5(12) 118.8(12) 124.7(11)
Pb1 Pb1 O2 1_4555 5_4445 92.0(18) 90.8(19) 95.1(19)
Pb1 Pb1 O2 1_4555 5_4455 88.5(17) 85.9(14) 91(2)
Pb1 Pb1 O2 1_4555 5_4545 92.0(18) 90.8(19) 95.1(19)
Pb1 Pb1 O2 1_4555 5_4555 88.5(17) 85.9(14) 91(2)
Pb1 Pb1 O3 1_4555 5_4445 45.9(3) 43.3(3) 53.6(3)
Pb1 Pb1 O3 1_4555 5_4545 45.9(3) 43.3(3) 53.6(3)
Pb1 Pb1 O3 1_4555 5_5445 134.3(3) 131.7(4) 136.5(2)
Pb1 Pb1 O3 1_4555 5_5545 134.3(3) 131.7(4) 136.5(2)
Pb1 Pb1 Pb1 1_5455 1_5545 90.0(3) 90.0(5) 90.0(5)
Pb1 Pb1 Pb1 1_5455 1_5565 90.0(3) 90.00(17) 90.00(17)
Pb1 Pb1 Pb1 1_5455 1_5655 180.0(5) 180.0(5) 180.0(5)
Pb1 Pb1 Pb1 1_5455 1_6555 90.0(3) 90.00(19) 90.00(19)
Pb1 Pb1 Pb1 1_5455 5_4445 56.2(3) 56.2(3) 56.2(3)
Pb1 Pb1 Pb1 1_5455 5_4545 123.8(4) 123.8(4) 123.8(3)
Pb1 Pb1 Pb1 1_5455 5_5455 56.2(3) 56.2(3) 56.2(3)
Pb1 Pb1 Pb1 1_5455 5_5555 123.8(4) 123.8(4) 123.8(3)
Pb1 Pb1 Bi1 1_5455 1_4555 90.0(3) 90.0(4) 90.0(4)
Pb1 Pb1 Bi1 1_5455 1_5455 0.2(5) 0.0(5) 0.8(4)
Pb1 Pb1 Bi1 1_5455 1_5545 90.0(3) 90.0(5) 90.0(5)
Pb1 Pb1 Bi1 1_5455 . 88.1(3) 0 90.00(19)
Pb1 Pb1 Bi1 1_5455 1_5565 90.0(3) 90.00(17) 90.00(17)
Pb1 Pb1 Bi1 1_5455 1_5655 179.8(6) 179.2(5) 180.0(5)
Pb1 Pb1 Bi1 1_5455 1_6555 90.0(3) 90.00(19) 90.00(19)
Pb1 Pb1 Bi1 1_5455 5_4445 56.2(3) 56.2(4) 56.2(3)
Pb1 Pb1 Bi1 1_5455 5_4545 123.8(4) 123.8(4) 123.8(5)
Pb1 Pb1 Bi1 1_5455 5_5455 56.2(3) 56.2(4) 56.2(3)
Pb1 Pb1 Bi1 1_5455 5_5555 123.8(4) 123.8(4) 123.8(5)
Pb1 Pb1 O1 1_5455 1_5445 59.2(4) 57.4(5) 59.9(3)
Pb1 Pb1 O1 1_5455 1_5465 59.2(4) 57.4(5) 59.9(3)
Pb1 Pb1 O1 1_5455 1_5545 120.8(5) 120.1(4) 122.6(7)
Pb1 Pb1 O1 1_5455 1_5565 120.8(5) 120.1(4) 122.6(7)
Pb1 Pb1 O1 1_5455 5_4445 90.0(3) 90.0(4) 90.0(4)
Pb1 Pb1 O1 1_5455 5_4455 90.0(3) 90.00(19) 90.00(19)
Pb1 Pb1 O1 1_5455 5_5445 90.0(3) 90.00(18) 90.00(18)
Pb1 Pb1 O1 1_5455 5_5455 90.0(3) 90.00(18) 90.00(18)
Pb1 Pb1 O2 1_5455 1_4545 90.0(2) 90.00(18) 90.00(18)
Pb1 Pb1 O2 1_5455 1_5565 90.0(2) 90.0(3) 90.0(3)
Pb1 Pb1 O2 1_5455 5_4445 44.7(3) 36.2(4) 56.0(4)
Pb1 Pb1 O2 1_5455 5_4455 44.7(3) 36.2(4) 56.0(4)
Pb1 Pb1 O2 1_5455 5_4545 135.3(5) 124.0(7) 143.8(7)
Pb1 Pb1 O2 1_5455 5_4555 135.3(5) 124.0(7) 143.8(7)
Pb1 Pb1 O3 1_5455 5_4445 45.6(3) 41.2(3) 48.9(4)
Pb1 Pb1 O3 1_5455 5_4545 134.4(5) 131.1(6) 138.8(4)
Pb1 Pb1 O3 1_5455 5_5445 45.6(3) 41.2(3) 48.9(4)
Pb1 Pb1 O3 1_5455 5_5545 134.4(5) 131.1(6) 138.8(4)
Pb1 Pb1 Pb1 1_5545 1_5565 176.2(6) 173.3(7) 180.0(5)
Pb1 Pb1 Pb1 1_5545 1_5655 90.0(4) 90.0(5) 90.0(5)
Pb1 Pb1 Pb1 1_5545 1_6555 87.9(5) 81.6(6) 92.0(6)
Pb1 Pb1 Pb1 1_5545 5_5455 120.5(5) 119.0(5) 121.3(6)
Pb1 Pb1 Pb1 1_5545 5_5555 120.5(5) 119.0(5) 121.3(6)
Pb1 Pb1 Bi1 1_5545 1_4555 92.6(5) 91.4(5) 95.9(6)
Pb1 Pb1 Bi1 1_5545 1_5455 89.9(4) 89.4(4) 90.0(4)
Pb1 Pb1 Bi1 1_5545 1_5545 0.1(5) 0.0(5) 0.4(4)
Pb1 Pb1 Bi1 1_5545 . 100(600) 0 200(1400)
Pb1 Pb1 Bi1 1_5545 1_5565 176.3(6) 173.3(8) 180.0(5)
Pb1 Pb1 Bi1 1_5545 1_5655 89.9(4) 89.4(4) 90.0(4)
Pb1 Pb1 Bi1 1_5545 1_6555 87.8(5) 81.6(6) 91.3(6)
Pb1 Pb1 Bi1 1_5545 5_5455 121.2(5) 119.4(5) 122.1(6)
Pb1 Pb1 Bi1 1_5545 5_5555 121.2(5) 119.4(5) 122.1(6)
Pb1 Pb1 O1 1_5545 1_5465 149.1(3) 147.4(3) 149.8(3)
Pb1 Pb1 O1 1_5545 1_5565 149.1(3) 147.4(3) 149.8(3)
Pb1 Pb1 O1 1_5545 5_4445 45.0(11) 36.9(9) 50.9(12)
Pb1 Pb1 O1 1_5545 5_4455 140.6(11) 132.8(12) 153.8(9)
Pb1 Pb1 O1 1_5545 5_5445 45.8(10) 28.3(9) 54.5(10)
Pb1 Pb1 O1 1_5545 5_5455 139.2(11) 123.0(13) 152.4(10)
Pb1 Pb1 O2 1_5545 1_5565 146.3(11) 143.0(11) 149.0(12)
Pb1 Pb1 O2 1_5545 5_4445 45.3(3) 34.1(3) 53.9(4)
Pb1 Pb1 O2 1_5545 5_4455 137.5(3) 127.1(6) 145.9(3)
Pb1 Pb1 O2 1_5545 5_4545 45.3(3) 34.1(3) 53.9(4)
Pb1 Pb1 O2 1_5545 5_4555 137.5(3) 127.1(6) 145.9(3)
Pb1 Pb1 O3 1_5545 5_4445 93.5(9) 81.9(10) 107.9(9)
Pb1 Pb1 O3 1_5545 5_4545 93.5(9) 81.9(10) 107.9(9)
Pb1 Pb1 O3 1_5545 5_5445 92.5(9) 76.7(9) 106.3(9)
Pb1 Pb1 O3 1_5545 5_5545 92.5(9) 76.7(9) 106.3(9)
Pb1 Pb1 Pb1 1_5565 1_5655 90.0(4) 90.0(4) 90.0(4)
Pb1 Pb1 Pb1 1_5565 1_6555 92.6(5) 91.4(5) 95.6(6)
Pb1 Pb1 Pb1 1_5565 5_4445 120.5(5) 119.0(5) 121.3(6)
Pb1 Pb1 Pb1 1_5565 5_4545 120.5(5) 119.0(5) 121.3(6)
Pb1 Pb1 Bi1 1_5565 1_4555 87.8(5) 81.6(6) 91.3(6)
Pb1 Pb1 Bi1 1_5565 1_5455 89.9(4) 89.4(4) 90.0(4)
Pb1 Pb1 Bi1 1_5565 1_5545 176.3(6) 173.3(8) 180.0(5)
Pb1 Pb1 Bi1 1_5565 . 100(600) 0 200(1400)
Pb1 Pb1 Bi1 1_5565 1_5565 0.1(5) 0.0(5) 0.4(4)
Pb1 Pb1 Bi1 1_5565 1_5655 89.9(4) 89.4(4) 90.0(4)
Pb1 Pb1 Bi1 1_5565 1_6555 92.6(5) 91.4(5) 95.9(6)
Pb1 Pb1 Bi1 1_5565 5_4445 121.2(5) 119.4(5) 122.1(6)
Pb1 Pb1 Bi1 1_5565 5_4545 121.2(5) 119.4(5) 122.1(6)
Pb1 Pb1 O1 1_5565 1_5445 149.1(3) 147.4(3) 149.8(3)
Pb1 Pb1 O1 1_5565 1_5545 149.1(3) 147.4(3) 149.8(3)
Pb1 Pb1 O1 1_5565 5_4445 139.2(11) 123.0(13) 152.4(10)
Pb1 Pb1 O1 1_5565 5_4455 45.8(10) 28.3(9) 54.5(10)
Pb1 Pb1 O1 1_5565 5_5445 140.6(11) 132.8(12) 153.8(9)
Pb1 Pb1 O1 1_5565 5_5455 45.0(11) 36.9(9) 50.9(12)
Pb1 Pb1 O2 1_5565 1_4545 146.3(11) 143.0(11) 149.0(12)
Pb1 Pb1 O2 1_5565 5_4445 137.5(3) 127.1(6) 145.9(3)
Pb1 Pb1 O2 1_5565 5_4455 45.3(3) 34.1(3) 53.9(4)
Pb1 Pb1 O2 1_5565 5_4545 137.5(3) 127.1(6) 145.9(3)
Pb1 Pb1 O2 1_5565 5_4555 45.3(3) 34.1(3) 53.9(4)
Pb1 Pb1 O3 1_5565 5_4445 92.5(9) 76.7(9) 106.3(9)
Pb1 Pb1 O3 1_5565 5_4545 92.5(9) 76.7(9) 106.3(9)
Pb1 Pb1 O3 1_5565 5_5445 93.5(9) 81.9(10) 107.9(9)
Pb1 Pb1 O3 1_5565 5_5545 93.5(9) 81.9(10) 107.9(9)
Pb1 Pb1 Pb1 1_5655 1_6555 90.0(3) 90.00(19) 90.00(19)
Pb1 Pb1 Pb1 1_5655 5_4445 123.8(4) 123.8(4) 123.8(3)
Pb1 Pb1 Pb1 1_5655 5_4545 56.2(3) 56.2(3) 56.2(3)
Pb1 Pb1 Pb1 1_5655 5_5455 123.8(4) 123.8(4) 123.8(3)
Pb1 Pb1 Pb1 1_5655 5_5555 56.2(3) 56.2(3) 56.2(3)
Pb1 Pb1 Bi1 1_5655 1_4555 90.0(3) 90.0(4) 90.0(4)
Pb1 Pb1 Bi1 1_5655 1_5455 179.8(6) 179.2(5) 180.0(5)
Pb1 Pb1 Bi1 1_5655 1_5545 90.0(3) 90.0(5) 90.0(5)
Pb1 Pb1 Bi1 1_5655 . 88.1(3) 0 90.00(19)
Pb1 Pb1 Bi1 1_5655 1_5565 90.0(3) 90.00(17) 90.00(17)
Pb1 Pb1 Bi1 1_5655 1_5655 0.2(5) 0.0(5) 0.8(4)
Pb1 Pb1 Bi1 1_5655 1_6555 90.0(3) 90.00(19) 90.00(19)
Pb1 Pb1 Bi1 1_5655 5_4445 123.8(4) 123.8(4) 123.8(5)
Pb1 Pb1 Bi1 1_5655 5_4545 56.2(3) 56.2(4) 56.2(3)
Pb1 Pb1 Bi1 1_5655 5_5455 123.8(4) 123.8(4) 123.8(5)
Pb1 Pb1 Bi1 1_5655 5_5555 56.2(3) 56.2(4) 56.2(3)
Pb1 Pb1 O1 1_5655 1_5445 120.8(5) 120.1(4) 122.6(7)
Pb1 Pb1 O1 1_5655 1_5465 120.8(5) 120.1(4) 122.6(7)
Pb1 Pb1 O1 1_5655 1_5545 59.2(4) 57.4(5) 59.9(3)
Pb1 Pb1 O1 1_5655 1_5565 59.2(4) 57.4(5) 59.9(3)
Pb1 Pb1 O1 1_5655 5_4445 90.0(3) 90.0(4) 90.0(4)
Pb1 Pb1 O1 1_5655 5_4455 90.0(3) 90.00(19) 90.00(19)
Pb1 Pb1 O1 1_5655 5_5445 90.0(3) 90.00(18) 90.00(18)
Pb1 Pb1 O1 1_5655 5_5455 90.0(3) 90.00(18) 90.00(18)
Pb1 Pb1 O2 1_5655 1_4545 90.0(2) 90.00(18) 90.00(18)
Pb1 Pb1 O2 1_5655 1_5565 90.0(2) 90.0(3) 90.0(3)
Pb1 Pb1 O2 1_5655 5_4445 135.3(5) 124.0(7) 143.8(7)
Pb1 Pb1 O2 1_5655 5_4455 135.3(5) 124.0(7) 143.8(7)
Pb1 Pb1 O2 1_5655 5_4545 44.7(3) 36.2(4) 56.0(4)
Pb1 Pb1 O2 1_5655 5_4555 44.7(3) 36.2(4) 56.0(4)
Pb1 Pb1 O3 1_5655 5_4445 134.4(5) 131.1(6) 138.8(4)
Pb1 Pb1 O3 1_5655 5_4545 45.6(3) 41.2(3) 48.9(4)
Pb1 Pb1 O3 1_5655 5_5445 134.4(5) 131.1(6) 138.8(4)
Pb1 Pb1 O3 1_5655 5_5545 45.6(3) 41.2(3) 48.9(4)
Pb1 Pb1 Pb1 1_6555 5_4445 129.6(5) 128.9(6) 131.0(5)
Pb1 Pb1 Pb1 1_6555 5_4545 129.6(5) 128.9(6) 131.0(5)
Pb1 Pb1 Bi1 1_6555 1_4555 178.1(6) 175.9(7) 180.0(5)
Pb1 Pb1 Bi1 1_6555 1_5455 90.0(5) 89.8(5) 90.5(4)
Pb1 Pb1 Bi1 1_6555 1_5545 87.9(5) 82.1(6) 92.0(6)
Pb1 Pb1 Bi1 1_6555 . 100(600) 0 200(800)
Pb1 Pb1 Bi1 1_6555 1_5565 92.6(6) 91.4(5) 95.2(6)
Pb1 Pb1 Bi1 1_6555 1_5655 90.0(5) 89.8(5) 90.5(4)
Pb1 Pb1 Bi1 1_6555 1_6555 0.1(5) 0.0(5) 0.7(4)
Pb1 Pb1 Bi1 1_6555 5_4445 129.0(5) 128.2(6) 130.6(5)
Pb1 Pb1 Bi1 1_6555 5_4545 129.0(5) 128.2(6) 130.6(5)
Pb1 Pb1 Bi1 1_6555 5_5455 48.7(5) 48.7(5) 48.7(5)
Pb1 Pb1 Bi1 1_6555 5_5555 48.7(5) 48.7(5) 48.7(5)
Pb1 Pb1 O1 1_6555 1_5445 89.9(10) 88.5(10) 93.3(9)
Pb1 Pb1 O1 1_6555 1_5465 88.2(10) 87.8(10) 88.5(10)
Pb1 Pb1 O1 1_6555 1_5545 89.9(10) 88.5(10) 93.3(9)
Pb1 Pb1 O1 1_6555 1_5565 88.2(10) 87.8(10) 88.5(10)
Pb1 Pb1 O1 1_6555 5_4445 130.1(11) 115.4(10) 142.7(14)
Pb1 Pb1 O1 1_6555 5_4455 136.4(11) 118.7(10) 146.6(12)
Pb1 Pb1 O1 1_6555 5_5445 46.7(10) 37.0(10) 61.5(9)
Pb1 Pb1 O1 1_6555 5_5455 49.1(11) 41.1(12) 60.4(9)
Pb1 Pb1 O2 1_6555 1_4545 121.5(12) 118.8(12) 124.7(11)
Pb1 Pb1 O2 1_6555 5_4445 88.5(17) 85.9(14) 91(2)
Pb1 Pb1 O2 1_6555 5_4455 92.0(18) 90.8(19) 95.1(19)
Pb1 Pb1 O2 1_6555 5_4545 88.5(17) 85.9(14) 91(2)
Pb1 Pb1 O2 1_6555 5_4555 92.0(18) 90.8(19) 95.1(19)
Pb1 Pb1 O3 1_6555 5_4445 134.3(3) 131.7(4) 136.5(2)
Pb1 Pb1 O3 1_6555 5_4545 134.3(3) 131.7(4) 136.5(2)
Pb1 Pb1 O3 1_6555 5_5445 45.9(3) 43.3(3) 53.6(3)
Pb1 Pb1 O3 1_6555 5_5545 45.9(3) 43.3(3) 53.6(3)
Pb1 Pb1 Pb1 5_4445 5_4545 67.5(3) 67.5(3) 67.5(3)
Pb1 Pb1 Bi1 5_4445 1_5455 56.2(4) 56.2(4) 56.2(4)
Pb1 Pb1 Bi1 5_4445 . 90(40) 90(60) 90(30)
Pb1 Pb1 Bi1 5_4445 1_5655 123.8(5) 123.7(5) 123.8(5)
Pb1 Pb1 Bi1 5_4445 1_6555 129.6(4) 128.9(4) 131.1(4)
Pb1 Pb1 Bi1 5_4445 5_4445 0.6(5) 0.4(5) 0.8(5)
Pb1 Pb1 Bi1 5_4445 5_4545 67.5(3) 67.5(3) 67.6(3)
Pb1 Pb1 O1 5_4445 1_5445 41.3(9) 40.6(9) 42.2(9)
Pb1 Pb1 O1 5_4445 1_5545 78.9(6) 78.5(6) 79.6(7)
Pb1 Pb1 O1 5_4445 5_4455 76.9(8) 76.1(8) 77.4(8)
Pb1 Pb1 O1 5_4445 5_5445 81.9(8) 81.5(7) 82.6(8)
Pb1 Pb1 O1 5_4445 5_5455 146.0(2) 145.6(3) 146.22(16)
Pb1 Pb1 O2 5_4445 1_4545 38.0(5) 37.5(5) 38.8(5)
Pb1 Pb1 O2 5_4445 5_4455 80.6(12) 80.2(11) 80.8(12)
Pb1 Pb1 O2 5_4445 5_4555 135.9(19) 133.8(19) 137(2)
Pb1 Pb1 O3 5_4445 5_5445 82.2(5) 79.9(5) 84.7(5)
Pb1 Pb1 O3 5_4445 5_5545 132.6(10) 131.4(9) 134.3(10)
Pb1 Pb1 Bi1 5_4545 1_5455 123.8(5) 123.7(5) 123.8(5)
Pb1 Pb1 Bi1 5_4545 . 90(40) 90(60) 90(30)
Pb1 Pb1 Bi1 5_4545 1_5655 56.2(4) 56.2(4) 56.2(4)
Pb1 Pb1 Bi1 5_4545 1_6555 129.6(4) 128.9(4) 131.1(4)
Pb1 Pb1 Bi1 5_4545 5_4445 67.5(3) 67.5(3) 67.6(3)
Pb1 Pb1 Bi1 5_4545 5_4545 0.6(5) 0.4(5) 0.8(5)
Pb1 Pb1 O1 5_4545 1_5445 78.9(6) 78.5(6) 79.6(7)
Pb1 Pb1 O1 5_4545 1_5545 41.3(9) 40.6(9) 42.2(9)
Pb1 Pb1 O1 5_4545 5_4455 76.9(8) 76.1(8) 77.4(8)
Pb1 Pb1 O1 5_4545 5_5445 81.9(8) 81.5(7) 82.6(8)
Pb1 Pb1 O1 5_4545 5_5455 146.0(2) 145.6(3) 146.22(16)
Pb1 Pb1 O2 5_4545 1_4545 38.0(5) 37.5(5) 38.8(5)
Pb1 Pb1 O2 5_4545 5_4455 135.9(19) 133.8(19) 137(2)
Pb1 Pb1 O2 5_4545 5_4555 80.6(12) 80.2(11) 80.8(12)
Pb1 Pb1 O3 5_4545 5_5445 132.6(10) 131.4(9) 134.3(10)
Pb1 Pb1 O3 5_4545 5_5545 82.2(5) 79.9(5) 84.7(5)
Pb1 Pb1 Pb1 5_5455 5_5555 67.5(3) 67.5(3) 67.5(3)
Pb1 Pb1 Bi1 5_5455 1_4555 129.6(4) 128.9(4) 131.1(4)
Pb1 Pb1 Bi1 5_5455 1_5455 56.2(4) 56.2(4) 56.2(4)
Pb1 Pb1 Bi1 5_5455 . 90(40) 90(60) 90(30)
Pb1 Pb1 Bi1 5_5455 1_5655 123.8(5) 123.7(5) 123.8(5)
Pb1 Pb1 Bi1 5_5455 5_5455 0.6(5) 0.4(5) 0.8(5)
Pb1 Pb1 Bi1 5_5455 5_5555 67.5(3) 67.5(3) 67.6(3)
Pb1 Pb1 O1 5_5455 1_5465 41.3(9) 40.6(9) 42.2(9)
Pb1 Pb1 O1 5_5455 1_5565 78.9(6) 78.5(6) 79.6(7)
Pb1 Pb1 O1 5_5455 5_4445 146.0(2) 145.6(3) 146.22(16)
Pb1 Pb1 O1 5_5455 5_4455 81.9(8) 81.5(7) 82.6(8)
Pb1 Pb1 O1 5_5455 5_5445 76.9(8) 76.1(8) 77.4(8)
Pb1 Pb1 O2 5_5455 1_5565 38.0(5) 37.5(5) 38.8(5)
Pb1 Pb1 O2 5_5455 5_4445 80.6(12) 80.2(11) 80.8(12)
Pb1 Pb1 O2 5_5455 5_4545 135.9(19) 133.8(19) 137(2)
Pb1 Pb1 O3 5_5455 5_4445 82.2(5) 79.9(5) 84.7(5)
Pb1 Pb1 O3 5_5455 5_4545 132.6(10) 131.4(9) 134.3(10)
Pb1 Pb1 Bi1 5_5555 1_4555 129.6(4) 128.9(4) 131.1(4)
Pb1 Pb1 Bi1 5_5555 1_5455 123.8(5) 123.7(5) 123.8(5)
Pb1 Pb1 Bi1 5_5555 . 90(40) 90(60) 90(30)
Pb1 Pb1 Bi1 5_5555 1_5655 56.2(4) 56.2(4) 56.2(4)
Pb1 Pb1 Bi1 5_5555 5_5455 67.5(3) 67.5(3) 67.6(3)
Pb1 Pb1 Bi1 5_5555 5_5555 0.6(5) 0.4(5) 0.8(5)
Pb1 Pb1 O1 5_5555 1_5465 78.9(6) 78.5(6) 79.6(7)
Pb1 Pb1 O1 5_5555 1_5565 41.3(9) 40.6(9) 42.2(9)
Pb1 Pb1 O1 5_5555 5_4445 146.0(2) 145.6(3) 146.22(16)
Pb1 Pb1 O1 5_5555 5_4455 81.9(8) 81.5(7) 82.6(8)
Pb1 Pb1 O1 5_5555 5_5445 76.9(8) 76.1(8) 77.4(8)
Pb1 Pb1 O2 5_5555 1_5565 38.0(5) 37.5(5) 38.8(5)
Pb1 Pb1 O2 5_5555 5_4445 135.9(19) 133.8(19) 137(2)
Pb1 Pb1 O2 5_5555 5_4545 80.6(12) 80.2(11) 80.8(12)
Pb1 Pb1 O3 5_5555 5_4445 132.6(10) 131.4(9) 134.3(10)
Pb1 Pb1 O3 5_5555 5_4545 82.2(5) 79.9(5) 84.7(5)
Bi1 Pb1 Bi1 1_4555 1_5455 90.0(5) 89.8(5) 90.5(4)
Bi1 Pb1 Bi1 1_4555 1_5545 92.6(6) 91.4(5) 95.5(6)
Bi1 Pb1 Bi1 1_4555 . 100(600) 0 200(800)
Bi1 Pb1 Bi1 1_4555 1_5565 87.8(5) 82.0(6) 91.3(6)
Bi1 Pb1 Bi1 1_4555 1_5655 90.0(5) 89.8(5) 90.5(4)
Bi1 Pb1 Bi1 1_4555 1_6555 178.2(6) 176.6(7) 180.0(5)
Bi1 Pb1 Bi1 1_4555 5_4445 49.2(5) 49.2(5) 49.2(5)
Bi1 Pb1 Bi1 1_4555 5_4545 49.2(5) 49.2(5) 49.2(5)
Bi1 Pb1 Bi1 1_4555 5_5455 129.0(5) 128.2(6) 130.8(5)
Bi1 Pb1 Bi1 1_4555 5_5555 129.0(5) 128.2(6) 130.8(5)
Bi1 Pb1 O1 1_4555 1_5445 88.6(10) 88.3(11) 88.9(10)
Bi1 Pb1 O1 1_4555 1_5465 89.9(10) 88.4(10) 93.5(9)
Bi1 Pb1 O1 1_4555 1_5545 88.6(10) 88.3(11) 88.9(10)
Bi1 Pb1 O1 1_4555 1_5565 89.9(10) 88.4(10) 93.5(9)
Bi1 Pb1 O1 1_4555 5_4445 49.2(11) 41.1(12) 61.2(9)
Bi1 Pb1 O1 1_4555 5_4455 46.6(10) 36.6(10) 61.7(9)
Bi1 Pb1 O1 1_4555 5_5445 136.4(11) 119.4(10) 146.6(12)
Bi1 Pb1 O1 1_4555 5_5455 130.0(11) 115.4(10) 142.0(14)
Bi1 Pb1 O2 1_4555 1_5565 121.6(12) 118.8(12) 124.9(11)
Bi1 Pb1 O2 1_4555 5_4445 92.0(18) 90.8(19) 95.0(19)
Bi1 Pb1 O2 1_4555 5_4455 88.5(17) 85.8(14) 90(2)
Bi1 Pb1 O2 1_4555 5_4545 92.0(18) 90.8(19) 95.0(19)
Bi1 Pb1 O2 1_4555 5_4555 88.5(17) 85.8(14) 90(2)
Bi1 Pb1 O3 1_4555 5_4445 45.9(3) 43.3(3) 53.7(3)
Bi1 Pb1 O3 1_4555 5_4545 45.9(3) 43.3(3) 53.7(3)
Bi1 Pb1 O3 1_4555 5_5445 134.3(3) 132.0(4) 136.5(3)
Bi1 Pb1 O3 1_4555 5_5545 134.3(3) 132.0(4) 136.5(3)
Bi1 Pb1 Bi1 1_5455 1_5545 89.9(3) 89.39(17) 90.0(3)
Bi1 Pb1 Bi1 1_5455 . 87.9(3) 0 89.988(7)
Bi1 Pb1 Bi1 1_5455 1_5565 89.9(3) 89.38(17) 90.0(3)
Bi1 Pb1 Bi1 1_5455 1_5655 179.7(6) 178.5(5) 180.0(5)
Bi1 Pb1 Bi1 1_5455 1_6555 90.0(3) 89.8(4) 90.48(19)
Bi1 Pb1 Bi1 1_5455 5_4445 56.2(3) 56.2(4) 56.2(3)
Bi1 Pb1 Bi1 1_5455 5_4545 123.8(4) 123.8(4) 123.8(5)
Bi1 Pb1 Bi1 1_5455 5_5455 56.2(3) 56.2(4) 56.2(3)
Bi1 Pb1 Bi1 1_5455 5_5555 123.8(4) 123.8(4) 123.8(5)
Bi1 Pb1 O1 1_5455 1_5445 59.4(4) 57.4(5) 60.3(3)
Bi1 Pb1 O1 1_5455 1_5465 59.4(4) 57.4(5) 60.3(3)
Bi1 Pb1 O1 1_5455 1_5545 121.1(5) 120.5(4) 122.7(7)
Bi1 Pb1 O1 1_5455 1_5565 121.1(5) 120.5(4) 122.7(7)
Bi1 Pb1 O1 1_5455 5_4445 90.0(3) 89.92(18) 90.1(4)
Bi1 Pb1 O1 1_5455 5_4455 90.0(3) 89.26(19) 90.75(18)
Bi1 Pb1 O1 1_5455 5_5445 90.0(3) 89.26(19) 90.75(18)
Bi1 Pb1 O1 1_5455 5_5455 90.0(3) 89.92(18) 90.1(4)
Bi1 Pb1 O2 1_5455 1_4545 90.2(2) 90.1(3) 90.22(18)
Bi1 Pb1 O2 1_5455 1_5565 90.2(2) 90.1(3) 90.22(18)
Bi1 Pb1 O2 1_5455 5_4445 44.7(3) 36.0(4) 56.0(4)
Bi1 Pb1 O2 1_5455 5_4455 44.7(3) 36.0(4) 56.0(4)
Bi1 Pb1 O2 1_5455 5_4545 135.2(5) 124.0(7) 143.7(8)
Bi1 Pb1 O2 1_5455 5_4555 135.2(5) 124.0(7) 143.7(8)
Bi1 Pb1 O3 1_5455 5_4445 45.6(3) 41.9(3) 48.8(4)
Bi1 Pb1 O3 1_5455 5_4545 134.5(5) 131.0(6) 139.5(4)
Bi1 Pb1 O3 1_5455 5_5445 45.6(3) 41.9(3) 48.8(4)
Bi1 Pb1 O3 1_5455 5_5545 134.5(5) 131.0(6) 139.5(4)
Bi1 Pb1 Bi1 1_5545 . 100(600) 0 200(1400)
Bi1 Pb1 Bi1 1_5545 1_5565 176.4(6) 173.7(8) 180.0(5)
Bi1 Pb1 Bi1 1_5545 1_5655 89.9(4) 89.4(4) 90.0(4)
Bi1 Pb1 Bi1 1_5545 1_6555 87.8(5) 82.0(6) 91.3(6)
Bi1 Pb1 Bi1 1_5545 5_5455 121.2(5) 119.4(5) 122.1(6)
Bi1 Pb1 Bi1 1_5545 5_5555 121.2(5) 119.4(5) 122.1(6)
Bi1 Pb1 O1 1_5545 1_5465 149.1(3) 147.4(3) 149.8(3)
Bi1 Pb1 O1 1_5545 1_5565 149.1(3) 147.4(3) 149.8(3)
Bi1 Pb1 O1 1_5545 5_4445 44.9(11) 36.5(9) 50.9(12)
Bi1 Pb1 O1 1_5545 5_4455 140.5(11) 132.4(12) 153.8(9)
Bi1 Pb1 O1 1_5545 5_5445 45.9(10) 28.8(9) 54.5(10)
Bi1 Pb1 O1 1_5545 5_5455 139.2(11) 123.5(13) 152.5(10)
Bi1 Pb1 O2 1_5545 1_5565 146.3(11) 143.0(11) 149.0(12)
Bi1 Pb1 O2 1_5545 5_4445 45.3(3) 34.1(3) 53.9(4)
Bi1 Pb1 O2 1_5545 5_4455 137.5(3) 127.1(6) 145.9(3)
Bi1 Pb1 O2 1_5545 5_4545 45.3(3) 34.1(3) 53.9(4)
Bi1 Pb1 O2 1_5545 5_4555 137.5(3) 127.1(6) 145.9(3)
Bi1 Pb1 O3 1_5545 5_4445 93.4(9) 81.6(10) 107.9(9)
Bi1 Pb1 O3 1_5545 5_4545 93.4(9) 81.6(10) 107.9(9)
Bi1 Pb1 O3 1_5545 5_5445 92.6(9) 77.0(9) 106.3(9)
Bi1 Pb1 O3 1_5545 5_5545 92.6(9) 77.0(9) 106.3(9)
Bi1 Pb1 Bi1 . 1_5565 100(400) 0 200(1200)
Bi1 Pb1 Bi1 . 1_5655 87.9(4) 0 90.0(4)
Bi1 Pb1 Bi1 . 1_6555 100(300) 0 200(700)
Bi1 Pb1 Bi1 . 5_4445 90(30) 90(60) 90(20)
Bi1 Pb1 Bi1 . 5_4545 90(30) 90(60) 90(20)
Bi1 Pb1 Bi1 . 5_5455 90(30) 90(60) 90(20)
Bi1 Pb1 Bi1 . 5_5555 90(30) 90(60) 90(20)
Bi1 Pb1 O1 . 1_5445 130(80) 100(300) 130(19)
Bi1 Pb1 O1 . 1_5465 130(80) 100(300) 130(19)
Bi1 Pb1 O1 . 1_5545 130(80) 100(300) 130(19)
Bi1 Pb1 O1 . 1_5565 130(80) 100(300) 130(19)
Bi1 Pb1 O1 . 5_4445 100(300) 0 200(1600)
Bi1 Pb1 O1 . 5_4455 100(300) 0 170(30)
Bi1 Pb1 O1 . 5_5445 100(300) 0 170(30)
Bi1 Pb1 O1 . 5_5455 100(300) 0 200(1600)
Bi1 Pb1 O2 . 1_4545 110(30) 106(14) 110(40)
Bi1 Pb1 O2 . 1_5565 110(30) 106(14) 110(40)
Bi1 Pb1 O2 . 5_4445 80(160) 0 129(9)
Bi1 Pb1 O2 . 5_4455 80(160) 0 129(9)
Bi1 Pb1 O2 . 5_4545 80(160) 0 129(9)
Bi1 Pb1 O2 . 5_4555 80(160) 0 129(9)
Bi1 Pb1 O3 . 5_4445 90(180) 0 140(140)
Bi1 Pb1 O3 . 5_4545 90(180) 0 140(140)
Bi1 Pb1 O3 . 5_5445 90(180) 0 140(140)
Bi1 Pb1 O3 . 5_5545 90(180) 0 140(140)
Bi1 Pb1 Bi1 1_5565 1_5655 89.9(4) 89.4(4) 90.0(4)
Bi1 Pb1 Bi1 1_5565 1_6555 92.6(5) 91.4(5) 95.5(6)
Bi1 Pb1 Bi1 1_5565 5_4445 121.2(5) 119.4(5) 122.1(6)
Bi1 Pb1 Bi1 1_5565 5_4545 121.2(5) 119.4(5) 122.1(6)
Bi1 Pb1 O1 1_5565 1_5445 149.1(3) 147.4(3) 149.8(3)
Bi1 Pb1 O1 1_5565 1_5545 149.1(3) 147.4(3) 149.8(3)
Bi1 Pb1 O1 1_5565 5_4445 139.2(11) 123.5(13) 152.5(10)
Bi1 Pb1 O1 1_5565 5_4455 45.9(10) 28.8(9) 54.5(10)
Bi1 Pb1 O1 1_5565 5_5445 140.5(11) 132.4(12) 153.8(9)
Bi1 Pb1 O1 1_5565 5_5455 44.9(11) 36.5(9) 50.9(12)
Bi1 Pb1 O2 1_5565 1_4545 146.3(11) 143.0(11) 149.0(12)
Bi1 Pb1 O2 1_5565 5_4445 137.5(3) 127.1(6) 145.9(3)
Bi1 Pb1 O2 1_5565 5_4455 45.3(3) 34.1(3) 53.9(4)
Bi1 Pb1 O2 1_5565 5_4545 137.5(3) 127.1(6) 145.9(3)
Bi1 Pb1 O2 1_5565 5_4555 45.3(3) 34.1(3) 53.9(4)
Bi1 Pb1 O3 1_5565 5_4445 92.6(9) 77.0(9) 106.3(9)
Bi1 Pb1 O3 1_5565 5_4545 92.6(9) 77.0(9) 106.3(9)
Bi1 Pb1 O3 1_5565 5_5445 93.4(9) 81.6(10) 107.9(9)
Bi1 Pb1 O3 1_5565 5_5545 93.4(9) 81.6(10) 107.9(9)
Bi1 Pb1 Bi1 1_5655 1_6555 90.0(3) 89.8(4) 90.48(19)
Bi1 Pb1 Bi1 1_5655 5_4445 123.8(4) 123.8(4) 123.8(5)
Bi1 Pb1 Bi1 1_5655 5_4545 56.2(3) 56.2(4) 56.2(3)
Bi1 Pb1 Bi1 1_5655 5_5455 123.8(4) 123.8(4) 123.8(5)
Bi1 Pb1 Bi1 1_5655 5_5555 56.2(3) 56.2(4) 56.2(3)
Bi1 Pb1 O1 1_5655 1_5445 121.1(5) 120.5(4) 122.7(7)
Bi1 Pb1 O1 1_5655 1_5465 121.1(5) 120.5(4) 122.7(7)
Bi1 Pb1 O1 1_5655 1_5545 59.4(4) 57.4(5) 60.3(3)
Bi1 Pb1 O1 1_5655 1_5565 59.4(4) 57.4(5) 60.3(3)
Bi1 Pb1 O1 1_5655 5_4445 90.0(3) 89.92(18) 90.1(4)
Bi1 Pb1 O1 1_5655 5_4455 90.0(3) 89.26(19) 90.75(18)
Bi1 Pb1 O1 1_5655 5_5445 90.0(3) 89.26(19) 90.75(18)
Bi1 Pb1 O1 1_5655 5_5455 90.0(3) 89.92(18) 90.1(4)
Bi1 Pb1 O2 1_5655 1_4545 90.2(2) 90.1(3) 90.22(18)
Bi1 Pb1 O2 1_5655 1_5565 90.2(2) 90.1(3) 90.22(18)
Bi1 Pb1 O2 1_5655 5_4445 135.2(5) 124.0(7) 143.7(8)
Bi1 Pb1 O2 1_5655 5_4455 135.2(5) 124.0(7) 143.7(8)
Bi1 Pb1 O2 1_5655 5_4545 44.7(3) 36.0(4) 56.0(4)
Bi1 Pb1 O2 1_5655 5_4555 44.7(3) 36.0(4) 56.0(4)
Bi1 Pb1 O3 1_5655 5_4445 134.5(5) 131.0(6) 139.5(4)
Bi1 Pb1 O3 1_5655 5_4545 45.6(3) 41.9(3) 48.8(4)
Bi1 Pb1 O3 1_5655 5_5445 134.5(5) 131.0(6) 139.5(4)
Bi1 Pb1 O3 1_5655 5_5545 45.6(3) 41.9(3) 48.8(4)
Bi1 Pb1 Bi1 1_6555 5_4445 129.0(5) 128.2(6) 130.8(5)
Bi1 Pb1 Bi1 1_6555 5_4545 129.0(5) 128.2(6) 130.8(5)
Bi1 Pb1 Bi1 1_6555 5_5455 49.2(5) 49.2(5) 49.2(5)
Bi1 Pb1 Bi1 1_6555 5_5555 49.2(5) 49.2(5) 49.2(5)
Bi1 Pb1 O1 1_6555 1_5445 89.9(10) 88.4(10) 93.5(9)
Bi1 Pb1 O1 1_6555 1_5465 88.6(10) 88.3(11) 88.9(10)
Bi1 Pb1 O1 1_6555 1_5545 89.9(10) 88.4(10) 93.5(9)
Bi1 Pb1 O1 1_6555 1_5565 88.6(10) 88.3(11) 88.9(10)
Bi1 Pb1 O1 1_6555 5_4445 130.0(11) 115.4(10) 142.0(14)
Bi1 Pb1 O1 1_6555 5_4455 136.4(11) 119.4(10) 146.6(12)
Bi1 Pb1 O1 1_6555 5_5445 46.6(10) 36.6(10) 61.7(9)
Bi1 Pb1 O1 1_6555 5_5455 49.2(11) 41.1(12) 61.2(9)
Bi1 Pb1 O2 1_6555 1_4545 121.6(12) 118.8(12) 124.9(11)
Bi1 Pb1 O2 1_6555 5_4445 88.5(17) 85.8(14) 90(2)
Bi1 Pb1 O2 1_6555 5_4455 92.0(18) 90.8(19) 95.0(19)
Bi1 Pb1 O2 1_6555 5_4545 88.5(17) 85.8(14) 90(2)
Bi1 Pb1 O2 1_6555 5_4555 92.0(18) 90.8(19) 95.0(19)
Bi1 Pb1 O3 1_6555 5_4445 134.3(3) 132.0(4) 136.5(3)
Bi1 Pb1 O3 1_6555 5_4545 134.3(3) 132.0(4) 136.5(3)
Bi1 Pb1 O3 1_6555 5_5445 45.9(3) 43.3(3) 53.7(3)
Bi1 Pb1 O3 1_6555 5_5545 45.9(3) 43.3(3) 53.7(3)
Bi1 Pb1 Bi1 5_4445 5_4545 67.5(4) 67.5(3) 67.6(4)
Bi1 Pb1 O1 5_4445 1_5445 40.9(9) 40.2(9) 42.1(9)
Bi1 Pb1 O1 5_4445 1_5545 78.7(6) 78.2(6) 79.8(7)
Bi1 Pb1 O1 5_4445 5_4445 40.1(5) 40.1(5) 40.1(5)
Bi1 Pb1 O1 5_4445 5_4455 77.5(8) 76.5(8) 78.1(8)
Bi1 Pb1 O1 5_4445 5_5445 81.6(8) 80.9(7) 82.8(8)
Bi1 Pb1 O1 5_4445 5_5455 146.11(19) 145.7(3) 146.24(15)
Bi1 Pb1 O2 5_4445 1_4545 37.7(5) 37.3(5) 38.3(5)
Bi1 Pb1 O2 5_4445 5_4455 81.0(12) 80.4(11) 81.2(12)
Bi1 Pb1 O2 5_4445 5_4555 137(2) 134.1(19) 138(2)
Bi1 Pb1 O3 5_4445 5_4445 15.7(8) 15.7(8) 15.7(8)
Bi1 Pb1 O3 5_4445 5_4545 76.6(6) 76.6(6) 76.6(6)
Bi1 Pb1 O3 5_4445 5_5445 82.5(5) 79.7(5) 85.6(5)
Bi1 Pb1 O3 5_4445 5_5545 132.5(10) 131.1(9) 134.8(10)
Bi1 Pb1 O1 5_4545 1_5445 78.7(6) 78.2(6) 79.8(7)
Bi1 Pb1 O1 5_4545 1_5545 40.9(9) 40.2(9) 42.1(9)
Bi1 Pb1 O1 5_4545 5_4445 40.1(5) 40.1(5) 40.1(5)
Bi1 Pb1 O1 5_4545 5_4455 77.5(8) 76.5(8) 78.1(8)
Bi1 Pb1 O1 5_4545 5_5445 81.6(8) 80.9(7) 82.8(8)
Bi1 Pb1 O1 5_4545 5_5455 146.11(19) 145.7(3) 146.24(15)
Bi1 Pb1 O2 5_4545 1_4545 37.7(5) 37.3(5) 38.3(5)
Bi1 Pb1 O2 5_4545 5_4455 137(2) 134.1(19) 138(2)
Bi1 Pb1 O2 5_4545 5_4555 81.0(12) 80.4(11) 81.2(12)
Bi1 Pb1 O3 5_4545 5_4445 76.6(6) 76.6(6) 76.6(6)
Bi1 Pb1 O3 5_4545 5_4545 15.7(8) 15.7(8) 15.7(8)
Bi1 Pb1 O3 5_4545 5_5445 132.5(10) 131.1(9) 134.8(10)
Bi1 Pb1 O3 5_4545 5_5545 82.5(5) 79.7(5) 85.6(5)
Bi1 Pb1 Bi1 5_5455 5_5555 67.5(4) 67.5(3) 67.6(4)
Bi1 Pb1 O1 5_5455 1_5465 40.9(9) 40.2(9) 42.1(9)
Bi1 Pb1 O1 5_5455 1_5565 78.7(6) 78.2(6) 79.8(7)
Bi1 Pb1 O1 5_5455 5_4445 146.11(19) 145.7(3) 146.24(15)
Bi1 Pb1 O1 5_5455 5_4455 81.6(8) 80.9(7) 82.8(8)
Bi1 Pb1 O1 5_5455 5_5445 77.5(8) 76.5(8) 78.1(8)
Bi1 Pb1 O1 5_5455 5_5455 40.1(5) 40.1(5) 40.1(5)
Bi1 Pb1 O2 5_5455 1_5565 37.7(5) 37.3(5) 38.3(5)
Bi1 Pb1 O2 5_5455 5_4445 81.0(12) 80.4(11) 81.2(12)
Bi1 Pb1 O2 5_5455 5_4545 137(2) 134.1(19) 138(2)
Bi1 Pb1 O3 5_5455 5_4445 82.5(5) 79.7(5) 85.6(5)
Bi1 Pb1 O3 5_5455 5_4545 132.5(10) 131.1(9) 134.8(10)
Bi1 Pb1 O3 5_5455 5_5445 15.7(8) 15.7(8) 15.7(8)
Bi1 Pb1 O3 5_5455 5_5545 76.6(6) 76.6(6) 76.6(6)
Bi1 Pb1 O1 5_5555 1_5465 78.7(6) 78.2(6) 79.8(7)
Bi1 Pb1 O1 5_5555 1_5565 40.9(9) 40.2(9) 42.1(9)
Bi1 Pb1 O1 5_5555 5_4445 146.11(19) 145.7(3) 146.24(15)
Bi1 Pb1 O1 5_5555 5_4455 81.6(8) 80.9(7) 82.8(8)
Bi1 Pb1 O1 5_5555 5_5445 77.5(8) 76.5(8) 78.1(8)
Bi1 Pb1 O1 5_5555 5_5455 40.1(5) 40.1(5) 40.1(5)
Bi1 Pb1 O2 5_5555 1_5565 37.7(5) 37.3(5) 38.3(5)
Bi1 Pb1 O2 5_5555 5_4445 137(2) 134.1(19) 138(2)
Bi1 Pb1 O2 5_5555 5_4545 81.0(12) 80.4(11) 81.2(12)
Bi1 Pb1 O3 5_5555 5_4445 132.5(10) 131.1(9) 134.8(10)
Bi1 Pb1 O3 5_5555 5_4545 82.5(5) 79.7(5) 85.6(5)
Bi1 Pb1 O3 5_5555 5_5445 76.6(6) 76.6(6) 76.6(6)
Bi1 Pb1 O3 5_5555 5_5545 15.7(8) 15.7(8) 15.7(8)
O1 Pb1 O1 1_5445 1_5545 61.7(4) 60.2(3) 65.2(5)
O1 Pb1 O1 1_5445 5_4445 41.1(6) 39.9(6) 42.2(6)
O1 Pb1 O1 1_5445 5_4455 118.8(10) 116.7(10) 119.7(10)
O1 Pb1 O1 1_5445 5_5445 43.4(7) 42.1(7) 46.6(7)
O1 Pb1 O1 1_5445 5_5455 125.1(11) 122.8(11) 130.3(12)
O1 Pb1 O2 1_5445 1_4545 41.8(8) 41.5(8) 42.2(9)
O1 Pb1 O2 1_5445 5_4455 96.0(3) 94.2(3) 98.1(3)
O1 Pb1 O2 1_5445 5_4555 157.4(6) 156.5(5) 159.5(7)
O1 Pb1 O3 1_5445 5_4445 54.6(8) 54.3(8) 54.8(8)
O1 Pb1 O3 1_5445 5_4545 97.3(9) 94.9(9) 99.5(10)
O1 Pb1 O3 1_5445 5_5445 56.8(9) 53.8(10) 60.3(8)
O1 Pb1 O3 1_5445 5_5545 100.5(10) 99.0(9) 104.1(10)
O1 Pb1 O1 1_5465 1_5565 61.7(4) 60.2(3) 65.2(5)
O1 Pb1 O1 1_5465 5_4445 125.1(11) 122.8(11) 130.3(12)
O1 Pb1 O1 1_5465 5_4455 43.4(7) 42.1(7) 46.6(7)
O1 Pb1 O1 1_5465 5_5445 118.8(10) 116.7(10) 119.7(10)
O1 Pb1 O1 1_5465 5_5455 41.1(6) 39.9(6) 42.2(6)
O1 Pb1 O2 1_5465 1_5565 41.8(8) 41.5(8) 42.2(9)
O1 Pb1 O2 1_5465 5_4445 96.0(3) 94.2(3) 98.1(3)
O1 Pb1 O2 1_5465 5_4545 157.4(6) 156.5(5) 159.5(7)
O1 Pb1 O3 1_5465 5_4445 56.8(9) 53.8(10) 60.3(8)
O1 Pb1 O3 1_5465 5_4545 100.5(10) 99.0(9) 104.1(10)
O1 Pb1 O3 1_5465 5_5445 54.6(8) 54.3(8) 54.8(8)
O1 Pb1 O3 1_5465 5_5545 97.3(9) 94.9(9) 99.5(10)
O1 Pb1 O1 1_5545 5_4445 41.1(6) 39.9(6) 42.2(6)
O1 Pb1 O1 1_5545 5_4455 118.8(10) 116.7(10) 119.7(10)
O1 Pb1 O1 1_5545 5_5445 43.4(7) 42.1(7) 46.6(7)
O1 Pb1 O1 1_5545 5_5455 125.1(11) 122.8(11) 130.3(12)
O1 Pb1 O2 1_5545 1_4545 41.8(8) 41.5(8) 42.2(9)
O1 Pb1 O2 1_5545 5_4455 157.4(6) 156.5(5) 159.5(7)
O1 Pb1 O2 1_5545 5_4555 96.0(3) 94.2(3) 98.1(3)
O1 Pb1 O3 1_5545 5_4445 97.3(9) 94.9(9) 99.5(10)
O1 Pb1 O3 1_5545 5_4545 54.6(8) 54.3(8) 54.8(8)
O1 Pb1 O3 1_5545 5_5445 100.5(10) 99.0(9) 104.1(10)
O1 Pb1 O3 1_5545 5_5545 56.8(9) 53.8(10) 60.3(8)
O1 Pb1 O1 1_5565 5_4445 125.1(11) 122.8(11) 130.3(12)
O1 Pb1 O1 1_5565 5_4455 43.4(7) 42.1(7) 46.6(7)
O1 Pb1 O1 1_5565 5_5445 118.8(10) 116.7(10) 119.7(10)
O1 Pb1 O1 1_5565 5_5455 41.1(6) 39.9(6) 42.2(6)
O1 Pb1 O2 1_5565 1_5565 41.8(8) 41.5(8) 42.2(9)
O1 Pb1 O2 1_5565 5_4445 157.4(6) 156.5(5) 159.5(7)
O1 Pb1 O2 1_5565 5_4545 96.0(3) 94.2(3) 98.1(3)
O1 Pb1 O3 1_5565 5_4445 100.5(10) 99.0(9) 104.1(10)
O1 Pb1 O3 1_5565 5_4545 56.8(9) 53.8(10) 60.3(8)
O1 Pb1 O3 1_5565 5_5445 97.3(9) 94.9(9) 99.5(10)
O1 Pb1 O3 1_5565 5_5545 54.6(8) 54.3(8) 54.8(8)
O1 Pb1 O1 5_4445 5_4455 95.8(12) 93.1(10) 106.2(14)
O1 Pb1 O1 5_4445 5_5445 87.3(12) 58.2(9) 105.4(14)
O1 Pb1 O1 5_4445 5_5455 165.8(12) 156.8(14) 180.0(5)
O1 Pb1 O2 5_4445 1_5565 164.6(16) 160.5(16) 169.4(16)
O1 Pb1 O2 5_4445 5_4445 60.0(15) 46.3(11) 69.4(17)
O1 Pb1 O2 5_4445 5_4455 121.9(13) 119.5(14) 123.6(14)
O1 Pb1 O2 5_4445 5_4545 60.0(15) 46.3(11) 69.4(17)
O1 Pb1 O2 5_4445 5_4555 121.9(13) 119.5(14) 123.6(14)
O1 Pb1 O3 5_4445 5_4445 62.1(8) 55.1(8) 77.2(10)
O1 Pb1 O3 5_4445 5_4545 62.1(8) 55.1(8) 77.2(10)
O1 Pb1 O3 5_4445 5_5445 118.1(8) 96.4(9) 136.0(7)
O1 Pb1 O3 5_4445 5_5545 118.1(8) 96.4(9) 136.0(7)
O1 Pb1 O1 5_4455 5_5445 164.1(12) 153.7(10) 180.0(5)
O1 Pb1 O1 5_4455 5_5455 87.3(12) 58.2(10) 105.4(16)
O1 Pb1 O2 5_4455 1_4545 92.8(12) 90.5(12) 94.8(13)
O1 Pb1 O2 5_4455 1_5565 61.7(11) 60.8(12) 63.2(11)
O1 Pb1 O2 5_4455 5_4445 122.0(14) 119.9(14) 126.3(11)
O1 Pb1 O2 5_4455 5_4455 60.2(15) 45.1(12) 69.3(18)
O1 Pb1 O2 5_4455 5_4545 122.0(14) 119.9(14) 126.3(11)
O1 Pb1 O2 5_4455 5_4555 60.2(15) 45.1(12) 69.3(18)
O1 Pb1 O3 5_4455 5_4445 60.9(8) 57.4(8) 66.1(9)
O1 Pb1 O3 5_4455 5_4545 60.9(8) 57.4(8) 66.1(9)
O1 Pb1 O3 5_4455 5_5445 119.3(8) 96.6(9) 132.8(7)
O1 Pb1 O3 5_4455 5_5545 119.3(8) 96.6(9) 132.8(7)
O1 Pb1 O1 5_5445 5_5455 95.8(12) 93.1(11) 106.2(14)
O1 Pb1 O2 5_5445 1_4545 61.7(11) 60.8(12) 63.2(11)
O1 Pb1 O2 5_5445 1_5565 92.8(12) 90.5(12) 94.8(13)
O1 Pb1 O2 5_5445 5_4445 60.2(15) 45.1(12) 69.3(18)
O1 Pb1 O2 5_5445 5_4455 122.0(14) 119.9(14) 126.3(11)
O1 Pb1 O2 5_5445 5_4545 60.2(15) 45.1(12) 69.3(18)
O1 Pb1 O2 5_5445 5_4555 122.0(14) 119.9(14) 126.3(11)
O1 Pb1 O3 5_5445 5_4445 119.3(8) 96.6(9) 132.8(7)
O1 Pb1 O3 5_5445 5_4545 119.3(8) 96.6(9) 132.8(7)
O1 Pb1 O3 5_5445 5_5445 60.9(8) 57.4(8) 66.1(9)
O1 Pb1 O3 5_5445 5_5545 60.9(8) 57.4(8) 66.1(9)
O1 Pb1 O2 5_5455 1_4545 164.6(16) 160.5(16) 169.4(16)
O1 Pb1 O2 5_5455 5_4445 121.9(13) 119.5(14) 123.6(14)
O1 Pb1 O2 5_5455 5_4455 60.0(15) 46.3(11) 69.4(17)
O1 Pb1 O2 5_5455 5_4545 121.9(13) 119.5(14) 123.6(14)
O1 Pb1 O2 5_5455 5_4555 60.0(15) 46.3(11) 69.4(17)
O1 Pb1 O3 5_5455 5_4445 118.1(8) 96.4(9) 136.0(7)
O1 Pb1 O3 5_5455 5_4545 118.1(8) 96.4(9) 136.0(7)
O1 Pb1 O3 5_5455 5_5445 62.1(8) 55.1(8) 77.2(10)
O1 Pb1 O3 5_5455 5_5545 62.1(8) 55.1(8) 77.2(10)
O2 Pb1 O2 1_4545 5_4455 118.6(12) 117.6(13) 119.5(12)
O2 Pb1 O2 1_4545 5_4555 118.6(12) 117.6(13) 119.5(12)
O2 Pb1 O3 1_4545 5_5445 96.7(10) 96.0(10) 97.6(10)
O2 Pb1 O3 1_4545 5_5545 96.7(10) 96.0(10) 97.6(10)
O2 Pb1 O2 1_5565 5_4445 118.6(12) 117.6(13) 119.5(12)
O2 Pb1 O2 1_5565 5_4545 118.6(12) 117.6(13) 119.5(12)
O2 Pb1 O3 1_5565 5_4445 96.7(10) 96.0(10) 97.6(10)
O2 Pb1 O3 1_5565 5_4545 96.7(10) 96.0(10) 97.6(10)
O2 Pb1 O2 5_4445 5_4455 95.16(19) 93.3(3) 96.53(14)
O2 Pb1 O2 5_4445 5_4545 90.5(5) 68.0(4) 107.7(8)
O2 Pb1 O2 5_4445 5_4555 169.3(5) 161.2(7) 180.0(5)
O2 Pb1 O3 5_4445 5_4445 62.4(11) 57.2(11) 69.3(11)
O2 Pb1 O3 5_4445 5_4545 122.5(12) 103.9(12) 144.6(13)
O2 Pb1 O3 5_4445 5_5445 62.6(10) 57.4(11) 67.5(14)
O2 Pb1 O3 5_4445 5_5545 120.8(12) 103.0(12) 133.9(17)
O2 Pb1 O2 5_4455 5_4545 169.3(5) 161.2(7) 180.0(5)
O2 Pb1 O2 5_4455 5_4555 90.5(5) 68.0(4) 107.7(8)
O2 Pb1 O3 5_4455 5_4445 62.6(10) 57.4(11) 67.5(14)
O2 Pb1 O3 5_4455 5_4545 120.8(12) 103.0(12) 133.9(17)
O2 Pb1 O3 5_4455 5_5445 62.4(11) 57.2(11) 69.3(11)
O2 Pb1 O3 5_4455 5_5545 122.5(12) 103.9(12) 144.6(13)
O2 Pb1 O2 5_4545 5_4555 95.16(19) 93.3(3) 96.53(14)
O2 Pb1 O3 5_4545 5_4445 122.5(12) 103.9(12) 144.6(13)
O2 Pb1 O3 5_4545 5_4545 62.4(11) 57.2(11) 69.3(11)
O2 Pb1 O3 5_4545 5_5445 120.8(12) 103.0(12) 133.9(17)
O2 Pb1 O3 5_4545 5_5545 62.6(10) 57.4(11) 67.5(14)
O2 Pb1 O3 5_4555 5_4445 120.8(12) 103.0(12) 133.9(17)
O2 Pb1 O3 5_4555 5_4545 62.6(10) 57.4(11) 67.5(14)
O2 Pb1 O3 5_4555 5_5445 122.5(12) 103.9(12) 144.6(13)
O2 Pb1 O3 5_4555 5_5545 62.4(11) 57.2(11) 69.3(11)
O3 Pb1 O3 5_4445 5_4545 88.9(5) 82.2(5) 97.7(5)
O3 Pb1 O3 5_4445 5_5445 89.2(2) 86.9(4) 90.54(15)
O3 Pb1 O3 5_4445 5_5545 164.7(11) 150.5(11) 180.0(5)
O3 Pb1 O3 5_4545 5_5445 164.7(11) 150.5(11) 180.0(5)
O3 Pb1 O3 5_4545 5_5545 89.2(2) 86.9(4) 90.54(15)
O3 Pb1 O3 5_5445 5_5545 88.9(5) 82.2(5) 97.7(5)
Fe1 Bi1 Fe1 1_4555 1_5545 96.7(3) 94.2(3) 99.5(4)
Fe1 Bi1 Fe1 1_4555 . 64.9(12) 64.9(12) 64.9(12)
Fe1 Bi1 Fe1 1_4555 5_4455 47.2(3) 45.8(2) 48.0(3)
Fe1 Bi1 Fe1 1_4555 5_4555 47.2(3) 45.8(2) 48.0(3)
Fe1 Bi1 Fe1 1_4555 5_5445 125.1(4) 123.3(3) 127.2(4)
Fe1 Bi1 Fe1 1_4555 5_5455 116.2(4) 113.0(3) 118.5(4)
Fe1 Bi1 Fe1 1_4555 5_5545 125.1(4) 123.3(3) 127.2(4)
Fe1 Bi1 Fe1 1_4555 5_5555 116.2(4) 113.0(3) 118.5(4)
Fe1 Bi1 Pb1 1_4555 1_5455 90.4(4) 90.3(5) 90.6(4)
Fe1 Bi1 Pb1 1_4555 . 140(50) 140(30) 140(70)
Fe1 Bi1 Pb1 1_4555 1_5655 90.4(4) 90.3(5) 90.6(4)
Fe1 Bi1 Pb1 1_4555 1_6555 171.6(5) 170.1(5) 172.3(6)
Fe1 Bi1 Pb1 1_4555 5_4445 56.9(5) 56.0(4) 57.4(5)
Fe1 Bi1 Pb1 1_4555 5_4545 56.9(5) 56.0(4) 57.4(5)
Fe1 Bi1 Pb1 1_4555 5_5445 122.2(5) 122.2(5) 122.2(5)
Fe1 Bi1 Pb1 1_4555 5_5545 122.2(5) 122.2(5) 122.2(5)
Fe1 Bi1 Bi1 1_4555 1_5455 90.0(4) 90.0(4) 90.0(4)
Fe1 Bi1 Bi1 1_4555 1_5655 90.0(4) 90.0(4) 90.0(4)
Fe1 Bi1 Bi1 1_4555 1_6555 171.5(5) 169.9(5) 172.3(6)
Fe1 Bi1 Bi1 1_4555 5_4445 57.5(5) 56.3(4) 58.1(5)
Fe1 Bi1 Bi1 1_4555 5_4545 57.5(5) 56.3(4) 58.1(5)
Fe1 Bi1 Bi1 1_4555 5_5445 122.6(5) 122.6(5) 122.6(5)
Fe1 Bi1 Bi1 1_4555 5_5545 122.6(5) 122.6(5) 122.6(5)
Fe1 Bi1 O1 1_4555 1_5445 96.5(9) 94.8(9) 98.1(9)
Fe1 Bi1 O1 1_4555 1_5455 73.1(13) 73.1(13) 73.1(13)
Fe1 Bi1 O1 1_4555 1_5545 96.5(9) 94.8(9) 98.1(9)
Fe1 Bi1 O1 1_4555 . 73.1(13) 73.1(13) 73.1(13)
Fe1 Bi1 O1 1_4555 5_4455 25.4(9) 24.9(9) 25.7(9)
Fe1 Bi1 O1 1_4555 5_5445 128.9(9) 128.2(8) 130.2(9)
Fe1 Bi1 O1 1_4555 5_5455 128.6(13) 125.1(14) 130.7(13)
Fe1 Bi1 O2 1_4555 1_4545 67.1(11) 64.6(11) 69.7(11)
Fe1 Bi1 O2 1_4555 1_5545 124.2(11) 124.2(11) 124.2(11)
Fe1 Bi1 O2 1_4555 5_4455 81.3(19) 79.8(19) 82(2)
Fe1 Bi1 O2 1_4555 5_4555 81.3(19) 79.8(19) 82(2)
Fe1 Bi1 O3 1_4555 1_4545 25.9(6) 24.9(5) 26.8(6)
Fe1 Bi1 O3 1_4555 1_5545 88.3(8) 88.3(8) 88.3(8)
Fe1 Bi1 O3 1_4555 5_5445 132.1(3) 129.8(2) 134.1(3)
Fe1 Bi1 O3 1_4555 5_5545 132.1(3) 129.8(2) 134.1(3)
Fe1 Bi1 Fe1 1_5545 . 159.1(13) 159.1(13) 159.1(13)
Fe1 Bi1 Fe1 1_5545 5_4445 48.2(3) 46.6(3) 49.7(4)
Fe1 Bi1 Fe1 1_5545 5_4455 125.2(4) 121.8(3) 127.1(6)
Fe1 Bi1 Fe1 1_5545 5_4545 48.2(3) 46.6(3) 49.7(4)
Fe1 Bi1 Fe1 1_5545 5_4555 125.2(4) 121.8(3) 127.1(6)
Fe1 Bi1 Fe1 1_5545 5_5445 47.3(3) 46.8(3) 48.2(4)
Fe1 Bi1 Fe1 1_5545 5_5455 125.1(4) 120.2(6) 132.5(3)
Fe1 Bi1 Fe1 1_5545 5_5545 47.3(3) 46.8(3) 48.2(4)
Fe1 Bi1 Fe1 1_5545 5_5555 125.1(4) 120.2(6) 132.5(3)
Fe1 Bi1 Pb1 1_5545 1_4555 90.3(6) 88.1(6) 92.2(6)
Fe1 Bi1 Pb1 1_5545 1_5455 89.7(5) 89.4(4) 90.0(5)
Fe1 Bi1 Pb1 1_5545 . 40(130) 40(60) 100(400)
Fe1 Bi1 Pb1 1_5545 1_5565 176.8(6) 171.8(5) 179.5(6)
Fe1 Bi1 Pb1 1_5545 1_5655 89.7(5) 89.4(4) 90.0(5)
Fe1 Bi1 Pb1 1_5545 1_6555 89.1(5) 84.7(6) 95.7(5)
Fe1 Bi1 Pb1 1_5545 5_4445 56.0(5) 55.1(4) 57.7(5)
Fe1 Bi1 Pb1 1_5545 5_4545 56.0(5) 55.1(4) 57.7(5)
Fe1 Bi1 Pb1 1_5545 5_5445 56.2(5) 56.2(5) 56.2(5)
Fe1 Bi1 Pb1 1_5545 5_5545 56.2(5) 56.2(5) 56.2(5)
Fe1 Bi1 Bi1 1_5545 1_4555 90.8(6) 88.8(6) 92.5(6)
Fe1 Bi1 Bi1 1_5545 1_5455 90.0(5) 90.0(4) 90.0(4)
Fe1 Bi1 Bi1 1_5545 1_5565 176.8(6) 171.8(5) 179.5(6)
Fe1 Bi1 Bi1 1_5545 1_5655 90.0(5) 90.0(4) 90.0(4)
Fe1 Bi1 Bi1 1_5545 1_6555 89.1(5) 84.7(6) 96.0(5)
Fe1 Bi1 Bi1 1_5545 5_4445 55.9(5) 54.8(4) 58.1(5)
Fe1 Bi1 Bi1 1_5545 5_4545 55.9(5) 54.8(4) 58.1(5)
Fe1 Bi1 Bi1 1_5545 5_5445 55.8(5) 55.8(5) 55.8(5)
Fe1 Bi1 Bi1 1_5545 5_5545 55.8(5) 55.8(5) 55.8(5)
Fe1 Bi1 O1 1_5545 1_5445 30.7(3) 29.9(3) 32.9(4)
Fe1 Bi1 O1 1_5545 1_5455 125.0(7) 125.0(7) 125.0(7)
Fe1 Bi1 O1 1_5545 1_5545 30.7(3) 29.9(3) 32.9(4)
Fe1 Bi1 O1 1_5545 . 125.0(7) 125.0(7) 125.0(7)
Fe1 Bi1 O1 1_5545 5_4445 30.4(9) 27.6(9) 32.9(9)
Fe1 Bi1 O1 1_5545 5_4455 124.6(11) 119.1(9) 129.3(12)
Fe1 Bi1 O1 1_5545 5_5445 31.1(9) 30.3(9) 33.1(8)
Fe1 Bi1 O1 1_5545 5_5455 131.2(13) 125.9(14) 140.7(14)
Fe1 Bi1 O2 1_5545 1_4545 29.6(11) 29.5(11) 29.8(11)
Fe1 Bi1 O2 1_5545 1_5545 30.0(11) 30.0(11) 30.0(11)
Fe1 Bi1 O2 1_5545 5_4455 126.4(4) 125.9(4) 127.4(3)
Fe1 Bi1 O2 1_5545 5_4555 126.4(4) 125.9(4) 127.4(3)
Fe1 Bi1 O3 1_5545 1_4545 70.8(6) 69.3(6) 72.8(6)
Fe1 Bi1 O3 1_5545 1_5545 5.9(8) 5.9(8) 5.9(8)
Fe1 Bi1 O3 1_5545 5_4445 76.2(9) 73.6(8) 78.8(10)
Fe1 Bi1 O3 1_5545 5_4545 76.2(9) 73.6(8) 78.8(10)
Fe1 Bi1 O3 1_5545 5_5445 76.5(9) 75.6(9) 78.1(10)
Fe1 Bi1 O3 1_5545 5_5545 76.5(9) 75.6(9) 78.1(10)
Fe1 Bi1 Fe1 . 1_5565 159.1(8) 159.1(8) 159.1(8)
Fe1 Bi1 Fe1 . 5_4445 61.7(5) 61.7(5) 61.7(5)
Fe1 Bi1 Fe1 . 5_4455 43.2(4) 43.2(4) 43.2(4)
Fe1 Bi1 Fe1 . 5_4545 61.7(5) 61.7(5) 61.7(5)
Fe1 Bi1 Fe1 . 5_4555 43.2(4) 43.2(4) 43.2(4)
Fe1 Bi1 Fe1 . 5_5445 43.2(4) 43.2(4) 43.2(4)
Fe1 Bi1 Fe1 . 5_5455 61.7(5) 61.7(5) 61.7(5)
Fe1 Bi1 Fe1 . 5_5545 43.2(4) 43.2(4) 43.2(4)
Fe1 Bi1 Fe1 . 5_5555 61.7(5) 61.7(5) 61.7(5)
Fe1 Bi1 Pb1 . 1_4555 105.2(8) 105.2(8) 105.2(8)
Fe1 Bi1 Pb1 . 1_6555 105.2(8) 105.2(8) 105.2(8)
Fe1 Bi1 Pb1 . 5_4445 108.7(7) 108.7(7) 108.7(7)
Fe1 Bi1 Pb1 . 5_4455 134.1(5) 134.1(5) 134.1(5)
Fe1 Bi1 Pb1 . 5_4545 108.7(7) 108.7(7) 108.7(7)
Fe1 Bi1 Pb1 . 5_4555 134.1(5) 134.1(5) 134.1(5)
Fe1 Bi1 Pb1 . 5_5445 134.1(5) 134.1(5) 134.1(5)
Fe1 Bi1 Pb1 . 5_5455 108.7(7) 108.7(7) 108.7(7)
Fe1 Bi1 Pb1 . 5_5545 134.1(5) 134.1(5) 134.1(5)
Fe1 Bi1 Pb1 . 5_5555 108.7(7) 108.7(7) 108.7(7)
Fe1 Bi1 Bi1 . 1_4555 104.9(8) 104.9(8) 104.9(8)
Fe1 Bi1 Bi1 . 1_5455 90.0(4) 90.0(4) 90.0(4)
Fe1 Bi1 Bi1 . 1_5655 90.0(4) 90.0(4) 90.0(4)
Fe1 Bi1 Bi1 . 1_6555 104.9(8) 104.9(8) 104.9(8)
Fe1 Bi1 Bi1 . 5_4445 109.0(7) 109.0(7) 109.0(7)
Fe1 Bi1 Bi1 . 5_4455 134.7(5) 134.7(5) 134.7(5)
Fe1 Bi1 Bi1 . 5_4545 109.0(7) 109.0(7) 109.0(7)
Fe1 Bi1 Bi1 . 5_4555 134.7(5) 134.7(5) 134.7(5)
Fe1 Bi1 Bi1 . 5_5445 134.7(5) 134.7(5) 134.7(5)
Fe1 Bi1 Bi1 . 5_5455 109.0(7) 109.0(7) 109.0(7)
Fe1 Bi1 Bi1 . 5_5545 134.7(5) 134.7(5) 134.7(5)
Fe1 Bi1 Bi1 . 5_5555 109.0(7) 109.0(7) 109.0(7)
Fe1 Bi1 O1 . 1_5445 144.5(7) 144.5(7) 144.5(7)
Fe1 Bi1 O1 . 1_5455 51.3(7) 51.3(7) 51.3(7)
Fe1 Bi1 O1 . 1_5465 144.5(7) 144.5(7) 144.5(7)
Fe1 Bi1 O1 . 1_5545 144.5(7) 144.5(7) 144.5(7)
Fe1 Bi1 O1 . . 51.3(7) 51.3(7) 51.3(7)
Fe1 Bi1 O1 . 1_5565 144.5(7) 144.5(7) 144.5(7)
Fe1 Bi1 O1 . 5_4445 60.2(15) 60.2(15) 60.2(15)
Fe1 Bi1 O1 . 5_4455 40.0(11) 40.0(11) 40.0(11)
Fe1 Bi1 O1 . 5_5445 40.0(11) 40.0(11) 40.0(11)
Fe1 Bi1 O1 . 5_5455 60.2(15) 60.2(15) 60.2(15)
Fe1 Bi1 O2 . 1_4545 129.5(13) 129.5(13) 129.5(13)
Fe1 Bi1 O2 . 1_4565 170.8(14) 170.8(14) 170.8(14)
Fe1 Bi1 O2 . 1_5545 170.8(14) 170.8(14) 170.8(14)
Fe1 Bi1 O2 . 1_5565 129.5(13) 129.5(13) 129.5(13)
Fe1 Bi1 O3 . 1_5545 153.3(13) 153.3(13) 153.3(13)
Fe1 Bi1 O3 . . 153.3(13) 153.3(13) 153.3(13)
Fe1 Bi1 Fe1 1_5565 1_6555 96.7(4) 94.2(3) 99.5(4)
Fe1 Bi1 Fe1 1_5565 5_4445 125.1(4) 120.2(6) 132.5(3)
Fe1 Bi1 Fe1 1_5565 5_4455 47.3(3) 46.8(3) 48.2(4)
Fe1 Bi1 Fe1 1_5565 5_4545 125.1(4) 120.2(6) 132.5(3)
Fe1 Bi1 Fe1 1_5565 5_4555 47.3(3) 46.8(3) 48.2(4)
Fe1 Bi1 Fe1 1_5565 5_5445 125.2(4) 121.8(3) 127.1(6)
Fe1 Bi1 Fe1 1_5565 5_5455 48.2(3) 46.6(3) 49.7(4)
Fe1 Bi1 Fe1 1_5565 5_5545 125.2(4) 121.8(3) 127.1(6)
Fe1 Bi1 Fe1 1_5565 5_5555 48.2(3) 46.6(3) 49.7(4)
Fe1 Bi1 Pb1 1_5565 1_4555 89.1(5) 84.7(6) 95.7(5)
Fe1 Bi1 Pb1 1_5565 1_5455 89.7(5) 89.4(4) 90.0(5)
Fe1 Bi1 Pb1 1_5565 1_5545 176.8(6) 171.8(5) 179.5(6)
Fe1 Bi1 Pb1 1_5565 . 40(130) 40(60) 100(400)
Fe1 Bi1 Pb1 1_5565 1_5655 89.7(5) 89.4(4) 90.0(5)
Fe1 Bi1 Pb1 1_5565 1_6555 90.3(6) 88.1(6) 92.2(6)
Fe1 Bi1 Pb1 1_5565 5_4455 56.2(5) 56.2(5) 56.2(5)
Fe1 Bi1 Pb1 1_5565 5_4555 56.2(5) 56.2(5) 56.2(5)
Fe1 Bi1 Pb1 1_5565 5_5455 56.0(5) 55.1(4) 57.7(5)
Fe1 Bi1 Pb1 1_5565 5_5555 56.0(5) 55.1(4) 57.7(5)
Fe1 Bi1 Bi1 1_5565 1_4555 89.1(5) 84.7(6) 96.0(5)
Fe1 Bi1 Bi1 1_5565 1_5455 90.0(5) 90.0(5) 90.0(5)
Fe1 Bi1 Bi1 1_5565 1_5545 176.8(6) 171.8(5) 179.5(6)
Fe1 Bi1 Bi1 1_5565 1_5655 90.0(5) 90.0(5) 90.0(5)
Fe1 Bi1 Bi1 1_5565 1_6555 90.8(6) 88.8(6) 92.5(6)
Fe1 Bi1 Bi1 1_5565 5_4455 55.8(5) 55.8(5) 55.8(5)
Fe1 Bi1 Bi1 1_5565 5_4555 55.8(5) 55.8(5) 55.8(5)
Fe1 Bi1 Bi1 1_5565 5_5455 55.9(5) 54.8(4) 58.1(5)
Fe1 Bi1 Bi1 1_5565 5_5555 55.9(5) 54.8(4) 58.1(5)
Fe1 Bi1 O1 1_5565 1_5455 125.0(7) 125.0(7) 125.0(7)
Fe1 Bi1 O1 1_5565 1_5465 30.7(3) 29.9(3) 32.9(4)
Fe1 Bi1 O1 1_5565 . 125.0(7) 125.0(7) 125.0(7)
Fe1 Bi1 O1 1_5565 1_5565 30.7(3) 29.9(3) 32.9(4)
Fe1 Bi1 O1 1_5565 5_4445 131.2(13) 125.9(14) 140.7(14)
Fe1 Bi1 O1 1_5565 5_4455 31.1(9) 30.3(9) 33.1(8)
Fe1 Bi1 O1 1_5565 5_5445 124.6(11) 119.1(9) 129.3(12)
Fe1 Bi1 O1 1_5565 5_5455 30.4(9) 27.6(9) 32.9(9)
Fe1 Bi1 O2 1_5565 1_4565 30.0(11) 30.0(11) 30.0(11)
Fe1 Bi1 O2 1_5565 1_5565 29.6(11) 29.5(11) 29.8(11)
Fe1 Bi1 O2 1_5565 5_4445 126.4(4) 125.9(4) 127.4(3)
Fe1 Bi1 O2 1_5565 5_4545 126.4(4) 125.9(4) 127.4(3)
Fe1 Bi1 O3 1_5565 . 5.9(8) 5.9(8) 5.9(8)
Fe1 Bi1 O3 1_5565 1_6555 70.8(6) 69.3(6) 72.8(6)
Fe1 Bi1 O3 1_5565 5_4445 76.5(9) 75.6(9) 78.1(10)
Fe1 Bi1 O3 1_5565 5_4545 76.5(9) 75.6(9) 78.1(10)
Fe1 Bi1 O3 1_5565 5_5445 76.2(9) 73.6(8) 78.8(10)
Fe1 Bi1 O3 1_5565 5_5545 76.2(9) 73.6(8) 78.8(10)
Fe1 Bi1 Fe1 1_6555 5_4445 116.2(4) 113.0(3) 118.5(4)
Fe1 Bi1 Fe1 1_6555 5_4455 125.1(4) 123.3(3) 127.2(4)
Fe1 Bi1 Fe1 1_6555 5_4545 116.2(4) 113.0(3) 118.5(4)
Fe1 Bi1 Fe1 1_6555 5_4555 125.1(4) 123.3(3) 127.2(4)
Fe1 Bi1 Fe1 1_6555 5_5445 47.2(3) 45.8(2) 48.0(3)
Fe1 Bi1 Fe1 1_6555 5_5545 47.2(3) 45.8(2) 48.0(3)
Fe1 Bi1 Pb1 1_6555 1_4555 171.6(5) 170.1(5) 172.3(6)
Fe1 Bi1 Pb1 1_6555 1_5455 90.4(4) 90.3(5) 90.6(4)
Fe1 Bi1 Pb1 1_6555 . 140(50) 140(30) 140(70)
Fe1 Bi1 Pb1 1_6555 1_5655 90.4(4) 90.3(5) 90.6(4)
Fe1 Bi1 Pb1 1_6555 5_4455 122.2(5) 122.2(5) 122.2(5)
Fe1 Bi1 Pb1 1_6555 5_4555 122.2(5) 122.2(5) 122.2(5)
Fe1 Bi1 Pb1 1_6555 5_5455 56.9(5) 56.0(4) 57.4(5)
Fe1 Bi1 Pb1 1_6555 5_5555 56.9(5) 56.0(4) 57.4(5)
Fe1 Bi1 Bi1 1_6555 1_4555 171.5(5) 169.9(5) 172.3(6)
Fe1 Bi1 Bi1 1_6555 1_5455 90.0(4) 90.0(5) 90.0(5)
Fe1 Bi1 Bi1 1_6555 1_5655 90.0(4) 90.0(5) 90.0(5)
Fe1 Bi1 Bi1 1_6555 5_4455 122.6(5) 122.6(5) 122.6(5)
Fe1 Bi1 Bi1 1_6555 5_4555 122.6(5) 122.6(5) 122.6(5)
Fe1 Bi1 Bi1 1_6555 5_5455 57.5(5) 56.3(4) 58.1(5)
Fe1 Bi1 Bi1 1_6555 5_5555 57.5(5) 56.3(4) 58.1(5)
Fe1 Bi1 O1 1_6555 1_5455 73.1(13) 73.1(13) 73.1(13)
Fe1 Bi1 O1 1_6555 1_5465 96.5(9) 94.8(9) 98.1(9)
Fe1 Bi1 O1 1_6555 . 73.1(13) 73.1(13) 73.1(13)
Fe1 Bi1 O1 1_6555 1_5565 96.5(9) 94.8(9) 98.1(9)
Fe1 Bi1 O1 1_6555 5_4445 128.6(13) 125.1(14) 130.7(13)
Fe1 Bi1 O1 1_6555 5_4455 128.9(9) 128.2(8) 130.2(9)
Fe1 Bi1 O1 1_6555 5_5445 25.4(9) 24.9(9) 25.7(9)
Fe1 Bi1 O2 1_6555 1_4565 124.2(11) 124.2(11) 124.2(11)
Fe1 Bi1 O2 1_6555 1_5565 67.1(11) 64.6(11) 69.7(11)
Fe1 Bi1 O2 1_6555 5_4445 81.3(19) 79.8(19) 82(2)
Fe1 Bi1 O2 1_6555 5_4545 81.3(19) 79.8(19) 82(2)
Fe1 Bi1 O3 1_6555 . 88.3(8) 88.3(8) 88.3(8)
Fe1 Bi1 O3 1_6555 1_6555 25.9(6) 24.9(5) 26.8(6)
Fe1 Bi1 O3 1_6555 5_4445 132.1(3) 129.8(2) 134.1(3)
Fe1 Bi1 O3 1_6555 5_4545 132.1(3) 129.8(2) 134.1(3)
Fe1 Bi1 Fe1 5_4445 5_4455 73.6(3) 69.0(3) 83.7(3)
Fe1 Bi1 Fe1 5_4445 5_4545 69.8(3) 60.7(3) 72.5(3)
Fe1 Bi1 Fe1 5_4445 5_4555 111.1(5) 106.6(5) 122.0(4)
Fe1 Bi1 Fe1 5_4445 5_5445 69.6(3) 61.6(3) 72.9(3)
Fe1 Bi1 Fe1 5_4445 5_5455 110.16(18) 108.89(18) 112.90(18)
Fe1 Bi1 Fe1 5_4445 5_5545 107.3(5) 93.7(4) 113.2(6)
Fe1 Bi1 Fe1 5_4445 5_5555 172.9(6) 169.6(7) 180.0(5)
Fe1 Bi1 Pb1 5_4445 1_4555 56.5(4) 53.9(4) 59.6(4)
Fe1 Bi1 Pb1 5_4445 1_5455 55.1(4) 53.8(4) 59.6(4)
Fe1 Bi1 Pb1 5_4445 1_5545 55.2(4) 52.4(4) 57.3(4)
Fe1 Bi1 Pb1 5_4445 . 100(400) 0 100(1100)
Fe1 Bi1 Pb1 5_4445 1_5565 126.2(4) 117.7(6) 133.8(5)
Fe1 Bi1 Pb1 5_4445 1_5655 124.9(5) 120.3(5) 126.4(5)
Fe1 Bi1 Pb1 5_4445 1_6555 123.6(5) 118.9(6) 128.0(6)
Fe1 Bi1 Pb1 5_4445 5_4455 76.3(5) 76.3(5) 76.3(5)
Fe1 Bi1 Pb1 5_4445 5_4555 123.6(6) 123.6(6) 123.6(6)
Fe1 Bi1 Pb1 5_4445 5_5455 109.6(3) 108.9(3) 110.0(3)
Fe1 Bi1 Pb1 5_4445 5_5555 173.1(6) 168.8(6) 175.7(7)
Fe1 Bi1 Bi1 5_4445 1_4555 56.5(4) 53.9(4) 59.4(4)
Fe1 Bi1 Bi1 5_4445 1_5455 55.1(4) 53.7(4) 59.7(4)
Fe1 Bi1 Bi1 5_4445 1_5545 55.2(4) 52.1(4) 57.3(4)
Fe1 Bi1 Bi1 5_4445 1_5565 126.3(4) 118.0(6) 133.8(5)
Fe1 Bi1 Bi1 5_4445 1_5655 124.9(5) 120.3(5) 126.3(5)
Fe1 Bi1 Bi1 5_4445 1_6555 123.6(5) 118.9(6) 127.8(6)
Fe1 Bi1 Bi1 5_4445 5_4445 11.8(4) 11.8(4) 11.8(4)
Fe1 Bi1 Bi1 5_4445 5_4455 76.7(5) 76.7(5) 76.7(5)
Fe1 Bi1 Bi1 5_4445 5_4545 65.4(4) 65.4(4) 65.4(4)
Fe1 Bi1 Bi1 5_4445 5_4555 123.3(6) 123.3(6) 123.3(6)
Fe1 Bi1 Bi1 5_4445 5_5455 109.7(3) 108.9(3) 110.0(3)
Fe1 Bi1 Bi1 5_4445 5_5555 174.0(6) 169.2(6) 176.5(7)
Fe1 Bi1 O1 5_4445 1_5445 30.9(9) 29.9(10) 31.4(9)
Fe1 Bi1 O1 5_4445 1_5455 42.4(13) 42.4(13) 42.4(13)
Fe1 Bi1 O1 5_4445 1_5465 101.6(6) 98.5(7) 106.0(5)
Fe1 Bi1 O1 5_4445 1_5545 71.5(6) 70.0(6) 73.0(7)
Fe1 Bi1 O1 5_4445 . 100.6(9) 100.6(9) 100.6(9)
Fe1 Bi1 O1 5_4445 1_5565 143.4(10) 140.4(11) 150.7(9)
Fe1 Bi1 O1 5_4445 5_4445 35.2(2) 31.7(3) 36.7(2)
Fe1 Bi1 O1 5_4445 5_4455 93.3(9) 88.8(9) 106.5(7)
Fe1 Bi1 O1 5_4445 5_5445 89.1(9) 70.8(8) 100.0(10)
Fe1 Bi1 O1 5_4445 5_5455 143.4(4) 139.5(5) 146.8(5)
Fe1 Bi1 O2 5_4445 1_4565 111.3(9) 111.3(9) 111.3(9)
Fe1 Bi1 O2 5_4445 1_5565 142.3(3) 141.0(5) 143.60(17)
Fe1 Bi1 O2 5_4445 5_4445 36.1(17) 33.5(14) 38.0(19)
Fe1 Bi1 O2 5_4445 5_4455 91.5(10) 88.8(10) 95.1(9)
Fe1 Bi1 O2 5_4445 5_4545 90.7(11) 76.6(8) 99.5(12)
Fe1 Bi1 O2 5_4445 5_4555 143.8(17) 138.1(15) 147.9(19)
Fe1 Bi1 O3 5_4445 . 135.8(5) 135.8(5) 135.8(5)
Fe1 Bi1 O3 5_4445 1_6555 133.8(4) 130.6(4) 136.0(5)
Fe1 Bi1 O3 5_4445 5_4445 37.0(9) 27.1(8) 55.0(9)
Fe1 Bi1 O3 5_4445 5_4545 90.4(6) 77.0(6) 107.8(6)
Fe1 Bi1 O3 5_4445 5_5445 90.4(5) 80.7(6) 100.4(5)
Fe1 Bi1 O3 5_4445 5_5545 144.8(10) 123.0(10) 163.1(10)
Fe1 Bi1 Fe1 5_4455 5_4545 111.1(5) 106.6(5) 122.0(4)
Fe1 Bi1 Fe1 5_4455 5_4555 68.1(3) 64.6(2) 71.9(4)
Fe1 Bi1 Fe1 5_4455 5_5445 111.54(18) 110.54(15) 113.13(16)
Fe1 Bi1 Fe1 5_4455 5_5455 69.6(4) 61.6(3) 72.9(4)
Fe1 Bi1 Fe1 5_4455 5_5545 175.4(4) 168.2(4) 180.0(5)
Fe1 Bi1 Fe1 5_4455 5_5555 107.3(5) 93.7(4) 113.2(6)
Fe1 Bi1 Pb1 5_4455 1_4555 54.9(4) 52.2(3) 63.7(4)
Fe1 Bi1 Pb1 5_4455 1_5455 55.9(4) 54.0(4) 57.9(4)
Fe1 Bi1 Pb1 5_4455 1_5545 128.3(4) 125.0(3) 137.2(3)
Fe1 Bi1 Pb1 5_4455 . 100(200) 0 147(5)
Fe1 Bi1 Pb1 5_4455 1_5565 53.6(4) 46.6(4) 56.2(4)
Fe1 Bi1 Pb1 5_4455 1_5655 124.1(5) 122.0(5) 125.9(7)
Fe1 Bi1 Pb1 5_4455 1_6555 126.0(4) 118.6(5) 127.5(3)
Fe1 Bi1 Pb1 5_4455 5_4445 68.1(5) 66.9(4) 68.6(5)
Fe1 Bi1 Pb1 5_4455 5_4545 103.9(5) 101.6(5) 105.0(6)
Fe1 Bi1 Pb1 5_4455 5_5445 105.2(4) 105.2(4) 105.2(4)
Fe1 Bi1 Pb1 5_4455 5_5455 68.0(5) 66.7(4) 69.9(5)
Fe1 Bi1 Pb1 5_4455 5_5545 167.6(5) 167.6(5) 167.6(5)
Fe1 Bi1 Pb1 5_4455 5_5555 102.9(5) 101.8(5) 104.6(6)
Fe1 Bi1 Bi1 5_4455 1_4555 54.9(4) 52.2(3) 63.8(4)
Fe1 Bi1 Bi1 5_4455 1_5455 55.9(4) 54.1(4) 57.7(4)
Fe1 Bi1 Bi1 5_4455 1_5545 128.2(4) 125.0(3) 137.2(3)
Fe1 Bi1 Bi1 5_4455 1_5565 53.6(4) 46.9(4) 56.1(4)
Fe1 Bi1 Bi1 5_4455 1_5655 124.1(5) 122.3(4) 125.9(6)
Fe1 Bi1 Bi1 5_4455 1_6555 126.1(4) 119.2(5) 127.5(3)
Fe1 Bi1 Bi1 5_4455 5_4445 68.5(5) 67.2(4) 69.2(5)
Fe1 Bi1 Bi1 5_4455 5_4545 104.5(5) 101.9(5) 105.6(6)
Fe1 Bi1 Bi1 5_4455 5_5445 106.0(4) 106.0(4) 106.0(4)
Fe1 Bi1 Bi1 5_4455 5_5455 68.0(5) 66.3(4) 70.5(5)
Fe1 Bi1 Bi1 5_4455 5_5545 168.2(5) 168.2(5) 168.2(5)
Fe1 Bi1 Bi1 5_4455 5_5555 102.8(5) 101.5(4) 105.1(6)
Fe1 Bi1 O1 5_4455 1_5445 101.7(6) 99.0(7) 102.8(6)
Fe1 Bi1 O1 5_4455 1_5455 27.8(13) 27.8(13) 27.8(13)
Fe1 Bi1 O1 5_4455 1_5465 31.7(9) 29.4(9) 35.4(10)
Fe1 Bi1 O1 5_4455 1_5545 141.1(10) 137.6(9) 142.6(11)
Fe1 Bi1 O1 5_4455 . 87.1(10) 87.1(10) 87.1(10)
Fe1 Bi1 O1 5_4455 1_5565 72.4(6) 70.6(5) 76.4(8)
Fe1 Bi1 O1 5_4455 5_4445 94.0(9) 87.4(10) 105.0(8)
Fe1 Bi1 O1 5_4455 5_4455 34.6(2) 32.75(14) 36.6(3)
Fe1 Bi1 O1 5_4455 5_5445 144.1(3) 140.2(5) 146.3(3)
Fe1 Bi1 O1 5_4455 5_5455 87.1(9) 68.3(8) 95.0(11)
Fe1 Bi1 O2 5_4455 1_4545 100.4(9) 97.6(9) 102.5(10)
Fe1 Bi1 O2 5_4455 1_5545 141.9(6) 141.9(6) 141.9(6)
Fe1 Bi1 O2 5_4455 1_5565 69.5(9) 69.3(9) 69.9(9)
Fe1 Bi1 O2 5_4455 5_4445 92.0(10) 87.2(12) 99.8(9)
Fe1 Bi1 O2 5_4455 5_4455 35.2(17) 32.2(14) 36.2(18)
Fe1 Bi1 O2 5_4455 5_4545 145.3(17) 143.1(19) 154.2(17)
Fe1 Bi1 O2 5_4455 5_4555 89.2(11) 75.9(9) 97.1(14)
Fe1 Bi1 O3 5_4455 1_4545 66.4(5) 64.5(5) 67.5(6)
Fe1 Bi1 O3 5_4455 1_5545 117.2(7) 117.2(7) 117.2(7)
Fe1 Bi1 O3 5_4455 1_6555 104.3(5) 102.9(5) 105.9(6)
Fe1 Bi1 O3 5_4455 5_4445 36.6(9) 28.8(9) 52.6(8)
Fe1 Bi1 O3 5_4455 5_4545 89.3(7) 82.5(8) 98.6(8)
Fe1 Bi1 O3 5_4455 5_5445 90.5(6) 78.8(6) 97.5(5)
Fe1 Bi1 O3 5_4455 5_5545 144.3(10) 120.7(9) 159.4(8)
Fe1 Bi1 Fe1 5_4545 5_4555 73.6(3) 69.0(3) 83.7(3)
Fe1 Bi1 Fe1 5_4545 5_5445 107.3(5) 93.7(4) 113.2(6)
Fe1 Bi1 Fe1 5_4545 5_5455 172.9(6) 169.6(7) 180.0(5)
Fe1 Bi1 Fe1 5_4545 5_5545 69.6(3) 61.6(3) 72.9(3)
Fe1 Bi1 Fe1 5_4545 5_5555 110.16(18) 108.89(18) 112.90(18)
Fe1 Bi1 Pb1 5_4545 1_4555 56.5(4) 53.9(4) 59.6(4)
Fe1 Bi1 Pb1 5_4545 1_5455 124.9(5) 120.3(5) 126.4(5)
Fe1 Bi1 Pb1 5_4545 1_5545 55.2(4) 52.4(4) 57.3(4)
Fe1 Bi1 Pb1 5_4545 . 100(400) 0 100(1100)
Fe1 Bi1 Pb1 5_4545 1_5565 126.2(4) 117.7(6) 133.8(5)
Fe1 Bi1 Pb1 5_4545 1_5655 55.1(4) 53.8(4) 59.6(4)
Fe1 Bi1 Pb1 5_4545 1_6555 123.6(5) 118.9(6) 128.0(6)
Fe1 Bi1 Pb1 5_4545 5_4455 123.6(6) 123.6(6) 123.6(6)
Fe1 Bi1 Pb1 5_4545 5_4555 76.3(5) 76.3(5) 76.3(5)
Fe1 Bi1 Pb1 5_4545 5_5455 173.1(6) 168.8(6) 175.7(7)
Fe1 Bi1 Pb1 5_4545 5_5555 109.6(3) 108.9(3) 110.0(3)
Fe1 Bi1 Bi1 5_4545 1_4555 56.5(4) 53.9(4) 59.4(4)
Fe1 Bi1 Bi1 5_4545 1_5455 124.9(5) 120.3(5) 126.3(5)
Fe1 Bi1 Bi1 5_4545 1_5545 55.2(4) 52.1(4) 57.3(4)
Fe1 Bi1 Bi1 5_4545 1_5565 126.3(4) 118.0(6) 133.8(5)
Fe1 Bi1 Bi1 5_4545 1_5655 55.1(4) 53.7(4) 59.7(4)
Fe1 Bi1 Bi1 5_4545 1_6555 123.6(5) 118.9(6) 127.8(6)
Fe1 Bi1 Bi1 5_4545 5_4445 65.4(4) 65.4(4) 65.4(4)
Fe1 Bi1 Bi1 5_4545 5_4455 123.3(6) 123.3(6) 123.3(6)
Fe1 Bi1 Bi1 5_4545 5_4545 11.8(4) 11.8(4) 11.8(4)
Fe1 Bi1 Bi1 5_4545 5_4555 76.7(5) 76.7(5) 76.7(5)
Fe1 Bi1 Bi1 5_4545 5_5455 174.0(6) 169.2(6) 176.5(7)
Fe1 Bi1 Bi1 5_4545 5_5555 109.7(3) 108.9(3) 110.0(3)
Fe1 Bi1 O1 5_4545 1_5445 71.5(6) 70.0(6) 73.0(7)
Fe1 Bi1 O1 5_4545 1_5455 100.6(9) 100.6(9) 100.6(9)
Fe1 Bi1 O1 5_4545 1_5465 143.4(10) 140.4(11) 150.7(9)
Fe1 Bi1 O1 5_4545 1_5545 30.9(9) 29.9(10) 31.4(9)
Fe1 Bi1 O1 5_4545 . 42.4(13) 42.4(13) 42.4(13)
Fe1 Bi1 O1 5_4545 1_5565 101.6(6) 98.5(7) 106.0(5)
Fe1 Bi1 O1 5_4545 5_4445 35.2(2) 31.7(3) 36.7(2)
Fe1 Bi1 O1 5_4545 5_4455 93.3(9) 88.8(9) 106.5(7)
Fe1 Bi1 O1 5_4545 5_5445 89.1(9) 70.8(8) 100.0(10)
Fe1 Bi1 O1 5_4545 5_5455 143.4(4) 139.5(5) 146.8(5)
Fe1 Bi1 O2 5_4545 1_4565 111.3(9) 111.3(9) 111.3(9)
Fe1 Bi1 O2 5_4545 1_5565 142.3(3) 141.0(5) 143.60(17)
Fe1 Bi1 O2 5_4545 5_4445 90.7(11) 76.6(8) 99.5(12)
Fe1 Bi1 O2 5_4545 5_4455 143.8(17) 138.1(15) 147.9(19)
Fe1 Bi1 O2 5_4545 5_4545 36.1(17) 33.5(14) 38.0(19)
Fe1 Bi1 O2 5_4545 5_4555 91.5(10) 88.8(10) 95.1(9)
Fe1 Bi1 O3 5_4545 . 135.8(5) 135.8(5) 135.8(5)
Fe1 Bi1 O3 5_4545 1_6555 133.8(4) 130.6(4) 136.0(5)
Fe1 Bi1 O3 5_4545 5_4445 90.4(6) 77.0(6) 107.8(6)
Fe1 Bi1 O3 5_4545 5_4545 37.0(9) 27.1(8) 55.0(9)
Fe1 Bi1 O3 5_4545 5_5445 144.8(10) 123.0(10) 163.1(10)
Fe1 Bi1 O3 5_4545 5_5545 90.4(5) 80.7(6) 100.4(5)
Fe1 Bi1 Fe1 5_4555 5_5445 175.4(4) 168.2(4) 180.0(5)
Fe1 Bi1 Fe1 5_4555 5_5455 107.3(5) 93.7(4) 113.2(6)
Fe1 Bi1 Fe1 5_4555 5_5545 111.54(18) 110.54(15) 113.13(16)
Fe1 Bi1 Fe1 5_4555 5_5555 69.6(4) 61.6(3) 72.9(4)
Fe1 Bi1 Pb1 5_4555 1_4555 54.9(4) 52.2(3) 63.7(4)
Fe1 Bi1 Pb1 5_4555 1_5455 124.1(5) 122.0(5) 125.9(7)
Fe1 Bi1 Pb1 5_4555 1_5545 128.3(4) 125.0(3) 137.2(3)
Fe1 Bi1 Pb1 5_4555 . 100(200) 0 147(5)
Fe1 Bi1 Pb1 5_4555 1_5565 53.6(4) 46.6(4) 56.2(4)
Fe1 Bi1 Pb1 5_4555 1_5655 55.9(4) 54.0(4) 57.9(4)
Fe1 Bi1 Pb1 5_4555 1_6555 126.0(4) 118.6(5) 127.5(3)
Fe1 Bi1 Pb1 5_4555 5_4445 103.9(5) 101.6(5) 105.0(6)
Fe1 Bi1 Pb1 5_4555 5_4545 68.1(5) 66.9(4) 68.6(5)
Fe1 Bi1 Pb1 5_4555 5_5445 167.6(5) 167.6(5) 167.6(5)
Fe1 Bi1 Pb1 5_4555 5_5455 102.9(5) 101.8(5) 104.6(6)
Fe1 Bi1 Pb1 5_4555 5_5545 105.2(4) 105.2(4) 105.2(4)
Fe1 Bi1 Pb1 5_4555 5_5555 68.0(5) 66.7(4) 69.9(5)
Fe1 Bi1 Bi1 5_4555 1_4555 54.9(4) 52.2(3) 63.8(4)
Fe1 Bi1 Bi1 5_4555 1_5455 124.1(5) 122.3(4) 125.9(6)
Fe1 Bi1 Bi1 5_4555 1_5545 128.2(4) 125.0(3) 137.2(3)
Fe1 Bi1 Bi1 5_4555 1_5565 53.6(4) 46.9(4) 56.1(4)
Fe1 Bi1 Bi1 5_4555 1_5655 55.9(4) 54.1(4) 57.7(4)
Fe1 Bi1 Bi1 5_4555 1_6555 126.1(4) 119.2(5) 127.5(3)
Fe1 Bi1 Bi1 5_4555 5_4445 104.5(5) 101.9(5) 105.6(6)
Fe1 Bi1 Bi1 5_4555 5_4545 68.5(5) 67.2(4) 69.2(5)
Fe1 Bi1 Bi1 5_4555 5_5445 168.2(5) 168.2(5) 168.2(5)
Fe1 Bi1 Bi1 5_4555 5_5455 102.8(5) 101.5(4) 105.1(6)
Fe1 Bi1 Bi1 5_4555 5_5545 106.0(4) 106.0(4) 106.0(4)
Fe1 Bi1 Bi1 5_4555 5_5555 68.0(5) 66.3(4) 70.5(5)
Fe1 Bi1 O1 5_4555 1_5445 141.1(10) 137.6(9) 142.6(11)
Fe1 Bi1 O1 5_4555 1_5455 87.1(10) 87.1(10) 87.1(10)
Fe1 Bi1 O1 5_4555 1_5465 72.4(6) 70.6(5) 76.4(8)
Fe1 Bi1 O1 5_4555 1_5545 101.7(6) 99.0(7) 102.8(6)
Fe1 Bi1 O1 5_4555 . 27.8(13) 27.8(13) 27.8(13)
Fe1 Bi1 O1 5_4555 1_5565 31.7(9) 29.4(9) 35.4(10)
Fe1 Bi1 O1 5_4555 5_4445 94.0(9) 87.4(10) 105.0(8)
Fe1 Bi1 O1 5_4555 5_4455 34.6(2) 32.75(14) 36.6(3)
Fe1 Bi1 O1 5_4555 5_5445 144.1(3) 140.2(5) 146.3(3)
Fe1 Bi1 O1 5_4555 5_5455 87.1(9) 68.3(8) 95.0(11)
Fe1 Bi1 O2 5_4555 1_4545 100.4(9) 97.6(9) 102.5(10)
Fe1 Bi1 O2 5_4555 1_5545 141.9(6) 141.9(6) 141.9(6)
Fe1 Bi1 O2 5_4555 1_5565 69.5(9) 69.3(9) 69.9(9)
Fe1 Bi1 O2 5_4555 5_4445 145.3(17) 143.1(19) 154.2(17)
Fe1 Bi1 O2 5_4555 5_4455 89.2(11) 75.9(9) 97.1(14)
Fe1 Bi1 O2 5_4555 5_4545 92.0(10) 87.2(12) 99.8(9)
Fe1 Bi1 O2 5_4555 5_4555 35.2(17) 32.2(14) 36.2(18)
Fe1 Bi1 O3 5_4555 1_4545 66.4(5) 64.5(5) 67.5(6)
Fe1 Bi1 O3 5_4555 1_5545 117.2(7) 117.2(7) 117.2(7)
Fe1 Bi1 O3 5_4555 1_6555 104.3(5) 102.9(5) 105.9(6)
Fe1 Bi1 O3 5_4555 5_4445 89.3(7) 82.5(8) 98.6(8)
Fe1 Bi1 O3 5_4555 5_4545 36.6(9) 28.8(9) 52.6(8)
Fe1 Bi1 O3 5_4555 5_5445 144.3(10) 120.7(9) 159.4(8)
Fe1 Bi1 O3 5_4555 5_5545 90.5(6) 78.8(6) 97.5(5)
Fe1 Bi1 Fe1 5_5445 5_5455 73.6(4) 69.0(3) 83.7(3)
Fe1 Bi1 Fe1 5_5445 5_5545 68.1(3) 64.6(2) 71.9(4)
Fe1 Bi1 Fe1 5_5445 5_5555 111.1(5) 106.6(5) 122.0(4)
Fe1 Bi1 Pb1 5_5445 1_4555 126.0(4) 118.6(5) 127.5(3)
Fe1 Bi1 Pb1 5_5445 1_5455 55.9(4) 54.0(4) 57.9(4)
Fe1 Bi1 Pb1 5_5445 1_5545 53.6(4) 46.6(4) 56.2(4)
Fe1 Bi1 Pb1 5_5445 . 100(200) 0 147(5)
Fe1 Bi1 Pb1 5_5445 1_5565 128.3(4) 125.0(3) 137.2(3)
Fe1 Bi1 Pb1 5_5445 1_5655 124.1(5) 122.0(5) 125.9(7)
Fe1 Bi1 Pb1 5_5445 1_6555 54.9(4) 52.2(3) 63.7(4)
Fe1 Bi1 Pb1 5_5445 5_4445 68.0(5) 66.7(4) 69.9(5)
Fe1 Bi1 Pb1 5_5445 5_4455 105.2(4) 105.2(4) 105.2(4)
Fe1 Bi1 Pb1 5_5445 5_4545 102.9(5) 101.8(5) 104.6(6)
Fe1 Bi1 Pb1 5_5445 5_4555 167.6(5) 167.6(5) 167.6(5)
Fe1 Bi1 Pb1 5_5445 5_5455 68.1(5) 66.9(4) 68.6(5)
Fe1 Bi1 Pb1 5_5445 5_5555 103.9(5) 101.6(5) 105.0(6)
Fe1 Bi1 Bi1 5_5445 1_4555 126.1(4) 119.2(5) 127.5(3)
Fe1 Bi1 Bi1 5_5445 1_5455 55.9(4) 54.1(4) 57.7(4)
Fe1 Bi1 Bi1 5_5445 1_5545 53.6(4) 46.9(4) 56.1(4)
Fe1 Bi1 Bi1 5_5445 1_5565 128.2(4) 125.0(3) 137.2(3)
Fe1 Bi1 Bi1 5_5445 1_5655 124.1(5) 122.3(4) 125.9(6)
Fe1 Bi1 Bi1 5_5445 1_6555 54.9(4) 52.2(3) 63.8(4)
Fe1 Bi1 Bi1 5_5445 5_4445 68.0(5) 66.3(4) 70.5(5)
Fe1 Bi1 Bi1 5_5445 5_4455 106.0(4) 106.0(4) 106.0(4)
Fe1 Bi1 Bi1 5_5445 5_4545 102.8(5) 101.5(4) 105.1(6)
Fe1 Bi1 Bi1 5_5445 5_4555 168.2(5) 168.2(5) 168.2(5)
Fe1 Bi1 Bi1 5_5445 5_5455 68.5(5) 67.2(4) 69.2(5)
Fe1 Bi1 Bi1 5_5445 5_5555 104.5(5) 101.9(5) 105.6(6)
Fe1 Bi1 O1 5_5445 1_5445 31.7(9) 29.4(9) 35.4(10)
Fe1 Bi1 O1 5_5445 1_5455 27.8(13) 27.8(13) 27.8(13)
Fe1 Bi1 O1 5_5445 1_5465 101.7(6) 99.0(7) 102.8(6)
Fe1 Bi1 O1 5_5445 1_5545 72.4(6) 70.6(5) 76.4(8)
Fe1 Bi1 O1 5_5445 . 87.1(10) 87.1(10) 87.1(10)
Fe1 Bi1 O1 5_5445 1_5565 141.1(10) 137.6(9) 142.6(11)
Fe1 Bi1 O1 5_5445 5_4445 87.1(9) 68.3(8) 95.0(11)
Fe1 Bi1 O1 5_5445 5_4455 144.1(3) 140.2(5) 146.3(3)
Fe1 Bi1 O1 5_5445 5_5445 34.6(2) 32.75(14) 36.6(3)
Fe1 Bi1 O1 5_5445 5_5455 94.0(9) 87.4(10) 105.0(8)
Fe1 Bi1 O2 5_5445 1_4545 69.5(9) 69.3(9) 69.9(9)
Fe1 Bi1 O2 5_5445 1_4565 141.9(6) 141.9(6) 141.9(6)
Fe1 Bi1 O2 5_5445 1_5565 100.4(9) 97.6(9) 102.5(10)
Fe1 Bi1 O2 5_5445 5_4445 35.2(17) 32.2(14) 36.2(18)
Fe1 Bi1 O2 5_5445 5_4455 92.0(10) 87.2(12) 99.8(9)
Fe1 Bi1 O2 5_5445 5_4545 89.2(11) 75.9(9) 97.1(14)
Fe1 Bi1 O2 5_5445 5_4555 145.3(17) 143.1(19) 154.2(17)
Fe1 Bi1 O3 5_5445 1_4545 104.3(5) 102.9(5) 105.9(6)
Fe1 Bi1 O3 5_5445 . 117.2(7) 117.2(7) 117.2(7)
Fe1 Bi1 O3 5_5445 1_6555 66.4(5) 64.5(5) 67.5(6)
Fe1 Bi1 O3 5_5445 5_4445 90.5(6) 78.8(6) 97.5(5)
Fe1 Bi1 O3 5_5445 5_4545 144.3(10) 120.7(9) 159.4(8)
Fe1 Bi1 O3 5_5445 5_5445 36.6(9) 28.8(9) 52.6(8)
Fe1 Bi1 O3 5_5445 5_5545 89.3(7) 82.5(8) 98.6(8)
Fe1 Bi1 Fe1 5_5455 5_5545 111.1(5) 106.6(5) 122.0(4)
Fe1 Bi1 Fe1 5_5455 5_5555 69.8(3) 60.7(3) 72.5(3)
Fe1 Bi1 Pb1 5_5455 1_4555 123.6(5) 118.9(6) 128.0(6)
Fe1 Bi1 Pb1 5_5455 1_5455 55.1(4) 53.8(4) 59.6(4)
Fe1 Bi1 Pb1 5_5455 1_5545 126.2(4) 117.7(6) 133.8(5)
Fe1 Bi1 Pb1 5_5455 . 100(400) 0 100(1100)
Fe1 Bi1 Pb1 5_5455 1_5565 55.2(4) 52.4(4) 57.3(4)
Fe1 Bi1 Pb1 5_5455 1_5655 124.9(5) 120.3(5) 126.4(5)
Fe1 Bi1 Pb1 5_5455 1_6555 56.5(4) 53.9(4) 59.6(4)
Fe1 Bi1 Pb1 5_5455 5_4445 109.6(3) 108.9(3) 110.0(3)
Fe1 Bi1 Pb1 5_5455 5_4545 173.1(6) 168.8(6) 175.7(7)
Fe1 Bi1 Pb1 5_5455 5_5445 76.3(5) 76.3(5) 76.3(5)
Fe1 Bi1 Pb1 5_5455 5_5545 123.6(6) 123.6(6) 123.6(6)
Fe1 Bi1 Bi1 5_5455 1_4555 123.6(5) 118.9(6) 127.8(6)
Fe1 Bi1 Bi1 5_5455 1_5455 55.1(4) 53.7(4) 59.7(4)
Fe1 Bi1 Bi1 5_5455 1_5545 126.3(4) 118.0(6) 133.8(5)
Fe1 Bi1 Bi1 5_5455 1_5565 55.2(4) 52.1(4) 57.3(4)
Fe1 Bi1 Bi1 5_5455 1_5655 124.9(5) 120.3(5) 126.3(5)
Fe1 Bi1 Bi1 5_5455 1_6555 56.5(4) 53.9(4) 59.4(4)
Fe1 Bi1 Bi1 5_5455 5_4445 109.7(3) 108.9(3) 110.0(3)
Fe1 Bi1 Bi1 5_5455 5_4545 174.0(6) 169.2(6) 176.5(7)
Fe1 Bi1 Bi1 5_5455 5_5445 76.7(5) 76.7(5) 76.7(5)
Fe1 Bi1 Bi1 5_5455 5_5455 11.8(4) 11.8(4) 11.8(4)
Fe1 Bi1 Bi1 5_5455 5_5545 123.3(6) 123.3(6) 123.3(6)
Fe1 Bi1 Bi1 5_5455 5_5555 65.4(4) 65.4(4) 65.4(4)
Fe1 Bi1 O1 5_5455 1_5445 101.6(6) 98.5(7) 106.0(5)
Fe1 Bi1 O1 5_5455 1_5455 42.4(13) 42.4(13) 42.4(13)
Fe1 Bi1 O1 5_5455 1_5465 30.9(9) 29.9(10) 31.4(9)
Fe1 Bi1 O1 5_5455 1_5545 143.4(10) 140.4(11) 150.7(9)
Fe1 Bi1 O1 5_5455 . 100.6(9) 100.6(9) 100.6(9)
Fe1 Bi1 O1 5_5455 1_5565 71.5(6) 70.0(6) 73.0(7)
Fe1 Bi1 O1 5_5455 5_4445 143.4(4) 139.5(5) 146.8(5)
Fe1 Bi1 O1 5_5455 5_4455 89.1(9) 70.8(8) 100.0(10)
Fe1 Bi1 O1 5_5455 5_5445 93.3(9) 88.8(9) 106.5(7)
Fe1 Bi1 O1 5_5455 5_5455 35.2(2) 31.7(3) 36.7(2)
Fe1 Bi1 O2 5_5455 1_4545 142.3(3) 141.0(5) 143.60(17)
Fe1 Bi1 O2 5_5455 1_5545 111.3(9) 111.3(9) 111.3(9)
Fe1 Bi1 O2 5_5455 5_4445 91.5(10) 88.8(10) 95.1(9)
Fe1 Bi1 O2 5_5455 5_4455 36.1(17) 33.5(14) 38.0(19)
Fe1 Bi1 O2 5_5455 5_4545 143.8(17) 138.1(15) 147.9(19)
Fe1 Bi1 O2 5_5455 5_4555 90.7(11) 76.6(8) 99.5(12)
Fe1 Bi1 O3 5_5455 1_4545 133.8(4) 130.6(4) 136.0(5)
Fe1 Bi1 O3 5_5455 1_5545 135.8(5) 135.8(5) 135.8(5)
Fe1 Bi1 O3 5_5455 5_4445 90.4(5) 80.7(6) 100.4(5)
Fe1 Bi1 O3 5_5455 5_4545 144.8(10) 123.0(10) 163.1(10)
Fe1 Bi1 O3 5_5455 5_5445 37.0(9) 27.1(8) 55.0(9)
Fe1 Bi1 O3 5_5455 5_5545 90.4(6) 77.0(6) 107.8(6)
Fe1 Bi1 Fe1 5_5545 5_5555 73.6(4) 69.0(3) 83.7(3)
Fe1 Bi1 Pb1 5_5545 1_4555 126.0(4) 118.6(5) 127.5(3)
Fe1 Bi1 Pb1 5_5545 1_5455 124.1(5) 122.0(5) 125.9(7)
Fe1 Bi1 Pb1 5_5545 1_5545 53.6(4) 46.6(4) 56.2(4)
Fe1 Bi1 Pb1 5_5545 . 100(200) 0 147(5)
Fe1 Bi1 Pb1 5_5545 1_5565 128.3(4) 125.0(3) 137.2(3)
Fe1 Bi1 Pb1 5_5545 1_5655 55.9(4) 54.0(4) 57.9(4)
Fe1 Bi1 Pb1 5_5545 1_6555 54.9(4) 52.2(3) 63.7(4)
Fe1 Bi1 Pb1 5_5545 5_4445 102.9(5) 101.8(5) 104.6(6)
Fe1 Bi1 Pb1 5_5545 5_4455 167.6(5) 167.6(5) 167.6(5)
Fe1 Bi1 Pb1 5_5545 5_4545 68.0(5) 66.7(4) 69.9(5)
Fe1 Bi1 Pb1 5_5545 5_4555 105.2(4) 105.2(4) 105.2(4)
Fe1 Bi1 Pb1 5_5545 5_5455 103.9(5) 101.6(5) 105.0(6)
Fe1 Bi1 Pb1 5_5545 5_5555 68.1(5) 66.9(4) 68.6(5)
Fe1 Bi1 Bi1 5_5545 1_4555 126.1(4) 119.2(5) 127.5(3)
Fe1 Bi1 Bi1 5_5545 1_5455 124.1(5) 122.3(4) 125.9(6)
Fe1 Bi1 Bi1 5_5545 1_5545 53.6(4) 46.9(4) 56.1(4)
Fe1 Bi1 Bi1 5_5545 1_5565 128.2(4) 125.0(3) 137.2(3)
Fe1 Bi1 Bi1 5_5545 1_5655 55.9(4) 54.1(4) 57.7(4)
Fe1 Bi1 Bi1 5_5545 1_6555 54.9(4) 52.2(3) 63.8(4)
Fe1 Bi1 Bi1 5_5545 5_4445 102.8(5) 101.5(4) 105.1(6)
Fe1 Bi1 Bi1 5_5545 5_4455 168.2(5) 168.2(5) 168.2(5)
Fe1 Bi1 Bi1 5_5545 5_4545 68.0(5) 66.3(4) 70.5(5)
Fe1 Bi1 Bi1 5_5545 5_4555 106.0(4) 106.0(4) 106.0(4)
Fe1 Bi1 Bi1 5_5545 5_5455 104.5(5) 101.9(5) 105.6(6)
Fe1 Bi1 Bi1 5_5545 5_5555 68.5(5) 67.2(4) 69.2(5)
Fe1 Bi1 O1 5_5545 1_5445 72.4(6) 70.6(5) 76.4(8)
Fe1 Bi1 O1 5_5545 1_5455 87.1(10) 87.1(10) 87.1(10)
Fe1 Bi1 O1 5_5545 1_5465 141.1(10) 137.6(9) 142.6(11)
Fe1 Bi1 O1 5_5545 1_5545 31.7(9) 29.4(9) 35.4(10)
Fe1 Bi1 O1 5_5545 . 27.8(13) 27.8(13) 27.8(13)
Fe1 Bi1 O1 5_5545 1_5565 101.7(6) 99.0(7) 102.8(6)
Fe1 Bi1 O1 5_5545 5_4445 87.1(9) 68.3(8) 95.0(11)
Fe1 Bi1 O1 5_5545 5_4455 144.1(3) 140.2(5) 146.3(3)
Fe1 Bi1 O1 5_5545 5_5445 34.6(2) 32.75(14) 36.6(3)
Fe1 Bi1 O1 5_5545 5_5455 94.0(9) 87.4(10) 105.0(8)
Fe1 Bi1 O2 5_5545 1_4545 69.5(9) 69.3(9) 69.9(9)
Fe1 Bi1 O2 5_5545 1_4565 141.9(6) 141.9(6) 141.9(6)
Fe1 Bi1 O2 5_5545 1_5565 100.4(9) 97.6(9) 102.5(10)
Fe1 Bi1 O2 5_5545 5_4445 89.2(11) 75.9(9) 97.1(14)
Fe1 Bi1 O2 5_5545 5_4455 145.3(17) 143.1(19) 154.2(17)
Fe1 Bi1 O2 5_5545 5_4545 35.2(17) 32.2(14) 36.2(18)
Fe1 Bi1 O2 5_5545 5_4555 92.0(10) 87.2(12) 99.8(9)
Fe1 Bi1 O3 5_5545 1_4545 104.3(5) 102.9(5) 105.9(6)
Fe1 Bi1 O3 5_5545 . 117.2(7) 117.2(7) 117.2(7)
Fe1 Bi1 O3 5_5545 1_6555 66.4(5) 64.5(5) 67.5(6)
Fe1 Bi1 O3 5_5545 5_4445 144.3(10) 120.7(9) 159.4(8)
Fe1 Bi1 O3 5_5545 5_4545 90.5(6) 78.8(6) 97.5(5)
Fe1 Bi1 O3 5_5545 5_5445 89.3(7) 82.5(8) 98.6(8)
Fe1 Bi1 O3 5_5545 5_5545 36.6(9) 28.8(9) 52.6(8)
Fe1 Bi1 Pb1 5_5555 1_4555 123.6(5) 118.9(6) 128.0(6)
Fe1 Bi1 Pb1 5_5555 1_5455 124.9(5) 120.3(5) 126.4(5)
Fe1 Bi1 Pb1 5_5555 1_5545 126.2(4) 117.7(6) 133.8(5)
Fe1 Bi1 Pb1 5_5555 . 100(400) 0 100(1100)
Fe1 Bi1 Pb1 5_5555 1_5565 55.2(4) 52.4(4) 57.3(4)
Fe1 Bi1 Pb1 5_5555 1_5655 55.1(4) 53.8(4) 59.6(4)
Fe1 Bi1 Pb1 5_5555 1_6555 56.5(4) 53.9(4) 59.6(4)
Fe1 Bi1 Pb1 5_5555 5_4445 173.1(6) 168.8(6) 175.7(7)
Fe1 Bi1 Pb1 5_5555 5_4545 109.6(3) 108.9(3) 110.0(3)
Fe1 Bi1 Pb1 5_5555 5_5445 123.6(6) 123.6(6) 123.6(6)
Fe1 Bi1 Pb1 5_5555 5_5545 76.3(5) 76.3(5) 76.3(5)
Fe1 Bi1 Bi1 5_5555 1_4555 123.6(5) 118.9(6) 127.8(6)
Fe1 Bi1 Bi1 5_5555 1_5455 124.9(5) 120.3(5) 126.3(5)
Fe1 Bi1 Bi1 5_5555 1_5545 126.3(4) 118.0(6) 133.8(5)
Fe1 Bi1 Bi1 5_5555 1_5565 55.2(4) 52.1(4) 57.3(4)
Fe1 Bi1 Bi1 5_5555 1_5655 55.1(4) 53.7(4) 59.7(4)
Fe1 Bi1 Bi1 5_5555 1_6555 56.5(4) 53.9(4) 59.4(4)
Fe1 Bi1 Bi1 5_5555 5_4445 174.0(6) 169.2(6) 176.5(7)
Fe1 Bi1 Bi1 5_5555 5_4545 109.7(3) 108.9(3) 110.0(3)
Fe1 Bi1 Bi1 5_5555 5_5445 123.3(6) 123.3(6) 123.3(6)
Fe1 Bi1 Bi1 5_5555 5_5455 65.4(4) 65.4(4) 65.4(4)
Fe1 Bi1 Bi1 5_5555 5_5545 76.7(5) 76.7(5) 76.7(5)
Fe1 Bi1 Bi1 5_5555 5_5555 11.8(4) 11.8(4) 11.8(4)
Fe1 Bi1 O1 5_5555 1_5445 143.4(10) 140.4(11) 150.7(9)
Fe1 Bi1 O1 5_5555 1_5455 100.6(9) 100.6(9) 100.6(9)
Fe1 Bi1 O1 5_5555 1_5465 71.5(6) 70.0(6) 73.0(7)
Fe1 Bi1 O1 5_5555 1_5545 101.6(6) 98.5(7) 106.0(5)
Fe1 Bi1 O1 5_5555 . 42.4(13) 42.4(13) 42.4(13)
Fe1 Bi1 O1 5_5555 1_5565 30.9(9) 29.9(10) 31.4(9)
Fe1 Bi1 O1 5_5555 5_4445 143.4(4) 139.5(5) 146.8(5)
Fe1 Bi1 O1 5_5555 5_4455 89.1(9) 70.8(8) 100.0(10)
Fe1 Bi1 O1 5_5555 5_5445 93.3(9) 88.8(9) 106.5(7)
Fe1 Bi1 O1 5_5555 5_5455 35.2(2) 31.7(3) 36.7(2)
Fe1 Bi1 O2 5_5555 1_4545 142.3(3) 141.0(5) 143.60(17)
Fe1 Bi1 O2 5_5555 1_5545 111.3(9) 111.3(9) 111.3(9)
Fe1 Bi1 O2 5_5555 5_4445 143.8(17) 138.1(15) 147.9(19)
Fe1 Bi1 O2 5_5555 5_4455 90.7(11) 76.6(8) 99.5(12)
Fe1 Bi1 O2 5_5555 5_4545 91.5(10) 88.8(10) 95.1(9)
Fe1 Bi1 O2 5_5555 5_4555 36.1(17) 33.5(14) 38.0(19)
Fe1 Bi1 O3 5_5555 1_4545 133.8(4) 130.6(4) 136.0(5)
Fe1 Bi1 O3 5_5555 1_5545 135.8(5) 135.8(5) 135.8(5)
Fe1 Bi1 O3 5_5555 5_4445 144.8(10) 123.0(10) 163.1(10)
Fe1 Bi1 O3 5_5555 5_4545 90.4(5) 80.7(6) 100.4(5)
Fe1 Bi1 O3 5_5555 5_5445 90.4(6) 77.0(6) 107.8(6)
Fe1 Bi1 O3 5_5555 5_5545 37.0(9) 27.1(8) 55.0(9)
Pb1 Bi1 Pb1 1_4555 1_5455 90.0(5) 89.5(4) 90.2(5)
Pb1 Bi1 Pb1 1_4555 1_5545 92.6(5) 91.4(5) 95.6(6)
Pb1 Bi1 Pb1 1_4555 . 100(600) 0 200(1800)
Pb1 Bi1 Pb1 1_4555 1_5565 87.9(5) 81.6(6) 92.4(6)
Pb1 Bi1 Pb1 1_4555 1_5655 90.0(5) 89.5(4) 90.2(5)
Pb1 Bi1 Pb1 1_4555 1_6555 178.0(6) 175.4(8) 180.0(5)
Pb1 Bi1 Pb1 1_4555 5_4455 64.2(5) 64.2(5) 64.2(5)
Pb1 Bi1 Pb1 1_4555 5_4555 64.2(5) 64.2(5) 64.2(5)
Pb1 Bi1 Pb1 1_4555 5_5455 129.1(5) 128.2(6) 131.0(5)
Pb1 Bi1 Pb1 1_4555 5_5555 129.1(5) 128.2(6) 131.0(5)
Pb1 Bi1 Bi1 1_4555 1_4555 0.1(5) 0.0(5) 0.7(4)
Pb1 Bi1 Bi1 1_4555 1_5455 90.0(5) 90.0(5) 90.0(5)
Pb1 Bi1 Bi1 1_4555 1_5545 92.6(5) 91.4(5) 95.2(6)
Pb1 Bi1 Bi1 1_4555 1_5565 88.0(5) 82.0(6) 92.4(6)
Pb1 Bi1 Bi1 1_4555 1_5655 90.0(5) 90.0(5) 90.0(5)
Pb1 Bi1 Bi1 1_4555 1_6555 178.1(6) 175.4(7) 180.0(5)
Pb1 Bi1 Bi1 1_4555 5_4445 48.8(5) 48.8(5) 48.8(5)
Pb1 Bi1 Bi1 1_4555 5_4455 63.8(5) 63.8(5) 63.8(5)
Pb1 Bi1 Bi1 1_4555 5_4545 48.8(5) 48.8(5) 48.8(5)
Pb1 Bi1 Bi1 1_4555 5_4555 63.8(5) 63.8(5) 63.8(5)
Pb1 Bi1 Bi1 1_4555 5_5455 128.6(5) 127.6(6) 130.7(5)
Pb1 Bi1 Bi1 1_4555 5_5555 128.6(5) 127.6(6) 130.7(5)
Pb1 Bi1 O1 1_4555 1_5445 88.2(10) 87.8(10) 88.5(10)
Pb1 Bi1 O1 1_4555 1_5455 101.0(14) 101.0(14) 101.0(14)
Pb1 Bi1 O1 1_4555 1_5465 89.8(10) 88.2(10) 93.8(9)
Pb1 Bi1 O1 1_4555 1_5545 88.2(10) 87.8(10) 88.5(10)
Pb1 Bi1 O1 1_4555 . 101.0(14) 101.0(14) 101.0(14)
Pb1 Bi1 O1 1_4555 1_5565 89.8(10) 88.2(10) 93.8(9)
Pb1 Bi1 O1 1_4555 5_4445 49.0(11) 40.9(12) 60.5(9)
Pb1 Bi1 O1 1_4555 5_4455 46.6(10) 37.1(10) 60.7(9)
Pb1 Bi1 O1 1_4555 5_5445 136.7(11) 118.5(10) 146.9(12)
Pb1 Bi1 O1 1_4555 5_5455 130.1(11) 114.9(10) 143.4(14)
Pb1 Bi1 O2 1_4555 1_4565 65.7(12) 65.7(12) 65.7(12)
Pb1 Bi1 O2 1_4555 1_5565 121.3(11) 118.2(12) 125.3(11)
Pb1 Bi1 O2 1_4555 5_4445 92.0(18) 90.8(19) 94.8(19)
Pb1 Bi1 O2 1_4555 5_4455 88.6(17) 85.8(14) 91(2)
Pb1 Bi1 O2 1_4555 5_4545 92.0(18) 90.8(19) 94.8(19)
Pb1 Bi1 O2 1_4555 5_4555 88.6(17) 85.8(14) 91(2)
Pb1 Bi1 O3 1_4555 . 101.6(9) 101.6(9) 101.6(9)
Pb1 Bi1 O3 1_4555 1_6555 162.5(7) 161.1(8) 165.0(6)
Pb1 Bi1 O3 1_4555 5_4445 45.8(3) 43.3(3) 53.0(3)
Pb1 Bi1 O3 1_4555 5_4545 45.8(3) 43.3(3) 53.0(3)
Pb1 Bi1 O3 1_4555 5_5445 134.2(3) 131.8(4) 136.5(3)
Pb1 Bi1 O3 1_4555 5_5545 134.2(3) 131.8(4) 136.5(3)
Pb1 Bi1 Pb1 1_5455 1_5545 90.1(3) 90.0(3) 90.61(17)
Pb1 Bi1 Pb1 1_5455 . 87.9(3) 0 89.988(7)
Pb1 Bi1 Pb1 1_5455 1_5565 90.1(3) 90.0(3) 90.61(17)
Pb1 Bi1 Pb1 1_5455 1_5655 179.7(6) 178.5(5) 180.0(5)
Pb1 Bi1 Pb1 1_5455 1_6555 90.0(3) 89.51(19) 90.2(4)
Pb1 Bi1 Pb1 1_5455 5_4445 56.2(3) 56.2(3) 56.2(3)
Pb1 Bi1 Pb1 1_5455 5_4545 123.8(4) 123.8(4) 123.8(5)
Pb1 Bi1 Pb1 1_5455 5_5455 56.2(3) 56.2(3) 56.2(3)
Pb1 Bi1 Pb1 1_5455 5_5555 123.8(4) 123.8(4) 123.8(5)
Pb1 Bi1 Bi1 1_5455 1_4555 90.0(3) 89.51(19) 90.2(4)
Pb1 Bi1 Bi1 1_5455 1_5455 0.2(5) 0.0(5) 0.8(4)
Pb1 Bi1 Bi1 1_5455 1_5545 90.1(3) 90.0(3) 90.61(17)
Pb1 Bi1 Bi1 1_5455 1_5565 90.1(3) 90.0(3) 90.61(17)
Pb1 Bi1 Bi1 1_5455 1_5655 179.8(6) 179.2(5) 180.0(5)
Pb1 Bi1 Bi1 1_5455 1_6555 90.0(3) 89.51(19) 90.2(4)
Pb1 Bi1 Bi1 1_5455 5_4445 56.2(3) 56.2(4) 56.2(3)
Pb1 Bi1 Bi1 1_5455 5_4545 123.8(4) 123.7(4) 123.8(5)
Pb1 Bi1 Bi1 1_5455 5_5455 56.2(3) 56.2(4) 56.2(3)
Pb1 Bi1 Bi1 1_5455 5_5555 123.8(4) 123.7(4) 123.8(5)
Pb1 Bi1 O1 1_5455 1_5445 59.0(4) 57.4(5) 59.7(3)
Pb1 Bi1 O1 1_5455 1_5465 59.0(4) 57.4(5) 59.7(3)
Pb1 Bi1 O1 1_5455 1_5545 120.4(5) 119.4(4) 122.6(7)
Pb1 Bi1 O1 1_5455 1_5565 120.4(5) 119.4(4) 122.6(7)
Pb1 Bi1 O1 1_5455 5_4445 90.0(3) 89.9(4) 90.06(18)
Pb1 Bi1 O1 1_5455 5_4455 90.0(3) 89.25(18) 90.74(19)
Pb1 Bi1 O1 1_5455 5_5445 90.0(3) 89.25(18) 90.74(19)
Pb1 Bi1 O1 1_5455 5_5455 90.0(3) 89.9(4) 90.06(18)
Pb1 Bi1 O2 1_5455 1_4545 89.8(2) 89.77(18) 89.9(3)
Pb1 Bi1 O2 1_5455 1_5565 89.8(2) 89.77(18) 89.9(3)
Pb1 Bi1 O2 1_5455 5_4445 44.7(3) 36.1(4) 56.0(4)
Pb1 Bi1 O2 1_5455 5_4455 44.7(3) 36.1(4) 56.0(4)
Pb1 Bi1 O2 1_5455 5_4545 135.4(5) 124.0(7) 144.3(7)
Pb1 Bi1 O2 1_5455 5_4555 135.4(5) 124.0(7) 144.3(7)
Pb1 Bi1 O3 1_5455 1_4545 90.2(3) 90.2(3) 90.30(19)
Pb1 Bi1 O3 1_5455 1_6555 90.2(3) 90.2(3) 90.30(19)
Pb1 Bi1 O3 1_5455 5_4445 45.6(3) 41.2(3) 48.9(4)
Pb1 Bi1 O3 1_5455 5_4545 134.3(5) 131.3(6) 137.4(4)
Pb1 Bi1 O3 1_5455 5_5445 45.6(3) 41.2(3) 48.9(4)
Pb1 Bi1 O3 1_5455 5_5545 134.3(5) 131.3(6) 137.4(4)
Pb1 Bi1 Pb1 1_5545 . 100(600) 0 200(1400)
Pb1 Bi1 Pb1 1_5545 1_5565 176.2(6) 173.2(7) 180.0(5)
Pb1 Bi1 Pb1 1_5545 1_5655 90.1(4) 90.0(4) 90.6(4)
Pb1 Bi1 Pb1 1_5545 1_6555 87.9(5) 81.6(6) 92.4(6)
Pb1 Bi1 Pb1 1_5545 5_4455 128.4(5) 128.4(5) 128.4(5)
Pb1 Bi1 Pb1 1_5545 5_4555 128.4(5) 128.4(5) 128.4(5)
Pb1 Bi1 Pb1 1_5545 5_5455 120.9(5) 118.8(5) 122.0(5)
Pb1 Bi1 Pb1 1_5545 5_5555 120.9(5) 118.8(5) 122.0(5)
Pb1 Bi1 Bi1 1_5545 1_4555 92.6(5) 91.4(5) 95.9(6)
Pb1 Bi1 Bi1 1_5545 1_5455 90.0(4) 90.0(5) 90.0(5)
Pb1 Bi1 Bi1 1_5545 1_5545 0.1(5) 0.0(5) 0.4(4)
Pb1 Bi1 Bi1 1_5545 1_5565 176.3(6) 173.2(8) 180.0(5)
Pb1 Bi1 Bi1 1_5545 1_5655 90.0(4) 90.0(5) 90.0(5)
Pb1 Bi1 Bi1 1_5545 1_6555 87.8(5) 81.6(6) 91.7(6)
Pb1 Bi1 Bi1 1_5545 5_4455 128.9(5) 128.9(5) 128.9(5)
Pb1 Bi1 Bi1 1_5545 5_4555 128.9(5) 128.9(5) 128.9(5)
Pb1 Bi1 Bi1 1_5545 5_5455 121.5(5) 119.1(5) 122.6(5)
Pb1 Bi1 Bi1 1_5545 5_5555 121.5(5) 119.1(5) 122.6(5)
Pb1 Bi1 O1 1_5545 1_5455 52.9(6) 52.9(6) 52.9(6)
Pb1 Bi1 O1 1_5545 1_5465 149.2(3) 147.4(3) 150.0(3)
Pb1 Bi1 O1 1_5545 . 52.9(6) 52.9(6) 52.9(6)
Pb1 Bi1 O1 1_5545 1_5565 149.2(3) 147.4(3) 150.0(3)
Pb1 Bi1 O1 1_5545 5_4445 45.1(11) 36.9(9) 51.1(12)
Pb1 Bi1 O1 1_5545 5_4455 140.5(11) 132.9(12) 153.2(9)
Pb1 Bi1 O1 1_5545 5_5445 46.1(10) 28.3(9) 54.7(10)
Pb1 Bi1 O1 1_5545 5_5455 139.2(11) 123.0(13) 152.9(10)
Pb1 Bi1 O2 1_5545 1_4565 158.1(12) 158.1(12) 158.1(12)
Pb1 Bi1 O2 1_5545 1_5565 146.3(11) 142.2(11) 149.6(12)
Pb1 Bi1 O2 1_5545 5_4445 45.4(3) 34.1(3) 54.1(4)
Pb1 Bi1 O2 1_5545 5_4455 137.5(3) 127.0(6) 145.9(3)
Pb1 Bi1 O2 1_5545 5_4545 45.4(3) 34.1(3) 54.1(4)
Pb1 Bi1 O2 1_5545 5_4555 137.5(3) 127.0(6) 145.9(3)
Pb1 Bi1 O3 1_5545 . 166.0(9) 166.0(9) 166.0(9)
Pb1 Bi1 O3 1_5545 1_6555 105.1(7) 102.6(6) 106.7(7)
Pb1 Bi1 O3 1_5545 5_4445 93.5(9) 81.9(10) 108.4(9)
Pb1 Bi1 O3 1_5545 5_4545 93.5(9) 81.9(10) 108.4(9)
Pb1 Bi1 O3 1_5545 5_5445 92.6(9) 76.6(9) 106.7(9)
Pb1 Bi1 O3 1_5545 5_5545 92.6(9) 76.6(9) 106.7(9)
Pb1 Bi1 Pb1 . 1_5565 100(400) 0 200(1200)
Pb1 Bi1 Pb1 . 1_5655 87.9(4) 0 90.0(4)
Pb1 Bi1 Pb1 . 1_6555 100(300) 0 200(1600)
Pb1 Bi1 Pb1 . 5_4445 90(20) 90(15) 90(40)
Pb1 Bi1 Pb1 . 5_4545 90(20) 90(15) 90(40)
Pb1 Bi1 Pb1 . 5_5455 90(20) 90(15) 90(40)
Pb1 Bi1 Pb1 . 5_5555 90(20) 90(15) 90(40)
Pb1 Bi1 Bi1 . 1_4555 100(300) 0 200(1600)
Pb1 Bi1 Bi1 . 1_5455 88.1(4) 0 90.0(4)
Pb1 Bi1 Bi1 . 1_5545 100(400) 0 200(1200)
Pb1 Bi1 Bi1 . 1_5565 100(400) 0 200(1200)
Pb1 Bi1 Bi1 . 1_5655 88.1(4) 0 90.0(4)
Pb1 Bi1 Bi1 . 1_6555 100(300) 0 200(1600)
Pb1 Bi1 Bi1 . 5_4445 90(30) 89(15) 90(60)
Pb1 Bi1 Bi1 . 5_4545 90(30) 89(15) 90(60)
Pb1 Bi1 Bi1 . 5_5455 90(30) 89(15) 90(60)
Pb1 Bi1 Bi1 . 5_5555 90(30) 89(15) 90(60)
Pb1 Bi1 O1 . 1_5445 50(80) 50(19) 100(300)
Pb1 Bi1 O1 . 1_5465 50(80) 50(19) 100(300)
Pb1 Bi1 O1 . 1_5545 50(80) 50(19) 100(300)
Pb1 Bi1 O1 . 1_5565 50(80) 50(19) 100(300)
Pb1 Bi1 O1 . 5_4445 100(300) 0 100(1200)
Pb1 Bi1 O1 . 5_4455 100(300) 0 200(400)
Pb1 Bi1 O1 . 5_5445 100(300) 0 200(400)
Pb1 Bi1 O1 . 5_5455 100(300) 0 100(1200)
Pb1 Bi1 O2 . 1_4545 70(30) 70(40) 73(14)
Pb1 Bi1 O2 . 1_5565 70(30) 70(40) 73(14)
Pb1 Bi1 O2 . 5_4445 100(160) 0 150(90)
Pb1 Bi1 O2 . 5_4455 100(160) 0 150(90)
Pb1 Bi1 O2 . 5_4545 100(160) 0 150(90)
Pb1 Bi1 O2 . 5_4555 100(160) 0 150(90)
Pb1 Bi1 O3 . 1_4545 110(30) 113(18) 110(50)
Pb1 Bi1 O3 . 1_6555 110(30) 113(18) 110(50)
Pb1 Bi1 O3 . 5_4445 80(180) 0 140(90)
Pb1 Bi1 O3 . 5_4545 80(180) 0 140(90)
Pb1 Bi1 O3 . 5_5445 80(180) 0 140(90)
Pb1 Bi1 O3 . 5_5545 80(180) 0 140(90)
Pb1 Bi1 Pb1 1_5565 1_5655 90.1(4) 90.0(4) 90.6(4)
Pb1 Bi1 Pb1 1_5565 1_6555 92.6(5) 91.4(5) 95.6(6)
Pb1 Bi1 Pb1 1_5565 5_4445 120.9(5) 118.8(5) 122.0(5)
Pb1 Bi1 Pb1 1_5565 5_4545 120.9(5) 118.8(5) 122.0(5)
Pb1 Bi1 Pb1 1_5565 5_5445 128.4(5) 128.4(5) 128.4(5)
Pb1 Bi1 Pb1 1_5565 5_5545 128.4(5) 128.4(5) 128.4(5)
Pb1 Bi1 Bi1 1_5565 1_4555 87.8(5) 81.6(6) 91.7(6)
Pb1 Bi1 Bi1 1_5565 1_5455 90.0(4) 90.0(4) 90.0(4)
Pb1 Bi1 Bi1 1_5565 1_5545 176.3(6) 173.2(8) 180.0(5)
Pb1 Bi1 Bi1 1_5565 1_5565 0.1(5) 0.0(5) 0.4(4)
Pb1 Bi1 Bi1 1_5565 1_5655 90.0(4) 90.0(4) 90.0(4)
Pb1 Bi1 Bi1 1_5565 1_6555 92.6(5) 91.4(5) 95.9(6)
Pb1 Bi1 Bi1 1_5565 5_4445 121.5(5) 119.1(5) 122.6(5)
Pb1 Bi1 Bi1 1_5565 5_4545 121.5(5) 119.1(5) 122.6(5)
Pb1 Bi1 Bi1 1_5565 5_5445 128.9(5) 128.9(5) 128.9(5)
Pb1 Bi1 Bi1 1_5565 5_5545 128.9(5) 128.9(5) 128.9(5)
Pb1 Bi1 O1 1_5565 1_5445 149.2(3) 147.4(3) 150.0(3)
Pb1 Bi1 O1 1_5565 1_5455 52.9(6) 52.9(6) 52.9(6)
Pb1 Bi1 O1 1_5565 1_5545 149.2(3) 147.4(3) 150.0(3)
Pb1 Bi1 O1 1_5565 . 52.9(6) 52.9(6) 52.9(6)
Pb1 Bi1 O1 1_5565 5_4445 139.2(11) 123.0(13) 152.9(10)
Pb1 Bi1 O1 1_5565 5_4455 46.1(10) 28.3(9) 54.7(10)
Pb1 Bi1 O1 1_5565 5_5445 140.5(11) 132.9(12) 153.2(9)
Pb1 Bi1 O1 1_5565 5_5455 45.1(11) 36.9(9) 51.1(12)
Pb1 Bi1 O2 1_5565 1_4545 146.3(11) 142.2(11) 149.6(12)
Pb1 Bi1 O2 1_5565 1_5545 158.1(12) 158.1(12) 158.1(12)
Pb1 Bi1 O2 1_5565 5_4445 137.5(3) 127.0(6) 145.9(3)
Pb1 Bi1 O2 1_5565 5_4455 45.4(3) 34.1(3) 54.1(4)
Pb1 Bi1 O2 1_5565 5_4545 137.5(3) 127.0(6) 145.9(3)
Pb1 Bi1 O2 1_5565 5_4555 45.4(3) 34.1(3) 54.1(4)
Pb1 Bi1 O3 1_5565 1_4545 105.1(7) 102.6(6) 106.7(7)
Pb1 Bi1 O3 1_5565 1_5545 166.0(9) 166.0(9) 166.0(9)
Pb1 Bi1 O3 1_5565 5_4445 92.6(9) 76.6(9) 106.7(9)
Pb1 Bi1 O3 1_5565 5_4545 92.6(9) 76.6(9) 106.7(9)
Pb1 Bi1 O3 1_5565 5_5445 93.5(9) 81.9(10) 108.4(9)
Pb1 Bi1 O3 1_5565 5_5545 93.5(9) 81.9(10) 108.4(9)
Pb1 Bi1 Pb1 1_5655 1_6555 90.0(3) 89.51(19) 90.2(4)
Pb1 Bi1 Pb1 1_5655 5_4445 123.8(4) 123.8(4) 123.8(5)
Pb1 Bi1 Pb1 1_5655 5_4545 56.2(3) 56.2(3) 56.2(3)
Pb1 Bi1 Pb1 1_5655 5_5455 123.8(4) 123.8(4) 123.8(5)
Pb1 Bi1 Pb1 1_5655 5_5555 56.2(3) 56.2(3) 56.2(3)
Pb1 Bi1 Bi1 1_5655 1_4555 90.0(3) 89.51(19) 90.2(4)
Pb1 Bi1 Bi1 1_5655 1_5455 179.8(6) 179.2(5) 180.0(5)
Pb1 Bi1 Bi1 1_5655 1_5545 90.1(3) 90.0(3) 90.61(17)
Pb1 Bi1 Bi1 1_5655 1_5565 90.1(3) 90.0(3) 90.61(17)
Pb1 Bi1 Bi1 1_5655 1_5655 0.2(5) 0.0(5) 0.8(4)
Pb1 Bi1 Bi1 1_5655 1_6555 90.0(3) 89.51(19) 90.2(4)
Pb1 Bi1 Bi1 1_5655 5_4445 123.8(4) 123.7(4) 123.8(5)
Pb1 Bi1 Bi1 1_5655 5_4545 56.2(3) 56.2(4) 56.2(3)
Pb1 Bi1 Bi1 1_5655 5_5455 123.8(4) 123.7(4) 123.8(5)
Pb1 Bi1 Bi1 1_5655 5_5555 56.2(3) 56.2(4) 56.2(3)
Pb1 Bi1 O1 1_5655 1_5445 120.4(5) 119.4(4) 122.6(7)
Pb1 Bi1 O1 1_5655 1_5465 120.4(5) 119.4(4) 122.6(7)
Pb1 Bi1 O1 1_5655 1_5545 59.0(4) 57.4(5) 59.7(3)
Pb1 Bi1 O1 1_5655 1_5565 59.0(4) 57.4(5) 59.7(3)
Pb1 Bi1 O1 1_5655 5_4445 90.0(3) 89.9(4) 90.06(18)
Pb1 Bi1 O1 1_5655 5_4455 90.0(3) 89.25(18) 90.74(19)
Pb1 Bi1 O1 1_5655 5_5445 90.0(3) 89.25(18) 90.74(19)
Pb1 Bi1 O1 1_5655 5_5455 90.0(3) 89.9(4) 90.06(18)
Pb1 Bi1 O2 1_5655 1_4545 89.8(2) 89.77(18) 89.9(3)
Pb1 Bi1 O2 1_5655 1_5565 89.8(2) 89.77(18) 89.9(3)
Pb1 Bi1 O2 1_5655 5_4445 135.4(5) 124.0(7) 144.3(7)
Pb1 Bi1 O2 1_5655 5_4455 135.4(5) 124.0(7) 144.3(7)
Pb1 Bi1 O2 1_5655 5_4545 44.7(3) 36.1(4) 56.0(4)
Pb1 Bi1 O2 1_5655 5_4555 44.7(3) 36.1(4) 56.0(4)
Pb1 Bi1 O3 1_5655 1_4545 90.2(3) 90.2(3) 90.30(19)
Pb1 Bi1 O3 1_5655 1_6555 90.2(3) 90.2(3) 90.30(19)
Pb1 Bi1 O3 1_5655 5_4445 134.3(5) 131.3(6) 137.4(4)
Pb1 Bi1 O3 1_5655 5_4545 45.6(3) 41.2(3) 48.9(4)
Pb1 Bi1 O3 1_5655 5_5445 134.3(5) 131.3(6) 137.4(4)
Pb1 Bi1 O3 1_5655 5_5545 45.6(3) 41.2(3) 48.9(4)
Pb1 Bi1 Pb1 1_6555 5_4445 129.1(5) 128.2(6) 131.0(5)
Pb1 Bi1 Pb1 1_6555 5_4545 129.1(5) 128.2(6) 131.0(5)
Pb1 Bi1 Pb1 1_6555 5_5445 64.2(5) 64.2(5) 64.2(5)
Pb1 Bi1 Pb1 1_6555 5_5545 64.2(5) 64.2(5) 64.2(5)
Pb1 Bi1 Bi1 1_6555 1_4555 178.1(6) 175.4(7) 180.0(5)
Pb1 Bi1 Bi1 1_6555 1_5455 90.0(5) 90.0(4) 90.0(4)
Pb1 Bi1 Bi1 1_6555 1_5545 88.0(5) 82.0(6) 92.4(6)
Pb1 Bi1 Bi1 1_6555 1_5565 92.6(5) 91.4(5) 95.2(6)
Pb1 Bi1 Bi1 1_6555 1_5655 90.0(5) 90.0(4) 90.0(4)
Pb1 Bi1 Bi1 1_6555 1_6555 0.1(5) 0.0(5) 0.7(4)
Pb1 Bi1 Bi1 1_6555 5_4445 128.6(5) 127.6(6) 130.7(5)
Pb1 Bi1 Bi1 1_6555 5_4545 128.6(5) 127.6(6) 130.7(5)
Pb1 Bi1 Bi1 1_6555 5_5445 63.8(5) 63.8(5) 63.8(5)
Pb1 Bi1 Bi1 1_6555 5_5455 48.8(5) 48.8(5) 48.8(5)
Pb1 Bi1 Bi1 1_6555 5_5545 63.8(5) 63.8(5) 63.8(5)
Pb1 Bi1 Bi1 1_6555 5_5555 48.8(5) 48.8(5) 48.8(5)
Pb1 Bi1 O1 1_6555 1_5445 89.8(10) 88.2(10) 93.8(9)
Pb1 Bi1 O1 1_6555 1_5455 101.0(14) 101.0(14) 101.0(14)
Pb1 Bi1 O1 1_6555 1_5465 88.2(10) 87.8(10) 88.5(10)
Pb1 Bi1 O1 1_6555 1_5545 89.8(10) 88.2(10) 93.8(9)
Pb1 Bi1 O1 1_6555 . 101.0(14) 101.0(14) 101.0(14)
Pb1 Bi1 O1 1_6555 1_5565 88.2(10) 87.8(10) 88.5(10)
Pb1 Bi1 O1 1_6555 5_4445 130.1(11) 114.9(10) 143.4(14)
Pb1 Bi1 O1 1_6555 5_4455 136.7(11) 118.5(10) 146.9(12)
Pb1 Bi1 O1 1_6555 5_5445 46.6(10) 37.1(10) 60.7(9)
Pb1 Bi1 O1 1_6555 5_5455 49.0(11) 40.9(12) 60.5(9)
Pb1 Bi1 O2 1_6555 1_4545 121.3(11) 118.2(12) 125.3(11)
Pb1 Bi1 O2 1_6555 1_5545 65.7(12) 65.7(12) 65.7(12)
Pb1 Bi1 O2 1_6555 5_4445 88.6(17) 85.8(14) 91(2)
Pb1 Bi1 O2 1_6555 5_4455 92.0(18) 90.8(19) 94.8(19)
Pb1 Bi1 O2 1_6555 5_4545 88.6(17) 85.8(14) 91(2)
Pb1 Bi1 O2 1_6555 5_4555 92.0(18) 90.8(19) 94.8(19)
Pb1 Bi1 O3 1_6555 1_4545 162.5(7) 161.1(8) 165.0(6)
Pb1 Bi1 O3 1_6555 1_5545 101.6(9) 101.6(9) 101.6(9)
Pb1 Bi1 O3 1_6555 5_4445 134.2(3) 131.8(4) 136.5(3)
Pb1 Bi1 O3 1_6555 5_4545 134.2(3) 131.8(4) 136.5(3)
Pb1 Bi1 O3 1_6555 5_5445 45.8(3) 43.3(3) 53.0(3)
Pb1 Bi1 O3 1_6555 5_5545 45.8(3) 43.3(3) 53.0(3)
Pb1 Bi1 Pb1 5_4445 5_4545 67.5(3) 67.5(3) 67.6(3)
Pb1 Bi1 Pb1 5_4445 5_5445 66.8(6) 66.8(6) 66.8(6)
Pb1 Bi1 Pb1 5_4445 5_5545 110.5(6) 110.5(6) 110.5(6)
Pb1 Bi1 Bi1 5_4445 1_5455 56.2(4) 56.2(4) 56.2(4)
Pb1 Bi1 Bi1 5_4445 1_5655 123.8(5) 123.8(5) 123.8(5)
Pb1 Bi1 Bi1 5_4445 1_6555 129.2(4) 128.3(4) 131.2(4)
Pb1 Bi1 Bi1 5_4445 5_4445 0.6(5) 0.3(5) 0.8(5)
Pb1 Bi1 Bi1 5_4445 5_4545 67.5(3) 67.5(3) 67.6(3)
Pb1 Bi1 Bi1 5_4445 5_5445 67.2(6) 67.2(6) 67.2(6)
Pb1 Bi1 Bi1 5_4445 5_5545 110.2(6) 110.2(6) 110.2(6)
Pb1 Bi1 O1 5_4445 1_5445 40.9(9) 40.3(9) 42.1(9)
Pb1 Bi1 O1 5_4445 1_5455 75.2(10) 75.2(10) 75.2(10)
Pb1 Bi1 O1 5_4445 1_5545 78.5(6) 78.1(6) 79.4(7)
Pb1 Bi1 O1 5_4445 . 127.7(14) 127.7(14) 127.7(14)
Pb1 Bi1 O1 5_4445 5_4455 77.1(8) 75.7(8) 77.7(8)
Pb1 Bi1 O1 5_4445 5_5445 81.4(7) 81.0(7) 82.3(8)
Pb1 Bi1 O1 5_4445 5_5455 146.06(19) 145.5(3) 146.23(15)
Pb1 Bi1 O2 5_4445 1_4545 37.8(5) 37.3(5) 38.7(5)
Pb1 Bi1 O2 5_4445 1_5545 78.8(10) 78.8(10) 78.8(10)
Pb1 Bi1 O2 5_4445 5_4455 80.9(12) 80.6(11) 81.0(12)
Pb1 Bi1 O2 5_4445 5_4555 136.8(19) 135.1(19) 138(2)
Pb1 Bi1 O3 5_4445 1_4545 40.1(3) 39.9(3) 40.3(3)
Pb1 Bi1 O3 5_4445 1_5545 50.9(6) 50.9(6) 50.9(6)
Pb1 Bi1 O3 5_4445 5_5445 81.9(5) 79.5(5) 84.5(5)
Pb1 Bi1 O3 5_4445 5_5545 131.7(9) 130.2(9) 133.6(10)
Pb1 Bi1 Pb1 5_4455 5_4555 83.9(4) 83.9(4) 83.9(4)
Pb1 Bi1 Pb1 5_4455 5_5455 66.8(4) 66.8(4) 66.8(4)
Pb1 Bi1 Pb1 5_4455 5_5555 110.5(5) 110.5(5) 110.5(5)
Pb1 Bi1 Bi1 5_4455 1_4555 64.3(4) 64.3(4) 64.3(4)
Pb1 Bi1 Bi1 5_4455 1_5455 48.0(4) 48.0(4) 48.0(4)
Pb1 Bi1 Bi1 5_4455 1_5655 132.0(5) 132.0(5) 132.0(5)
Pb1 Bi1 Bi1 5_4455 5_4455 0.8(4) 0.8(4) 0.8(4)
Pb1 Bi1 Bi1 5_4455 5_4555 83.2(4) 83.2(4) 83.2(4)
Pb1 Bi1 Bi1 5_4455 5_5455 66.6(4) 66.6(4) 66.6(4)
Pb1 Bi1 Bi1 5_4455 5_5555 110.3(5) 110.3(5) 110.3(5)
Pb1 Bi1 O1 5_4455 1_5455 85.5(9) 85.5(9) 85.5(9)
Pb1 Bi1 O1 5_4455 1_5465 34.2(8) 34.2(8) 34.2(8)
Pb1 Bi1 O1 5_4455 . 164.6(13) 164.6(13) 164.6(13)
Pb1 Bi1 O1 5_4455 1_5565 81.2(5) 81.2(5) 81.2(5)
Pb1 Bi1 O1 5_4455 5_4445 96.8(10) 96.8(10) 96.8(10)
Pb1 Bi1 O1 5_4455 5_5445 134.6(4) 134.6(4) 134.6(4)
Pb1 Bi1 O2 5_4455 1_4565 43.2(3) 43.2(3) 43.2(3)
Pb1 Bi1 O2 5_4455 1_5565 76.1(8) 76.1(8) 76.1(8)
Pb1 Bi1 O3 5_4455 . 59.8(5) 59.8(5) 59.8(5)
Pb1 Bi1 Pb1 5_4545 5_5445 110.5(6) 110.5(6) 110.5(6)
Pb1 Bi1 Pb1 5_4545 5_5545 66.8(6) 66.8(6) 66.8(6)
Pb1 Bi1 Bi1 5_4545 1_5455 123.8(5) 123.8(5) 123.8(5)
Pb1 Bi1 Bi1 5_4545 1_5655 56.2(4) 56.2(4) 56.2(4)
Pb1 Bi1 Bi1 5_4545 1_6555 129.2(4) 128.3(4) 131.2(4)
Pb1 Bi1 Bi1 5_4545 5_4445 67.5(3) 67.5(3) 67.6(3)
Pb1 Bi1 Bi1 5_4545 5_4545 0.6(5) 0.3(5) 0.8(5)
Pb1 Bi1 Bi1 5_4545 5_5445 110.2(6) 110.2(6) 110.2(6)
Pb1 Bi1 Bi1 5_4545 5_5545 67.2(6) 67.2(6) 67.2(6)
Pb1 Bi1 O1 5_4545 1_5445 78.5(6) 78.1(6) 79.4(7)
Pb1 Bi1 O1 5_4545 1_5455 127.7(14) 127.7(14) 127.7(14)
Pb1 Bi1 O1 5_4545 1_5545 40.9(9) 40.3(9) 42.1(9)
Pb1 Bi1 O1 5_4545 . 75.2(10) 75.2(10) 75.2(10)
Pb1 Bi1 O1 5_4545 5_4455 77.1(8) 75.7(8) 77.7(8)
Pb1 Bi1 O1 5_4545 5_5445 81.4(7) 81.0(7) 82.3(8)
Pb1 Bi1 O1 5_4545 5_5455 146.06(19) 145.5(3) 146.23(15)
Pb1 Bi1 O2 5_4545 1_4545 37.8(5) 37.3(5) 38.7(5)
Pb1 Bi1 O2 5_4545 1_5545 78.8(10) 78.8(10) 78.8(10)
Pb1 Bi1 O2 5_4545 5_4455 136.8(19) 135.1(19) 138(2)
Pb1 Bi1 O2 5_4545 5_4555 80.9(12) 80.6(11) 81.0(12)
Pb1 Bi1 O3 5_4545 1_4545 40.1(3) 39.9(3) 40.3(3)
Pb1 Bi1 O3 5_4545 1_5545 50.9(6) 50.9(6) 50.9(6)
Pb1 Bi1 O3 5_4545 5_5445 131.7(9) 130.2(9) 133.6(10)
Pb1 Bi1 O3 5_4545 5_5545 81.9(5) 79.5(5) 84.5(5)
Pb1 Bi1 Pb1 5_4555 5_5455 110.5(5) 110.5(5) 110.5(5)
Pb1 Bi1 Pb1 5_4555 5_5555 66.8(4) 66.8(4) 66.8(4)
Pb1 Bi1 Bi1 5_4555 1_4555 64.3(4) 64.3(4) 64.3(4)
Pb1 Bi1 Bi1 5_4555 1_5455 132.0(5) 132.0(5) 132.0(5)
Pb1 Bi1 Bi1 5_4555 1_5655 48.0(4) 48.0(4) 48.0(4)
Pb1 Bi1 Bi1 5_4555 5_4455 83.2(4) 83.2(4) 83.2(4)
Pb1 Bi1 Bi1 5_4555 5_4555 0.8(4) 0.8(4) 0.8(4)
Pb1 Bi1 Bi1 5_4555 5_5455 110.3(5) 110.3(5) 110.3(5)
Pb1 Bi1 Bi1 5_4555 5_5555 66.6(4) 66.6(4) 66.6(4)
Pb1 Bi1 O1 5_4555 1_5455 164.6(13) 164.6(13) 164.6(13)
Pb1 Bi1 O1 5_4555 1_5465 81.2(5) 81.2(5) 81.2(5)
Pb1 Bi1 O1 5_4555 . 85.5(9) 85.5(9) 85.5(9)
Pb1 Bi1 O1 5_4555 1_5565 34.2(8) 34.2(8) 34.2(8)
Pb1 Bi1 O1 5_4555 5_4445 96.8(10) 96.8(10) 96.8(10)
Pb1 Bi1 O1 5_4555 5_5445 134.6(4) 134.6(4) 134.6(4)
Pb1 Bi1 O2 5_4555 1_4565 43.2(3) 43.2(3) 43.2(3)
Pb1 Bi1 O2 5_4555 1_5565 76.1(8) 76.1(8) 76.1(8)
Pb1 Bi1 O3 5_4555 . 59.8(5) 59.8(5) 59.8(5)
Pb1 Bi1 Pb1 5_5445 5_5545 83.9(4) 83.9(4) 83.9(4)
Pb1 Bi1 Bi1 5_5445 1_5455 48.0(4) 48.0(4) 48.0(4)
Pb1 Bi1 Bi1 5_5445 1_5655 132.0(5) 132.0(5) 132.0(5)
Pb1 Bi1 Bi1 5_5445 1_6555 64.3(4) 64.3(4) 64.3(4)
Pb1 Bi1 Bi1 5_5445 5_4445 66.6(4) 66.6(4) 66.6(4)
Pb1 Bi1 Bi1 5_5445 5_4545 110.3(5) 110.3(5) 110.3(5)
Pb1 Bi1 Bi1 5_5445 5_5445 0.8(4) 0.8(4) 0.8(4)
Pb1 Bi1 Bi1 5_5445 5_5545 83.2(4) 83.2(4) 83.2(4)
Pb1 Bi1 O1 5_5445 1_5445 34.2(8) 34.2(8) 34.2(8)
Pb1 Bi1 O1 5_5445 1_5455 85.5(9) 85.5(9) 85.5(9)
Pb1 Bi1 O1 5_5445 1_5545 81.2(5) 81.2(5) 81.2(5)
Pb1 Bi1 O1 5_5445 . 164.6(13) 164.6(13) 164.6(13)
Pb1 Bi1 O1 5_5445 5_4455 134.6(4) 134.6(4) 134.6(4)
Pb1 Bi1 O1 5_5445 5_5455 96.8(10) 96.8(10) 96.8(10)
Pb1 Bi1 O2 5_5445 1_4545 76.1(8) 76.1(8) 76.1(8)
Pb1 Bi1 O2 5_5445 1_5545 43.2(3) 43.2(3) 43.2(3)
Pb1 Bi1 O3 5_5445 1_5545 59.8(5) 59.8(5) 59.8(5)
Pb1 Bi1 Pb1 5_5455 5_5555 67.5(3) 67.5(3) 67.6(3)
Pb1 Bi1 Bi1 5_5455 1_4555 129.2(4) 128.3(4) 131.2(4)
Pb1 Bi1 Bi1 5_5455 1_5455 56.2(4) 56.2(4) 56.2(4)
Pb1 Bi1 Bi1 5_5455 1_5655 123.8(5) 123.8(5) 123.8(5)
Pb1 Bi1 Bi1 5_5455 5_4455 67.2(6) 67.2(6) 67.2(6)
Pb1 Bi1 Bi1 5_5455 5_4555 110.2(6) 110.2(6) 110.2(6)
Pb1 Bi1 Bi1 5_5455 5_5455 0.6(5) 0.3(5) 0.8(5)
Pb1 Bi1 Bi1 5_5455 5_5555 67.5(3) 67.5(3) 67.6(3)
Pb1 Bi1 O1 5_5455 1_5455 75.2(10) 75.2(10) 75.2(10)
Pb1 Bi1 O1 5_5455 1_5465 40.9(9) 40.3(9) 42.1(9)
Pb1 Bi1 O1 5_5455 . 127.7(14) 127.7(14) 127.7(14)
Pb1 Bi1 O1 5_5455 1_5565 78.5(6) 78.1(6) 79.4(7)
Pb1 Bi1 O1 5_5455 5_4445 146.06(19) 145.5(3) 146.23(15)
Pb1 Bi1 O1 5_5455 5_4455 81.4(7) 81.0(7) 82.3(8)
Pb1 Bi1 O1 5_5455 5_5445 77.1(8) 75.7(8) 77.7(8)
Pb1 Bi1 O2 5_5455 1_4565 78.8(10) 78.8(10) 78.8(10)
Pb1 Bi1 O2 5_5455 1_5565 37.8(5) 37.3(5) 38.7(5)
Pb1 Bi1 O2 5_5455 5_4445 80.9(12) 80.6(11) 81.0(12)
Pb1 Bi1 O2 5_5455 5_4545 136.8(19) 135.1(19) 138(2)
Pb1 Bi1 O3 5_5455 . 50.9(6) 50.9(6) 50.9(6)
Pb1 Bi1 O3 5_5455 1_6555 40.1(3) 39.9(3) 40.3(3)
Pb1 Bi1 O3 5_5455 5_4445 81.9(5) 79.5(5) 84.5(5)
Pb1 Bi1 O3 5_5455 5_4545 131.7(9) 130.2(9) 133.6(10)
Pb1 Bi1 Bi1 5_5545 1_5455 132.0(5) 132.0(5) 132.0(5)
Pb1 Bi1 Bi1 5_5545 1_5655 48.0(4) 48.0(4) 48.0(4)
Pb1 Bi1 Bi1 5_5545 1_6555 64.3(4) 64.3(4) 64.3(4)
Pb1 Bi1 Bi1 5_5545 5_4445 110.3(5) 110.3(5) 110.3(5)
Pb1 Bi1 Bi1 5_5545 5_4545 66.6(4) 66.6(4) 66.6(4)
Pb1 Bi1 Bi1 5_5545 5_5445 83.2(4) 83.2(4) 83.2(4)
Pb1 Bi1 Bi1 5_5545 5_5545 0.8(4) 0.8(4) 0.8(4)
Pb1 Bi1 O1 5_5545 1_5445 81.2(5) 81.2(5) 81.2(5)
Pb1 Bi1 O1 5_5545 1_5455 164.6(13) 164.6(13) 164.6(13)
Pb1 Bi1 O1 5_5545 1_5545 34.2(8) 34.2(8) 34.2(8)
Pb1 Bi1 O1 5_5545 . 85.5(9) 85.5(9) 85.5(9)
Pb1 Bi1 O1 5_5545 5_4455 134.6(4) 134.6(4) 134.6(4)
Pb1 Bi1 O1 5_5545 5_5455 96.8(10) 96.8(10) 96.8(10)
Pb1 Bi1 O2 5_5545 1_4545 76.1(8) 76.1(8) 76.1(8)
Pb1 Bi1 O2 5_5545 1_5545 43.2(3) 43.2(3) 43.2(3)
Pb1 Bi1 O3 5_5545 1_5545 59.8(5) 59.8(5) 59.8(5)
Pb1 Bi1 Bi1 5_5555 1_4555 129.2(4) 128.3(4) 131.2(4)
Pb1 Bi1 Bi1 5_5555 1_5455 123.8(5) 123.8(5) 123.8(5)
Pb1 Bi1 Bi1 5_5555 1_5655 56.2(4) 56.2(4) 56.2(4)
Pb1 Bi1 Bi1 5_5555 5_4455 110.2(6) 110.2(6) 110.2(6)
Pb1 Bi1 Bi1 5_5555 5_4555 67.2(6) 67.2(6) 67.2(6)
Pb1 Bi1 Bi1 5_5555 5_5455 67.5(3) 67.5(3) 67.6(3)
Pb1 Bi1 Bi1 5_5555 5_5555 0.6(5) 0.3(5) 0.8(5)
Pb1 Bi1 O1 5_5555 1_5455 127.7(14) 127.7(14) 127.7(14)
Pb1 Bi1 O1 5_5555 1_5465 78.5(6) 78.1(6) 79.4(7)
Pb1 Bi1 O1 5_5555 . 75.2(10) 75.2(10) 75.2(10)
Pb1 Bi1 O1 5_5555 1_5565 40.9(9) 40.3(9) 42.1(9)
Pb1 Bi1 O1 5_5555 5_4445 146.06(19) 145.5(3) 146.23(15)
Pb1 Bi1 O1 5_5555 5_4455 81.4(7) 81.0(7) 82.3(8)
Pb1 Bi1 O1 5_5555 5_5445 77.1(8) 75.7(8) 77.7(8)
Pb1 Bi1 O2 5_5555 1_4565 78.8(10) 78.8(10) 78.8(10)
Pb1 Bi1 O2 5_5555 1_5565 37.8(5) 37.3(5) 38.7(5)
Pb1 Bi1 O2 5_5555 5_4445 136.8(19) 135.1(19) 138(2)
Pb1 Bi1 O2 5_5555 5_4545 80.9(12) 80.6(11) 81.0(12)
Pb1 Bi1 O3 5_5555 . 50.9(6) 50.9(6) 50.9(6)
Pb1 Bi1 O3 5_5555 1_6555 40.1(3) 39.9(3) 40.3(3)
Pb1 Bi1 O3 5_5555 5_4445 131.7(9) 130.2(9) 133.6(10)
Pb1 Bi1 O3 5_5555 5_4545 81.9(5) 79.5(5) 84.5(5)
Bi1 Bi1 Bi1 1_4555 1_5455 90.0(5) 90.0(5) 90.0(5)
Bi1 Bi1 Bi1 1_4555 1_5545 92.6(5) 91.4(5) 95.5(6)
Bi1 Bi1 Bi1 1_4555 1_5565 87.9(5) 82.0(6) 91.7(6)
Bi1 Bi1 Bi1 1_4555 1_5655 90.0(5) 90.0(5) 90.0(5)
Bi1 Bi1 Bi1 1_4555 1_6555 178.2(6) 176.2(7) 180.0(5)
Bi1 Bi1 Bi1 1_4555 5_4445 49.3(5) 49.3(5) 49.3(5)
Bi1 Bi1 Bi1 1_4555 5_4455 64.0(5) 64.0(5) 64.0(5)
Bi1 Bi1 Bi1 1_4555 5_4545 49.3(5) 49.3(5) 49.3(5)
Bi1 Bi1 Bi1 1_4555 5_4555 64.0(5) 64.0(5) 64.0(5)
Bi1 Bi1 Bi1 1_4555 5_5455 128.6(5) 127.6(6) 130.9(5)
Bi1 Bi1 Bi1 1_4555 5_5555 128.6(5) 127.6(6) 130.9(5)
Bi1 Bi1 O1 1_4555 1_5445 88.6(10) 88.3(11) 88.9(10)
Bi1 Bi1 O1 1_4555 1_5455 100.9(14) 100.9(14) 100.9(14)
Bi1 Bi1 O1 1_4555 1_5465 89.8(10) 88.2(10) 94.0(9)
Bi1 Bi1 O1 1_4555 1_5545 88.6(10) 88.3(11) 88.9(10)
Bi1 Bi1 O1 1_4555 . 100.9(14) 100.9(14) 100.9(14)
Bi1 Bi1 O1 1_4555 1_5565 89.8(10) 88.2(10) 94.0(9)
Bi1 Bi1 O1 1_4555 5_4445 49.0(11) 40.9(12) 61.2(9)
Bi1 Bi1 O1 1_4555 5_4455 46.5(10) 36.7(10) 60.9(9)
Bi1 Bi1 O1 1_4555 5_5445 136.7(11) 119.2(10) 146.9(12)
Bi1 Bi1 O1 1_4555 5_5455 130.0(11) 114.9(10) 142.7(14)
Bi1 Bi1 O2 1_4555 1_4565 65.9(12) 65.9(12) 65.9(12)
Bi1 Bi1 O2 1_4555 1_5565 121.4(11) 118.2(12) 125.6(11)
Bi1 Bi1 O2 1_4555 5_4445 92.0(18) 90.8(19) 94.7(19)
Bi1 Bi1 O2 1_4555 5_4455 88.5(17) 85.8(14) 90(2)
Bi1 Bi1 O2 1_4555 5_4545 92.0(18) 90.8(19) 94.7(19)
Bi1 Bi1 O2 1_4555 5_4555 88.5(17) 85.8(14) 90(2)
Bi1 Bi1 O3 1_4555 . 101.8(9) 101.8(9) 101.8(9)
Bi1 Bi1 O3 1_4555 1_6555 162.7(7) 161.1(8) 165.2(6)
Bi1 Bi1 O3 1_4555 5_4445 45.9(3) 43.3(3) 53.0(3)
Bi1 Bi1 O3 1_4555 5_4545 45.9(3) 43.3(3) 53.0(3)
Bi1 Bi1 O3 1_4555 5_5445 134.3(3) 132.0(4) 136.5(3)
Bi1 Bi1 O3 1_4555 5_5545 134.3(3) 132.0(4) 136.5(3)
Bi1 Bi1 Bi1 1_5455 1_5545 90.0(3) 90.0(5) 90.0(5)
Bi1 Bi1 Bi1 1_5455 1_5565 90.0(3) 90.00(16) 90.00(16)
Bi1 Bi1 Bi1 1_5455 1_5655 180.0(5) 180.0(5) 180.0(5)
Bi1 Bi1 Bi1 1_5455 1_6555 90.0(3) 90.00(18) 90.00(18)
Bi1 Bi1 Bi1 1_5455 5_4445 56.2(3) 56.2(3) 56.2(3)
Bi1 Bi1 Bi1 1_5455 5_4455 48.8(4) 48.8(4) 48.8(4)
Bi1 Bi1 Bi1 1_5455 5_4545 123.8(4) 123.8(4) 123.8(3)
Bi1 Bi1 Bi1 1_5455 5_4555 131.2(4) 131.2(4) 131.2(4)
Bi1 Bi1 Bi1 1_5455 5_5445 48.8(4) 48.8(4) 48.8(4)
Bi1 Bi1 Bi1 1_5455 5_5455 56.2(3) 56.2(3) 56.2(3)
Bi1 Bi1 Bi1 1_5455 5_5545 131.2(4) 131.2(4) 131.2(4)
Bi1 Bi1 Bi1 1_5455 5_5555 123.8(4) 123.8(4) 123.8(3)
Bi1 Bi1 O1 1_5455 1_5445 59.3(4) 57.4(5) 60.1(3)
Bi1 Bi1 O1 1_5455 1_5455 38.7(7) 38.7(7) 38.7(7)
Bi1 Bi1 O1 1_5455 1_5465 59.3(4) 57.4(5) 60.1(3)
Bi1 Bi1 O1 1_5455 1_5545 120.7(5) 119.9(4) 122.6(7)
Bi1 Bi1 O1 1_5455 . 141.3(8) 141.3(8) 141.3(8)
Bi1 Bi1 O1 1_5455 1_5565 120.7(5) 119.9(4) 122.6(7)
Bi1 Bi1 O1 1_5455 5_4445 90.0(3) 90.0(4) 90.0(4)
Bi1 Bi1 O1 1_5455 5_4455 90.0(3) 90.00(17) 90.00(17)
Bi1 Bi1 O1 1_5455 5_5445 90.0(3) 90.00(18) 90.00(18)
Bi1 Bi1 O1 1_5455 5_5455 90.0(3) 90.00(16) 90.00(16)
Bi1 Bi1 O2 1_5455 1_4545 90.0(2) 90.00(16) 90.00(16)
Bi1 Bi1 O2 1_5455 1_4565 90.00(16) 90.00(16) 90.00(16)
Bi1 Bi1 O2 1_5455 1_5545 90.00(16) 90.00(16) 90.00(16)
Bi1 Bi1 O2 1_5455 1_5565 90.0(2) 90.0(3) 90.0(3)
Bi1 Bi1 O2 1_5455 5_4445 44.6(3) 35.9(4) 56.0(4)
Bi1 Bi1 O2 1_5455 5_4455 44.6(3) 35.9(4) 56.0(4)
Bi1 Bi1 O2 1_5455 5_4545 135.4(5) 124.0(7) 144.1(7)
Bi1 Bi1 O2 1_5455 5_4555 135.4(5) 124.0(7) 144.1(7)
Bi1 Bi1 O3 1_5455 1_4545 90.0(2) 90.00(17) 90.00(17)
Bi1 Bi1 O3 1_5455 1_5545 90.00(16) 90.00(16) 90.00(16)
Bi1 Bi1 O3 1_5455 . 90.00(16) 90.00(16) 90.00(16)
Bi1 Bi1 O3 1_5455 1_6555 90.0(2) 90.0(3) 90.0(3)
Bi1 Bi1 O3 1_5455 5_4445 45.6(3) 41.9(3) 48.8(4)
Bi1 Bi1 O3 1_5455 5_4545 134.4(5) 131.2(6) 138.1(4)
Bi1 Bi1 O3 1_5455 5_5445 45.6(3) 41.9(3) 48.8(4)
Bi1 Bi1 O3 1_5455 5_5545 134.4(5) 131.2(6) 138.1(4)
Bi1 Bi1 Bi1 1_5545 1_5565 176.4(6) 173.6(7) 180.0(5)
Bi1 Bi1 Bi1 1_5545 1_5655 90.0(4) 90.0(5) 90.0(5)
Bi1 Bi1 Bi1 1_5545 1_6555 87.9(5) 82.0(6) 91.7(6)
Bi1 Bi1 Bi1 1_5545 5_4455 128.9(5) 128.9(5) 128.9(5)
Bi1 Bi1 Bi1 1_5545 5_4555 128.9(5) 128.9(5) 128.9(5)
Bi1 Bi1 Bi1 1_5545 5_5455 121.5(5) 119.0(5) 122.6(5)
Bi1 Bi1 Bi1 1_5545 5_5555 121.5(5) 119.0(5) 122.6(5)
Bi1 Bi1 O1 1_5545 1_5455 52.9(6) 52.9(6) 52.9(6)
Bi1 Bi1 O1 1_5545 1_5465 149.2(3) 147.4(3) 150.0(3)
Bi1 Bi1 O1 1_5545 . 52.9(6) 52.9(6) 52.9(6)
Bi1 Bi1 O1 1_5545 1_5565 149.2(3) 147.4(3) 150.0(3)
Bi1 Bi1 O1 1_5545 5_4445 45.1(11) 36.4(9) 51.1(12)
Bi1 Bi1 O1 1_5545 5_4455 140.4(11) 132.4(12) 153.3(9)
Bi1 Bi1 O1 1_5545 5_5445 46.2(10) 28.8(9) 54.7(10)
Bi1 Bi1 O1 1_5545 5_5455 139.3(11) 123.4(13) 152.9(10)
Bi1 Bi1 O2 1_5545 1_4565 158.2(12) 158.2(12) 158.2(12)
Bi1 Bi1 O2 1_5545 1_5565 146.3(11) 142.2(11) 149.6(12)
Bi1 Bi1 O2 1_5545 5_4445 45.4(3) 34.1(3) 54.1(4)
Bi1 Bi1 O2 1_5545 5_4455 137.5(3) 127.1(6) 145.9(3)
Bi1 Bi1 O2 1_5545 5_4545 45.4(3) 34.1(3) 54.1(4)
Bi1 Bi1 O2 1_5545 5_4555 137.5(3) 127.1(6) 145.9(3)
Bi1 Bi1 O3 1_5545 . 165.9(9) 165.9(9) 165.9(9)
Bi1 Bi1 O3 1_5545 1_6555 105.1(7) 102.5(6) 106.7(7)
Bi1 Bi1 O3 1_5545 5_4445 93.5(9) 81.6(10) 108.4(9)
Bi1 Bi1 O3 1_5545 5_4545 93.5(9) 81.6(10) 108.4(9)
Bi1 Bi1 O3 1_5545 5_5445 92.6(9) 76.9(9) 106.8(9)
Bi1 Bi1 O3 1_5545 5_5545 92.6(9) 76.9(9) 106.8(9)
Bi1 Bi1 Bi1 1_5565 1_5655 90.0(4) 90.0(4) 90.0(4)
Bi1 Bi1 Bi1 1_5565 1_6555 92.6(5) 91.4(5) 95.5(6)
Bi1 Bi1 Bi1 1_5565 5_4445 121.5(5) 119.0(5) 122.6(5)
Bi1 Bi1 Bi1 1_5565 5_4545 121.5(5) 119.0(5) 122.6(5)
Bi1 Bi1 Bi1 1_5565 5_5445 128.9(5) 128.9(5) 128.9(5)
Bi1 Bi1 Bi1 1_5565 5_5545 128.9(5) 128.9(5) 128.9(5)
Bi1 Bi1 O1 1_5565 1_5445 149.2(3) 147.4(3) 150.0(3)
Bi1 Bi1 O1 1_5565 1_5455 52.9(6) 52.9(6) 52.9(6)
Bi1 Bi1 O1 1_5565 1_5545 149.2(3) 147.4(3) 150.0(3)
Bi1 Bi1 O1 1_5565 . 52.9(6) 52.9(6) 52.9(6)
Bi1 Bi1 O1 1_5565 5_4445 139.3(11) 123.4(13) 152.9(10)
Bi1 Bi1 O1 1_5565 5_4455 46.2(10) 28.8(9) 54.7(10)
Bi1 Bi1 O1 1_5565 5_5445 140.4(11) 132.4(12) 153.3(9)
Bi1 Bi1 O1 1_5565 5_5455 45.1(11) 36.4(9) 51.1(12)
Bi1 Bi1 O2 1_5565 1_4545 146.3(11) 142.2(11) 149.6(12)
Bi1 Bi1 O2 1_5565 1_5545 158.2(12) 158.2(12) 158.2(12)
Bi1 Bi1 O2 1_5565 5_4445 137.5(3) 127.1(6) 145.9(3)
Bi1 Bi1 O2 1_5565 5_4455 45.4(3) 34.1(3) 54.1(4)
Bi1 Bi1 O2 1_5565 5_4545 137.5(3) 127.1(6) 145.9(3)
Bi1 Bi1 O2 1_5565 5_4555 45.4(3) 34.1(3) 54.1(4)
Bi1 Bi1 O3 1_5565 1_4545 105.1(7) 102.5(6) 106.7(7)
Bi1 Bi1 O3 1_5565 1_5545 165.9(9) 165.9(9) 165.9(9)
Bi1 Bi1 O3 1_5565 5_4445 92.6(9) 76.9(9) 106.8(9)
Bi1 Bi1 O3 1_5565 5_4545 92.6(9) 76.9(9) 106.8(9)
Bi1 Bi1 O3 1_5565 5_5445 93.5(9) 81.6(10) 108.4(9)
Bi1 Bi1 O3 1_5565 5_5545 93.5(9) 81.6(10) 108.4(9)
Bi1 Bi1 Bi1 1_5655 1_6555 90.0(3) 90.00(18) 90.00(18)
Bi1 Bi1 Bi1 1_5655 5_4445 123.8(4) 123.8(4) 123.8(3)
Bi1 Bi1 Bi1 1_5655 5_4455 131.2(4) 131.2(4) 131.2(4)
Bi1 Bi1 Bi1 1_5655 5_4545 56.2(3) 56.2(3) 56.2(3)
Bi1 Bi1 Bi1 1_5655 5_4555 48.8(4) 48.8(4) 48.8(4)
Bi1 Bi1 Bi1 1_5655 5_5445 131.2(4) 131.2(4) 131.2(4)
Bi1 Bi1 Bi1 1_5655 5_5455 123.8(4) 123.8(4) 123.8(3)
Bi1 Bi1 Bi1 1_5655 5_5545 48.8(4) 48.8(4) 48.8(4)
Bi1 Bi1 Bi1 1_5655 5_5555 56.2(3) 56.2(3) 56.2(3)
Bi1 Bi1 O1 1_5655 1_5445 120.7(5) 119.9(4) 122.6(7)
Bi1 Bi1 O1 1_5655 1_5455 141.3(8) 141.3(8) 141.3(8)
Bi1 Bi1 O1 1_5655 1_5465 120.7(5) 119.9(4) 122.6(7)
Bi1 Bi1 O1 1_5655 1_5545 59.3(4) 57.4(5) 60.1(3)
Bi1 Bi1 O1 1_5655 . 38.7(7) 38.7(7) 38.7(7)
Bi1 Bi1 O1 1_5655 1_5565 59.3(4) 57.4(5) 60.1(3)
Bi1 Bi1 O1 1_5655 5_4445 90.0(3) 90.0(4) 90.0(4)
Bi1 Bi1 O1 1_5655 5_4455 90.0(3) 90.00(17) 90.00(17)
Bi1 Bi1 O1 1_5655 5_5445 90.0(3) 90.00(18) 90.00(18)
Bi1 Bi1 O1 1_5655 5_5455 90.0(3) 90.00(16) 90.00(16)
Bi1 Bi1 O2 1_5655 1_4545 90.0(2) 90.00(16) 90.00(16)
Bi1 Bi1 O2 1_5655 1_4565 90.00(16) 90.00(16) 90.00(16)
Bi1 Bi1 O2 1_5655 1_5545 90.00(16) 90.00(16) 90.00(16)
Bi1 Bi1 O2 1_5655 1_5565 90.0(2) 90.0(3) 90.0(3)
Bi1 Bi1 O2 1_5655 5_4445 135.4(5) 124.0(7) 144.1(7)
Bi1 Bi1 O2 1_5655 5_4455 135.4(5) 124.0(7) 144.1(7)
Bi1 Bi1 O2 1_5655 5_4545 44.6(3) 35.9(4) 56.0(4)
Bi1 Bi1 O2 1_5655 5_4555 44.6(3) 35.9(4) 56.0(4)
Bi1 Bi1 O3 1_5655 1_4545 90.0(2) 90.00(17) 90.00(17)
Bi1 Bi1 O3 1_5655 1_5545 90.00(16) 90.00(16) 90.00(16)
Bi1 Bi1 O3 1_5655 . 90.00(16) 90.00(16) 90.00(16)
Bi1 Bi1 O3 1_5655 1_6555 90.0(2) 90.0(3) 90.0(3)
Bi1 Bi1 O3 1_5655 5_4445 134.4(5) 131.2(6) 138.1(4)
Bi1 Bi1 O3 1_5655 5_4545 45.6(3) 41.9(3) 48.8(4)
Bi1 Bi1 O3 1_5655 5_5445 134.4(5) 131.2(6) 138.1(4)
Bi1 Bi1 O3 1_5655 5_5545 45.6(3) 41.9(3) 48.8(4)
Bi1 Bi1 Bi1 1_6555 5_4445 128.6(5) 127.6(6) 130.9(5)
Bi1 Bi1 Bi1 1_6555 5_4545 128.6(5) 127.6(6) 130.9(5)
Bi1 Bi1 Bi1 1_6555 5_5445 64.0(5) 64.0(5) 64.0(5)
Bi1 Bi1 Bi1 1_6555 5_5455 49.3(5) 49.3(5) 49.3(5)
Bi1 Bi1 Bi1 1_6555 5_5545 64.0(5) 64.0(5) 64.0(5)
Bi1 Bi1 Bi1 1_6555 5_5555 49.3(5) 49.3(5) 49.3(5)
Bi1 Bi1 O1 1_6555 1_5445 89.8(10) 88.2(10) 94.0(9)
Bi1 Bi1 O1 1_6555 1_5455 100.9(14) 100.9(14) 100.9(14)
Bi1 Bi1 O1 1_6555 1_5465 88.6(10) 88.3(11) 88.9(10)
Bi1 Bi1 O1 1_6555 1_5545 89.8(10) 88.2(10) 94.0(9)
Bi1 Bi1 O1 1_6555 . 100.9(14) 100.9(14) 100.9(14)
Bi1 Bi1 O1 1_6555 1_5565 88.6(10) 88.3(11) 88.9(10)
Bi1 Bi1 O1 1_6555 5_4445 130.0(11) 114.9(10) 142.7(14)
Bi1 Bi1 O1 1_6555 5_4455 136.7(11) 119.2(10) 146.9(12)
Bi1 Bi1 O1 1_6555 5_5445 46.5(10) 36.7(10) 60.9(9)
Bi1 Bi1 O1 1_6555 5_5455 49.0(11) 40.9(12) 61.2(9)
Bi1 Bi1 O2 1_6555 1_4545 121.4(11) 118.2(12) 125.6(11)
Bi1 Bi1 O2 1_6555 1_5545 65.9(12) 65.9(12) 65.9(12)
Bi1 Bi1 O2 1_6555 5_4445 88.5(17) 85.8(14) 90(2)
Bi1 Bi1 O2 1_6555 5_4455 92.0(18) 90.8(19) 94.7(19)
Bi1 Bi1 O2 1_6555 5_4545 88.5(17) 85.8(14) 90(2)
Bi1 Bi1 O2 1_6555 5_4555 92.0(18) 90.8(19) 94.7(19)
Bi1 Bi1 O3 1_6555 1_4545 162.7(7) 161.1(8) 165.2(6)
Bi1 Bi1 O3 1_6555 1_5545 101.8(9) 101.8(9) 101.8(9)
Bi1 Bi1 O3 1_6555 5_4445 134.3(3) 132.0(4) 136.5(3)
Bi1 Bi1 O3 1_6555 5_4545 134.3(3) 132.0(4) 136.5(3)
Bi1 Bi1 O3 1_6555 5_5445 45.9(3) 43.3(3) 53.0(3)
Bi1 Bi1 O3 1_6555 5_5545 45.9(3) 43.3(3) 53.0(3)
Bi1 Bi1 Bi1 5_4445 5_4545 67.6(3) 67.5(3) 67.6(3)
Bi1 Bi1 Bi1 5_4445 5_5445 66.9(6) 66.9(6) 66.9(6)
Bi1 Bi1 Bi1 5_4445 5_5545 110.0(6) 110.0(6) 110.0(6)
Bi1 Bi1 O1 5_4445 1_5445 40.6(9) 40.0(9) 42.0(9)
Bi1 Bi1 O1 5_4445 1_5455 75.4(10) 75.4(10) 75.4(10)
Bi1 Bi1 O1 5_4445 1_5545 78.4(6) 77.8(6) 79.6(7)
Bi1 Bi1 O1 5_4445 . 128.0(14) 128.0(14) 128.0(14)
Bi1 Bi1 O1 5_4445 5_4445 40.1(5) 40.1(5) 40.1(5)
Bi1 Bi1 O1 5_4445 5_4455 77.6(8) 76.0(8) 78.4(8)
Bi1 Bi1 O1 5_4445 5_5445 81.1(7) 80.4(7) 82.5(8)
Bi1 Bi1 O1 5_4445 5_5455 146.10(19) 145.6(3) 146.24(15)
Bi1 Bi1 O2 5_4445 1_4545 37.5(5) 37.2(5) 38.3(5)
Bi1 Bi1 O2 5_4445 1_5545 78.5(10) 78.5(10) 78.5(10)
Bi1 Bi1 O2 5_4445 5_4455 81.2(12) 80.8(11) 81.4(12)
Bi1 Bi1 O2 5_4445 5_4555 137(2) 135.4(19) 139(2)
Bi1 Bi1 O3 5_4445 1_4545 40.5(4) 40.2(4) 40.6(3)
Bi1 Bi1 O3 5_4445 1_5545 50.6(6) 50.6(6) 50.6(6)
Bi1 Bi1 O3 5_4445 5_4445 15.6(8) 15.6(8) 15.6(8)
Bi1 Bi1 O3 5_4445 5_4545 76.7(6) 76.7(6) 76.7(6)
Bi1 Bi1 O3 5_4445 5_5445 82.2(5) 79.3(5) 85.4(5)
Bi1 Bi1 O3 5_4445 5_5545 131.7(10) 129.9(9) 134.4(10)
Bi1 Bi1 Bi1 5_4455 5_4555 82.4(4) 82.4(4) 82.4(4)
Bi1 Bi1 Bi1 5_4455 5_5455 66.9(4) 66.9(4) 66.9(4)
Bi1 Bi1 Bi1 5_4455 5_5555 110.0(5) 110.0(5) 110.0(5)
Bi1 Bi1 O1 5_4455 1_5455 86.2(9) 86.2(9) 86.2(9)
Bi1 Bi1 O1 5_4455 1_5465 34.2(8) 34.2(8) 34.2(8)
Bi1 Bi1 O1 5_4455 . 164.0(13) 164.0(13) 164.0(13)
Bi1 Bi1 O1 5_4455 1_5565 80.6(5) 80.6(5) 80.6(5)
Bi1 Bi1 O1 5_4455 5_4445 96.8(10) 96.8(10) 96.8(10)
Bi1 Bi1 O1 5_4455 5_5445 135.3(4) 135.3(4) 135.3(4)
Bi1 Bi1 O2 5_4455 1_4565 42.5(3) 42.5(3) 42.5(3)
Bi1 Bi1 O2 5_4455 1_5565 76.0(8) 76.0(8) 76.0(8)
Bi1 Bi1 O3 5_4455 . 59.4(5) 59.4(5) 59.4(5)
Bi1 Bi1 Bi1 5_4545 5_5445 110.0(6) 110.0(6) 110.0(6)
Bi1 Bi1 Bi1 5_4545 5_5545 66.9(6) 66.9(6) 66.9(6)
Bi1 Bi1 O1 5_4545 1_5445 78.4(6) 77.8(6) 79.6(7)
Bi1 Bi1 O1 5_4545 1_5455 128.0(14) 128.0(14) 128.0(14)
Bi1 Bi1 O1 5_4545 1_5545 40.6(9) 40.0(9) 42.0(9)
Bi1 Bi1 O1 5_4545 . 75.4(10) 75.4(10) 75.4(10)
Bi1 Bi1 O1 5_4545 5_4445 40.1(5) 40.1(5) 40.1(5)
Bi1 Bi1 O1 5_4545 5_4455 77.6(8) 76.0(8) 78.4(8)
Bi1 Bi1 O1 5_4545 5_5445 81.1(7) 80.4(7) 82.5(8)
Bi1 Bi1 O1 5_4545 5_5455 146.10(19) 145.6(3) 146.24(15)
Bi1 Bi1 O2 5_4545 1_4545 37.5(5) 37.2(5) 38.3(5)
Bi1 Bi1 O2 5_4545 1_5545 78.5(10) 78.5(10) 78.5(10)
Bi1 Bi1 O2 5_4545 5_4455 137(2) 135.4(19) 139(2)
Bi1 Bi1 O2 5_4545 5_4555 81.2(12) 80.8(11) 81.4(12)
Bi1 Bi1 O3 5_4545 1_4545 40.5(4) 40.2(4) 40.6(3)
Bi1 Bi1 O3 5_4545 1_5545 50.6(6) 50.6(6) 50.6(6)
Bi1 Bi1 O3 5_4545 5_4445 76.7(6) 76.7(6) 76.7(6)
Bi1 Bi1 O3 5_4545 5_4545 15.6(8) 15.6(8) 15.6(8)
Bi1 Bi1 O3 5_4545 5_5445 131.7(10) 129.9(9) 134.4(10)
Bi1 Bi1 O3 5_4545 5_5545 82.2(5) 79.3(5) 85.4(5)
Bi1 Bi1 Bi1 5_4555 5_5455 110.0(5) 110.0(5) 110.0(5)
Bi1 Bi1 Bi1 5_4555 5_5555 66.9(4) 66.9(4) 66.9(4)
Bi1 Bi1 O1 5_4555 1_5455 164.0(13) 164.0(13) 164.0(13)
Bi1 Bi1 O1 5_4555 1_5465 80.6(5) 80.6(5) 80.6(5)
Bi1 Bi1 O1 5_4555 . 86.2(9) 86.2(9) 86.2(9)
Bi1 Bi1 O1 5_4555 1_5565 34.2(8) 34.2(8) 34.2(8)
Bi1 Bi1 O1 5_4555 5_4445 96.8(10) 96.8(10) 96.8(10)
Bi1 Bi1 O1 5_4555 5_5445 135.3(4) 135.3(4) 135.3(4)
Bi1 Bi1 O2 5_4555 1_4565 42.5(3) 42.5(3) 42.5(3)
Bi1 Bi1 O2 5_4555 1_5565 76.0(8) 76.0(8) 76.0(8)
Bi1 Bi1 O3 5_4555 . 59.4(5) 59.4(5) 59.4(5)
Bi1 Bi1 Bi1 5_5445 5_5545 82.4(4) 82.4(4) 82.4(4)
Bi1 Bi1 O1 5_5445 1_5445 34.2(8) 34.2(8) 34.2(8)
Bi1 Bi1 O1 5_5445 1_5455 86.2(9) 86.2(9) 86.2(9)
Bi1 Bi1 O1 5_5445 1_5545 80.6(5) 80.6(5) 80.6(5)
Bi1 Bi1 O1 5_5445 . 164.0(13) 164.0(13) 164.0(13)
Bi1 Bi1 O1 5_5445 5_4455 135.3(4) 135.3(4) 135.3(4)
Bi1 Bi1 O1 5_5445 5_5455 96.8(10) 96.8(10) 96.8(10)
Bi1 Bi1 O2 5_5445 1_4545 76.0(8) 76.0(8) 76.0(8)
Bi1 Bi1 O2 5_5445 1_5545 42.5(3) 42.5(3) 42.5(3)
Bi1 Bi1 O3 5_5445 1_5545 59.4(5) 59.4(5) 59.4(5)
Bi1 Bi1 Bi1 5_5455 5_5555 67.6(3) 67.5(3) 67.6(3)
Bi1 Bi1 O1 5_5455 1_5455 75.4(10) 75.4(10) 75.4(10)
Bi1 Bi1 O1 5_5455 1_5465 40.6(9) 40.0(9) 42.0(9)
Bi1 Bi1 O1 5_5455 . 128.0(14) 128.0(14) 128.0(14)
Bi1 Bi1 O1 5_5455 1_5565 78.4(6) 77.8(6) 79.6(7)
Bi1 Bi1 O1 5_5455 5_4445 146.10(19) 145.6(3) 146.24(15)
Bi1 Bi1 O1 5_5455 5_4455 81.1(7) 80.4(7) 82.5(8)
Bi1 Bi1 O1 5_5455 5_5445 77.6(8) 76.0(8) 78.4(8)
Bi1 Bi1 O1 5_5455 5_5455 40.1(5) 40.1(5) 40.1(5)
Bi1 Bi1 O2 5_5455 1_4565 78.5(10) 78.5(10) 78.5(10)
Bi1 Bi1 O2 5_5455 1_5565 37.5(5) 37.2(5) 38.3(5)
Bi1 Bi1 O2 5_5455 5_4445 81.2(12) 80.8(11) 81.4(12)
Bi1 Bi1 O2 5_5455 5_4545 137(2) 135.4(19) 139(2)
Bi1 Bi1 O3 5_5455 . 50.6(6) 50.6(6) 50.6(6)
Bi1 Bi1 O3 5_5455 1_6555 40.5(4) 40.2(4) 40.6(3)
Bi1 Bi1 O3 5_5455 5_4445 82.2(5) 79.3(5) 85.4(5)
Bi1 Bi1 O3 5_5455 5_4545 131.7(10) 129.9(9) 134.4(10)
Bi1 Bi1 O3 5_5455 5_5445 15.6(8) 15.6(8) 15.6(8)
Bi1 Bi1 O3 5_5455 5_5545 76.7(6) 76.7(6) 76.7(6)
Bi1 Bi1 O1 5_5545 1_5445 80.6(5) 80.6(5) 80.6(5)
Bi1 Bi1 O1 5_5545 1_5455 164.0(13) 164.0(13) 164.0(13)
Bi1 Bi1 O1 5_5545 1_5545 34.2(8) 34.2(8) 34.2(8)
Bi1 Bi1 O1 5_5545 . 86.2(9) 86.2(9) 86.2(9)
Bi1 Bi1 O1 5_5545 5_4455 135.3(4) 135.3(4) 135.3(4)
Bi1 Bi1 O1 5_5545 5_5455 96.8(10) 96.8(10) 96.8(10)
Bi1 Bi1 O2 5_5545 1_4545 76.0(8) 76.0(8) 76.0(8)
Bi1 Bi1 O2 5_5545 1_5545 42.5(3) 42.5(3) 42.5(3)
Bi1 Bi1 O3 5_5545 1_5545 59.4(5) 59.4(5) 59.4(5)
Bi1 Bi1 O1 5_5555 1_5455 128.0(14) 128.0(14) 128.0(14)
Bi1 Bi1 O1 5_5555 1_5465 78.4(6) 77.8(6) 79.6(7)
Bi1 Bi1 O1 5_5555 . 75.4(10) 75.4(10) 75.4(10)
Bi1 Bi1 O1 5_5555 1_5565 40.6(9) 40.0(9) 42.0(9)
Bi1 Bi1 O1 5_5555 5_4445 146.10(19) 145.6(3) 146.24(15)
Bi1 Bi1 O1 5_5555 5_4455 81.1(7) 80.4(7) 82.5(8)
Bi1 Bi1 O1 5_5555 5_5445 77.6(8) 76.0(8) 78.4(8)
Bi1 Bi1 O1 5_5555 5_5455 40.1(5) 40.1(5) 40.1(5)
Bi1 Bi1 O2 5_5555 1_4565 78.5(10) 78.5(10) 78.5(10)
Bi1 Bi1 O2 5_5555 1_5565 37.5(5) 37.2(5) 38.3(5)
Bi1 Bi1 O2 5_5555 5_4445 137(2) 135.4(19) 139(2)
Bi1 Bi1 O2 5_5555 5_4545 81.2(12) 80.8(11) 81.4(12)
Bi1 Bi1 O3 5_5555 . 50.6(6) 50.6(6) 50.6(6)
Bi1 Bi1 O3 5_5555 1_6555 40.5(4) 40.2(4) 40.6(3)
Bi1 Bi1 O3 5_5555 5_4445 131.7(10) 129.9(9) 134.4(10)
Bi1 Bi1 O3 5_5555 5_4545 82.2(5) 79.3(5) 85.4(5)
Bi1 Bi1 O3 5_5555 5_5445 76.7(6) 76.7(6) 76.7(6)
Bi1 Bi1 O3 5_5555 5_5545 15.6(8) 15.6(8) 15.6(8)
O1 Bi1 O1 1_5445 1_5455 96.2(7) 96.2(7) 96.2(7)
O1 Bi1 O1 1_5445 1_5545 61.3(4) 59.8(3) 65.2(5)
O1 Bi1 O1 1_5445 . 153.3(10) 153.3(10) 153.3(10)
O1 Bi1 O1 1_5445 5_4445 41.1(6) 39.8(6) 42.2(6)
O1 Bi1 O1 1_5445 5_4455 118.7(10) 115.9(10) 119.8(10)
O1 Bi1 O1 1_5445 5_5445 43.1(7) 41.8(7) 46.5(7)
O1 Bi1 O1 1_5445 5_5455 125.0(11) 122.5(11) 131.0(12)
O1 Bi1 O2 1_5445 1_4545 41.7(8) 41.3(8) 42.2(9)
O1 Bi1 O2 1_5445 1_5545 40.7(9) 40.7(9) 40.7(9)
O1 Bi1 O2 1_5445 5_4455 95.8(3) 94.2(3) 97.8(3)
O1 Bi1 O2 1_5445 5_4555 157.0(5) 156.1(5) 159.4(7)
O1 Bi1 O3 1_5445 1_4545 74.1(8) 73.3(8) 75.1(7)
O1 Bi1 O3 1_5445 1_5545 31.0(3) 31.0(3) 31.0(3)
O1 Bi1 O3 1_5445 5_4445 54.5(8) 54.3(8) 54.7(8)
O1 Bi1 O3 1_5445 5_4545 97.2(9) 94.8(9) 99.5(10)
O1 Bi1 O3 1_5445 5_5445 56.5(9) 53.2(10) 60.3(8)
O1 Bi1 O3 1_5445 5_5545 99.8(10) 98.1(9) 104.0(10)
O1 Bi1 O1 1_5455 1_5465 96.2(4) 96.2(4) 96.2(4)
O1 Bi1 O1 1_5455 1_5545 153.3(6) 153.3(6) 153.3(6)
O1 Bi1 O1 1_5455 . 102.5(8) 102.5(8) 102.5(8)
O1 Bi1 O1 1_5455 1_5565 153.3(6) 153.3(6) 153.3(6)
O1 Bi1 O1 1_5455 5_4445 73.4(9) 73.4(9) 73.4(9)
O1 Bi1 O1 1_5455 5_4455 60.2(6) 60.2(6) 60.2(6)
O1 Bi1 O1 1_5455 5_5445 60.2(6) 60.2(6) 60.2(6)
O1 Bi1 O1 1_5455 5_5455 73.4(9) 73.4(9) 73.4(9)
O1 Bi1 O2 1_5455 1_4545 112.1(7) 112.1(7) 112.1(7)
O1 Bi1 O2 1_5455 1_4565 128.4(3) 128.4(3) 128.4(3)
O1 Bi1 O2 1_5455 1_5545 128.4(3) 128.4(3) 128.4(3)
O1 Bi1 O2 1_5455 1_5565 112.1(7) 112.1(7) 112.1(7)
O1 Bi1 O3 1_5455 1_5545 123.0(4) 123.0(4) 123.0(4)
O1 Bi1 O3 1_5455 . 123.0(4) 123.0(4) 123.0(4)
O1 Bi1 O1 1_5465 . 153.3(10) 153.3(10) 153.3(10)
O1 Bi1 O1 1_5465 1_5565 61.3(4) 59.8(3) 65.2(5)
O1 Bi1 O1 1_5465 5_4445 125.0(11) 122.5(11) 131.0(12)
O1 Bi1 O1 1_5465 5_4455 43.1(7) 41.8(7) 46.5(7)
O1 Bi1 O1 1_5465 5_5445 118.7(10) 115.9(10) 119.8(10)
O1 Bi1 O1 1_5465 5_5455 41.1(6) 39.8(6) 42.2(6)
O1 Bi1 O2 1_5465 1_4565 40.7(9) 40.7(9) 40.7(9)
O1 Bi1 O2 1_5465 1_5565 41.7(8) 41.3(8) 42.2(9)
O1 Bi1 O2 1_5465 5_4445 95.8(3) 94.2(3) 97.8(3)
O1 Bi1 O2 1_5465 5_4545 157.0(5) 156.1(5) 159.4(7)
O1 Bi1 O3 1_5465 . 31.0(3) 31.0(3) 31.0(3)
O1 Bi1 O3 1_5465 1_6555 74.1(8) 73.3(8) 75.1(7)
O1 Bi1 O3 1_5465 5_4445 56.5(9) 53.2(10) 60.3(8)
O1 Bi1 O3 1_5465 5_4545 99.8(10) 98.1(9) 104.0(10)
O1 Bi1 O3 1_5465 5_5445 54.5(8) 54.3(8) 54.7(8)
O1 Bi1 O3 1_5465 5_5545 97.2(9) 94.8(9) 99.5(10)
O1 Bi1 O1 1_5545 . 96.2(7) 96.2(7) 96.2(7)
O1 Bi1 O1 1_5545 5_4445 41.1(6) 39.8(6) 42.2(6)
O1 Bi1 O1 1_5545 5_4455 118.7(10) 115.9(10) 119.8(10)
O1 Bi1 O1 1_5545 5_5445 43.1(7) 41.8(7) 46.5(7)
O1 Bi1 O1 1_5545 5_5455 125.0(11) 122.5(11) 131.0(12)
O1 Bi1 O2 1_5545 1_4545 41.7(8) 41.3(8) 42.2(9)
O1 Bi1 O2 1_5545 1_5545 40.7(9) 40.7(9) 40.7(9)
O1 Bi1 O2 1_5545 5_4455 157.0(5) 156.1(5) 159.4(7)
O1 Bi1 O2 1_5545 5_4555 95.8(3) 94.2(3) 97.8(3)
O1 Bi1 O3 1_5545 1_4545 74.1(8) 73.3(8) 75.1(7)
O1 Bi1 O3 1_5545 1_5545 31.0(3) 31.0(3) 31.0(3)
O1 Bi1 O3 1_5545 5_4445 97.2(9) 94.8(9) 99.5(10)
O1 Bi1 O3 1_5545 5_4545 54.5(8) 54.3(8) 54.7(8)
O1 Bi1 O3 1_5545 5_5445 99.8(10) 98.1(9) 104.0(10)
O1 Bi1 O3 1_5545 5_5545 56.5(9) 53.2(10) 60.3(8)
O1 Bi1 O1 . 1_5565 96.2(4) 96.2(4) 96.2(4)
O1 Bi1 O1 . 5_4445 73.4(9) 73.4(9) 73.4(9)
O1 Bi1 O1 . 5_4455 60.2(6) 60.2(6) 60.2(6)
O1 Bi1 O1 . 5_5445 60.2(6) 60.2(6) 60.2(6)
O1 Bi1 O1 . 5_5455 73.4(9) 73.4(9) 73.4(9)
O1 Bi1 O2 . 1_4545 112.1(7) 112.1(7) 112.1(7)
O1 Bi1 O2 . 1_4565 128.4(3) 128.4(3) 128.4(3)
O1 Bi1 O2 . 1_5545 128.4(3) 128.4(3) 128.4(3)
O1 Bi1 O2 . 1_5565 112.1(7) 112.1(7) 112.1(7)
O1 Bi1 O3 . 1_5545 123.0(4) 123.0(4) 123.0(4)
O1 Bi1 O3 . . 123.0(4) 123.0(4) 123.0(4)
O1 Bi1 O1 1_5565 5_4445 125.0(11) 122.5(11) 131.0(12)
O1 Bi1 O1 1_5565 5_4455 43.1(7) 41.8(7) 46.5(7)
O1 Bi1 O1 1_5565 5_5445 118.7(10) 115.9(10) 119.8(10)
O1 Bi1 O1 1_5565 5_5455 41.1(6) 39.8(6) 42.2(6)
O1 Bi1 O2 1_5565 1_4565 40.7(9) 40.7(9) 40.7(9)
O1 Bi1 O2 1_5565 1_5565 41.7(8) 41.3(8) 42.2(9)
O1 Bi1 O2 1_5565 5_4445 157.0(5) 156.1(5) 159.4(7)
O1 Bi1 O2 1_5565 5_4545 95.8(3) 94.2(3) 97.8(3)
O1 Bi1 O3 1_5565 . 31.0(3) 31.0(3) 31.0(3)
O1 Bi1 O3 1_5565 1_6555 74.1(8) 73.3(8) 75.1(7)
O1 Bi1 O3 1_5565 5_4445 99.8(10) 98.1(9) 104.0(10)
O1 Bi1 O3 1_5565 5_4545 56.5(9) 53.2(10) 60.3(8)
O1 Bi1 O3 1_5565 5_5445 97.2(9) 94.8(9) 99.5(10)
O1 Bi1 O3 1_5565 5_5545 54.5(8) 54.3(8) 54.7(8)
O1 Bi1 O1 5_4445 5_4455 95.6(12) 93.2(10) 104.7(14)
O1 Bi1 O1 5_4445 5_5445 87.7(12) 58.0(9) 105.8(14)
O1 Bi1 O1 5_4445 5_5455 165.7(12) 156.1(14) 180.0(5)
O1 Bi1 O2 5_4445 1_4565 110.7(16) 110.7(16) 110.7(16)
O1 Bi1 O2 5_4445 1_5565 164.3(16) 159.6(16) 170.3(15)
O1 Bi1 O2 5_4445 5_4445 60.1(15) 46.3(11) 69.5(17)
O1 Bi1 O2 5_4445 5_4455 121.9(13) 119.4(14) 123.6(14)
O1 Bi1 O2 5_4445 5_4545 60.1(15) 46.3(11) 69.5(17)
O1 Bi1 O2 5_4445 5_4555 121.9(13) 119.4(14) 123.6(14)
O1 Bi1 O3 5_4445 . 146.6(14) 146.6(14) 146.6(14)
O1 Bi1 O3 5_4445 1_6555 154.5(13) 150.0(12) 157.5(13)
O1 Bi1 O3 5_4445 5_4445 62.0(8) 55.0(8) 76.6(10)
O1 Bi1 O3 5_4445 5_4545 62.0(8) 55.0(8) 76.6(10)
O1 Bi1 O3 5_4445 5_5445 118.0(8) 96.1(9) 136.2(6)
O1 Bi1 O3 5_4445 5_5545 118.0(8) 96.1(9) 136.2(6)
O1 Bi1 O1 5_4455 5_5445 164.1(12) 153.5(10) 180.0(5)
O1 Bi1 O1 5_4455 5_5455 87.7(12) 58.0(10) 105.8(16)
O1 Bi1 O2 5_4455 1_4545 92.5(12) 89.5(11) 95.0(14)
O1 Bi1 O2 5_4455 1_5545 149.1(12) 149.1(12) 149.1(12)
O1 Bi1 O2 5_4455 1_5565 61.3(11) 60.5(12) 62.6(11)
O1 Bi1 O2 5_4455 5_4445 121.8(14) 119.8(14) 125.2(11)
O1 Bi1 O2 5_4455 5_4455 60.3(15) 45.1(12) 69.5(18)
O1 Bi1 O2 5_4455 5_4545 121.8(14) 119.8(14) 125.2(11)
O1 Bi1 O2 5_4455 5_4555 60.3(15) 45.1(12) 69.5(18)
O1 Bi1 O3 5_4455 1_4545 51.3(8) 49.8(7) 52.1(9)
O1 Bi1 O3 5_4455 1_5545 113.2(9) 113.2(9) 113.2(9)
O1 Bi1 O3 5_4455 1_6555 102.8(7) 102.6(7) 103.4(8)
O1 Bi1 O3 5_4455 5_4445 60.8(8) 56.8(8) 66.4(9)
O1 Bi1 O3 5_4455 5_4545 60.8(8) 56.8(8) 66.4(9)
O1 Bi1 O3 5_4455 5_5445 119.3(8) 96.3(9) 133.1(6)
O1 Bi1 O3 5_4455 5_5545 119.3(8) 96.3(9) 133.1(6)
O1 Bi1 O1 5_5445 5_5455 95.6(12) 93.2(11) 104.7(14)
O1 Bi1 O2 5_5445 1_4545 61.3(11) 60.5(12) 62.6(11)
O1 Bi1 O2 5_5445 1_4565 149.1(12) 149.1(12) 149.1(12)
O1 Bi1 O2 5_5445 1_5565 92.5(12) 89.5(11) 95.0(14)
O1 Bi1 O2 5_5445 5_4445 60.3(15) 45.1(12) 69.5(18)
O1 Bi1 O2 5_5445 5_4455 121.8(14) 119.8(14) 125.2(11)
O1 Bi1 O2 5_5445 5_4545 60.3(15) 45.1(12) 69.5(18)
O1 Bi1 O2 5_5445 5_4555 121.8(14) 119.8(14) 125.2(11)
O1 Bi1 O3 5_5445 1_4545 102.8(7) 102.6(7) 103.4(8)
O1 Bi1 O3 5_5445 . 113.2(9) 113.2(9) 113.2(9)
O1 Bi1 O3 5_5445 1_6555 51.3(8) 49.8(7) 52.1(9)
O1 Bi1 O3 5_5445 5_4445 119.3(8) 96.3(9) 133.1(6)
O1 Bi1 O3 5_5445 5_4545 119.3(8) 96.3(9) 133.1(6)
O1 Bi1 O3 5_5445 5_5445 60.8(8) 56.8(8) 66.4(9)
O1 Bi1 O3 5_5445 5_5545 60.8(8) 56.8(8) 66.4(9)
O1 Bi1 O2 5_5455 1_4545 164.3(16) 159.6(16) 170.3(15)
O1 Bi1 O2 5_5455 1_5545 110.7(16) 110.7(16) 110.7(16)
O1 Bi1 O2 5_5455 5_4445 121.9(13) 119.4(14) 123.6(14)
O1 Bi1 O2 5_5455 5_4455 60.1(15) 46.3(11) 69.5(17)
O1 Bi1 O2 5_5455 5_4545 121.9(13) 119.4(14) 123.6(14)
O1 Bi1 O2 5_5455 5_4555 60.1(15) 46.3(11) 69.5(17)
O1 Bi1 O3 5_5455 1_4545 154.5(13) 150.0(12) 157.5(13)
O1 Bi1 O3 5_5455 1_5545 146.6(14) 146.6(14) 146.6(14)
O1 Bi1 O3 5_5455 5_4445 118.0(8) 96.1(9) 136.2(6)
O1 Bi1 O3 5_5455 5_4545 118.0(8) 96.1(9) 136.2(6)
O1 Bi1 O3 5_5455 5_5445 62.0(8) 55.0(8) 76.6(10)
O1 Bi1 O3 5_5455 5_5545 62.0(8) 55.0(8) 76.6(10)
O2 Bi1 O2 1_4545 1_5545 59.6(14) 59.6(14) 59.6(14)
O2 Bi1 O2 1_4545 5_4455 118.7(12) 117.9(13) 119.5(12)
O2 Bi1 O2 1_4545 5_4555 118.7(12) 117.9(13) 119.5(12)
O2 Bi1 O3 1_4545 1_4545 41.2(10) 39.7(10) 42.9(9)
O2 Bi1 O3 1_4545 1_5545 23.7(12) 23.7(12) 23.7(12)
O2 Bi1 O3 1_4545 5_5445 96.1(10) 95.1(10) 97.2(10)
O2 Bi1 O3 1_4545 5_5545 96.1(10) 95.1(10) 97.2(10)
O2 Bi1 O2 1_4565 1_5565 59.6(13) 59.6(13) 59.6(13)
O2 Bi1 O3 1_4565 . 35.9(10) 35.9(10) 35.9(10)
O2 Bi1 O3 1_5545 1_5545 35.9(10) 35.9(10) 35.9(10)
O2 Bi1 O2 1_5565 5_4445 118.7(12) 117.9(13) 119.5(12)
O2 Bi1 O2 1_5565 5_4545 118.7(12) 117.9(13) 119.5(12)
O2 Bi1 O3 1_5565 . 23.7(12) 23.7(12) 23.7(12)
O2 Bi1 O3 1_5565 1_6555 41.2(10) 39.7(10) 42.9(9)
O2 Bi1 O3 1_5565 5_4445 96.1(10) 95.1(10) 97.2(10)
O2 Bi1 O3 1_5565 5_4545 96.1(10) 95.1(10) 97.2(10)
O2 Bi1 O2 5_4445 5_4455 95.17(19) 93.3(3) 96.53(14)
O2 Bi1 O2 5_4445 5_4545 90.7(5) 68.0(4) 108.1(7)
O2 Bi1 O2 5_4445 5_4555 169.3(5) 161.2(8) 180.0(5)
O2 Bi1 O3 5_4445 1_6555 96.9(15) 95.3(13) 98.1(17)
O2 Bi1 O3 5_4445 5_4445 62.4(11) 57.2(11) 69.2(11)
O2 Bi1 O3 5_4445 5_4545 122.5(12) 103.9(12) 144.3(13)
O2 Bi1 O3 5_4445 5_5445 62.6(10) 57.3(11) 67.7(14)
O2 Bi1 O3 5_4445 5_5545 120.9(12) 102.9(12) 134.2(17)
O2 Bi1 O2 5_4455 5_4545 169.3(5) 161.2(7) 180.0(5)
O2 Bi1 O2 5_4455 5_4555 90.7(5) 68.0(4) 108.1(7)
O2 Bi1 O3 5_4455 1_4545 96.9(15) 95.3(13) 98.1(17)
O2 Bi1 O3 5_4455 5_4445 62.6(10) 57.3(11) 67.7(14)
O2 Bi1 O3 5_4455 5_4545 120.9(12) 102.9(12) 134.2(17)
O2 Bi1 O3 5_4455 5_5445 62.4(11) 57.2(11) 69.2(11)
O2 Bi1 O3 5_4455 5_5545 122.5(12) 103.9(12) 144.3(13)
O2 Bi1 O2 5_4545 5_4555 95.17(19) 93.3(3) 96.53(14)
O2 Bi1 O3 5_4545 1_6555 96.9(15) 95.3(13) 98.1(17)
O2 Bi1 O3 5_4545 5_4445 122.5(12) 103.9(12) 144.3(13)
O2 Bi1 O3 5_4545 5_4545 62.4(11) 57.2(11) 69.2(11)
O2 Bi1 O3 5_4545 5_5445 120.9(12) 102.9(12) 134.2(17)
O2 Bi1 O3 5_4545 5_5545 62.6(10) 57.3(11) 67.7(14)
O2 Bi1 O3 5_4555 1_4545 96.9(15) 95.3(13) 98.1(17)
O2 Bi1 O3 5_4555 5_4445 120.9(12) 102.9(12) 134.2(17)
O2 Bi1 O3 5_4555 5_4545 62.6(10) 57.3(11) 67.7(14)
O2 Bi1 O3 5_4555 5_5445 122.5(12) 103.9(12) 144.3(13)
O2 Bi1 O3 5_4555 5_5545 62.4(11) 57.2(11) 69.2(11)
O3 Bi1 O3 1_4545 1_5545 63.4(9) 63.4(9) 63.4(9)
O3 Bi1 O3 1_4545 5_5445 122.1(6) 119.7(6) 124.4(6)
O3 Bi1 O3 1_4545 5_5545 122.1(6) 119.7(6) 124.4(6)
O3 Bi1 O3 1_6555 5_4445 122.1(6) 119.7(6) 124.4(6)
O3 Bi1 O3 1_6555 5_4545 122.1(6) 119.7(6) 124.4(6)
O3 Bi1 O3 5_4445 5_4545 88.7(5) 82.4(5) 96.1(5)
O3 Bi1 O3 5_4445 5_5445 89.2(2) 86.7(4) 90.54(15)
O3 Bi1 O3 5_4445 5_5545 164.7(11) 150.0(11) 180.0(5)
O3 Bi1 O3 5_4545 5_5445 164.7(11) 150.0(11) 180.0(5)
O3 Bi1 O3 5_4545 5_5545 89.2(2) 86.7(4) 90.54(15)
O3 Bi1 O3 5_5445 5_5545 88.7(5) 82.4(5) 96.1(5)
Fe1 O1 Fe1 . 1_5655 155.6(11) 139.0(8) 180.0(5)
Fe1 O1 Fe1 . 5_4545 95.7(9) 88.0(6) 99.2(13)
Fe1 O1 Fe1 . 5_4555 100.4(6) 97.3(7) 103.5(6)
Fe1 O1 Fe1 . 5_5545 100.4(6) 97.3(7) 103.5(6)
Fe1 O1 Fe1 . 5_5555 95.7(9) 88.0(6) 99.2(13)
Fe1 O1 Pb1 . 1_5545 76.7(4) 74.9(6) 77.6(4)
Fe1 O1 Pb1 . 1_5565 76.7(4) 74.9(6) 77.6(4)
Fe1 O1 Pb1 . 1_5645 138.2(7) 135.8(10) 140.5(5)
Fe1 O1 Pb1 . 1_5665 138.2(7) 135.8(10) 140.5(5)
Fe1 O1 Pb1 . 5_4545 86.2(7) 75.3(6) 102.9(12)
Fe1 O1 Pb1 . 5_4555 86.8(7) 69.7(4) 100.2(8)
Fe1 O1 Pb1 . 5_5545 86.8(7) 69.7(4) 100.2(8)
Fe1 O1 Pb1 . 5_5555 86.2(7) 75.3(6) 102.9(12)
Fe1 O1 Bi1 . 1_5545 76.8(4) 75.2(7) 77.7(4)
Fe1 O1 Bi1 . . 18.3(5) 18.3(5) 18.3(5)
Fe1 O1 Bi1 . 1_5565 76.8(4) 75.2(7) 77.7(4)
Fe1 O1 Bi1 . 1_5645 138.1(7) 135.5(10) 140.5(5)
Fe1 O1 Bi1 . 1_5655 120.8(8) 120.8(8) 120.8(8)
Fe1 O1 Bi1 . 1_5665 138.1(7) 135.5(10) 140.5(5)
Fe1 O1 Bi1 . 5_4545 86.6(7) 75.3(6) 103.2(12)
Fe1 O1 Bi1 . 5_4555 87.1(7) 69.7(4) 101.3(7)
Fe1 O1 Bi1 . 5_5545 87.1(7) 69.7(4) 101.3(7)
Fe1 O1 Bi1 . 5_5555 86.6(7) 75.3(6) 103.2(12)
Fe1 O1 O1 . 1_4555 90.5(9) 86.2(15) 96.3(5)
Fe1 O1 O1 . 1_5455 12.2(6) 0.0(5) 20.5(6)
Fe1 O1 O1 . 1_5655 167.8(10) 159.5(8) 180.0(5)
Fe1 O1 O1 . 1_6555 90.5(9) 86.2(15) 96.3(5)
Fe1 O1 O1 . 5_4445 47.9(9) 42.8(8) 51.7(11)
Fe1 O1 O1 . 5_4455 49.0(10) 45.9(10) 51.7(10)
Fe1 O1 O1 . 5_4545 133.2(16) 124.5(11) 137(2)
Fe1 O1 O1 . 5_4555 139.4(12) 136.9(13) 142.3(12)
Fe1 O1 O1 . 5_5445 49.0(10) 45.9(10) 51.7(10)
Fe1 O1 O1 . 5_5455 47.9(9) 42.8(8) 51.7(11)
Fe1 O1 O1 . 5_5545 139.4(12) 136.9(13) 142.3(12)
Fe1 O1 O1 . 5_5555 133.2(16) 124.5(11) 137(2)
Fe1 O1 O2 . 1_4555 46.2(13) 44.0(13) 49.0(14)
Fe1 O1 O2 . 1_4655 133.7(18) 129(2) 140(3)
Fe1 O1 O2 . . 46.2(13) 44.0(13) 49.0(14)
Fe1 O1 O2 . 1_5655 133.7(18) 129(2) 140(3)
Fe1 O1 O2 . 5_3545 87.1(6) 82.6(5) 91.0(8)
Fe1 O1 O2 . 5_5555 87.1(6) 82.6(5) 91.0(8)
Fe1 O1 O3 . 1_5545 44.1(6) 32.7(5) 64.2(8)
Fe1 O1 O3 . . 44.1(6) 32.7(5) 64.2(8)
Fe1 O1 O3 . 1_5645 126.6(9) 107.8(6) 144.8(13)
Fe1 O1 O3 . 1_5655 126.6(9) 107.8(6) 144.8(13)
Fe1 O1 O3 . 5_4535 103.3(7) 98.8(5) 104.9(8)
Fe1 O1 O3 . 5_4555 107.5(5) 105.1(6) 109.9(4)
Fe1 O1 O3 . 5_5535 107.5(5) 105.1(6) 109.9(4)
Fe1 O1 O3 . 5_5555 103.3(7) 98.8(5) 104.9(8)
Fe1 O1 Fe1 1_5655 5_4545 95.7(9) 88.0(6) 99.2(13)
Fe1 O1 Fe1 1_5655 5_4555 100.4(6) 97.3(7) 103.5(6)
Fe1 O1 Fe1 1_5655 5_5545 100.4(6) 97.3(7) 103.5(6)
Fe1 O1 Fe1 1_5655 5_5555 95.7(9) 88.0(6) 99.2(13)
Fe1 O1 Pb1 1_5655 1_5545 138.2(7) 135.8(10) 140.5(5)
Fe1 O1 Pb1 1_5655 1_5565 138.2(7) 135.8(10) 140.5(5)
Fe1 O1 Pb1 1_5655 1_5645 76.7(4) 74.9(6) 77.6(4)
Fe1 O1 Pb1 1_5655 1_5665 76.7(4) 74.9(6) 77.6(4)
Fe1 O1 Pb1 1_5655 5_4545 86.2(7) 75.3(6) 102.9(12)
Fe1 O1 Pb1 1_5655 5_4555 86.8(7) 69.7(4) 100.2(8)
Fe1 O1 Pb1 1_5655 5_5545 86.8(7) 69.7(4) 100.2(8)
Fe1 O1 Pb1 1_5655 5_5555 86.2(7) 75.3(6) 102.9(12)
Fe1 O1 Bi1 1_5655 1_5545 138.1(7) 135.5(10) 140.5(5)
Fe1 O1 Bi1 1_5655 . 120.8(8) 120.8(8) 120.8(8)
Fe1 O1 Bi1 1_5655 1_5565 138.1(7) 135.5(10) 140.5(5)
Fe1 O1 Bi1 1_5655 1_5645 76.8(4) 75.2(7) 77.7(4)
Fe1 O1 Bi1 1_5655 1_5655 18.3(5) 18.3(5) 18.3(5)
Fe1 O1 Bi1 1_5655 1_5665 76.8(4) 75.2(7) 77.7(4)
Fe1 O1 Bi1 1_5655 5_4545 86.6(7) 75.3(6) 103.2(12)
Fe1 O1 Bi1 1_5655 5_4555 87.1(7) 69.7(4) 101.3(7)
Fe1 O1 Bi1 1_5655 5_5545 87.1(7) 69.7(4) 101.3(7)
Fe1 O1 Bi1 1_5655 5_5555 86.6(7) 75.3(6) 103.2(12)
Fe1 O1 O1 1_5655 1_4555 90.5(9) 86.2(15) 96.3(5)
Fe1 O1 O1 1_5655 1_5455 167.8(10) 159.5(8) 180.0(5)
Fe1 O1 O1 1_5655 1_5655 12.2(6) 0.0(5) 20.5(6)
Fe1 O1 O1 1_5655 1_6555 90.5(9) 86.2(15) 96.3(5)
Fe1 O1 O1 1_5655 5_4445 133.2(16) 124.5(11) 137(2)
Fe1 O1 O1 1_5655 5_4455 139.4(12) 136.9(13) 142.3(12)
Fe1 O1 O1 1_5655 5_4545 47.9(9) 42.8(8) 51.7(11)
Fe1 O1 O1 1_5655 5_4555 49.0(10) 45.9(10) 51.7(10)
Fe1 O1 O1 1_5655 5_5445 139.4(12) 136.9(13) 142.3(12)
Fe1 O1 O1 1_5655 5_5455 133.2(16) 124.5(11) 137(2)
Fe1 O1 O1 1_5655 5_5545 49.0(10) 45.9(10) 51.7(10)
Fe1 O1 O1 1_5655 5_5555 47.9(9) 42.8(8) 51.7(11)
Fe1 O1 O2 1_5655 1_4555 133.7(18) 129(2) 140(3)
Fe1 O1 O2 1_5655 1_4655 46.2(13) 44.0(13) 49.0(14)
Fe1 O1 O2 1_5655 . 133.7(18) 129(2) 140(3)
Fe1 O1 O2 1_5655 1_5655 46.2(13) 44.0(13) 49.0(14)
Fe1 O1 O2 1_5655 5_3545 87.1(6) 82.6(5) 91.0(8)
Fe1 O1 O2 1_5655 5_5555 87.1(6) 82.6(5) 91.0(8)
Fe1 O1 O3 1_5655 1_5545 126.6(9) 107.8(6) 144.8(13)
Fe1 O1 O3 1_5655 . 126.6(9) 107.8(6) 144.8(13)
Fe1 O1 O3 1_5655 1_5645 44.1(6) 32.7(5) 64.2(8)
Fe1 O1 O3 1_5655 1_5655 44.1(6) 32.7(5) 64.2(8)
Fe1 O1 O3 1_5655 5_4535 103.3(7) 98.8(5) 104.9(8)
Fe1 O1 O3 1_5655 5_4555 107.5(5) 105.1(6) 109.9(4)
Fe1 O1 O3 1_5655 5_5535 107.5(5) 105.1(6) 109.9(4)
Fe1 O1 O3 1_5655 5_5555 103.3(7) 98.8(5) 104.9(8)
Fe1 O1 Fe1 5_4545 5_5545 139.8(8) 137.0(9) 143.7(9)
Fe1 O1 Pb1 5_4545 1_5545 68.7(6) 66.5(7) 72.8(6)
Fe1 O1 Pb1 5_4545 1_5645 68.7(6) 66.5(7) 72.8(6)
Fe1 O1 Pb1 5_4545 5_4555 82.7(10) 76.9(7) 85.3(10)
Fe1 O1 Pb1 5_4545 5_5545 120.0(11) 119.5(12) 120.9(9)
Fe1 O1 Pb1 5_4545 5_5555 146.4(11) 134.2(8) 152.7(16)
Fe1 O1 Bi1 5_4545 1_5545 68.9(6) 66.9(7) 72.9(6)
Fe1 O1 Bi1 5_4545 . 88.3(8) 88.3(8) 88.3(8)
Fe1 O1 Bi1 5_4545 1_5645 68.9(6) 66.9(7) 72.9(6)
Fe1 O1 Bi1 5_4545 1_5655 88.3(8) 88.3(8) 88.3(8)
Fe1 O1 Bi1 5_4545 5_4545 22.4(8) 22.4(8) 22.4(8)
Fe1 O1 Bi1 5_4545 5_4555 82.6(10) 76.7(7) 85.2(10)
Fe1 O1 Bi1 5_4545 5_5545 120.5(11) 119.7(12) 122.4(9)
Fe1 O1 Bi1 5_4545 5_5555 146.3(11) 134.0(8) 152.7(16)
Fe1 O1 O1 5_4545 1_4555 22.6(8) 22.1(7) 23.1(8)
Fe1 O1 O1 5_4545 1_5455 90.0(9) 90.0(9) 90.0(9)
Fe1 O1 O1 5_4545 1_5655 90.0(9) 90.0(9) 90.0(9)
Fe1 O1 O1 5_4545 1_6555 158.4(10) 154.5(12) 167.4(8)
Fe1 O1 O1 5_4545 5_4445 48.0(9) 45.6(8) 49.0(9)
Fe1 O1 O1 5_4545 5_4545 48.0(9) 45.6(8) 49.0(9)
Fe1 O1 O1 5_4545 5_5445 128.2(10) 127.1(10) 129.2(10)
Fe1 O1 O1 5_4545 5_5545 128.2(10) 127.1(10) 129.2(10)
Fe1 O1 O2 5_4545 . 130.2(11) 129.9(11) 130.8(10)
Fe1 O1 O2 5_4545 1_5655 130.2(11) 129.9(11) 130.8(10)
Fe1 O1 O2 5_4545 5_3545 18.7(4) 16.0(4) 20.5(5)
Fe1 O1 O3 5_4545 . 107.7(9) 97.1(6) 112.4(12)
Fe1 O1 O3 5_4545 1_5655 107.7(9) 97.1(6) 112.4(12)
Fe1 O1 O3 5_4545 5_4535 30.8(6) 29.9(5) 32.9(6)
Fe1 O1 O3 5_4545 5_5535 106.3(7) 104.8(8) 108.5(7)
Fe1 O1 Fe1 5_4555 5_5555 139.8(8) 137.0(9) 143.7(8)
Fe1 O1 Pb1 5_4555 1_5565 75.2(6) 74.4(5) 76.9(6)
Fe1 O1 Pb1 5_4555 1_5665 75.2(6) 74.4(5) 76.9(6)
Fe1 O1 Pb1 5_4555 5_4545 79.7(7) 76.7(7) 82.0(7)
Fe1 O1 Pb1 5_4555 5_5545 139.4(7) 138.9(8) 139.7(7)
Fe1 O1 Bi1 5_4555 . 113.1(8) 113.1(8) 113.1(8)
Fe1 O1 Bi1 5_4555 1_5565 75.1(6) 74.3(5) 76.8(6)
Fe1 O1 Bi1 5_4555 1_5655 113.1(8) 113.1(8) 113.1(8)
Fe1 O1 Bi1 5_4555 1_5665 75.1(6) 74.3(5) 76.8(6)
Fe1 O1 Bi1 5_4555 5_4545 79.8(7) 76.8(7) 82.3(7)
Fe1 O1 Bi1 5_4555 5_4555 14.6(6) 14.6(6) 14.6(6)
Fe1 O1 Bi1 5_4555 5_5545 139.6(7) 139.0(8) 139.8(7)
Fe1 O1 O1 5_4555 1_4555 22.5(6) 20.7(6) 23.7(6)
Fe1 O1 O1 5_4555 1_5455 90.0(9) 90.0(9) 90.0(9)
Fe1 O1 O1 5_4555 1_5655 90.0(9) 90.0(9) 90.0(9)
Fe1 O1 O1 5_4555 5_4455 51.4(10) 51.1(10) 51.9(10)
Fe1 O1 O1 5_4555 5_4555 51.4(10) 51.1(10) 51.9(10)
Fe1 O1 O1 5_4555 5_5455 129.7(10) 128.6(10) 131.6(9)
Fe1 O1 O1 5_4555 5_5555 129.7(10) 128.6(10) 131.6(9)
Fe1 O1 O2 5_4555 5_5555 158.1(6) 157.2(6) 159.7(6)
Fe1 O1 O3 5_4555 1_5545 108.3(6) 105.2(6) 111.3(5)
Fe1 O1 O3 5_4555 1_5645 108.3(6) 105.2(6) 111.3(5)
Fe1 O1 O3 5_4555 5_4555 33.4(6) 32.2(6) 35.2(6)
Fe1 O1 O3 5_4555 5_5555 109.1(7) 107.1(7) 112.2(7)
Fe1 O1 Pb1 5_5545 1_5545 75.2(6) 74.4(5) 76.9(6)
Fe1 O1 Pb1 5_5545 1_5645 75.2(6) 74.4(5) 76.9(6)
Fe1 O1 Pb1 5_5545 5_4555 139.4(7) 138.9(8) 139.7(7)
Fe1 O1 Pb1 5_5545 5_5555 79.7(7) 76.7(7) 82.0(7)
Fe1 O1 Bi1 5_5545 1_5545 75.1(6) 74.3(5) 76.8(6)
Fe1 O1 Bi1 5_5545 . 113.1(8) 113.1(8) 113.1(8)
Fe1 O1 Bi1 5_5545 1_5645 75.1(6) 74.3(5) 76.8(6)
Fe1 O1 Bi1 5_5545 1_5655 113.1(8) 113.1(8) 113.1(8)
Fe1 O1 Bi1 5_5545 5_4555 139.6(7) 139.0(8) 139.8(7)
Fe1 O1 Bi1 5_5545 5_5545 14.6(6) 14.6(6) 14.6(6)
Fe1 O1 Bi1 5_5545 5_5555 79.8(7) 76.8(7) 82.3(7)
Fe1 O1 O1 5_5545 1_5455 90.0(9) 90.0(9) 90.0(9)
Fe1 O1 O1 5_5545 1_5655 90.0(9) 90.0(9) 90.0(9)
Fe1 O1 O1 5_5545 1_6555 22.5(6) 20.7(6) 23.7(6)
Fe1 O1 O1 5_5545 5_4445 129.7(10) 128.6(10) 131.6(9)
Fe1 O1 O1 5_5545 5_4545 129.7(10) 128.6(10) 131.6(9)
Fe1 O1 O1 5_5545 5_5445 51.4(10) 51.1(10) 51.9(10)
Fe1 O1 O1 5_5545 5_5545 51.4(10) 51.1(10) 51.9(10)
Fe1 O1 O2 5_5545 5_3545 158.1(6) 157.2(6) 159.7(6)
Fe1 O1 O3 5_5545 . 108.3(6) 105.2(6) 111.3(5)
Fe1 O1 O3 5_5545 1_5655 108.3(6) 105.2(6) 111.3(5)
Fe1 O1 O3 5_5545 5_4535 109.1(7) 107.1(7) 112.2(7)
Fe1 O1 O3 5_5545 5_5535 33.4(6) 32.2(6) 35.2(6)
Fe1 O1 Pb1 5_5555 1_5565 68.7(6) 66.5(7) 72.8(6)
Fe1 O1 Pb1 5_5555 1_5665 68.7(6) 66.5(7) 72.8(6)
Fe1 O1 Pb1 5_5555 5_4545 146.4(11) 134.2(8) 152.7(16)
Fe1 O1 Pb1 5_5555 5_4555 120.0(11) 119.5(12) 120.9(9)
Fe1 O1 Pb1 5_5555 5_5545 82.7(10) 76.9(7) 85.3(10)
Fe1 O1 Bi1 5_5555 . 88.3(8) 88.3(8) 88.3(8)
Fe1 O1 Bi1 5_5555 1_5565 68.9(6) 66.9(7) 72.9(6)
Fe1 O1 Bi1 5_5555 1_5655 88.3(8) 88.3(8) 88.3(8)
Fe1 O1 Bi1 5_5555 1_5665 68.9(6) 66.9(7) 72.9(6)
Fe1 O1 Bi1 5_5555 5_4545 146.3(11) 134.0(8) 152.7(16)
Fe1 O1 Bi1 5_5555 5_4555 120.5(11) 119.7(12) 122.4(9)
Fe1 O1 Bi1 5_5555 5_5545 82.6(10) 76.7(7) 85.2(10)
Fe1 O1 Bi1 5_5555 5_5555 22.4(8) 22.4(8) 22.4(8)
Fe1 O1 O1 5_5555 1_4555 158.4(10) 154.5(12) 167.4(8)
Fe1 O1 O1 5_5555 1_5455 90.0(9) 90.0(10) 90.0(10)
Fe1 O1 O1 5_5555 1_5655 90.0(9) 90.0(10) 90.0(10)
Fe1 O1 O1 5_5555 1_6555 22.6(8) 22.1(7) 23.1(8)
Fe1 O1 O1 5_5555 5_4455 128.2(10) 127.1(10) 129.2(10)
Fe1 O1 O1 5_5555 5_4555 128.2(10) 127.1(10) 129.2(10)
Fe1 O1 O1 5_5555 5_5455 48.0(9) 45.6(8) 49.0(9)
Fe1 O1 O1 5_5555 5_5555 48.0(9) 45.6(8) 49.0(9)
Fe1 O1 O2 5_5555 1_4555 130.2(11) 129.9(11) 130.8(10)
Fe1 O1 O2 5_5555 1_4655 130.2(11) 129.9(11) 130.8(10)
Fe1 O1 O2 5_5555 5_5555 18.7(4) 16.0(4) 20.5(5)
Fe1 O1 O3 5_5555 1_5545 107.7(9) 97.1(6) 112.4(12)
Fe1 O1 O3 5_5555 1_5645 107.7(9) 97.1(6) 112.4(12)
Fe1 O1 O3 5_5555 5_4555 106.3(7) 104.8(8) 108.5(7)
Fe1 O1 O3 5_5555 5_5555 30.8(6) 29.9(5) 32.9(6)
Pb1 O1 Pb1 1_5545 1_5645 61.8(4) 60.2(4) 65.8(4)
Pb1 O1 Pb1 1_5545 5_4555 136.5(7) 134.3(6) 137.7(6)
Pb1 O1 Pb1 1_5545 5_5545 61.9(7) 61.6(6) 62.6(7)
Pb1 O1 Pb1 1_5545 5_5555 137.0(7) 134.7(11) 140.3(5)
Pb1 O1 Bi1 1_5545 1_5545 0.3(4) 0.0(5) 0.7(4)
Pb1 O1 Bi1 1_5545 . 93.4(6) 93.4(6) 93.4(6)
Pb1 O1 Bi1 1_5545 1_5645 61.6(4) 60.0(4) 65.8(4)
Pb1 O1 Bi1 1_5545 1_5655 155.0(8) 155.0(8) 155.0(8)
Pb1 O1 Bi1 1_5545 5_4545 48.9(7) 48.9(7) 48.9(7)
Pb1 O1 Bi1 1_5545 5_4555 136.4(7) 134.2(6) 137.7(6)
Pb1 O1 Bi1 1_5545 5_5545 62.1(6) 61.8(6) 62.7(7)
Pb1 O1 Bi1 1_5545 5_5555 137.1(7) 134.7(11) 140.4(5)
Pb1 O1 O1 1_5545 1_4555 86.1(8) 85.6(9) 86.3(7)
Pb1 O1 O1 1_5545 1_5455 59.1(5) 57.1(5) 59.9(5)
Pb1 O1 O1 1_5545 1_5655 120.9(6) 120.1(7) 122.9(6)
Pb1 O1 O1 1_5545 1_6555 93.0(7) 91.5(8) 96.7(7)
Pb1 O1 O1 1_5545 5_4445 63.8(9) 63.2(9) 65.2(9)
Pb1 O1 O1 1_5545 5_4545 106.7(9) 106.3(10) 107.7(8)
Pb1 O1 O1 1_5545 5_5445 68.1(8) 67.9(8) 68.6(8)
Pb1 O1 O1 1_5545 5_5545 114.4(10) 113.1(10) 116.9(10)
Pb1 O1 O2 1_5545 . 70.4(6) 70.1(6) 71.1(5)
Pb1 O1 O2 1_5545 1_5655 111.7(10) 111.1(11) 112.8(9)
Pb1 O1 O2 1_5545 5_3545 86.0(5) 85.4(5) 86.3(5)
Pb1 O1 O3 1_5545 . 110.4(5) 108.5(5) 111.2(5)
Pb1 O1 O3 1_5545 1_5655 171.3(6) 169.3(7) 172.3(6)
Pb1 O1 O3 1_5545 5_4535 44.7(4) 41.5(4) 48.5(5)
Pb1 O1 O3 1_5545 5_5535 48.7(5) 48.4(5) 49.4(5)
Pb1 O1 Pb1 1_5565 1_5665 61.8(4) 60.2(4) 65.8(4)
Pb1 O1 Pb1 1_5565 5_4545 137.0(7) 134.7(11) 140.3(5)
Pb1 O1 Pb1 1_5565 5_4555 61.9(7) 61.6(6) 62.6(7)
Pb1 O1 Pb1 1_5565 5_5545 136.5(7) 134.3(6) 137.7(6)
Pb1 O1 Bi1 1_5565 . 93.4(6) 93.4(6) 93.4(6)
Pb1 O1 Bi1 1_5565 1_5565 0.3(4) 0.0(5) 0.7(4)
Pb1 O1 Bi1 1_5565 1_5655 155.0(8) 155.0(8) 155.0(8)
Pb1 O1 Bi1 1_5565 1_5665 61.6(4) 60.0(4) 65.8(4)
Pb1 O1 Bi1 1_5565 5_4545 137.1(7) 134.7(11) 140.4(5)
Pb1 O1 Bi1 1_5565 5_4555 62.1(6) 61.8(6) 62.7(7)
Pb1 O1 Bi1 1_5565 5_5545 136.4(7) 134.2(6) 137.7(6)
Pb1 O1 Bi1 1_5565 5_5555 48.9(7) 48.9(7) 48.9(7)
Pb1 O1 O1 1_5565 1_4555 93.0(7) 91.5(8) 96.7(7)
Pb1 O1 O1 1_5565 1_5455 59.1(5) 57.1(5) 59.9(5)
Pb1 O1 O1 1_5565 1_5655 120.9(6) 120.1(7) 122.9(6)
Pb1 O1 O1 1_5565 1_6555 86.1(8) 85.6(9) 86.3(7)
Pb1 O1 O1 1_5565 5_4455 68.1(8) 67.9(8) 68.6(8)
Pb1 O1 O1 1_5565 5_4555 114.4(10) 113.1(10) 116.9(10)
Pb1 O1 O1 1_5565 5_5455 63.8(9) 63.2(9) 65.2(9)
Pb1 O1 O1 1_5565 5_5555 106.7(9) 106.3(10) 107.7(8)
Pb1 O1 O2 1_5565 1_4555 70.4(6) 70.1(6) 71.1(5)
Pb1 O1 O2 1_5565 1_4655 111.7(10) 111.1(11) 112.8(9)
Pb1 O1 O2 1_5565 5_5555 86.0(5) 85.4(5) 86.3(5)
Pb1 O1 O3 1_5565 1_5545 110.4(5) 108.5(5) 111.2(5)
Pb1 O1 O3 1_5565 1_5645 171.3(6) 169.3(7) 172.3(6)
Pb1 O1 O3 1_5565 5_4555 48.7(5) 48.4(5) 49.4(5)
Pb1 O1 O3 1_5565 5_5555 44.7(4) 41.5(4) 48.5(5)
Pb1 O1 Pb1 1_5645 5_4555 136.5(7) 134.3(6) 137.7(6)
Pb1 O1 Pb1 1_5645 5_5545 61.9(7) 61.6(6) 62.6(7)
Pb1 O1 Pb1 1_5645 5_5555 137.0(7) 134.7(11) 140.3(5)
Pb1 O1 Bi1 1_5645 1_5545 61.6(4) 60.0(4) 65.8(4)
Pb1 O1 Bi1 1_5645 . 155.0(8) 155.0(8) 155.0(8)
Pb1 O1 Bi1 1_5645 1_5645 0.3(4) 0.0(5) 0.7(4)
Pb1 O1 Bi1 1_5645 1_5655 93.4(6) 93.4(6) 93.4(6)
Pb1 O1 Bi1 1_5645 5_4545 48.9(7) 48.9(7) 48.9(7)
Pb1 O1 Bi1 1_5645 5_4555 136.4(7) 134.2(6) 137.7(6)
Pb1 O1 Bi1 1_5645 5_5545 62.1(6) 61.8(6) 62.7(7)
Pb1 O1 Bi1 1_5645 5_5555 137.1(7) 134.7(11) 140.4(5)
Pb1 O1 O1 1_5645 1_4555 86.1(8) 85.6(9) 86.3(7)
Pb1 O1 O1 1_5645 1_5455 120.9(6) 120.1(7) 122.9(6)
Pb1 O1 O1 1_5645 1_5655 59.1(5) 57.1(5) 59.9(5)
Pb1 O1 O1 1_5645 1_6555 93.0(7) 91.5(8) 96.7(7)
Pb1 O1 O1 1_5645 5_4445 106.7(9) 106.3(10) 107.7(8)
Pb1 O1 O1 1_5645 5_4545 63.8(9) 63.2(9) 65.2(9)
Pb1 O1 O1 1_5645 5_5445 114.4(10) 113.1(10) 116.9(10)
Pb1 O1 O1 1_5645 5_5545 68.1(8) 67.9(8) 68.6(8)
Pb1 O1 O2 1_5645 . 111.7(10) 111.1(11) 112.8(9)
Pb1 O1 O2 1_5645 1_5655 70.4(6) 70.1(6) 71.1(5)
Pb1 O1 O2 1_5645 5_3545 86.0(5) 85.4(5) 86.3(5)
Pb1 O1 O3 1_5645 . 171.3(6) 169.3(7) 172.3(6)
Pb1 O1 O3 1_5645 1_5655 110.4(5) 108.5(5) 111.2(5)
Pb1 O1 O3 1_5645 5_4535 44.7(4) 41.5(4) 48.5(5)
Pb1 O1 O3 1_5645 5_5535 48.7(5) 48.4(5) 49.4(5)
Pb1 O1 Pb1 1_5665 5_4545 137.0(7) 134.7(11) 140.3(5)
Pb1 O1 Pb1 1_5665 5_4555 61.9(7) 61.6(6) 62.6(7)
Pb1 O1 Pb1 1_5665 5_5545 136.5(7) 134.3(6) 137.7(6)
Pb1 O1 Bi1 1_5665 . 155.0(8) 155.0(8) 155.0(8)
Pb1 O1 Bi1 1_5665 1_5565 61.6(4) 60.0(4) 65.8(4)
Pb1 O1 Bi1 1_5665 1_5655 93.4(6) 93.4(6) 93.4(6)
Pb1 O1 Bi1 1_5665 1_5665 0.3(4) 0.0(5) 0.7(4)
Pb1 O1 Bi1 1_5665 5_4545 137.1(7) 134.7(11) 140.4(5)
Pb1 O1 Bi1 1_5665 5_4555 62.1(6) 61.8(6) 62.7(7)
Pb1 O1 Bi1 1_5665 5_5545 136.4(7) 134.2(6) 137.7(6)
Pb1 O1 Bi1 1_5665 5_5555 48.9(7) 48.9(7) 48.9(7)
Pb1 O1 O1 1_5665 1_4555 93.0(7) 91.5(8) 96.7(7)
Pb1 O1 O1 1_5665 1_5455 120.9(6) 120.1(7) 122.9(6)
Pb1 O1 O1 1_5665 1_5655 59.1(5) 57.1(5) 59.9(5)
Pb1 O1 O1 1_5665 1_6555 86.1(8) 85.6(9) 86.3(7)
Pb1 O1 O1 1_5665 5_4455 114.4(10) 113.1(10) 116.9(10)
Pb1 O1 O1 1_5665 5_4555 68.1(8) 67.9(8) 68.6(8)
Pb1 O1 O1 1_5665 5_5455 106.7(9) 106.3(10) 107.7(8)
Pb1 O1 O1 1_5665 5_5555 63.8(9) 63.2(9) 65.2(9)
Pb1 O1 O2 1_5665 1_4555 111.7(10) 111.1(11) 112.8(9)
Pb1 O1 O2 1_5665 1_4655 70.4(6) 70.1(6) 71.1(5)
Pb1 O1 O2 1_5665 5_5555 86.0(5) 85.4(5) 86.3(5)
Pb1 O1 O3 1_5665 1_5545 171.3(6) 169.3(7) 172.3(6)
Pb1 O1 O3 1_5665 1_5645 110.4(5) 108.5(5) 111.2(5)
Pb1 O1 O3 1_5665 5_4555 48.7(5) 48.4(5) 49.4(5)
Pb1 O1 O3 1_5665 5_5555 44.7(4) 41.5(4) 48.5(5)
Pb1 O1 Pb1 5_4545 5_4555 88.9(11) 84.5(10) 103.8(18)
Pb1 O1 Pb1 5_4545 5_5545 84.1(8) 57.4(5) 101.2(11)
Pb1 O1 Pb1 5_4545 5_5555 175.9(13) 174.0(18) 180.0(5)
Pb1 O1 Bi1 5_4545 . 64.7(6) 64.7(6) 64.7(6)
Pb1 O1 Bi1 5_4545 1_5565 136.9(7) 134.4(11) 140.3(5)
Pb1 O1 Bi1 5_4545 1_5655 64.7(6) 64.7(6) 64.7(6)
Pb1 O1 Bi1 5_4545 1_5665 136.9(7) 134.4(11) 140.3(5)
Pb1 O1 Bi1 5_4545 5_4545 0.2(6) 0.0(5) 1.4(7)
Pb1 O1 Bi1 5_4545 5_4555 88.9(11) 84.6(10) 103.8(18)
Pb1 O1 Bi1 5_4545 5_5545 84.1(8) 57.5(5) 101.2(11)
Pb1 O1 Bi1 5_4545 5_5555 175.6(13) 173.3(19) 180.0(5)
Pb1 O1 O1 5_4545 1_4555 45.6(8) 38.2(8) 58.3(7)
Pb1 O1 O1 5_4545 1_5455 90.0(8) 90.0(7) 90.0(7)
Pb1 O1 O1 5_4545 1_5655 90.0(8) 90.0(7) 90.0(7)
Pb1 O1 O1 5_4545 1_6555 136.5(10) 128.0(9) 141.3(7)
Pb1 O1 O1 5_4545 5_4455 70.8(8) 69.4(9) 71.9(8)
Pb1 O1 O1 5_4545 5_4555 70.8(8) 69.4(9) 71.9(8)
Pb1 O1 O1 5_4545 5_5455 116.0(8) 111.5(8) 118.5(10)
Pb1 O1 O1 5_4545 5_5555 116.0(8) 111.5(8) 118.5(10)
Pb1 O1 O2 5_4545 1_4555 59.5(9) 55.3(9) 65.7(6)
Pb1 O1 O2 5_4545 1_4655 59.5(9) 55.3(9) 65.7(6)
Pb1 O1 O2 5_4545 . 121.7(9) 115.9(9) 124.1(8)
Pb1 O1 O2 5_4545 1_5655 121.7(9) 115.9(9) 124.1(8)
Pb1 O1 O2 5_4545 5_5555 123.2(6) 118.2(5) 127.9(7)
Pb1 O1 O3 5_4545 1_5545 56.8(5) 48.8(5) 64.6(6)
Pb1 O1 O3 5_4545 . 120.7(9) 117.7(4) 126.9(14)
Pb1 O1 O3 5_4545 1_5645 56.8(5) 48.8(5) 64.6(6)
Pb1 O1 O3 5_4545 1_5655 120.7(9) 117.7(4) 126.9(14)
Pb1 O1 O3 5_4545 5_4555 113.1(8) 109.0(9) 117.2(8)
Pb1 O1 O3 5_4545 5_5555 174.4(11) 165.7(8) 179.8(11)
Pb1 O1 Pb1 5_4555 5_5545 164.9(12) 154.3(9) 180.0(5)
Pb1 O1 Pb1 5_4555 5_5555 84.1(8) 57.4(5) 101.2(12)
Pb1 O1 Bi1 5_4555 1_5545 136.7(7) 134.3(5) 138.0(7)
Pb1 O1 Bi1 5_4555 . 52.0(6) 52.0(6) 52.0(6)
Pb1 O1 Bi1 5_4555 1_5565 61.5(6) 61.2(6) 62.0(7)
Pb1 O1 Bi1 5_4555 1_5645 136.7(7) 134.3(5) 138.0(7)
Pb1 O1 Bi1 5_4555 1_5655 52.0(6) 52.0(6) 52.0(6)
Pb1 O1 Bi1 5_4555 1_5665 61.5(6) 61.2(6) 62.0(7)
Pb1 O1 Bi1 5_4555 5_4545 89.1(11) 84.6(10) 104.6(18)
Pb1 O1 Bi1 5_4555 5_4555 0.0(5) 0.0(5) 0.3(6)
Pb1 O1 Bi1 5_4555 5_5545 164.6(12) 153.6(9) 180.0(5)
Pb1 O1 Bi1 5_4555 5_5555 84.5(8) 57.1(5) 101.7(12)
Pb1 O1 O1 5_4555 1_4555 46.7(8) 35.0(8) 63.2(8)
Pb1 O1 O1 5_4555 1_5455 90.0(8) 90.0(7) 90.0(7)
Pb1 O1 O1 5_4555 1_5655 90.0(8) 90.0(7) 90.0(7)
Pb1 O1 O1 5_4555 1_6555 131.0(9) 115.7(7) 142.7(11)
Pb1 O1 O1 5_4555 5_4445 72.7(10) 69.6(12) 74.3(10)
Pb1 O1 O1 5_4555 5_4545 72.7(10) 69.6(12) 74.3(10)
Pb1 O1 O1 5_4555 5_5445 109.3(9) 108.7(9) 109.7(9)
Pb1 O1 O1 5_4555 5_5455 122.4(11) 121.4(10) 124.3(11)
Pb1 O1 O1 5_4555 5_5545 109.3(9) 108.7(9) 109.7(9)
Pb1 O1 O1 5_4555 5_5555 122.4(11) 121.4(10) 124.3(11)
Pb1 O1 O2 5_4555 1_4555 59.9(10) 53.2(12) 69.3(12)
Pb1 O1 O2 5_4555 1_4655 59.9(10) 53.2(12) 69.3(12)
Pb1 O1 O2 5_4555 . 117.8(9) 109.5(8) 122.8(13)
Pb1 O1 O2 5_4555 1_5655 117.8(9) 109.5(8) 122.8(13)
Pb1 O1 O2 5_4555 5_3545 62.8(4) 60.9(3) 64.4(5)
Pb1 O1 O2 5_4555 5_5555 141.4(6) 141.4(6) 141.4(6)
Pb1 O1 O3 5_4555 1_5545 120.2(9) 113.2(14) 130.4(11)
Pb1 O1 O3 5_4555 . 55.6(5) 42.9(4) 63.0(8)
Pb1 O1 O3 5_4555 1_5645 120.2(9) 113.2(14) 130.4(11)
Pb1 O1 O3 5_4555 1_5655 55.6(5) 42.9(4) 63.0(8)
Pb1 O1 O3 5_4555 5_4535 113.6(10) 108.4(7) 115.7(13)
Pb1 O1 O3 5_4555 5_5535 172.9(8) 171.2(9) 174.6(8)
Pb1 O1 O3 5_4555 5_5555 89.0(8) 87.5(9) 91.0(6)
Pb1 O1 Pb1 5_5545 5_5555 88.9(11) 84.5(10) 103.8(19)
Pb1 O1 Bi1 5_5545 1_5545 61.5(6) 61.2(6) 62.0(7)
Pb1 O1 Bi1 5_5545 . 52.0(6) 52.0(6) 52.0(6)
Pb1 O1 Bi1 5_5545 1_5565 136.7(7) 134.3(5) 138.0(7)
Pb1 O1 Bi1 5_5545 1_5645 61.5(6) 61.2(6) 62.0(7)
Pb1 O1 Bi1 5_5545 1_5655 52.0(6) 52.0(6) 52.0(6)
Pb1 O1 Bi1 5_5545 1_5665 136.7(7) 134.3(5) 138.0(7)
Pb1 O1 Bi1 5_5545 5_4545 84.5(8) 57.1(5) 101.7(12)
Pb1 O1 Bi1 5_5545 5_4555 164.6(12) 153.6(9) 180.0(5)
Pb1 O1 Bi1 5_5545 5_5545 0.0(5) 0.0(5) 0.3(6)
Pb1 O1 Bi1 5_5545 5_5555 89.1(11) 84.6(10) 104.6(18)
Pb1 O1 O1 5_5545 1_4555 131.0(9) 115.7(7) 142.7(11)
Pb1 O1 O1 5_5545 1_5455 90.0(8) 90.0(7) 90.0(7)
Pb1 O1 O1 5_5545 1_5655 90.0(8) 90.0(7) 90.0(7)
Pb1 O1 O1 5_5545 1_6555 46.7(8) 35.0(8) 63.2(8)
Pb1 O1 O1 5_5545 5_4445 122.4(11) 121.4(10) 124.3(11)
Pb1 O1 O1 5_5545 5_4455 109.3(9) 108.7(9) 109.7(9)
Pb1 O1 O1 5_5545 5_4545 122.4(11) 121.4(10) 124.3(11)
Pb1 O1 O1 5_5545 5_4555 109.3(9) 108.7(9) 109.7(9)
Pb1 O1 O1 5_5545 5_5455 72.7(10) 69.6(12) 74.3(10)
Pb1 O1 O1 5_5545 5_5555 72.7(10) 69.6(12) 74.3(10)
Pb1 O1 O2 5_5545 1_4555 117.8(9) 109.5(8) 122.8(13)
Pb1 O1 O2 5_5545 1_4655 117.8(9) 109.5(8) 122.8(13)
Pb1 O1 O2 5_5545 . 59.9(10) 53.2(12) 69.3(12)
Pb1 O1 O2 5_5545 1_5655 59.9(10) 53.2(12) 69.3(12)
Pb1 O1 O2 5_5545 5_3545 141.4(6) 141.4(6) 141.4(6)
Pb1 O1 O2 5_5545 5_5555 62.8(4) 60.9(3) 64.4(5)
Pb1 O1 O3 5_5545 1_5545 55.6(5) 42.9(4) 63.0(8)
Pb1 O1 O3 5_5545 . 120.2(9) 113.2(14) 130.4(11)
Pb1 O1 O3 5_5545 1_5645 55.6(5) 42.9(4) 63.0(8)
Pb1 O1 O3 5_5545 1_5655 120.2(9) 113.2(14) 130.4(11)
Pb1 O1 O3 5_5545 5_4535 89.0(8) 87.5(9) 91.0(6)
Pb1 O1 O3 5_5545 5_4555 172.9(8) 171.2(9) 174.6(8)
Pb1 O1 O3 5_5545 5_5555 113.6(10) 108.4(7) 115.7(13)
Pb1 O1 Bi1 5_5555 1_5545 136.9(7) 134.4(11) 140.3(5)
Pb1 O1 Bi1 5_5555 . 64.7(6) 64.7(6) 64.7(6)
Pb1 O1 Bi1 5_5555 1_5645 136.9(7) 134.4(11) 140.3(5)
Pb1 O1 Bi1 5_5555 1_5655 64.7(6) 64.7(6) 64.7(6)
Pb1 O1 Bi1 5_5555 5_4545 175.6(13) 173.3(19) 180.0(5)
Pb1 O1 Bi1 5_5555 5_4555 84.1(8) 57.5(5) 101.2(11)
Pb1 O1 Bi1 5_5555 5_5545 88.9(11) 84.6(10) 103.8(18)
Pb1 O1 Bi1 5_5555 5_5555 0.2(6) 0.0(5) 1.4(7)
Pb1 O1 O1 5_5555 1_4555 136.5(10) 128.0(9) 141.3(7)
Pb1 O1 O1 5_5555 1_5455 90.0(8) 90.0(7) 90.0(7)
Pb1 O1 O1 5_5555 1_5655 90.0(8) 90.0(7) 90.0(7)
Pb1 O1 O1 5_5555 1_6555 45.6(8) 38.2(8) 58.3(7)
Pb1 O1 O1 5_5555 5_4445 116.0(8) 111.5(8) 118.5(10)
Pb1 O1 O1 5_5555 5_4545 116.0(8) 111.5(8) 118.5(10)
Pb1 O1 O1 5_5555 5_5445 70.8(8) 69.4(9) 71.9(8)
Pb1 O1 O1 5_5555 5_5545 70.8(8) 69.4(9) 71.9(8)
Pb1 O1 O2 5_5555 1_4555 121.7(9) 115.9(9) 124.1(8)
Pb1 O1 O2 5_5555 1_4655 121.7(9) 115.9(9) 124.1(8)
Pb1 O1 O2 5_5555 . 59.5(9) 55.3(9) 65.7(6)
Pb1 O1 O2 5_5555 1_5655 59.5(9) 55.3(9) 65.7(6)
Pb1 O1 O2 5_5555 5_3545 123.2(6) 118.2(5) 127.9(7)
Pb1 O1 O3 5_5555 1_5545 120.7(9) 117.7(4) 126.9(14)
Pb1 O1 O3 5_5555 . 56.8(5) 48.8(5) 64.6(6)
Pb1 O1 O3 5_5555 1_5645 120.7(9) 117.7(4) 126.9(14)
Pb1 O1 O3 5_5555 1_5655 56.8(5) 48.8(5) 64.6(6)
Pb1 O1 O3 5_5555 5_4535 174.4(11) 165.7(8) 179.8(11)
Pb1 O1 O3 5_5555 5_5535 113.1(8) 109.0(9) 117.2(8)
Bi1 O1 Bi1 1_5545 . 93.4(6) 93.4(6) 93.4(6)
Bi1 O1 Bi1 1_5545 1_5645 61.5(4) 59.8(4) 65.7(4)
Bi1 O1 Bi1 1_5545 1_5655 155.0(8) 155.0(8) 155.0(8)
Bi1 O1 Bi1 1_5545 5_4545 49.2(7) 49.2(7) 49.2(7)
Bi1 O1 Bi1 1_5545 5_4555 136.7(7) 134.2(6) 137.9(6)
Bi1 O1 Bi1 1_5545 5_5545 61.7(6) 61.4(6) 62.2(6)
Bi1 O1 Bi1 1_5545 5_5555 136.9(7) 134.4(11) 140.4(5)
Bi1 O1 O1 1_5545 1_4555 86.5(8) 86.2(9) 86.7(8)
Bi1 O1 O1 1_5545 1_5455 59.3(5) 57.1(5) 60.1(5)
Bi1 O1 O1 1_5545 1_5655 120.7(6) 119.9(7) 122.9(6)
Bi1 O1 O1 1_5545 1_6555 92.7(7) 91.1(8) 96.7(7)
Bi1 O1 O1 1_5545 5_4445 64.1(9) 63.3(8) 65.8(9)
Bi1 O1 O1 1_5545 5_4545 106.8(9) 106.4(9) 107.7(8)
Bi1 O1 O1 1_5545 5_5445 68.0(8) 67.8(8) 68.5(8)
Bi1 O1 O1 1_5545 5_5545 114.3(10) 112.9(10) 116.8(10)
Bi1 O1 O2 1_5545 . 70.3(6) 70.0(6) 71.0(5)
Bi1 O1 O2 1_5545 1_5655 111.3(10) 110.7(11) 112.6(9)
Bi1 O1 O2 1_5545 5_3545 86.2(5) 85.6(5) 86.4(5)
Bi1 O1 O3 1_5545 . 110.6(5) 108.5(5) 111.3(5)
Bi1 O1 O3 1_5545 1_5655 171.2(6) 169.4(7) 172.3(6)
Bi1 O1 O3 1_5545 5_4535 44.8(4) 41.8(4) 48.5(5)
Bi1 O1 O3 1_5545 5_5535 48.6(5) 48.2(5) 49.3(5)
Bi1 O1 Bi1 . 1_5565 93.4(3) 93.4(3) 93.4(3)
Bi1 O1 Bi1 . 1_5645 155.0(6) 155.0(6) 155.0(6)
Bi1 O1 Bi1 . 1_5655 102.5(7) 102.5(7) 102.5(7)
Bi1 O1 Bi1 . 1_5665 155.0(6) 155.0(6) 155.0(6)
Bi1 O1 Bi1 . 5_4545 64.5(4) 64.5(4) 64.5(4)
Bi1 O1 Bi1 . 5_4555 52.1(3) 52.1(3) 52.1(3)
Bi1 O1 Bi1 . 5_5545 52.1(3) 52.1(3) 52.1(3)
Bi1 O1 Bi1 . 5_5555 64.5(4) 64.5(4) 64.5(4)
Bi1 O1 O1 . 1_4555 99.4(6) 99.4(6) 99.4(6)
Bi1 O1 O1 . 1_5455 38.7(6) 38.7(6) 38.7(6)
Bi1 O1 O1 . 1_5655 141.3(7) 141.3(7) 141.3(7)
Bi1 O1 O1 . 1_6555 99.4(6) 99.4(6) 99.4(6)
Bi1 O1 O1 . 5_4445 48.1(7) 48.1(7) 48.1(7)
Bi1 O1 O1 . 5_4455 62.9(10) 62.9(10) 62.9(10)
Bi1 O1 O1 . 5_4545 114.5(11) 114.5(11) 114.5(11)
Bi1 O1 O1 . 5_4555 136.0(10) 136.0(10) 136.0(10)
Bi1 O1 O1 . 5_5445 62.9(10) 62.9(10) 62.9(10)
Bi1 O1 O1 . 5_5455 48.1(7) 48.1(7) 48.1(7)
Bi1 O1 O1 . 5_5545 136.0(10) 136.0(10) 136.0(10)
Bi1 O1 O1 . 5_5555 114.5(11) 114.5(11) 114.5(11)
Bi1 O1 O3 . 1_5545 15.8(5) 15.8(5) 15.8(5)
Bi1 O1 O3 . . 15.8(5) 15.8(5) 15.8(5)
Bi1 O1 O3 . 1_5645 89.6(6) 89.6(6) 89.6(6)
Bi1 O1 O3 . 1_5655 89.6(6) 89.6(6) 89.6(6)
Bi1 O1 O3 . 5_4535 107.6(6) 107.6(6) 107.6(6)
Bi1 O1 O3 . 5_4555 127.0(4) 127.0(4) 127.0(4)
Bi1 O1 O3 . 5_5535 127.0(4) 127.0(4) 127.0(4)
Bi1 O1 O3 . 5_5555 107.6(6) 107.6(6) 107.6(6)
Bi1 O1 Bi1 1_5565 1_5655 155.0(8) 155.0(8) 155.0(8)
Bi1 O1 Bi1 1_5565 1_5665 61.5(4) 59.8(4) 65.7(4)
Bi1 O1 Bi1 1_5565 5_4545 136.9(7) 134.4(11) 140.4(5)
Bi1 O1 Bi1 1_5565 5_4555 61.7(6) 61.4(6) 62.2(6)
Bi1 O1 Bi1 1_5565 5_5545 136.7(7) 134.2(6) 137.9(6)
Bi1 O1 Bi1 1_5565 5_5555 49.2(7) 49.2(7) 49.2(7)
Bi1 O1 O1 1_5565 1_4555 92.7(7) 91.1(8) 96.7(7)
Bi1 O1 O1 1_5565 1_5455 59.3(5) 57.1(5) 60.1(5)
Bi1 O1 O1 1_5565 1_5655 120.7(6) 119.9(7) 122.9(6)
Bi1 O1 O1 1_5565 1_6555 86.5(8) 86.2(9) 86.7(8)
Bi1 O1 O1 1_5565 5_4455 68.0(8) 67.8(8) 68.5(8)
Bi1 O1 O1 1_5565 5_4555 114.3(10) 112.9(10) 116.8(10)
Bi1 O1 O1 1_5565 5_5455 64.1(9) 63.3(8) 65.8(9)
Bi1 O1 O1 1_5565 5_5555 106.8(9) 106.4(9) 107.7(8)
Bi1 O1 O2 1_5565 1_4555 70.3(6) 70.0(6) 71.0(5)
Bi1 O1 O2 1_5565 1_4655 111.3(10) 110.7(11) 112.6(9)
Bi1 O1 O2 1_5565 5_5555 86.2(5) 85.6(5) 86.4(5)
Bi1 O1 O3 1_5565 1_5545 110.6(5) 108.5(5) 111.3(5)
Bi1 O1 O3 1_5565 1_5645 171.2(6) 169.4(7) 172.3(6)
Bi1 O1 O3 1_5565 5_4555 48.6(5) 48.2(5) 49.3(5)
Bi1 O1 O3 1_5565 5_5555 44.8(4) 41.8(4) 48.5(5)
Bi1 O1 Bi1 1_5645 1_5655 93.4(6) 93.4(6) 93.4(6)
Bi1 O1 Bi1 1_5645 5_4545 49.2(7) 49.2(7) 49.2(7)
Bi1 O1 Bi1 1_5645 5_4555 136.7(7) 134.2(6) 137.9(6)
Bi1 O1 Bi1 1_5645 5_5545 61.7(6) 61.4(6) 62.2(6)
Bi1 O1 Bi1 1_5645 5_5555 136.9(7) 134.4(11) 140.4(5)
Bi1 O1 O1 1_5645 1_4555 86.5(8) 86.2(9) 86.7(8)
Bi1 O1 O1 1_5645 1_5455 120.7(6) 119.9(7) 122.9(6)
Bi1 O1 O1 1_5645 1_5655 59.3(5) 57.1(5) 60.1(5)
Bi1 O1 O1 1_5645 1_6555 92.7(7) 91.1(8) 96.7(7)
Bi1 O1 O1 1_5645 5_4445 106.8(9) 106.4(9) 107.7(8)
Bi1 O1 O1 1_5645 5_4545 64.1(9) 63.3(8) 65.8(9)
Bi1 O1 O1 1_5645 5_5445 114.3(10) 112.9(10) 116.8(10)
Bi1 O1 O1 1_5645 5_5545 68.0(8) 67.8(8) 68.5(8)
Bi1 O1 O2 1_5645 . 111.3(10) 110.7(11) 112.6(9)
Bi1 O1 O2 1_5645 1_5655 70.3(6) 70.0(6) 71.0(5)
Bi1 O1 O2 1_5645 5_3545 86.2(5) 85.6(5) 86.4(5)
Bi1 O1 O3 1_5645 . 171.2(6) 169.4(7) 172.3(6)
Bi1 O1 O3 1_5645 1_5655 110.6(5) 108.5(5) 111.3(5)
Bi1 O1 O3 1_5645 5_4535 44.8(4) 41.8(4) 48.5(5)
Bi1 O1 O3 1_5645 5_5535 48.6(5) 48.2(5) 49.3(5)
Bi1 O1 Bi1 1_5655 1_5665 93.4(3) 93.4(3) 93.4(3)
Bi1 O1 Bi1 1_5655 5_4545 64.5(4) 64.5(4) 64.5(4)
Bi1 O1 Bi1 1_5655 5_4555 52.1(3) 52.1(3) 52.1(3)
Bi1 O1 Bi1 1_5655 5_5545 52.1(3) 52.1(3) 52.1(3)
Bi1 O1 Bi1 1_5655 5_5555 64.5(4) 64.5(4) 64.5(4)
Bi1 O1 O1 1_5655 1_4555 99.4(6) 99.4(6) 99.4(6)
Bi1 O1 O1 1_5655 1_5455 141.3(7) 141.3(7) 141.3(7)
Bi1 O1 O1 1_5655 1_5655 38.7(6) 38.7(6) 38.7(6)
Bi1 O1 O1 1_5655 1_6555 99.4(6) 99.4(6) 99.4(6)
Bi1 O1 O1 1_5655 5_4445 114.5(11) 114.5(11) 114.5(11)
Bi1 O1 O1 1_5655 5_4455 136.0(10) 136.0(10) 136.0(10)
Bi1 O1 O1 1_5655 5_4545 48.1(7) 48.1(7) 48.1(7)
Bi1 O1 O1 1_5655 5_4555 62.9(10) 62.9(10) 62.9(10)
Bi1 O1 O1 1_5655 5_5445 136.0(10) 136.0(10) 136.0(10)
Bi1 O1 O1 1_5655 5_5455 114.5(11) 114.5(11) 114.5(11)
Bi1 O1 O1 1_5655 5_5545 62.9(10) 62.9(10) 62.9(10)
Bi1 O1 O1 1_5655 5_5555 48.1(7) 48.1(7) 48.1(7)
Bi1 O1 O3 1_5655 1_5545 89.6(6) 89.6(6) 89.6(6)
Bi1 O1 O3 1_5655 . 89.6(6) 89.6(6) 89.6(6)
Bi1 O1 O3 1_5655 1_5645 15.8(5) 15.8(5) 15.8(5)
Bi1 O1 O3 1_5655 1_5655 15.8(5) 15.8(5) 15.8(5)
Bi1 O1 O3 1_5655 5_4535 107.6(6) 107.6(6) 107.6(6)
Bi1 O1 O3 1_5655 5_4555 127.0(4) 127.0(4) 127.0(4)
Bi1 O1 O3 1_5655 5_5535 127.0(4) 127.0(4) 127.0(4)
Bi1 O1 O3 1_5655 5_5555 107.6(6) 107.6(6) 107.6(6)
Bi1 O1 Bi1 1_5665 5_4545 136.9(7) 134.4(11) 140.4(5)
Bi1 O1 Bi1 1_5665 5_4555 61.7(6) 61.4(6) 62.2(6)
Bi1 O1 Bi1 1_5665 5_5545 136.7(7) 134.2(6) 137.9(6)
Bi1 O1 Bi1 1_5665 5_5555 49.2(7) 49.2(7) 49.2(7)
Bi1 O1 O1 1_5665 1_4555 92.7(7) 91.1(8) 96.7(7)
Bi1 O1 O1 1_5665 1_5455 120.7(6) 119.9(7) 122.9(6)
Bi1 O1 O1 1_5665 1_5655 59.3(5) 57.1(5) 60.1(5)
Bi1 O1 O1 1_5665 1_6555 86.5(8) 86.2(9) 86.7(8)
Bi1 O1 O1 1_5665 5_4455 114.3(10) 112.9(10) 116.8(10)
Bi1 O1 O1 1_5665 5_4555 68.0(8) 67.8(8) 68.5(8)
Bi1 O1 O1 1_5665 5_5455 106.8(9) 106.4(9) 107.7(8)
Bi1 O1 O1 1_5665 5_5555 64.1(9) 63.3(8) 65.8(9)
Bi1 O1 O2 1_5665 1_4555 111.3(10) 110.7(11) 112.6(9)
Bi1 O1 O2 1_5665 1_4655 70.3(6) 70.0(6) 71.0(5)
Bi1 O1 O2 1_5665 5_5555 86.2(5) 85.6(5) 86.4(5)
Bi1 O1 O3 1_5665 1_5545 171.2(6) 169.4(7) 172.3(6)
Bi1 O1 O3 1_5665 1_5645 110.6(5) 108.5(5) 111.3(5)
Bi1 O1 O3 1_5665 5_4555 48.6(5) 48.2(5) 49.3(5)
Bi1 O1 O3 1_5665 5_5555 44.8(4) 41.8(4) 48.5(5)
Bi1 O1 Bi1 5_4545 5_4555 89.2(11) 84.6(10) 104.5(17)
Bi1 O1 Bi1 5_4545 5_5545 84.5(8) 57.3(5) 101.7(11)
Bi1 O1 Bi1 5_4545 5_5555 175.4(13) 173.4(18) 180.0(5)
Bi1 O1 O1 5_4545 1_4555 45.5(8) 38.1(8) 58.6(7)
Bi1 O1 O1 5_4545 1_5455 90.0(8) 90.0(7) 90.0(7)
Bi1 O1 O1 5_4545 1_5655 90.0(8) 90.0(7) 90.0(7)
Bi1 O1 O1 5_4545 1_6555 136.6(10) 128.0(9) 141.3(8)
Bi1 O1 O1 5_4545 5_4445 58.5(11) 58.5(11) 58.5(11)
Bi1 O1 O1 5_4545 5_4455 70.9(8) 69.4(9) 72.1(8)
Bi1 O1 O1 5_4545 5_4545 58.5(11) 58.5(11) 58.5(11)
Bi1 O1 O1 5_4545 5_4555 70.9(8) 69.4(9) 72.1(8)
Bi1 O1 O1 5_4545 5_5455 115.9(8) 111.3(8) 118.5(10)
Bi1 O1 O1 5_4545 5_5555 115.9(8) 111.3(8) 118.5(10)
Bi1 O1 O2 5_4545 1_4555 59.4(9) 55.3(9) 65.7(6)
Bi1 O1 O2 5_4545 1_4655 59.4(9) 55.3(9) 65.7(6)
Bi1 O1 O2 5_4545 . 121.8(9) 116.0(9) 124.1(8)
Bi1 O1 O2 5_4545 1_5655 121.8(9) 116.0(9) 124.1(8)
Bi1 O1 O2 5_4545 5_5555 123.0(6) 118.0(5) 127.8(7)
Bi1 O1 O3 5_4545 1_5545 56.8(5) 48.7(5) 64.6(6)
Bi1 O1 O3 5_4545 . 120.8(9) 117.8(4) 127.0(13)
Bi1 O1 O3 5_4545 1_5645 56.8(5) 48.7(5) 64.6(6)
Bi1 O1 O3 5_4545 1_5655 120.8(9) 117.8(4) 127.0(13)
Bi1 O1 O3 5_4545 5_4535 10.5(6) 10.5(6) 10.5(6)
Bi1 O1 O3 5_4545 5_4555 113.3(8) 109.0(9) 117.5(8)
Bi1 O1 O3 5_4545 5_5555 174.4(11) 165.5(8) 179.9(11)
Bi1 O1 Bi1 5_4555 5_5545 164.4(11) 153.7(8) 180.0(5)
Bi1 O1 Bi1 5_4555 5_5555 84.5(8) 57.3(5) 101.7(12)
Bi1 O1 O1 5_4555 1_4555 46.4(7) 34.8(7) 63.1(8)
Bi1 O1 O1 5_4555 1_5455 90.0(8) 90.0(7) 90.0(7)
Bi1 O1 O1 5_4555 1_5655 90.0(8) 90.0(7) 90.0(7)
Bi1 O1 O1 5_4555 1_6555 131.1(9) 115.9(7) 142.8(11)
Bi1 O1 O1 5_4555 5_4445 72.6(10) 69.6(12) 74.2(10)
Bi1 O1 O1 5_4555 5_4455 56.6(10) 56.6(10) 56.6(10)
Bi1 O1 O1 5_4555 5_4545 72.6(10) 69.6(12) 74.2(10)
Bi1 O1 O1 5_4555 5_4555 56.6(10) 56.6(10) 56.6(10)
Bi1 O1 O1 5_4555 5_5445 109.4(9) 108.8(9) 109.7(9)
Bi1 O1 O1 5_4555 5_5455 122.4(10) 121.5(10) 124.3(11)
Bi1 O1 O1 5_4555 5_5545 109.4(9) 108.8(9) 109.7(9)
Bi1 O1 O1 5_4555 5_5555 122.4(10) 121.5(10) 124.3(11)
Bi1 O1 O2 5_4555 1_4555 59.9(10) 53.1(12) 69.2(12)
Bi1 O1 O2 5_4555 1_4655 59.9(10) 53.1(12) 69.2(12)
Bi1 O1 O2 5_4555 . 117.8(9) 109.5(8) 122.8(13)
Bi1 O1 O2 5_4555 1_5655 117.8(9) 109.5(8) 122.8(13)
Bi1 O1 O2 5_4555 5_3545 62.7(4) 60.7(3) 64.3(5)
Bi1 O1 O2 5_4555 5_5555 142.1(6) 141.7(7) 142.5(6)
Bi1 O1 O3 5_4555 1_5545 120.0(9) 113.2(14) 130.3(11)
Bi1 O1 O3 5_4555 . 55.6(5) 43.0(4) 63.1(8)
Bi1 O1 O3 5_4555 1_5645 120.0(9) 113.2(14) 130.3(11)
Bi1 O1 O3 5_4555 1_5655 55.6(5) 43.0(4) 63.1(8)
Bi1 O1 O3 5_4555 5_4535 113.5(10) 108.2(7) 115.6(13)
Bi1 O1 O3 5_4555 5_4555 17.6(5) 17.6(5) 17.6(5)
Bi1 O1 O3 5_4555 5_5535 173.0(8) 171.3(9) 174.8(8)
Bi1 O1 O3 5_4555 5_5555 89.7(8) 87.6(10) 92.4(6)
Bi1 O1 Bi1 5_5545 5_5555 89.2(11) 84.6(10) 104.5(18)
Bi1 O1 O1 5_5545 1_4555 131.1(9) 115.9(7) 142.8(11)
Bi1 O1 O1 5_5545 1_5455 90.0(8) 90.0(7) 90.0(7)
Bi1 O1 O1 5_5545 1_5655 90.0(8) 90.0(7) 90.0(7)
Bi1 O1 O1 5_5545 1_6555 46.4(7) 34.8(7) 63.1(8)
Bi1 O1 O1 5_5545 5_4445 122.4(10) 121.5(10) 124.3(11)
Bi1 O1 O1 5_5545 5_4455 109.4(9) 108.8(9) 109.7(9)
Bi1 O1 O1 5_5545 5_4545 122.4(10) 121.5(10) 124.3(11)
Bi1 O1 O1 5_5545 5_4555 109.4(9) 108.8(9) 109.7(9)
Bi1 O1 O1 5_5545 5_5445 56.6(10) 56.6(10) 56.6(10)
Bi1 O1 O1 5_5545 5_5455 72.6(10) 69.6(12) 74.2(10)
Bi1 O1 O1 5_5545 5_5545 56.6(10) 56.6(10) 56.6(10)
Bi1 O1 O1 5_5545 5_5555 72.6(10) 69.6(12) 74.2(10)
Bi1 O1 O2 5_5545 1_4555 117.8(9) 109.5(8) 122.8(13)
Bi1 O1 O2 5_5545 1_4655 117.8(9) 109.5(8) 122.8(13)
Bi1 O1 O2 5_5545 . 59.9(10) 53.1(12) 69.2(12)
Bi1 O1 O2 5_5545 1_5655 59.9(10) 53.1(12) 69.2(12)
Bi1 O1 O2 5_5545 5_3545 142.1(6) 141.7(7) 142.5(6)
Bi1 O1 O2 5_5545 5_5555 62.7(4) 60.7(3) 64.3(5)
Bi1 O1 O3 5_5545 1_5545 55.6(5) 43.0(4) 63.1(8)
Bi1 O1 O3 5_5545 . 120.0(9) 113.2(14) 130.3(11)
Bi1 O1 O3 5_5545 1_5645 55.6(5) 43.0(4) 63.1(8)
Bi1 O1 O3 5_5545 1_5655 120.0(9) 113.2(14) 130.3(11)
Bi1 O1 O3 5_5545 5_4535 89.7(8) 87.6(10) 92.4(6)
Bi1 O1 O3 5_5545 5_4555 173.0(8) 171.3(9) 174.8(8)
Bi1 O1 O3 5_5545 5_5535 17.6(5) 17.6(5) 17.6(5)
Bi1 O1 O3 5_5545 5_5555 113.5(10) 108.2(7) 115.6(13)
Bi1 O1 O1 5_5555 1_4555 136.6(10) 128.0(9) 141.3(8)
Bi1 O1 O1 5_5555 1_5455 90.0(8) 90.0(7) 90.0(7)
Bi1 O1 O1 5_5555 1_5655 90.0(8) 90.0(7) 90.0(7)
Bi1 O1 O1 5_5555 1_6555 45.5(8) 38.1(8) 58.6(7)
Bi1 O1 O1 5_5555 5_4445 115.9(8) 111.3(8) 118.5(10)
Bi1 O1 O1 5_5555 5_4545 115.9(8) 111.3(8) 118.5(10)
Bi1 O1 O1 5_5555 5_5445 70.9(8) 69.4(9) 72.1(8)
Bi1 O1 O1 5_5555 5_5455 58.5(11) 58.5(11) 58.5(11)
Bi1 O1 O1 5_5555 5_5545 70.9(8) 69.4(9) 72.1(8)
Bi1 O1 O1 5_5555 5_5555 58.5(11) 58.5(11) 58.5(11)
Bi1 O1 O2 5_5555 1_4555 121.8(9) 116.0(9) 124.1(8)
Bi1 O1 O2 5_5555 1_4655 121.8(9) 116.0(9) 124.1(8)
Bi1 O1 O2 5_5555 . 59.4(9) 55.3(9) 65.7(6)
Bi1 O1 O2 5_5555 1_5655 59.4(9) 55.3(9) 65.7(6)
Bi1 O1 O2 5_5555 5_3545 123.0(6) 118.0(5) 127.8(7)
Bi1 O1 O3 5_5555 1_5545 120.8(9) 117.8(4) 127.0(13)
Bi1 O1 O3 5_5555 . 56.8(5) 48.7(5) 64.6(6)
Bi1 O1 O3 5_5555 1_5645 120.8(9) 117.8(4) 127.0(13)
Bi1 O1 O3 5_5555 1_5655 56.8(5) 48.7(5) 64.6(6)
Bi1 O1 O3 5_5555 5_4535 174.4(11) 165.5(8) 179.9(11)
Bi1 O1 O3 5_5555 5_5535 113.3(8) 109.0(9) 117.5(8)
Bi1 O1 O3 5_5555 5_5555 10.5(6) 10.5(6) 10.5(6)
O1 O1 O1 1_4555 1_5455 90.0(10) 90.0(9) 90.0(9)
O1 O1 O1 1_4555 1_5655 90.0(10) 90.0(9) 90.0(9)
O1 O1 O1 1_4555 1_6555 178.8(8) 177.3(9) 180.0(5)
O1 O1 O1 1_4555 5_4445 45.3(11) 44.0(11) 46.3(10)
O1 O1 O1 1_4555 5_4455 48.6(10) 48.4(10) 49.0(10)
O1 O1 O1 1_4555 5_4545 45.3(11) 44.0(11) 46.3(10)
O1 O1 O1 1_4555 5_4555 48.6(10) 48.4(10) 49.0(10)
O1 O1 O1 1_4555 5_5455 134.5(10) 133.5(10) 136.0(9)
O1 O1 O1 1_4555 5_5555 134.5(10) 133.5(10) 136.0(9)
O1 O1 O2 1_4555 1_4555 44.7(13) 43.6(13) 47.5(15)
O1 O1 O2 1_4555 1_4655 44.7(13) 43.6(13) 47.5(15)
O1 O1 O2 1_4555 . 135.3(13) 132.5(15) 136.4(13)
O1 O1 O2 1_4555 1_5655 135.3(13) 132.5(15) 136.4(13)
O1 O1 O2 1_4555 5_5555 178.0(6) 176.6(5) 179.6(5)
O1 O1 O3 1_4555 1_5545 89.0(7) 86.2(10) 92.8(5)
O1 O1 O3 1_4555 . 91.5(7) 87.8(9) 95.1(11)
O1 O1 O3 1_4555 1_5645 89.0(7) 86.2(10) 92.8(5)
O1 O1 O3 1_4555 1_5655 91.5(7) 87.8(9) 95.1(11)
O1 O1 O3 1_4555 5_4535 53.9(7) 52.1(6) 55.2(9)
O1 O1 O3 1_4555 5_4555 55.9(7) 52.9(7) 58.9(7)
O1 O1 O3 1_4555 5_5555 127.5(9) 122.8(12) 135.9(7)
O1 O1 O1 1_5455 1_5655 180.0(5) 180.0(5) 180.0(5)
O1 O1 O1 1_5455 1_6555 90.0(6) 90 90
O1 O1 O1 1_5455 5_4445 44.7(10) 43.7(10) 46.0(9)
O1 O1 O1 1_5455 5_4455 41.5(10) 41.1(10) 41.7(10)
O1 O1 O1 1_5455 5_4545 135.3(13) 134.0(10) 136.3(12)
O1 O1 O1 1_5455 5_4555 138.5(12) 138.3(12) 138.9(12)
O1 O1 O1 1_5455 5_5445 41.5(10) 41.1(10) 41.7(10)
O1 O1 O1 1_5455 5_5455 44.7(10) 43.7(10) 46.0(9)
O1 O1 O1 1_5455 5_5545 138.5(12) 138.3(12) 138.9(12)
O1 O1 O1 1_5455 5_5555 135.3(13) 134.0(10) 136.3(12)
O1 O1 O2 1_5455 1_4555 45.3(13) 42.5(15) 46.4(13)
O1 O1 O2 1_5455 1_4655 134.7(16) 133.6(18) 137(2)
O1 O1 O2 1_5455 . 45.3(13) 42.5(15) 46.4(13)
O1 O1 O2 1_5455 1_5655 134.7(16) 133.6(18) 137(2)
O1 O1 O2 1_5455 5_3545 90.0(4) 90.0(4) 90.0(4)
O1 O1 O2 1_5455 5_5555 90.0(4) 90.0(5) 90.0(5)
O1 O1 O3 1_5455 1_5545 48.7(6) 46.2(6) 52.2(5)
O1 O1 O3 1_5455 . 48.7(6) 46.2(6) 52.2(5)
O1 O1 O3 1_5455 1_5645 131.3(8) 127.8(6) 133.8(6)
O1 O1 O3 1_5455 1_5655 131.3(8) 127.8(6) 133.8(6)
O1 O1 O3 1_5455 5_4535 90.0(4) 90.0(3) 90.0(3)
O1 O1 O3 1_5455 5_4555 90.0(3) 90.0(4) 90.0(4)
O1 O1 O3 1_5455 5_5535 90.0(3) 90.0(3) 90.0(3)
O1 O1 O3 1_5455 5_5555 90.0(4) 90.0(7) 90.0(7)
O1 O1 O1 1_5655 1_6555 90.0(6) 90 90
O1 O1 O1 1_5655 5_4445 135.3(13) 134.0(10) 136.3(12)
O1 O1 O1 1_5655 5_4455 138.5(12) 138.3(12) 138.9(12)
O1 O1 O1 1_5655 5_4545 44.7(10) 43.7(10) 46.0(9)
O1 O1 O1 1_5655 5_4555 41.5(10) 41.1(10) 41.7(10)
O1 O1 O1 1_5655 5_5445 138.5(12) 138.3(12) 138.9(12)
O1 O1 O1 1_5655 5_5455 135.3(13) 134.0(10) 136.3(12)
O1 O1 O1 1_5655 5_5545 41.5(10) 41.1(10) 41.7(10)
O1 O1 O1 1_5655 5_5555 44.7(10) 43.7(10) 46.0(9)
O1 O1 O2 1_5655 1_4555 134.7(16) 133.6(18) 137(2)
O1 O1 O2 1_5655 1_4655 45.3(13) 42.5(15) 46.4(13)
O1 O1 O2 1_5655 . 134.7(16) 133.6(18) 137(2)
O1 O1 O2 1_5655 1_5655 45.3(13) 42.5(15) 46.4(13)
O1 O1 O2 1_5655 5_3545 90.0(4) 90.0(4) 90.0(4)
O1 O1 O2 1_5655 5_5555 90.0(4) 90.0(5) 90.0(5)
O1 O1 O3 1_5655 1_5545 131.3(8) 127.8(6) 133.8(6)
O1 O1 O3 1_5655 . 131.3(8) 127.8(6) 133.8(6)
O1 O1 O3 1_5655 1_5645 48.7(6) 46.2(6) 52.2(5)
O1 O1 O3 1_5655 1_5655 48.7(6) 46.2(6) 52.2(5)
O1 O1 O3 1_5655 5_4535 90.0(4) 90.0(3) 90.0(3)
O1 O1 O3 1_5655 5_4555 90.0(3) 90.0(4) 90.0(4)
O1 O1 O3 1_5655 5_5535 90.0(3) 90.0(3) 90.0(3)
O1 O1 O3 1_5655 5_5555 90.0(4) 90.0(7) 90.0(7)
O1 O1 O1 1_6555 5_4445 134.5(10) 133.5(10) 136.0(9)
O1 O1 O1 1_6555 5_4545 134.5(10) 133.5(10) 136.0(9)
O1 O1 O1 1_6555 5_5445 48.6(10) 48.4(10) 49.0(10)
O1 O1 O1 1_6555 5_5455 45.3(11) 44.0(11) 46.3(10)
O1 O1 O1 1_6555 5_5545 48.6(10) 48.4(10) 49.0(10)
O1 O1 O1 1_6555 5_5555 45.3(11) 44.0(11) 46.3(10)
O1 O1 O2 1_6555 1_4555 135.3(13) 132.5(15) 136.4(13)
O1 O1 O2 1_6555 1_4655 135.3(13) 132.5(15) 136.4(13)
O1 O1 O2 1_6555 . 44.7(13) 43.6(13) 47.5(15)
O1 O1 O2 1_6555 1_5655 44.7(13) 43.6(13) 47.5(15)
O1 O1 O2 1_6555 5_3545 178.0(6) 176.6(5) 179.6(5)
O1 O1 O3 1_6555 1_5545 91.5(7) 87.8(9) 95.1(11)
O1 O1 O3 1_6555 . 89.0(7) 86.2(10) 92.8(5)
O1 O1 O3 1_6555 1_5645 91.5(7) 87.8(9) 95.1(11)
O1 O1 O3 1_6555 1_5655 89.0(7) 86.2(10) 92.8(5)
O1 O1 O3 1_6555 5_4535 127.5(9) 122.8(12) 135.9(7)
O1 O1 O3 1_6555 5_5535 55.9(7) 52.9(7) 58.9(7)
O1 O1 O3 1_6555 5_5555 53.9(7) 52.1(6) 55.2(9)
O1 O1 O1 5_4445 5_4545 90.7(13) 87.9(12) 92.5(13)
O1 O1 O1 5_4445 5_5445 86.1(11) 84.9(11) 87.1(12)
O1 O1 O1 5_4445 5_5545 174.9(11) 174.7(10) 175.2(11)
O1 O1 O2 5_4445 . 90.1(12) 88.8(13) 92.0(12)
O1 O1 O2 5_4445 1_5655 175.9(11) 175.4(11) 176.6(11)
O1 O1 O2 5_4445 5_3545 45.5(6) 44.0(7) 46.3(6)
O1 O1 O3 5_4445 . 66.8(6) 61.9(7) 68.8(6)
O1 O1 O3 5_4445 1_5655 119.5(10) 112.3(8) 122.4(11)
O1 O1 O3 5_4445 5_4535 62.3(7) 59.5(7) 65.0(8)
O1 O1 O3 5_4445 5_5535 111.7(7) 111.3(7) 112.5(8)
O1 O1 O1 5_4455 5_4555 97.1(12) 96.6(12) 97.7(12)
O1 O1 O1 5_4455 5_5455 86.1(9) 84.9(10) 87.1(9)
O1 O1 O1 5_4455 5_5555 174.9(9) 174.7(10) 175.2(9)
O1 O1 O2 5_4455 5_5555 131.4(5) 131.1(5) 131.6(4)
O1 O1 O3 5_4455 1_5545 64.9(5) 62.6(5) 66.6(5)
O1 O1 O3 5_4455 1_5645 120.0(7) 118.1(7) 121.7(7)
O1 O1 O3 5_4455 5_4555 66.5(6) 65.6(6) 68.1(6)
O1 O1 O3 5_4455 5_5555 114.4(5) 112.8(5) 116.3(5)
O1 O1 O1 5_4545 5_5445 174.9(11) 174.7(10) 175.2(11)
O1 O1 O1 5_4545 5_5545 86.1(11) 84.9(11) 87.1(12)
O1 O1 O2 5_4545 . 175.9(11) 175.4(11) 176.6(11)
O1 O1 O2 5_4545 1_5655 90.1(12) 88.8(13) 92.0(12)
O1 O1 O2 5_4545 5_3545 45.5(6) 44.0(7) 46.3(6)
O1 O1 O3 5_4545 . 119.5(10) 112.3(8) 122.4(11)
O1 O1 O3 5_4545 1_5655 66.8(6) 61.9(7) 68.8(6)
O1 O1 O3 5_4545 5_4535 62.3(7) 59.5(7) 65.0(8)
O1 O1 O3 5_4545 5_5535 111.7(7) 111.3(7) 112.5(8)
O1 O1 O1 5_4555 5_5455 174.9(9) 174.7(10) 175.2(9)
O1 O1 O1 5_4555 5_5555 86.1(9) 84.9(10) 87.1(9)
O1 O1 O2 5_4555 5_5555 131.4(5) 131.1(5) 131.6(4)
O1 O1 O3 5_4555 1_5545 120.0(7) 118.1(7) 121.7(7)
O1 O1 O3 5_4555 1_5645 64.9(5) 62.6(5) 66.6(5)
O1 O1 O3 5_4555 5_4555 66.5(6) 65.6(6) 68.1(6)
O1 O1 O3 5_4555 5_5555 114.4(5) 112.8(5) 116.3(5)
O1 O1 O1 5_5445 5_5545 97.1(12) 96.6(12) 97.7(12)
O1 O1 O2 5_5445 5_3545 131.4(5) 131.1(5) 131.6(4)
O1 O1 O3 5_5445 . 64.9(5) 62.6(5) 66.6(5)
O1 O1 O3 5_5445 1_5655 120.0(7) 118.1(7) 121.7(7)
O1 O1 O3 5_5445 5_4535 114.4(5) 112.8(5) 116.3(5)
O1 O1 O3 5_5445 5_5535 66.5(6) 65.6(6) 68.1(6)
O1 O1 O1 5_5455 5_5555 90.7(13) 87.9(12) 92.5(13)
O1 O1 O2 5_5455 1_4555 90.1(12) 88.8(13) 92.0(12)
O1 O1 O2 5_5455 1_4655 175.9(11) 175.4(11) 176.6(11)
O1 O1 O2 5_5455 5_5555 45.5(6) 44.0(7) 46.3(6)
O1 O1 O3 5_5455 1_5545 66.8(6) 61.9(7) 68.8(6)
O1 O1 O3 5_5455 1_5645 119.5(10) 112.3(8) 122.4(11)
O1 O1 O3 5_5455 5_4555 111.7(7) 111.3(7) 112.5(8)
O1 O1 O3 5_5455 5_5555 62.3(7) 59.5(7) 65.0(8)
O1 O1 O2 5_5545 5_3545 131.4(5) 131.1(5) 131.6(4)
O1 O1 O3 5_5545 . 120.0(7) 118.1(7) 121.7(7)
O1 O1 O3 5_5545 1_5655 64.9(5) 62.6(5) 66.6(5)
O1 O1 O3 5_5545 5_4535 114.4(5) 112.8(5) 116.3(5)
O1 O1 O3 5_5545 5_5535 66.5(6) 65.6(6) 68.1(6)
O1 O1 O2 5_5555 1_4555 175.9(11) 175.4(11) 176.6(11)
O1 O1 O2 5_5555 1_4655 90.1(12) 88.8(13) 92.0(12)
O1 O1 O2 5_5555 5_5555 45.5(6) 44.0(7) 46.3(6)
O1 O1 O3 5_5555 1_5545 119.5(10) 112.3(8) 122.4(11)
O1 O1 O3 5_5555 1_5645 66.8(6) 61.9(7) 68.8(6)
O1 O1 O3 5_5555 5_4555 111.7(7) 111.3(7) 112.5(8)
O1 O1 O3 5_5555 5_5555 62.3(7) 59.5(7) 65.0(8)
O2 O1 O2 1_4555 1_4655 89.4(17) 87.1(18) 95(2)
O2 O1 O2 1_4555 . 90.5(14) 88.7(15) 91.4(12)
O2 O1 O2 1_4555 1_5655 177.0(12) 175.6(18) 180.0(5)
O2 O1 O2 1_4555 5_5555 135.1(9) 135.1(9) 135.1(9)
O2 O1 O3 1_4555 1_5545 61.0(6) 60.3(4) 62.2(6)
O2 O1 O3 1_4555 . 62.6(6) 59.1(6) 66.3(8)
O2 O1 O3 1_4555 1_5645 116.9(9) 114.3(10) 119.4(12)
O2 O1 O3 1_4555 1_5655 119.2(10) 114.7(15) 122.9(14)
O2 O1 O3 1_4555 5_5555 113.3(7) 111.9(8) 115.4(6)
O2 O1 O2 1_4655 . 177.0(12) 175.6(18) 180.0(5)
O2 O1 O2 1_4655 1_5655 90.5(14) 88.7(15) 91.4(12)
O2 O1 O2 1_4655 5_5555 135.1(9) 135.1(9) 135.1(9)
O2 O1 O3 1_4655 1_5545 116.9(9) 114.3(10) 119.4(12)
O2 O1 O3 1_4655 . 119.2(10) 114.7(15) 122.9(14)
O2 O1 O3 1_4655 1_5645 61.0(6) 60.3(4) 62.2(6)
O2 O1 O3 1_4655 1_5655 62.6(6) 59.1(6) 66.3(8)
O2 O1 O3 1_4655 5_5555 113.3(7) 111.9(8) 115.4(6)
O2 O1 O2 . 1_5655 89.4(17) 87.1(18) 95(2)
O2 O1 O2 . 5_3545 135.1(9) 135.1(9) 135.1(9)
O2 O1 O3 . 1_5545 62.6(6) 59.1(6) 66.3(8)
O2 O1 O3 . . 61.0(6) 60.3(4) 62.2(6)
O2 O1 O3 . 1_5645 119.2(10) 114.7(15) 122.9(14)
O2 O1 O3 . 1_5655 116.9(9) 114.3(10) 119.4(12)
O2 O1 O3 . 5_4535 113.3(7) 111.9(8) 115.4(6)
O2 O1 O2 1_5655 5_3545 135.1(9) 135.1(9) 135.1(9)
O2 O1 O3 1_5655 1_5545 119.2(10) 114.7(15) 122.9(14)
O2 O1 O3 1_5655 . 116.9(9) 114.3(10) 119.4(12)
O2 O1 O3 1_5655 1_5645 62.6(6) 59.1(6) 66.3(8)
O2 O1 O3 1_5655 1_5655 61.0(6) 60.3(4) 62.2(6)
O2 O1 O3 1_5655 5_4535 113.3(7) 111.9(8) 115.4(6)
O2 O1 O3 5_3545 . 89.6(5) 84.4(4) 94.1(6)
O2 O1 O3 5_3545 1_5655 89.6(5) 84.4(4) 94.1(6)
O2 O1 O3 5_3545 5_4535 49.2(5) 47.5(5) 50.4(6)
O2 O1 O3 5_3545 5_5535 124.6(7) 124.5(6) 124.9(7)
O2 O1 O3 5_5555 1_5545 89.6(5) 84.4(4) 94.1(6)
O2 O1 O3 5_5555 1_5645 89.6(5) 84.4(4) 94.1(6)
O2 O1 O3 5_5555 5_4555 124.6(7) 124.5(6) 124.9(7)
O2 O1 O3 5_5555 5_5555 49.2(5) 47.5(5) 50.4(6)
O3 O1 O3 1_5545 . 95.2(6) 92.8(6) 99.7(6)
O3 O1 O3 1_5545 1_5645 82.7(8) 75.6(6) 87.7(7)
O3 O1 O3 1_5545 1_5655 175.9(12) 174.0(18) 180.0(5)
O3 O1 O3 1_5545 5_4555 131.3(5) 128.1(6) 134.5(5)
O3 O1 O3 1_5545 5_5555 128.9(7) 120.9(6) 132.9(10)
O3 O1 O3 . 1_5645 175.9(12) 174.0(18) 180.0(5)
O3 O1 O3 . 1_5655 82.7(8) 75.6(6) 87.7(7)
O3 O1 O3 . 5_4535 128.9(7) 120.9(6) 132.9(10)
O3 O1 O3 . 5_5535 131.3(5) 128.1(6) 134.5(5)
O3 O1 O3 1_5645 1_5655 95.2(6) 92.8(6) 99.7(6)
O3 O1 O3 1_5645 5_4555 131.3(5) 128.1(6) 134.5(5)
O3 O1 O3 1_5645 5_5555 128.9(7) 120.9(6) 132.9(10)
O3 O1 O3 1_5655 5_4535 128.9(7) 120.9(6) 132.9(10)
O3 O1 O3 1_5655 5_5535 131.3(5) 128.1(6) 134.5(5)
O3 O1 O3 5_4535 5_5535 75.7(7) 74.8(7) 77.0(7)
O3 O1 O3 5_4555 5_5555 75.7(6) 74.8(6) 77.0(7)
Fe1 O2 Fe1 . 1_6555 159.7(6) 148.8(7) 179.6(5)
Fe1 O2 Pb1 . 1_5545 74.8(13) 73.0(15) 75.6(12)
Fe1 O2 Pb1 . 1_6565 135.7(15) 135.5(15) 135.8(16)
Fe1 O2 Pb1 . 5_5445 90.5(11) 77.6(7) 105.8(15)
Fe1 O2 Pb1 . 5_5455 87.6(11) 76.5(9) 95.6(19)
Fe1 O2 Pb1 . 5_5545 90.5(11) 77.6(7) 105.8(15)
Fe1 O2 Pb1 . 5_5555 87.6(11) 76.5(9) 95.6(19)
Fe1 O2 Bi1 . 1_5545 75.3(13) 73.8(15) 76.1(13)
Fe1 O2 Bi1 . 1_6565 135.2(15) 135.0(16) 135.5(14)
Fe1 O2 Bi1 . 5_5445 90.4(11) 77.6(7) 104.9(15)
Fe1 O2 Bi1 . 5_5455 87.7(11) 76.5(9) 95.7(19)
Fe1 O2 Bi1 . 5_5545 90.4(11) 77.6(7) 104.9(15)
Fe1 O2 Bi1 . 5_5555 87.7(11) 76.5(9) 95.7(19)
Fe1 O2 O1 . 1_5455 45.7(11) 44.0(8) 49.2(13)
Fe1 O2 O1 . . 45.7(11) 44.0(8) 49.2(13)
Fe1 O2 O1 . 1_6455 134.0(11) 130.4(13) 136.3(8)
Fe1 O2 O1 . 1_6555 134.0(11) 130.4(13) 136.3(8)
Fe1 O2 O1 . 5_4445 19.5(8) 17.9(8) 20.4(7)
Fe1 O2 O1 . 5_6455 169.0(10) 168.8(9) 169.2(10)
Fe1 O2 O2 . 1_4555 9.3(4) 0.0(5) 16.3(6)
Fe1 O2 O2 . 1_5455 90.0(14) 90.0(12) 90.0(12)
Fe1 O2 O2 . 1_5655 90.0(14) 90.0(12) 90.0(12)
Fe1 O2 O2 . 1_6555 170.4(4) 163.6(6) 180.0(5)
Fe1 O2 O3 . 1_5545 46.7(8) 34.3(7) 64.9(17)
Fe1 O2 O3 . . 46.0(9) 35.2(7) 66.8(15)
Fe1 O2 O3 . 1_6545 133.9(9) 113.6(8) 150.6(16)
Fe1 O2 O3 . 1_6555 128.1(9) 114.4(8) 143.3(17)
Fe1 O2 Pb1 1_6555 1_5545 135.7(15) 135.5(15) 136.1(16)
Fe1 O2 Pb1 1_6555 1_6565 75.1(13) 74.0(15) 75.6(13)
Fe1 O2 Pb1 1_6555 5_5445 87.6(11) 76.5(9) 96(2)
Fe1 O2 Pb1 1_6555 5_5455 90.4(11) 77.5(7) 105.6(15)
Fe1 O2 Pb1 1_6555 5_5545 87.6(11) 76.5(9) 96(2)
Fe1 O2 Pb1 1_6555 5_5555 90.4(11) 77.5(7) 105.6(15)
Fe1 O2 Bi1 1_6555 1_5545 135.2(15) 135.0(16) 135.6(14)
Fe1 O2 Bi1 1_6555 1_6565 75.2(14) 73.4(15) 76.0(13)
Fe1 O2 Bi1 1_6555 5_5445 87.7(11) 76.5(9) 96(2)
Fe1 O2 Bi1 1_6555 5_5455 90.3(11) 77.5(7) 104.7(16)
Fe1 O2 Bi1 1_6555 5_5545 87.7(11) 76.5(9) 96(2)
Fe1 O2 Bi1 1_6555 5_5555 90.3(11) 77.5(7) 104.7(16)
Fe1 O2 O1 1_6555 1_5455 134.0(11) 130.4(13) 136.3(8)
Fe1 O2 O1 1_6555 . 134.0(11) 130.4(13) 136.3(8)
Fe1 O2 O1 1_6555 1_6455 45.7(11) 44.0(8) 49.3(13)
Fe1 O2 O1 1_6555 1_6555 45.7(11) 44.0(8) 49.3(13)
Fe1 O2 O1 1_6555 5_4445 169.0(10) 168.8(9) 169.2(10)
Fe1 O2 O1 1_6555 5_6455 19.8(8) 18.6(8) 20.3(7)
Fe1 O2 O2 1_6555 1_4555 170.2(4) 163.6(6) 179.59(16)
Fe1 O2 O2 1_6555 1_5455 90.0(14) 90.0(12) 90.0(12)
Fe1 O2 O2 1_6555 1_5655 90.0(14) 90.0(12) 90.0(12)
Fe1 O2 O2 1_6555 1_6555 9.8(4) 0.43(16) 16.4(6)
Fe1 O2 O3 1_6555 1_5545 127.6(9) 114.4(8) 143.1(17)
Fe1 O2 O3 1_6555 . 133.9(9) 113.6(8) 150.6(16)
Fe1 O2 O3 1_6555 1_6545 46.2(9) 35.2(7) 67.4(15)
Fe1 O2 O3 1_6555 1_6555 47.2(9) 34.3(7) 65.5(17)
Pb1 O2 Pb1 1_5545 5_5445 61.4(8) 60.9(7) 61.8(9)
Pb1 O2 Pb1 1_5545 5_5455 134.4(13) 132.7(15) 135.4(11)
Pb1 O2 Pb1 1_5545 5_5545 61.4(8) 60.9(7) 61.8(9)
Pb1 O2 Pb1 1_5545 5_5555 134.4(13) 132.7(15) 135.4(11)
Pb1 O2 Bi1 1_5545 1_5545 0.5(4) 0.3(5) 0.8(4)
Pb1 O2 Bi1 1_5545 5_5445 61.5(8) 61.0(7) 61.9(9)
Pb1 O2 Bi1 1_5545 5_5455 134.3(13) 132.7(15) 135.4(11)
Pb1 O2 Bi1 1_5545 5_5545 61.5(8) 61.0(7) 61.9(9)
Pb1 O2 Bi1 1_5545 5_5555 134.3(13) 132.7(15) 135.4(11)
Pb1 O2 O1 1_5545 1_5455 67.7(11) 67.3(12) 68.1(11)
Pb1 O2 O1 1_5545 . 67.7(11) 67.3(12) 68.1(11)
Pb1 O2 O1 1_5545 1_6455 111.9(8) 110.3(8) 113.9(8)
Pb1 O2 O1 1_5545 1_6555 111.9(8) 110.3(8) 113.9(8)
Pb1 O2 O1 1_5545 5_4445 55.3(9) 54.9(8) 55.5(9)
Pb1 O2 O2 1_5545 1_5455 90.0(7) 90.0(7) 90.0(7)
Pb1 O2 O2 1_5545 1_5655 90.0(7) 90.0(7) 90.0(7)
Pb1 O2 O2 1_5545 1_6555 121.0(9) 119.4(8) 123.3(10)
Pb1 O2 O3 1_5545 . 110.2(18) 109(2) 110.8(18)
Pb1 O2 O3 1_5545 1_6545 72.8(6) 68.5(6) 77.2(6)
Pb1 O2 O3 1_5545 1_6555 170.5(19) 170.0(17) 172(2)
Pb1 O2 Pb1 1_6565 5_5445 134.5(13) 133.3(15) 135.4(11)
Pb1 O2 Pb1 1_6565 5_5455 61.4(8) 61.0(7) 61.7(9)
Pb1 O2 Pb1 1_6565 5_5545 134.5(13) 133.3(15) 135.4(11)
Pb1 O2 Pb1 1_6565 5_5555 61.4(8) 61.0(7) 61.7(9)
Pb1 O2 Bi1 1_6565 1_6565 0.5(4) 0.3(5) 0.7(4)
Pb1 O2 Bi1 1_6565 5_5445 134.5(13) 133.3(15) 135.4(11)
Pb1 O2 Bi1 1_6565 5_5455 61.4(8) 61.1(7) 61.8(9)
Pb1 O2 Bi1 1_6565 5_5545 134.5(13) 133.3(15) 135.4(11)
Pb1 O2 Bi1 1_6565 5_5555 61.4(8) 61.1(7) 61.8(9)
Pb1 O2 O1 1_6565 1_5455 111.8(8) 110.4(8) 113.2(8)
Pb1 O2 O1 1_6565 . 111.8(8) 110.4(8) 113.2(8)
Pb1 O2 O1 1_6565 1_6455 67.9(11) 67.6(10) 68.1(11)
Pb1 O2 O1 1_6565 1_6555 67.9(11) 67.6(10) 68.1(11)
Pb1 O2 O1 1_6565 5_6455 55.3(9) 55.0(8) 55.5(9)
Pb1 O2 O2 1_6565 1_4555 120.7(9) 119.5(8) 122.4(10)
Pb1 O2 O2 1_6565 1_5455 90.0(7) 90.0(8) 90.0(8)
Pb1 O2 O2 1_6565 1_5655 90.0(7) 90.0(8) 90.0(8)
Pb1 O2 O3 1_6565 1_5545 170.3(19) 169.9(18) 171(2)
Pb1 O2 O3 1_6565 . 72.4(6) 69.0(6) 75.9(6)
Pb1 O2 O3 1_6565 1_6545 110.4(18) 110(2) 110.8(17)
Pb1 O2 Pb1 5_5445 5_5455 89.2(5) 87.2(4) 95.1(3)
Pb1 O2 Pb1 5_5445 5_5545 90.7(5) 68.2(4) 107.7(7)
Pb1 O2 Pb1 5_5445 5_5555 167.4(5) 161.6(8) 179.7(4)
Pb1 O2 Bi1 5_5445 1_5545 61.2(6) 60.8(5) 61.5(8)
Pb1 O2 Bi1 5_5445 1_6565 134.5(13) 132.9(15) 135.6(11)
Pb1 O2 Bi1 5_5445 5_5445 0.1(5) 0.0(5) 1.1(6)
Pb1 O2 Bi1 5_5445 5_5455 89.1(5) 87.2(4) 95.1(3)
Pb1 O2 Bi1 5_5445 5_5545 90.8(5) 68.2(4) 107.9(7)
Pb1 O2 Bi1 5_5445 5_5555 167.4(5) 161.2(7) 179.7(4)
Pb1 O2 O1 5_5445 1_5455 59.8(9) 57.0(10) 65.4(9)
Pb1 O2 O1 5_5445 . 119.4(14) 113.4(15) 127.2(19)
Pb1 O2 O1 5_5445 1_6455 60.3(9) 50.3(9) 67.9(9)
Pb1 O2 O1 5_5445 1_6555 120.2(15) 113.7(17) 126(2)
Pb1 O2 O1 5_5445 5_4445 92.1(15) 91.3(17) 93.2(12)
Pb1 O2 O1 5_5445 5_6455 92.8(13) 91.9(14) 93.5(12)
Pb1 O2 O2 5_5445 1_4555 88.8(8) 87.4(2) 91.4(17)
Pb1 O2 O2 5_5445 1_5455 44.6(3) 36.2(4) 55.9(3)
Pb1 O2 O2 5_5445 1_5655 135.4(3) 124.1(4) 143.8(5)
Pb1 O2 O2 5_5445 1_6555 90.4(10) 83.2(12) 92.6(2)
Pb1 O2 O3 5_5445 1_5545 57.7(5) 51.1(5) 64.8(9)
Pb1 O2 O3 5_5445 . 121.1(12) 117.6(11) 130.6(14)
Pb1 O2 O3 5_5445 1_6545 58.4(6) 49.7(6) 65.4(8)
Pb1 O2 O3 5_5445 1_6555 120.0(11) 114.0(16) 127.9(18)
Pb1 O2 Pb1 5_5455 5_5545 167.4(5) 161.6(6) 179.7(4)
Pb1 O2 Pb1 5_5455 5_5555 90.8(5) 68.0(4) 107.7(7)
Pb1 O2 Bi1 5_5455 1_5545 134.7(13) 133.2(15) 135.6(11)
Pb1 O2 Bi1 5_5455 1_6565 61.2(6) 60.8(5) 61.5(8)
Pb1 O2 Bi1 5_5455 5_5445 89.1(5) 87.2(4) 94.7(3)
Pb1 O2 Bi1 5_5455 5_5455 0.1(6) 0.0(5) 1.0(6)
Pb1 O2 Bi1 5_5455 5_5545 167.4(5) 161.2(7) 179.8(4)
Pb1 O2 Bi1 5_5455 5_5555 90.8(5) 68.0(4) 107.9(7)
Pb1 O2 O1 5_5455 1_5455 60.4(9) 50.5(9) 68.0(9)
Pb1 O2 O1 5_5455 . 120.3(15) 113.7(17) 126(2)
Pb1 O2 O1 5_5455 1_6455 59.8(9) 57.0(10) 65.6(9)
Pb1 O2 O1 5_5455 1_6555 119.4(14) 113.4(15) 127.3(18)
Pb1 O2 O1 5_5455 5_4445 92.7(13) 91.5(14) 93.6(11)
Pb1 O2 O1 5_5455 5_6455 92.2(15) 91.5(17) 93.0(12)
Pb1 O2 O2 5_5455 1_4555 90.5(10) 83.5(13) 92.58(19)
Pb1 O2 O2 5_5455 1_5455 44.6(3) 36.2(4) 56.0(3)
Pb1 O2 O2 5_5455 1_5655 135.4(3) 124.0(4) 143.8(5)
Pb1 O2 O2 5_5455 1_6555 88.9(9) 87.42(19) 91.9(17)
Pb1 O2 O3 5_5455 1_5545 119.7(11) 114.0(15) 127.5(17)
Pb1 O2 O3 5_5455 . 58.5(6) 49.7(6) 65.4(8)
Pb1 O2 O3 5_5455 1_6545 121.1(12) 117.6(11) 131.0(13)
Pb1 O2 O3 5_5455 1_6555 57.9(5) 51.0(5) 64.9(9)
Pb1 O2 Pb1 5_5545 5_5555 89.2(5) 87.2(4) 95.1(3)
Pb1 O2 Bi1 5_5545 1_5545 61.2(6) 60.8(5) 61.5(8)
Pb1 O2 Bi1 5_5545 1_6565 134.5(13) 132.9(15) 135.6(11)
Pb1 O2 Bi1 5_5545 5_5445 90.8(5) 68.2(4) 107.9(7)
Pb1 O2 Bi1 5_5545 5_5455 167.4(5) 161.2(7) 179.7(4)
Pb1 O2 Bi1 5_5545 5_5545 0.1(5) 0.0(5) 1.1(6)
Pb1 O2 Bi1 5_5545 5_5555 89.1(5) 87.2(4) 95.1(3)
Pb1 O2 O1 5_5545 1_5455 119.4(14) 113.4(15) 127.2(19)
Pb1 O2 O1 5_5545 . 59.8(9) 57.0(10) 65.4(9)
Pb1 O2 O1 5_5545 1_6455 120.2(15) 113.7(17) 126(2)
Pb1 O2 O1 5_5545 1_6555 60.3(9) 50.3(9) 67.9(9)
Pb1 O2 O1 5_5545 5_4445 92.1(15) 91.3(17) 93.2(12)
Pb1 O2 O1 5_5545 5_6455 92.8(13) 91.9(14) 93.5(12)
Pb1 O2 O2 5_5545 1_4555 88.8(8) 87.4(2) 91.4(17)
Pb1 O2 O2 5_5545 1_5455 135.4(3) 124.1(4) 143.8(5)
Pb1 O2 O2 5_5545 1_5655 44.6(3) 36.2(4) 55.9(3)
Pb1 O2 O2 5_5545 1_6555 90.4(10) 83.2(12) 92.6(2)
Pb1 O2 O3 5_5545 1_5545 57.7(5) 51.1(5) 64.8(9)
Pb1 O2 O3 5_5545 . 121.1(12) 117.6(11) 130.6(14)
Pb1 O2 O3 5_5545 1_6545 58.4(6) 49.7(6) 65.4(8)
Pb1 O2 O3 5_5545 1_6555 120.0(11) 114.0(16) 127.9(18)
Pb1 O2 Bi1 5_5555 1_5545 134.7(13) 133.2(15) 135.6(11)
Pb1 O2 Bi1 5_5555 1_6565 61.2(6) 60.8(5) 61.5(8)
Pb1 O2 Bi1 5_5555 5_5445 167.4(5) 161.2(7) 179.8(4)
Pb1 O2 Bi1 5_5555 5_5455 90.8(5) 68.0(4) 107.9(7)
Pb1 O2 Bi1 5_5555 5_5545 89.1(5) 87.2(4) 94.7(3)
Pb1 O2 Bi1 5_5555 5_5555 0.1(6) 0.0(5) 1.0(6)
Pb1 O2 O1 5_5555 1_5455 120.3(15) 113.7(17) 126(2)
Pb1 O2 O1 5_5555 . 60.4(9) 50.5(9) 68.0(9)
Pb1 O2 O1 5_5555 1_6455 119.4(14) 113.4(15) 127.3(18)
Pb1 O2 O1 5_5555 1_6555 59.8(9) 57.0(10) 65.6(9)
Pb1 O2 O1 5_5555 5_4445 92.7(13) 91.5(14) 93.6(11)
Pb1 O2 O1 5_5555 5_6455 92.2(15) 91.5(17) 93.0(12)
Pb1 O2 O2 5_5555 1_4555 90.5(10) 83.5(13) 92.58(19)
Pb1 O2 O2 5_5555 1_5455 135.4(3) 124.0(4) 143.8(5)
Pb1 O2 O2 5_5555 1_5655 44.6(3) 36.2(4) 56.0(3)
Pb1 O2 O2 5_5555 1_6555 88.9(9) 87.42(19) 91.9(17)
Pb1 O2 O3 5_5555 1_5545 119.7(11) 114.0(15) 127.5(17)
Pb1 O2 O3 5_5555 . 58.5(6) 49.7(6) 65.4(8)
Pb1 O2 O3 5_5555 1_6545 121.1(12) 117.6(11) 131.0(13)
Pb1 O2 O3 5_5555 1_6555 57.9(5) 51.0(5) 64.9(9)
Bi1 O2 Bi1 1_5545 5_5445 61.2(8) 60.9(7) 61.5(9)
Bi1 O2 Bi1 1_5545 5_5455 134.7(13) 133.2(15) 135.6(11)
Bi1 O2 Bi1 1_5545 5_5545 61.2(8) 60.9(7) 61.5(9)
Bi1 O2 Bi1 1_5545 5_5555 134.7(13) 133.2(15) 135.6(11)
Bi1 O2 O1 1_5545 1_5455 68.1(11) 67.7(10) 68.4(11)
Bi1 O2 O1 1_5545 . 68.1(11) 67.7(10) 68.4(11)
Bi1 O2 O1 1_5545 1_6455 111.6(8) 110.1(8) 113.4(8)
Bi1 O2 O1 1_5545 1_6555 111.6(8) 110.1(8) 113.4(8)
Bi1 O2 O1 1_5545 5_4445 55.8(9) 55.2(8) 56.1(10)
Bi1 O2 O2 1_5545 1_5455 90.0(7) 90.0(7) 90.0(7)
Bi1 O2 O2 1_5545 1_5655 90.0(7) 90.0(7) 90.0(7)
Bi1 O2 O2 1_5545 1_6555 120.4(9) 119.1(8) 122.5(10)
Bi1 O2 O3 1_5545 . 110.7(18) 110(2) 111.3(18)
Bi1 O2 O3 1_5545 1_6545 72.2(6) 68.2(6) 76.4(6)
Bi1 O2 O3 1_5545 1_6555 169.9(19) 169.5(19) 171(2)
Bi1 O2 Bi1 1_6565 5_5445 134.5(13) 132.9(15) 135.6(11)
Bi1 O2 Bi1 1_6565 5_5455 61.3(8) 60.9(7) 61.6(9)
Bi1 O2 Bi1 1_6565 5_5545 134.5(13) 132.9(15) 135.6(11)
Bi1 O2 Bi1 1_6565 5_5555 61.3(8) 60.9(7) 61.6(9)
Bi1 O2 O1 1_6565 1_5455 111.8(8) 110.2(8) 113.6(8)
Bi1 O2 O1 1_6565 . 111.8(8) 110.2(8) 113.6(8)
Bi1 O2 O1 1_6565 1_6455 68.1(11) 67.6(12) 68.4(11)
Bi1 O2 O1 1_6565 1_6555 68.1(11) 67.6(12) 68.4(11)
Bi1 O2 O1 1_6565 5_6455 55.8(9) 55.3(8) 56.1(9)
Bi1 O2 O2 1_6565 1_4555 120.7(9) 119.2(8) 122.9(10)
Bi1 O2 O2 1_6565 1_5455 90.0(7) 90.0(8) 90.0(8)
Bi1 O2 O2 1_6565 1_5655 90.0(7) 90.0(8) 90.0(8)
Bi1 O2 O2 1_6565 1_6555 57.0(9) 57.0(9) 57.0(9)
Bi1 O2 O3 1_6565 1_5545 170.0(19) 169.5(18) 171(2)
Bi1 O2 O3 1_6565 . 72.7(6) 68.7(6) 77.0(6)
Bi1 O2 O3 1_6565 1_6545 110.6(18) 109(2) 111.3(19)
Bi1 O2 O3 1_6565 1_6555 7.9(6) 7.9(6) 7.9(6)
Bi1 O2 Bi1 5_5445 5_5455 89.0(5) 87.3(4) 94.3(3)
Bi1 O2 Bi1 5_5445 5_5545 90.9(5) 68.2(4) 108.2(7)
Bi1 O2 Bi1 5_5445 5_5555 167.3(5) 161.2(7) 179.7(4)
Bi1 O2 O1 5_5445 1_5455 59.7(9) 57.0(10) 65.4(9)
Bi1 O2 O1 5_5445 . 119.4(14) 113.4(15) 127.1(19)
Bi1 O2 O1 5_5445 1_6455 60.3(9) 50.4(9) 67.8(9)
Bi1 O2 O1 5_5445 1_6555 120.4(15) 113.7(17) 126(2)
Bi1 O2 O1 5_5445 5_4445 91.6(15) 91.0(17) 92.5(12)
Bi1 O2 O1 5_5445 5_6455 92.8(13) 91.9(14) 93.5(12)
Bi1 O2 O2 5_5445 1_4555 88.8(8) 87.5(2) 91.2(17)
Bi1 O2 O2 5_5445 1_5455 44.5(3) 35.9(4) 55.9(3)
Bi1 O2 O2 5_5445 1_5655 135.5(3) 124.1(4) 144.1(5)
Bi1 O2 O2 5_5445 1_6555 90.5(10) 84.0(13) 92.5(2)
Bi1 O2 O3 5_5445 1_5545 57.7(5) 51.1(5) 64.7(9)
Bi1 O2 O3 5_5445 . 121.0(12) 117.6(11) 130.6(14)
Bi1 O2 O3 5_5445 1_6545 58.6(6) 49.7(6) 65.5(9)
Bi1 O2 O3 5_5445 1_6555 120.0(11) 114.1(16) 127.9(18)
Bi1 O2 Bi1 5_5455 5_5545 167.3(5) 161.2(6) 179.7(4)
Bi1 O2 Bi1 5_5455 5_5555 90.9(5) 68.0(4) 108.1(7)
Bi1 O2 O1 5_5455 1_5455 60.4(9) 50.6(9) 68.0(9)
Bi1 O2 O1 5_5455 . 120.4(15) 113.7(17) 126(2)
Bi1 O2 O1 5_5455 1_6455 59.7(9) 57.0(11) 65.6(9)
Bi1 O2 O1 5_5455 1_6555 119.4(14) 113.4(15) 127.1(18)
Bi1 O2 O1 5_5455 5_4445 92.7(13) 91.6(14) 93.6(11)
Bi1 O2 O1 5_5455 5_6455 91.7(15) 91.1(17) 92.4(12)
Bi1 O2 O2 5_5455 1_4555 90.6(10) 84.2(13) 92.54(19)
Bi1 O2 O2 5_5455 1_5455 44.5(3) 35.9(4) 56.0(3)
Bi1 O2 O2 5_5455 1_5655 135.5(3) 124.0(4) 144.1(5)
Bi1 O2 O2 5_5455 1_6555 88.9(9) 87.46(19) 91.6(17)
Bi1 O2 O3 5_5455 1_5545 119.8(11) 114.1(15) 127.5(17)
Bi1 O2 O3 5_5455 . 58.6(6) 49.7(6) 65.5(9)
Bi1 O2 O3 5_5455 1_6545 121.0(12) 117.6(12) 131.0(13)
Bi1 O2 O3 5_5455 1_6555 57.9(5) 51.0(5) 64.9(9)
Bi1 O2 Bi1 5_5545 5_5555 89.0(5) 87.3(4) 94.3(3)
Bi1 O2 O1 5_5545 1_5455 119.4(14) 113.4(15) 127.1(19)
Bi1 O2 O1 5_5545 . 59.7(9) 57.0(10) 65.4(9)
Bi1 O2 O1 5_5545 1_6455 120.4(15) 113.7(17) 126(2)
Bi1 O2 O1 5_5545 1_6555 60.3(9) 50.4(9) 67.8(9)
Bi1 O2 O1 5_5545 5_4445 91.6(15) 91.0(17) 92.5(12)
Bi1 O2 O1 5_5545 5_6455 92.8(13) 91.9(14) 93.5(12)
Bi1 O2 O2 5_5545 1_4555 88.8(8) 87.5(2) 91.2(17)
Bi1 O2 O2 5_5545 1_5455 135.5(3) 124.1(4) 144.1(5)
Bi1 O2 O2 5_5545 1_5655 44.5(3) 35.9(4) 55.9(3)
Bi1 O2 O2 5_5545 1_6555 90.5(10) 84.0(13) 92.5(2)
Bi1 O2 O3 5_5545 1_5545 57.7(5) 51.1(5) 64.7(9)
Bi1 O2 O3 5_5545 . 121.0(12) 117.6(11) 130.6(14)
Bi1 O2 O3 5_5545 1_6545 58.6(6) 49.7(6) 65.5(9)
Bi1 O2 O3 5_5545 1_6555 120.0(11) 114.1(16) 127.9(18)
Bi1 O2 O1 5_5555 1_5455 120.4(15) 113.7(17) 126(2)
Bi1 O2 O1 5_5555 . 60.4(9) 50.6(9) 68.0(9)
Bi1 O2 O1 5_5555 1_6455 119.4(14) 113.4(15) 127.1(18)
Bi1 O2 O1 5_5555 1_6555 59.7(9) 57.0(11) 65.6(9)
Bi1 O2 O1 5_5555 5_4445 92.7(13) 91.6(14) 93.6(11)
Bi1 O2 O1 5_5555 5_6455 91.7(15) 91.1(17) 92.4(12)
Bi1 O2 O2 5_5555 1_4555 90.6(10) 84.2(13) 92.54(19)
Bi1 O2 O2 5_5555 1_5455 135.5(3) 124.0(4) 144.1(5)
Bi1 O2 O2 5_5555 1_5655 44.5(3) 35.9(4) 56.0(3)
Bi1 O2 O2 5_5555 1_6555 88.9(9) 87.46(19) 91.6(17)
Bi1 O2 O3 5_5555 1_5545 119.8(11) 114.1(15) 127.5(17)
Bi1 O2 O3 5_5555 . 58.6(6) 49.7(6) 65.5(9)
Bi1 O2 O3 5_5555 1_6545 121.0(12) 117.6(12) 131.0(13)
Bi1 O2 O3 5_5555 1_6555 57.9(5) 51.0(5) 64.9(9)
O1 O2 O1 1_5455 . 89.4(17) 87.1(15) 95(2)
O1 O2 O1 1_5455 1_6455 90.6(10) 87.6(10) 92.1(8)
O1 O2 O1 1_5455 1_6555 177.5(14) 176.5(15) 180.0(5)
O1 O2 O1 1_5455 5_4445 44.4(11) 44.0(12) 44.9(9)
O1 O2 O1 1_5455 5_6455 133.0(13) 132.4(12) 133.6(13)
O1 O2 O2 1_5455 1_4555 44.8(7) 43.6(8) 47.5(12)
O1 O2 O2 1_5455 1_5455 45.3(13) 42.5(14) 46.4(14)
O1 O2 O2 1_5455 1_5655 134.7(19) 133.6(18) 137(2)
O1 O2 O2 1_5455 1_6555 135.6(7) 133.8(13) 136.4(8)
O1 O2 O3 1_5455 1_5545 60.7(8) 59.5(4) 63.7(11)
O1 O2 O3 1_5455 . 62.1(10) 60.5(4) 65.4(12)
O1 O2 O3 1_5455 1_6545 117.8(6) 113.6(7) 122.2(7)
O1 O2 O3 1_5455 1_6555 119.3(5) 118.1(6) 120.5(4)
O1 O2 O1 . 1_6455 177.5(14) 176.5(15) 180.0(5)
O1 O2 O1 . 1_6555 90.6(10) 87.6(10) 92.1(8)
O1 O2 O1 . 5_4445 44.4(11) 44.0(12) 44.9(9)
O1 O2 O1 . 5_6455 133.0(13) 132.4(12) 133.6(13)
O1 O2 O2 . 1_4555 44.8(7) 43.6(8) 47.5(12)
O1 O2 O2 . 1_5455 134.7(19) 133.6(18) 137(2)
O1 O2 O2 . 1_5655 45.3(13) 42.5(14) 46.4(14)
O1 O2 O2 . 1_6555 135.6(7) 133.8(13) 136.4(8)
O1 O2 O3 . 1_5545 60.7(8) 59.5(4) 63.7(11)
O1 O2 O3 . . 62.1(10) 60.5(4) 65.4(12)
O1 O2 O3 . 1_6545 117.8(6) 113.6(7) 122.2(7)
O1 O2 O3 . 1_6555 119.3(5) 118.1(6) 120.5(4)
O1 O2 O1 1_6455 1_6555 89.4(17) 87.1(15) 95(2)
O1 O2 O1 1_6455 5_4445 133.1(13) 132.3(11) 133.7(13)
O1 O2 O1 1_6455 5_6455 44.5(11) 44.1(12) 44.8(9)
O1 O2 O2 1_6455 1_4555 135.7(7) 133.9(12) 136.4(8)
O1 O2 O2 1_6455 1_5455 45.3(13) 42.5(14) 46.4(14)
O1 O2 O2 1_6455 1_5655 134.7(19) 133.6(17) 138(2)
O1 O2 O2 1_6455 1_6555 44.8(8) 43.6(8) 47.6(12)
O1 O2 O3 1_6455 1_5545 119.3(5) 118.1(7) 120.5(4)
O1 O2 O3 1_6455 . 117.9(6) 113.6(7) 122.2(7)
O1 O2 O3 1_6455 1_6545 62.1(10) 60.5(4) 65.6(12)
O1 O2 O3 1_6455 1_6555 60.8(8) 59.5(4) 63.9(11)
O1 O2 O1 1_6555 5_4445 133.1(13) 132.3(11) 133.7(13)
O1 O2 O1 1_6555 5_6455 44.5(11) 44.1(12) 44.8(9)
O1 O2 O2 1_6555 1_4555 135.7(7) 133.9(12) 136.4(8)
O1 O2 O2 1_6555 1_5455 134.7(19) 133.6(17) 138(2)
O1 O2 O2 1_6555 1_5655 45.3(13) 42.5(14) 46.4(14)
O1 O2 O2 1_6555 1_6555 44.8(8) 43.6(8) 47.6(12)
O1 O2 O3 1_6555 1_5545 119.3(5) 118.1(7) 120.5(4)
O1 O2 O3 1_6555 . 117.9(6) 113.6(7) 122.2(7)
O1 O2 O3 1_6555 1_6545 62.1(10) 60.5(4) 65.6(12)
O1 O2 O3 1_6555 1_6555 60.8(8) 59.5(4) 63.9(11)
O1 O2 O2 5_4445 1_5455 90.0(15) 90.0(14) 90.0(14)
O1 O2 O2 5_4445 1_5655 90.0(15) 90.0(14) 90.0(14)
O1 O2 O2 5_4445 1_6555 176.2(4) 174.3(4) 178.5(3)
O1 O2 O3 5_4445 . 54.9(12) 53.7(12) 55.6(11)
O1 O2 O3 5_4445 1_6545 128.0(10) 123.4(9) 132.4(11)
O1 O2 O3 5_4445 1_6555 134.3(12) 133.3(12) 134.9(11)
O1 O2 O2 5_6455 1_4555 176.0(4) 174.5(4) 177.8(3)
O1 O2 O2 5_6455 1_5455 90.0(15) 90.0(16) 90.0(16)
O1 O2 O2 5_6455 1_5655 90.0(15) 90.0(16) 90.0(16)
O1 O2 O3 5_6455 1_5545 134.4(12) 133.7(13) 134.9(11)
O1 O2 O3 5_6455 . 127.7(10) 124.0(9) 131.3(11)
O1 O2 O3 5_6455 1_6545 55.1(12) 54.2(12) 55.5(11)
O2 O2 O2 1_4555 1_5455 90.0(14) 90.0(12) 90.0(12)
O2 O2 O2 1_4555 1_5655 90.0(14) 90.0(12) 90.0(12)
O2 O2 O2 1_4555 1_6555 180.0(5) 179.9(3) 180.0(5)
O2 O2 O3 1_4555 1_5545 46.6(8) 44.7(6) 50.6(9)
O2 O2 O3 1_4555 . 48.2(9) 44.9(10) 52.3(12)
O2 O2 O3 1_4555 1_6545 131.2(8) 127.8(11) 135.0(10)
O2 O2 O3 1_4555 1_6555 134.0(9) 130.8(12) 135.3(6)
O2 O2 O2 1_5455 1_5655 180.0(5) 180.0(5) 180.0(5)
O2 O2 O2 1_5455 1_6555 90.0(8) 90.00(17) 90.00(17)
O2 O2 O3 1_5455 1_5545 90.0(5) 90.00(11) 90.00(11)
O2 O2 O3 1_5455 . 90.0(6) 90.00(12) 90.00(12)
O2 O2 O3 1_5455 1_6545 90.0(6) 90.00(12) 90.00(12)
O2 O2 O3 1_5455 1_6555 90.0(5) 90.00(11) 90.00(11)
O2 O2 O2 1_5655 1_6555 90.0(8) 90.00(17) 90.00(17)
O2 O2 O3 1_5655 1_5545 90.0(5) 90.00(11) 90.00(11)
O2 O2 O3 1_5655 . 90.0(6) 90.00(12) 90.00(12)
O2 O2 O3 1_5655 1_6545 90.0(6) 90.00(12) 90.00(12)
O2 O2 O3 1_5655 1_6555 90.0(5) 90.00(11) 90.00(11)
O2 O2 O3 1_6555 1_5545 134.0(9) 131.3(12) 135.3(6)
O2 O2 O3 1_6555 . 131.3(8) 127.8(11) 135.0(10)
O2 O2 O3 1_6555 1_6545 48.4(9) 44.9(10) 52.3(12)
O2 O2 O3 1_6555 1_6555 46.6(9) 44.7(6) 50.7(9)
O3 O2 O3 1_5545 . 94.7(14) 90.9(10) 101.1(17)
O3 O2 O3 1_5545 1_6545 84.6(6) 79.2(6) 89.2(8)
O3 O2 O3 1_5545 1_6555 179.8(12) 179(2) 180.0(5)
O3 O2 O3 . 1_6545 175.6(15) 172.9(19) 179.8(6)
O3 O2 O3 . 1_6555 84.7(7) 79.2(7) 89.2(7)
O3 O2 O3 1_6545 1_6555 95.0(14) 90.9(11) 101.7(17)
Fe1 O3 Fe1 . 1_5565 179.0(6) 176.0(6) 180.0(5)
Fe1 O3 Pb1 . 1_4555 73.6(6) 72.6(6) 75.5(6)
Fe1 O3 Pb1 . 5_4455 91.4(8) 72.9(7) 107.2(7)
Fe1 O3 Pb1 . 5_4555 91.4(8) 72.9(7) 107.2(7)
Fe1 O3 Pb1 . 5_5455 88.9(8) 75.6(7) 104.9(7)
Fe1 O3 Pb1 . 5_5555 88.9(8) 75.6(7) 104.9(7)
Fe1 O3 Bi1 . 1_4555 73.0(6) 72.0(6) 75.2(6)
Fe1 O3 Bi1 . . 11.9(15) 11.9(15) 11.9(15)
Fe1 O3 Bi1 . 1_6565 109.1(6) 108.3(7) 109.5(6)
Fe1 O3 Bi1 . 5_4455 91.5(8) 72.7(7) 108.0(7)
Fe1 O3 Bi1 . 5_4555 91.5(8) 72.7(7) 108.0(7)
Fe1 O3 Bi1 . 5_5455 88.9(8) 74.9(7) 105.2(7)
Fe1 O3 Bi1 . 5_5555 88.9(8) 74.9(7) 105.2(7)
Fe1 O3 O1 . 1_5455 41.4(5) 38.2(4) 43.9(6)
Fe1 O3 O1 . 1_5465 138.6(5) 136.1(6) 141.6(5)
Fe1 O3 O1 . . 41.4(5) 38.2(4) 43.9(6)
Fe1 O3 O1 . 1_5565 138.6(5) 136.1(6) 141.6(5)
Fe1 O3 O1 . 5_4445 35.0(10) 33.3(10) 39.3(10)
Fe1 O3 O1 . 5_4465 140.8(10) 139.2(10) 142.3(11)
Fe1 O3 O1 . 5_5445 36.9(10) 36.0(10) 37.6(9)
Fe1 O3 O1 . 5_5465 146.1(11) 140.8(10) 149.2(11)
Fe1 O3 O2 . 1_4555 41.9(13) 37.5(13) 44.2(13)
Fe1 O3 O2 . 1_4565 137.7(13) 133.2(13) 144.1(13)
Fe1 O3 O2 . . 42.8(13) 39.6(13) 46.1(12)
Fe1 O3 O2 . 1_5565 137.9(13) 136.3(14) 141.9(13)
Fe1 O3 O3 . 1_4555 88.8(7) 85.4(7) 90.7(6)
Fe1 O3 O3 . 1_5455 90.0(7) 90.0(6) 90.0(6)
Fe1 O3 O3 . 1_5655 90.0(7) 90.0(6) 90.0(6)
Fe1 O3 O3 . 1_6555 91.0(7) 89.9(6) 94.8(8)
Fe1 O3 Pb1 1_5565 1_4555 108.7(6) 108.1(7) 109.1(6)
Fe1 O3 Pb1 1_5565 5_4455 88.6(8) 75.2(7) 104.6(7)
Fe1 O3 Pb1 1_5565 5_4555 88.6(8) 75.2(7) 104.6(7)
Fe1 O3 Pb1 1_5565 5_5455 91.0(8) 72.2(6) 106.6(7)
Fe1 O3 Pb1 1_5565 5_5555 91.0(8) 72.2(6) 106.6(7)
Fe1 O3 Bi1 1_5565 1_4555 109.0(6) 108.1(7) 109.5(6)
Fe1 O3 Bi1 1_5565 . 172.0(17) 172.0(17) 172.0(17)
Fe1 O3 Bi1 1_5565 1_6565 72.7(6) 72.0(6) 74.3(6)
Fe1 O3 Bi1 1_5565 5_4455 88.6(8) 74.4(7) 104.8(7)
Fe1 O3 Bi1 1_5565 5_4555 88.6(8) 74.4(7) 104.8(7)
Fe1 O3 Bi1 1_5565 5_5455 91.1(7) 71.9(6) 107.3(7)
Fe1 O3 Bi1 1_5565 5_5555 91.1(7) 71.9(6) 107.3(7)
Fe1 O3 O1 1_5565 1_5455 138.5(5) 136.1(6) 141.6(5)
Fe1 O3 O1 1_5565 1_5465 41.4(5) 38.2(4) 43.9(6)
Fe1 O3 O1 1_5565 . 138.5(5) 136.1(6) 141.6(5)
Fe1 O3 O1 1_5565 1_5565 41.4(5) 38.2(4) 43.9(6)
Fe1 O3 O1 1_5565 5_4445 146.1(11) 140.1(10) 149.2(11)
Fe1 O3 O1 1_5565 5_4465 36.8(10) 36.2(10) 37.4(9)
Fe1 O3 O1 1_5565 5_5445 140.6(10) 138.4(10) 142.7(11)
Fe1 O3 O1 1_5565 5_5465 34.9(10) 33.4(10) 38.6(10)
Fe1 O3 O2 1_5565 1_4555 137.8(13) 136.3(14) 141.8(13)
Fe1 O3 O2 1_5565 1_4565 42.6(13) 39.6(13) 46.1(13)
Fe1 O3 O2 1_5565 . 137.4(13) 133.2(13) 142.7(13)
Fe1 O3 O2 1_5565 1_5565 41.7(13) 37.3(13) 44.2(13)
Fe1 O3 O3 1_5565 1_4555 90.9(7) 89.9(6) 94.6(8)
Fe1 O3 O3 1_5565 1_5455 90.0(7) 90.0(6) 90.0(6)
Fe1 O3 O3 1_5565 1_5655 90.0(7) 90.0(6) 90.0(6)
Fe1 O3 O3 1_5565 1_6555 88.7(7) 84.9(7) 90.7(6)
Pb1 O3 Pb1 1_4555 5_4455 58.0(5) 54.9(5) 61.1(6)
Pb1 O3 Pb1 1_4555 5_4555 58.0(5) 54.9(5) 61.1(6)
Pb1 O3 Pb1 1_4555 5_5455 137.0(4) 135.6(4) 138.6(4)
Pb1 O3 Pb1 1_4555 5_5555 137.0(4) 135.6(4) 138.6(4)
Pb1 O3 Bi1 1_4555 1_4555 0.5(4) 0.3(5) 0.7(4)
Pb1 O3 Bi1 1_4555 . 63.5(16) 63.5(16) 63.5(16)
Pb1 O3 Bi1 1_4555 5_4455 57.9(5) 54.8(5) 60.9(6)
Pb1 O3 Bi1 1_4555 5_4555 57.9(5) 54.8(5) 60.9(6)
Pb1 O3 Bi1 1_4555 5_5455 136.9(4) 135.5(4) 138.4(4)
Pb1 O3 Bi1 1_4555 5_5555 136.9(4) 135.5(4) 138.4(4)
Pb1 O3 O1 1_4555 1_5455 79.5(11) 77.0(11) 83.1(11)
Pb1 O3 O1 1_4555 1_5465 101.7(12) 100.8(12) 102.3(11)
Pb1 O3 O1 1_4555 . 79.5(11) 77.0(11) 83.1(11)
Pb1 O3 O1 1_4555 1_5565 101.7(12) 100.8(12) 102.3(11)
Pb1 O3 O1 1_4555 5_4445 39.8(10) 39.0(10) 40.7(11)
Pb1 O3 O1 1_4555 5_5445 110.6(11) 108.7(12) 113.1(10)
Pb1 O3 O2 1_4555 1_4565 66.2(12) 63.4(12) 68.6(13)
Pb1 O3 O2 1_4555 . 113.1(14) 113.1(14) 113.1(14)
Pb1 O3 O2 1_4555 1_5565 150.1(15) 148.1(14) 151.0(15)
Pb1 O3 O3 1_4555 1_5455 90.0(3) 90.0(3) 90.0(3)
Pb1 O3 O3 1_4555 1_5655 90.0(3) 90.0(3) 90.0(3)
Pb1 O3 O3 1_4555 1_6555 164.6(9) 163.7(10) 166.6(8)
Pb1 O3 Pb1 5_4455 5_4555 89.2(5) 83.3(5) 99.3(6)
Pb1 O3 Pb1 5_4455 5_5455 88.1(5) 80.2(5) 91.9(4)
Pb1 O3 Pb1 5_4455 5_5555 164.1(11) 146.4(8) 179.7(5)
Pb1 O3 Bi1 5_4455 1_4555 57.6(4) 54.0(4) 61.2(3)
Pb1 O3 Bi1 5_4455 . 99.8(11) 99.8(11) 99.8(11)
Pb1 O3 Bi1 5_4455 1_6565 136.6(3) 135.2(4) 138.2(3)
Pb1 O3 Bi1 5_4455 5_4455 0.1(5) 0.0(5) 1.0(5)
Pb1 O3 Bi1 5_4455 5_4555 89.1(5) 83.4(5) 98.4(6)
Pb1 O3 Bi1 5_4455 5_5455 88.1(5) 80.0(5) 91.9(4)
Pb1 O3 Bi1 5_4455 5_5555 164.0(11) 146.2(8) 179.8(5)
Pb1 O3 O1 5_4455 1_5455 63.6(10) 51.0(11) 79.1(8)
Pb1 O3 O1 5_4455 1_5465 60.9(10) 45.2(10) 75.0(9)
Pb1 O3 O1 5_4455 . 119.4(12) 103.4(10) 138.2(10)
Pb1 O3 O1 5_4455 1_5565 116.7(12) 106.0(10) 125.9(13)
Pb1 O3 O1 5_4455 5_4445 78.6(8) 70.8(8) 85.1(7)
Pb1 O3 O1 5_4455 5_4465 76.8(8) 76.6(9) 76.9(8)
Pb1 O3 O1 5_4455 5_5445 125.7(7) 125.2(9) 125.9(6)
Pb1 O3 O1 5_4455 5_5465 123.7(10) 121.9(10) 127.1(8)
Pb1 O3 O2 5_4455 1_4555 59.8(8) 48.2(7) 71.4(10)
Pb1 O3 O2 5_4455 1_4565 59.4(7) 51.0(7) 73.1(10)
Pb1 O3 O2 5_4455 . 118.5(10) 103.1(11) 127.0(9)
Pb1 O3 O2 5_4455 1_5565 113.5(10) 100.5(9) 120.5(11)
Pb1 O3 O3 5_4455 1_4555 45.4(2) 43.76(18) 48.3(4)
Pb1 O3 O3 5_4455 1_5455 45.4(3) 40.3(3) 48.3(4)
Pb1 O3 O3 5_4455 1_5655 134.6(4) 131.7(5) 139.7(5)
Pb1 O3 O3 5_4455 1_6555 134.0(3) 124.7(4) 136.4(2)
Pb1 O3 Pb1 5_4555 5_5455 164.1(11) 146.4(8) 179.7(5)
Pb1 O3 Pb1 5_4555 5_5555 88.1(5) 80.2(5) 91.9(4)
Pb1 O3 Bi1 5_4555 1_4555 57.6(4) 54.0(4) 61.2(3)
Pb1 O3 Bi1 5_4555 . 99.8(11) 99.8(11) 99.8(11)
Pb1 O3 Bi1 5_4555 1_6565 136.6(3) 135.2(4) 138.2(3)
Pb1 O3 Bi1 5_4555 5_4455 89.1(5) 83.4(5) 98.4(6)
Pb1 O3 Bi1 5_4555 5_4555 0.1(5) 0.0(5) 1.0(5)
Pb1 O3 Bi1 5_4555 5_5455 164.0(11) 146.2(8) 179.8(5)
Pb1 O3 Bi1 5_4555 5_5555 88.1(5) 80.0(5) 91.9(4)
Pb1 O3 O1 5_4555 1_5455 119.4(12) 103.4(10) 138.2(10)
Pb1 O3 O1 5_4555 1_5465 116.7(12) 106.0(10) 125.9(13)
Pb1 O3 O1 5_4555 . 63.6(10) 51.0(11) 79.1(8)
Pb1 O3 O1 5_4555 1_5565 60.9(10) 45.2(10) 75.0(9)
Pb1 O3 O1 5_4555 5_4445 78.6(8) 70.8(8) 85.1(7)
Pb1 O3 O1 5_4555 5_4465 76.8(8) 76.6(9) 76.9(8)
Pb1 O3 O1 5_4555 5_5445 125.7(7) 125.2(9) 125.9(6)
Pb1 O3 O1 5_4555 5_5465 123.7(10) 121.9(10) 127.1(8)
Pb1 O3 O2 5_4555 1_4555 59.8(8) 48.2(7) 71.4(10)
Pb1 O3 O2 5_4555 1_4565 59.4(7) 51.0(7) 73.1(10)
Pb1 O3 O2 5_4555 . 118.5(10) 103.1(11) 127.0(9)
Pb1 O3 O2 5_4555 1_5565 113.5(10) 100.5(9) 120.5(11)
Pb1 O3 O3 5_4555 1_4555 45.4(2) 43.76(18) 48.3(4)
Pb1 O3 O3 5_4555 1_5455 134.6(4) 131.7(5) 139.7(5)
Pb1 O3 O3 5_4555 1_5655 45.4(3) 40.3(3) 48.3(4)
Pb1 O3 O3 5_4555 1_6555 134.0(3) 124.7(4) 136.4(2)
Pb1 O3 Pb1 5_5455 5_5555 88.8(5) 82.3(5) 97.7(6)
Pb1 O3 Bi1 5_5455 1_4555 136.7(3) 135.1(4) 138.6(3)
Pb1 O3 Bi1 5_5455 . 113.5(12) 113.5(12) 113.5(12)
Pb1 O3 Bi1 5_5455 1_6565 57.4(4) 54.4(4) 60.4(3)
Pb1 O3 Bi1 5_5455 5_4455 88.2(5) 80.7(6) 91.9(4)
Pb1 O3 Bi1 5_5455 5_4555 164.0(11) 145.8(9) 179.7(5)
Pb1 O3 Bi1 5_5455 5_5455 0.1(5) 0.0(5) 0.9(5)
Pb1 O3 Bi1 5_5455 5_5555 88.7(5) 82.3(5) 97.0(6)
Pb1 O3 O1 5_5455 1_5455 61.1(10) 45.6(10) 75.1(8)
Pb1 O3 O1 5_5455 1_5465 63.3(10) 50.6(11) 78.6(8)
Pb1 O3 O1 5_5455 . 116.8(12) 106.1(10) 125.9(13)
Pb1 O3 O1 5_5455 1_5565 118.9(12) 102.2(10) 136.7(10)
Pb1 O3 O1 5_5455 5_4445 123.9(9) 121.9(10) 128.0(7)
Pb1 O3 O1 5_5455 5_4465 125.7(7) 125.3(8) 125.9(5)
Pb1 O3 O1 5_5455 5_5445 76.8(8) 76.6(9) 76.9(8)
Pb1 O3 O1 5_5455 5_5465 78.5(8) 71.5(8) 84.4(8)
Pb1 O3 O2 5_5455 1_4555 113.6(10) 101.7(10) 120.3(10)
Pb1 O3 O2 5_5455 1_4565 118.4(10) 102.0(11) 127.2(9)
Pb1 O3 O2 5_5455 . 59.1(7) 51.0(7) 73.0(10)
Pb1 O3 O2 5_5455 1_5565 59.9(8) 47.6(7) 71.7(10)
Pb1 O3 O3 5_5455 1_4555 134.2(3) 125.9(4) 136.4(2)
Pb1 O3 O3 5_5455 1_5455 45.6(3) 41.1(3) 48.9(4)
Pb1 O3 O3 5_5455 1_5655 134.4(4) 131.1(5) 138.9(5)
Pb1 O3 O3 5_5455 1_6555 45.4(2) 43.8(2) 48.6(4)
Pb1 O3 Bi1 5_5555 1_4555 136.7(3) 135.1(4) 138.6(3)
Pb1 O3 Bi1 5_5555 . 113.5(12) 113.5(12) 113.5(12)
Pb1 O3 Bi1 5_5555 1_6565 57.4(4) 54.4(4) 60.4(3)
Pb1 O3 Bi1 5_5555 5_4455 164.0(11) 145.8(9) 179.7(5)
Pb1 O3 Bi1 5_5555 5_4555 88.2(5) 80.7(6) 91.9(4)
Pb1 O3 Bi1 5_5555 5_5455 88.7(5) 82.3(5) 97.0(6)
Pb1 O3 Bi1 5_5555 5_5555 0.1(5) 0.0(5) 0.9(5)
Pb1 O3 O1 5_5555 1_5455 116.8(12) 106.1(10) 125.9(13)
Pb1 O3 O1 5_5555 1_5465 118.9(12) 102.2(10) 136.7(10)
Pb1 O3 O1 5_5555 . 61.1(10) 45.6(10) 75.1(8)
Pb1 O3 O1 5_5555 1_5565 63.3(10) 50.6(11) 78.6(8)
Pb1 O3 O1 5_5555 5_4445 123.9(9) 121.9(10) 128.0(7)
Pb1 O3 O1 5_5555 5_4465 125.7(7) 125.3(8) 125.9(5)
Pb1 O3 O1 5_5555 5_5445 76.8(8) 76.6(9) 76.9(8)
Pb1 O3 O1 5_5555 5_5465 78.5(8) 71.5(8) 84.4(8)
Pb1 O3 O2 5_5555 1_4555 113.6(10) 101.7(10) 120.3(10)
Pb1 O3 O2 5_5555 1_4565 118.4(10) 102.0(11) 127.2(9)
Pb1 O3 O2 5_5555 . 59.1(7) 51.0(7) 73.0(10)
Pb1 O3 O2 5_5555 1_5565 59.9(8) 47.6(7) 71.7(10)
Pb1 O3 O3 5_5555 1_4555 134.2(3) 125.9(4) 136.4(2)
Pb1 O3 O3 5_5555 1_5455 134.4(4) 131.1(5) 138.9(5)
Pb1 O3 O3 5_5555 1_5655 45.6(3) 41.1(3) 48.9(4)
Pb1 O3 O3 5_5555 1_6555 45.4(2) 43.8(2) 48.6(4)
Bi1 O3 Bi1 1_4555 . 63.3(16) 63.3(16) 63.3(16)
Bi1 O3 Bi1 1_4555 5_4455 57.5(5) 54.0(5) 61.1(6)
Bi1 O3 Bi1 1_4555 5_4555 57.5(5) 54.0(5) 61.1(6)
Bi1 O3 Bi1 1_4555 5_5455 136.7(4) 135.1(4) 138.5(4)
Bi1 O3 Bi1 1_4555 5_5555 136.7(4) 135.1(4) 138.5(4)
Bi1 O3 O1 1_4555 1_5455 78.7(11) 76.2(12) 82.9(11)
Bi1 O3 O1 1_4555 1_5465 101.8(12) 100.7(12) 102.5(11)
Bi1 O3 O1 1_4555 . 78.7(11) 76.2(12) 82.9(11)
Bi1 O3 O1 1_4555 1_5565 101.8(12) 100.7(12) 102.5(11)
Bi1 O3 O1 1_4555 5_4445 39.1(10) 38.0(10) 40.4(11)
Bi1 O3 O1 1_4555 5_5445 110.2(11) 108.1(12) 112.8(10)
Bi1 O3 O2 1_4555 1_4565 66.1(12) 62.9(12) 68.9(13)
Bi1 O3 O2 1_4555 . 112.4(14) 112.4(14) 112.4(14)
Bi1 O3 O2 1_4555 1_5565 150.6(15) 148.4(14) 151.6(16)
Bi1 O3 O3 1_4555 1_4555 13.5(6) 13.5(6) 13.5(6)
Bi1 O3 O3 1_4555 1_5455 90.0(3) 90.0(3) 90.0(3)
Bi1 O3 O3 1_4555 1_5655 90.0(3) 90.0(3) 90.0(3)
Bi1 O3 O3 1_4555 1_6555 164.1(10) 163.1(11) 166.3(8)
Bi1 O3 Bi1 . 5_4455 100.5(8) 100.5(8) 100.5(8)
Bi1 O3 Bi1 . 5_4555 100.5(8) 100.5(8) 100.5(8)
Bi1 O3 Bi1 . 5_5455 113.8(8) 113.8(8) 113.8(8)
Bi1 O3 Bi1 . 5_5555 113.8(8) 113.8(8) 113.8(8)
Bi1 O3 O1 . 1_5455 41.2(6) 41.2(6) 41.2(6)
Bi1 O3 O1 . 1_5465 138.9(5) 138.9(5) 138.9(5)
Bi1 O3 O1 . . 41.2(6) 41.2(6) 41.2(6)
Bi1 O3 O1 . 1_5565 138.9(5) 138.9(5) 138.9(5)
Bi1 O3 O1 . 5_4445 22.8(12) 22.8(12) 22.8(12)
Bi1 O3 O1 . 5_5445 49.6(11) 49.6(11) 49.6(11)
Bi1 O3 O2 . 1_4565 132.1(15) 132.1(15) 132.1(15)
Bi1 O3 O2 . 1_5565 148.4(15) 148.4(15) 148.4(15)
Bi1 O3 O3 . 1_5455 90.0(6) 90.0(6) 90.0(6)
Bi1 O3 O3 . 1_5655 90.0(6) 90.0(6) 90.0(6)
Bi1 O3 O3 . 1_6555 103.1(10) 103.1(10) 103.1(10)
Bi1 O3 Bi1 1_6565 5_4455 136.6(4) 135.2(4) 138.1(4)
Bi1 O3 Bi1 1_6565 5_4555 136.6(4) 135.2(4) 138.1(4)
Bi1 O3 Bi1 1_6565 5_5455 57.4(5) 54.4(5) 60.3(6)
Bi1 O3 Bi1 1_6565 5_5555 57.4(5) 54.4(5) 60.3(6)
Bi1 O3 O1 1_6565 1_5455 101.8(12) 100.9(12) 102.5(11)
Bi1 O3 O1 1_6565 1_5465 78.4(11) 76.3(12) 81.6(11)
Bi1 O3 O1 1_6565 . 101.8(12) 100.9(12) 102.5(11)
Bi1 O3 O1 1_6565 1_5565 78.4(11) 76.3(12) 81.6(11)
Bi1 O3 O1 1_6565 5_4465 109.9(11) 108.3(12) 111.7(10)
Bi1 O3 O1 1_6565 5_5465 39.0(10) 38.1(10) 40.1(10)
Bi1 O3 O2 1_6565 1_4555 150.9(15) 149.3(14) 151.6(15)
Bi1 O3 O2 1_6565 1_4565 112.5(14) 112.4(14) 112.6(14)
Bi1 O3 O2 1_6565 . 66.0(12) 63.3(12) 68.4(12)
Bi1 O3 O3 1_6565 1_4555 163.8(10) 163.0(11) 165.5(8)
Bi1 O3 O3 1_6565 1_5455 90.0(3) 90.0(3) 90.0(3)
Bi1 O3 O3 1_6565 1_5655 90.0(3) 90.0(3) 90.0(3)
Bi1 O3 O3 1_6565 1_6555 13.5(6) 13.5(6) 13.5(6)
Bi1 O3 Bi1 5_4455 5_4555 89.0(5) 83.5(5) 97.5(6)
Bi1 O3 Bi1 5_4455 5_5455 88.2(5) 80.4(5) 91.9(4)
Bi1 O3 Bi1 5_4455 5_5555 164.0(11) 145.5(8) 179.7(5)
Bi1 O3 O1 5_4455 1_5455 63.7(10) 50.7(11) 80.2(8)
Bi1 O3 O1 5_4455 1_5465 60.9(10) 44.9(10) 75.2(9)
Bi1 O3 O1 5_4455 . 119.4(12) 103.3(10) 138.6(10)
Bi1 O3 O1 5_4455 1_5565 116.6(12) 105.0(10) 125.9(13)
Bi1 O3 O1 5_4455 5_4445 78.8(8) 70.8(8) 85.5(7)
Bi1 O3 O1 5_4455 5_4465 77.0(8) 76.7(9) 77.2(8)
Bi1 O3 O1 5_4455 5_5445 126.4(7) 125.6(9) 126.9(5)
Bi1 O3 O1 5_4455 5_5465 123.7(10) 121.9(10) 127.3(8)
Bi1 O3 O2 5_4455 1_4555 59.8(8) 48.0(7) 71.4(10)
Bi1 O3 O2 5_4455 1_4565 59.3(7) 50.8(7) 73.2(10)
Bi1 O3 O2 5_4455 . 118.5(10) 102.8(11) 127.4(9)
Bi1 O3 O2 5_4455 1_5565 113.5(10) 100.2(9) 120.4(11)
Bi1 O3 O3 5_4455 1_4555 45.4(2) 43.78(18) 48.2(4)
Bi1 O3 O3 5_4455 1_5455 45.5(3) 41.2(3) 48.3(4)
Bi1 O3 O3 5_4455 1_5655 134.5(4) 131.7(5) 138.8(5)
Bi1 O3 O3 5_4455 1_6555 134.0(3) 125.2(4) 136.4(2)
Bi1 O3 Bi1 5_4555 5_5455 164.0(11) 145.5(8) 179.7(5)
Bi1 O3 Bi1 5_4555 5_5555 88.2(5) 80.4(5) 91.9(4)
Bi1 O3 O1 5_4555 1_5455 119.4(12) 103.3(10) 138.6(10)
Bi1 O3 O1 5_4555 1_5465 116.6(12) 105.0(10) 125.9(13)
Bi1 O3 O1 5_4555 . 63.7(10) 50.7(11) 80.2(8)
Bi1 O3 O1 5_4555 1_5565 60.9(10) 44.9(10) 75.2(9)
Bi1 O3 O1 5_4555 5_4445 78.8(8) 70.8(8) 85.5(7)
Bi1 O3 O1 5_4555 5_4465 77.0(8) 76.7(9) 77.2(8)
Bi1 O3 O1 5_4555 5_5445 126.4(7) 125.6(9) 126.9(5)
Bi1 O3 O1 5_4555 5_5465 123.7(10) 121.9(10) 127.3(8)
Bi1 O3 O2 5_4555 1_4555 59.8(8) 48.0(7) 71.4(10)
Bi1 O3 O2 5_4555 1_4565 59.3(7) 50.8(7) 73.2(10)
Bi1 O3 O2 5_4555 . 118.5(10) 102.8(11) 127.4(9)
Bi1 O3 O2 5_4555 1_5565 113.5(10) 100.2(9) 120.4(11)
Bi1 O3 O3 5_4555 1_4555 45.4(2) 43.78(18) 48.2(4)
Bi1 O3 O3 5_4555 1_5455 134.5(4) 131.7(5) 138.8(5)
Bi1 O3 O3 5_4555 1_5655 45.5(3) 41.2(3) 48.3(4)
Bi1 O3 O3 5_4555 1_6555 134.0(3) 125.2(4) 136.4(2)
Bi1 O3 Bi1 5_5455 5_5555 88.7(5) 82.4(5) 96.2(6)
Bi1 O3 O1 5_5455 1_5455 61.1(10) 45.4(10) 75.3(8)
Bi1 O3 O1 5_5455 1_5465 63.4(10) 50.3(11) 79.5(8)
Bi1 O3 O1 5_5455 . 116.7(12) 105.2(10) 125.9(13)
Bi1 O3 O1 5_5455 1_5565 118.9(12) 102.0(10) 137.0(10)
Bi1 O3 O1 5_5455 5_4445 123.9(9) 121.9(10) 128.2(7)
Bi1 O3 O1 5_5455 5_4465 126.4(7) 125.8(8) 126.8(5)
Bi1 O3 O1 5_5455 5_5445 77.0(8) 76.7(9) 77.2(8)
Bi1 O3 O1 5_5455 5_5465 78.7(8) 71.5(8) 84.8(8)
Bi1 O3 O2 5_5455 1_4555 113.6(10) 101.4(10) 120.3(10)
Bi1 O3 O2 5_5455 1_4565 118.4(10) 101.6(11) 127.6(9)
Bi1 O3 O2 5_5455 . 59.0(7) 50.8(7) 73.0(10)
Bi1 O3 O2 5_5455 1_5565 59.9(8) 47.5(6) 71.7(10)
Bi1 O3 O3 5_5455 1_4555 134.2(3) 126.3(4) 136.4(2)
Bi1 O3 O3 5_5455 1_5455 45.7(3) 41.9(3) 48.8(4)
Bi1 O3 O3 5_5455 1_5655 134.3(4) 131.2(5) 138.1(5)
Bi1 O3 O3 5_5455 1_6555 45.4(2) 43.8(2) 48.5(4)
Bi1 O3 O1 5_5555 1_5455 116.7(12) 105.2(10) 125.9(13)
Bi1 O3 O1 5_5555 1_5465 118.9(12) 102.0(10) 137.0(10)
Bi1 O3 O1 5_5555 . 61.1(10) 45.4(10) 75.3(8)
Bi1 O3 O1 5_5555 1_5565 63.4(10) 50.3(11) 79.5(8)
Bi1 O3 O1 5_5555 5_4445 123.9(9) 121.9(10) 128.2(7)
Bi1 O3 O1 5_5555 5_4465 126.4(7) 125.8(8) 126.8(5)
Bi1 O3 O1 5_5555 5_5445 77.0(8) 76.7(9) 77.2(8)
Bi1 O3 O1 5_5555 5_5465 78.7(8) 71.5(8) 84.8(8)
Bi1 O3 O2 5_5555 1_4555 113.6(10) 101.4(10) 120.3(10)
Bi1 O3 O2 5_5555 1_4565 118.4(10) 101.6(11) 127.6(9)
Bi1 O3 O2 5_5555 . 59.0(7) 50.8(7) 73.0(10)
Bi1 O3 O2 5_5555 1_5565 59.9(8) 47.5(6) 71.7(10)
Bi1 O3 O3 5_5555 1_4555 134.2(3) 126.3(4) 136.4(2)
Bi1 O3 O3 5_5555 1_5455 134.3(4) 131.2(5) 138.1(5)
Bi1 O3 O3 5_5555 1_5655 45.7(3) 41.9(3) 48.8(4)
Bi1 O3 O3 5_5555 1_6555 45.4(2) 43.8(2) 48.5(4)
O1 O3 O1 1_5455 1_5465 97.3(5) 95.1(5) 101.9(5)
O1 O3 O1 1_5455 . 82.7(8) 75.6(6) 87.7(9)
O1 O3 O1 1_5455 1_5565 175.8(11) 173.8(12) 179.9(9)
O1 O3 O1 1_5455 5_4445 50.9(8) 49.7(8) 53.1(7)
O1 O3 O1 1_5455 5_4465 127.4(10) 126.8(10) 127.9(9)
O1 O3 O1 1_5455 5_5445 48.9(7) 47.8(6) 49.8(8)
O1 O3 O1 1_5455 5_5465 126.2(8) 122.6(6) 129.4(9)
O1 O3 O2 1_5455 1_4555 56.7(10) 50.9(11) 60.3(11)
O1 O3 O2 1_5455 1_4565 123.6(9) 119.7(11) 133.1(7)
O1 O3 O2 1_5455 . 56.9(10) 53.0(9) 59.2(7)
O1 O3 O2 1_5455 1_5565 124.2(9) 121.0(9) 125.6(11)
O1 O3 O3 1_5455 1_4555 89.0(8) 86.1(11) 91.8(8)
O1 O3 O3 1_5455 1_5455 48.7(6) 46.2(6) 52.2(6)
O1 O3 O3 1_5455 1_5655 131.3(9) 127.8(8) 133.8(10)
O1 O3 O3 1_5455 1_6555 90.7(8) 86.3(6) 92.4(11)
O1 O3 O1 1_5465 . 175.8(11) 173.8(14) 179.9(10)
O1 O3 O1 1_5465 1_5565 82.6(8) 75.8(6) 87.7(9)
O1 O3 O1 1_5465 5_4445 126.3(8) 122.3(6) 129.9(9)
O1 O3 O1 1_5465 5_4465 49.0(7) 48.2(6) 49.6(8)
O1 O3 O1 1_5465 5_5445 127.3(10) 126.4(9) 128.0(9)
O1 O3 O1 1_5465 5_5465 50.6(8) 49.7(8) 52.3(7)
O1 O3 O2 1_5465 1_4555 124.3(9) 121.5(9) 125.6(11)
O1 O3 O2 1_5465 1_4565 56.7(10) 52.6(11) 59.2(7)
O1 O3 O2 1_5465 . 123.3(9) 119.7(12) 131.9(8)
O1 O3 O2 1_5465 1_5565 56.4(10) 50.9(11) 60.3(11)
O1 O3 O3 1_5465 1_4555 90.8(8) 87.0(6) 92.4(11)
O1 O3 O3 1_5465 1_5455 48.7(7) 46.2(6) 52.1(6)
O1 O3 O3 1_5465 1_5655 131.3(9) 127.9(8) 133.8(10)
O1 O3 O3 1_5465 1_6555 88.9(8) 86.1(10) 91.8(8)
O1 O3 O1 . 1_5565 97.3(5) 95.1(5) 101.9(5)
O1 O3 O1 . 5_4445 50.9(8) 49.7(8) 53.1(7)
O1 O3 O1 . 5_4465 127.4(10) 126.8(10) 127.9(9)
O1 O3 O1 . 5_5445 48.9(7) 47.8(6) 49.8(8)
O1 O3 O1 . 5_5465 126.2(8) 122.6(6) 129.4(9)
O1 O3 O2 . 1_4555 56.7(10) 50.9(11) 60.3(11)
O1 O3 O2 . 1_4565 123.6(9) 119.7(11) 133.1(7)
O1 O3 O2 . . 56.9(10) 53.0(9) 59.2(7)
O1 O3 O2 . 1_5565 124.2(9) 121.0(9) 125.6(11)
O1 O3 O3 . 1_4555 89.0(8) 86.1(11) 91.8(8)
O1 O3 O3 . 1_5455 131.3(9) 127.8(8) 133.8(10)
O1 O3 O3 . 1_5655 48.7(6) 46.2(6) 52.2(6)
O1 O3 O3 . 1_6555 90.7(8) 86.3(6) 92.4(11)
O1 O3 O1 1_5565 5_4445 126.3(8) 122.3(6) 129.9(9)
O1 O3 O1 1_5565 5_4465 49.0(7) 48.2(6) 49.6(8)
O1 O3 O1 1_5565 5_5445 127.3(10) 126.4(9) 128.0(9)
O1 O3 O1 1_5565 5_5465 50.6(8) 49.7(8) 52.3(7)
O1 O3 O2 1_5565 1_4555 124.3(9) 121.5(9) 125.6(11)
O1 O3 O2 1_5565 1_4565 56.7(10) 52.6(11) 59.2(7)
O1 O3 O2 1_5565 . 123.3(9) 119.7(12) 131.9(8)
O1 O3 O2 1_5565 1_5565 56.4(10) 50.9(11) 60.3(11)
O1 O3 O3 1_5565 1_4555 90.8(8) 87.0(6) 92.4(11)
O1 O3 O3 1_5565 1_5455 131.3(9) 127.9(8) 133.8(10)
O1 O3 O3 1_5565 1_5655 48.7(7) 46.2(6) 52.1(6)
O1 O3 O3 1_5565 1_6555 88.9(8) 86.1(10) 91.8(8)
O1 O3 O1 5_4445 5_5445 70.7(12) 69.4(12) 72.4(12)
O1 O3 O2 5_4445 1_4565 102.1(13) 94.0(12) 109.3(15)
O1 O3 O2 5_4445 . 75.9(14) 74.1(14) 78.8(14)
O1 O3 O2 5_4445 1_5565 171.4(16) 169.7(15) 175.7(15)
O1 O3 O3 5_4445 1_4555 49.9(7) 47.8(7) 51.5(7)
O1 O3 O3 5_4445 1_5455 90.0(6) 90.0(6) 90.0(6)
O1 O3 O3 5_4445 1_5655 90.0(6) 90.0(6) 90.0(6)
O1 O3 O3 5_4445 1_6555 126.0(11) 124.5(11) 129.8(11)
O1 O3 O1 5_4465 5_5465 70.5(12) 69.6(12) 71.6(11)
O1 O3 O2 5_4465 1_4555 99.6(13) 99.0(13) 100.2(13)
O1 O3 O2 5_4465 . 176.9(14) 173.9(14) 179.9(14)
O1 O3 O3 5_4465 1_4555 54.3(7) 53.8(7) 54.9(7)
O1 O3 O3 5_4465 1_5455 90.0(6) 90.0(6) 90.0(6)
O1 O3 O3 5_4465 1_5655 90.0(6) 90.0(6) 90.0(6)
O1 O3 O2 5_5445 1_4565 176.6(14) 173.3(14) 179.3(14)
O1 O3 O2 5_5445 1_5565 99.5(13) 98.8(13) 100.3(13)
O1 O3 O3 5_5445 1_5455 90.0(6) 90.0(5) 90.0(5)
O1 O3 O3 5_5445 1_5655 90.0(6) 90.0(5) 90.0(5)
O1 O3 O3 5_5445 1_6555 54.3(7) 53.5(7) 55.0(7)
O1 O3 O2 5_5465 1_4555 171.2(16) 169.7(15) 175.1(16)
O1 O3 O2 5_5465 1_4565 75.6(14) 74.1(14) 78.2(14)
O1 O3 O2 5_5465 . 102.0(13) 94.7(12) 108.5(15)
O1 O3 O3 5_5465 1_4555 125.8(11) 124.4(11) 129.2(11)
O1 O3 O3 5_5465 1_5455 90.0(6) 90.0(6) 90.0(6)
O1 O3 O3 5_5465 1_5655 90.0(6) 90.0(6) 90.0(6)
O1 O3 O3 5_5465 1_6555 50.3(7) 48.3(7) 51.7(7)
O2 O3 O2 1_4555 1_4565 95.9(13) 94.8(16) 96.9(12)
O2 O3 O2 1_4555 . 85.3(15) 77.1(16) 90.3(15)
O2 O3 O2 1_4555 1_5565 176.7(14) 173.8(15) 179.9(13)
O2 O3 O3 1_4555 1_4555 47.3(9) 45.3(11) 49.9(10)
O2 O3 O3 1_4555 1_5455 90.0(5) 90.0(5) 90.0(5)
O2 O3 O3 1_4555 1_5655 90.0(5) 90.0(5) 90.0(5)
O2 O3 O3 1_4555 1_6555 132.9(10) 127.9(13) 137.9(13)
O2 O3 O2 1_4565 . 175.0(15) 172.8(18) 179.8(12)
O2 O3 O2 1_4565 1_5565 84.8(15) 77.0(18) 90.3(17)
O2 O3 O3 1_4565 1_4555 48.2(9) 45.3(7) 51.1(12)
O2 O3 O3 1_4565 1_5455 90.0(5) 90.0(5) 90.0(5)
O2 O3 O3 1_4565 1_5655 90.0(5) 90.0(5) 90.0(5)
O2 O3 O3 1_4565 1_6555 131.4(11) 124.8(11) 136.4(11)
O2 O3 O2 . 1_5565 95.9(14) 94.8(12) 96.9(16)
O2 O3 O3 . 1_4555 131.7(11) 125.9(14) 136.4(12)
O2 O3 O3 . 1_5455 90.0(5) 90.0(5) 90.0(5)
O2 O3 O3 . 1_5655 90.0(5) 90.0(5) 90.0(5)
O2 O3 O3 . 1_6555 48.1(9) 45.3(7) 51.1(11)
O2 O3 O3 1_5565 1_4555 132.6(11) 127.8(13) 137.8(13)
O2 O3 O3 1_5565 1_5455 90.0(5) 90.0(5) 90.0(5)
O2 O3 O3 1_5565 1_5655 90.0(5) 90.0(5) 90.0(5)
O2 O3 O3 1_5565 1_6555 47.4(9) 45.3(11) 49.9(10)
O3 O3 O3 1_4555 1_5455 90.00(16) 90.00(15) 90.00(15)
O3 O3 O3 1_4555 1_5655 90.00(16) 90.00(15) 90.00(15)
O3 O3 O3 1_4555 1_6555 178.3(9) 176.7(12) 180.0(5)
O3 O3 O3 1_5455 1_5655 180.0(5) 180.0(5) 180.0(5)
O3 O3 O3 1_5455 1_6555 90.00(7) 90.00(2) 90.00(2)
O3 O3 O3 1_5655 1_6555 90.00(7) 90.00(2) 90.00(2)
loop_
_geom_bond_atom_site_label_1
_geom_bond_atom_site_label_2
_geom_bond_site_ssg_symmetry_2
_geom_bond_distance_av
_geom_bond_distance_min
_geom_bond_distance_max
Fe1 Fe1 1_4555 3.945(12) 3.873(18) 3.988(18)
Fe1 Fe1 1_5455 3.9266 3.9266 3.9266
Fe1 Fe1 1_5545 4.161(13) 3.895(15) 4.697(15)
Fe1 Fe1 1_5565 4.161(13) 3.895(15) 4.697(15)
Fe1 Fe1 1_5655 3.9266 3.9266 3.9266
Fe1 Fe1 1_6555 3.945(12) 3.873(18) 3.988(18)
Fe1 Fe1 5_4445 3.053(9) 3.014(10) 3.080(10)
Fe1 Fe1 5_4455 3.128(6) 3.116(7) 3.137(7)
Fe1 Fe1 5_4545 3.053(9) 3.014(10) 3.080(10)
Fe1 Fe1 5_4555 3.128(6) 3.116(7) 3.137(7)
Fe1 Fe1 5_5445 3.128(6) 3.116(7) 3.137(7)
Fe1 Fe1 5_5455 3.053(9) 3.014(10) 3.080(10)
Fe1 Fe1 5_5545 3.128(6) 3.116(7) 3.137(7)
Fe1 Fe1 5_5555 3.053(9) 3.014(10) 3.080(10)
Fe1 Pb1 1_4555 4.016(14) 3.927(18) 4.146(18)
Fe1 Pb1 1_5545 3.909(18) 3.71(2) 4.00(2)
Fe1 Pb1 1_5565 3.909(18) 3.71(2) 4.00(2)
Fe1 Pb1 1_6555 4.016(14) 3.927(18) 4.146(18)
Fe1 Pb1 5_4445 3.440(14) 3.33(2) 3.88(2)
Fe1 Pb1 5_4455 3.506(13) 3.34(2) 3.69(2)
Fe1 Pb1 5_4545 3.440(14) 3.33(2) 3.88(2)
Fe1 Pb1 5_4555 3.506(13) 3.34(2) 3.69(2)
Fe1 Pb1 5_5445 3.506(13) 3.34(2) 3.69(2)
Fe1 Pb1 5_5455 3.440(14) 3.33(2) 3.88(2)
Fe1 Pb1 5_5545 3.506(13) 3.34(2) 3.69(2)
Fe1 Pb1 5_5555 3.440(14) 3.33(2) 3.88(2)
Fe1 Bi1 1_4555 4.015(14) 3.910(18) 4.178(18)
Fe1 Bi1 1_5545 3.928(18) 3.71(2) 4.02(2)
Fe1 Bi1 . 0.843(9) 0.843(9) 0.843(9)
Fe1 Bi1 1_5565 3.928(18) 3.71(2) 4.02(2)
Fe1 Bi1 1_6555 4.015(14) 3.910(18) 4.178(18)
Fe1 Bi1 5_4445 3.437(14) 3.32(2) 3.89(2)
Fe1 Bi1 5_4455 3.511(13) 3.34(2) 3.69(2)
Fe1 Bi1 5_4545 3.437(14) 3.32(2) 3.89(2)
Fe1 Bi1 5_4555 3.511(13) 3.34(2) 3.69(2)
Fe1 Bi1 5_5445 3.511(13) 3.34(2) 3.69(2)
Fe1 Bi1 5_5455 3.437(14) 3.32(2) 3.89(2)
Fe1 Bi1 5_5545 3.511(13) 3.34(2) 3.69(2)
Fe1 Bi1 5_5555 3.437(14) 3.32(2) 3.89(2)
Fe1 O1 1_5455 2.021(4) 1.963(8) 2.096(8)
Fe1 O1 . 2.021(4) 1.963(8) 2.096(8)
Fe1 O1 5_4445 2.06(3) 1.92(4) 2.24(4)
Fe1 O1 5_4455 2.01(2) 1.89(2) 2.10(2)
Fe1 O1 5_5445 2.01(2) 1.89(2) 2.10(2)
Fe1 O1 5_5455 2.06(3) 1.92(4) 2.24(4)
Fe1 O2 1_4555 2.02(4) 1.98(7) 2.06(7)
Fe1 O2 . 2.02(4) 1.98(7) 2.06(7)
Fe1 O3 1_5545 2.07(2) 1.83(4) 2.82(4)
Fe1 O3 . 2.07(2) 1.83(4) 2.82(4)
Pb1 Pb1 1_4555 3.90(2) 3.60(3) 4.06(3)
Pb1 Pb1 1_5455 3.9266 3.9266 3.9266
Pb1 Pb1 1_5545 4.00(2) 3.74(2) 4.52(2)
Pb1 Pb1 1_5565 4.00(2) 3.74(2) 4.52(2)
Pb1 Pb1 1_5655 3.9266 3.9266 3.9266
Pb1 Pb1 1_6555 3.90(2) 3.60(3) 4.06(3)
Pb1 Pb1 5_4445 3.533(14) 3.532(15) 3.533(15)
Pb1 Pb1 5_4545 3.533(14) 3.532(15) 3.533(15)
Pb1 Pb1 5_5455 3.533(14) 3.532(15) 3.533(15)
Pb1 Pb1 5_5555 3.533(14) 3.532(15) 3.533(15)
Pb1 Bi1 1_4555 3.90(2) 3.61(3) 4.06(3)
Pb1 Bi1 1_5455 3.92666(6) 3.92661(17) 3.92696(17)
Pb1 Bi1 1_5545 3.99(2) 3.74(2) 4.48(2)
Pb1 Bi1 . 0.01(2) 0.00(3) 0.05(3)
Pb1 Bi1 1_5565 3.99(2) 3.74(2) 4.48(2)
Pb1 Bi1 1_5655 3.92666(6) 3.92661(17) 3.92696(17)
Pb1 Bi1 1_6555 3.90(2) 3.61(3) 4.06(3)
Pb1 Bi1 5_4445 3.532(14) 3.530(16) 3.533(16)
Pb1 Bi1 5_4545 3.532(14) 3.530(16) 3.533(16)
Pb1 Bi1 5_5455 3.532(14) 3.530(16) 3.533(16)
Pb1 Bi1 5_5555 3.532(14) 3.530(16) 3.533(16)
Pb1 O1 1_5445 3.83(2) 3.64(2) 3.92(2)
Pb1 O1 1_5465 3.83(2) 3.64(2) 3.92(2)
Pb1 O1 1_5545 3.83(2) 3.64(2) 3.92(2)
Pb1 O1 1_5565 3.83(2) 3.64(2) 3.92(2)
Pb1 O1 5_4445 2.95(3) 2.22(4) 3.78(4)
Pb1 O1 5_4455 2.99(3) 2.56(5) 3.70(5)
Pb1 O1 5_5445 2.99(3) 2.56(5) 3.70(5)
Pb1 O1 5_5455 2.95(3) 2.22(4) 3.78(4)
Pb1 O2 1_4545 3.97(3) 3.96(4) 3.98(4)
Pb1 O2 1_5565 3.97(3) 3.96(4) 3.98(4)
Pb1 O2 5_4445 2.829(10) 2.43(2) 3.51(2)
Pb1 O2 5_4455 2.829(10) 2.43(2) 3.51(2)
Pb1 O2 5_4545 2.829(10) 2.43(2) 3.51(2)
Pb1 O2 5_4555 2.829(10) 2.43(2) 3.51(2)
Pb1 O3 5_4445 2.807(11) 2.608(19) 2.986(19)
Pb1 O3 5_4545 2.807(11) 2.608(19) 2.986(19)
Pb1 O3 5_5445 2.807(11) 2.608(19) 2.986(19)
Pb1 O3 5_5545 2.807(11) 2.608(19) 2.986(19)
Bi1 Bi1 1_4555 3.90(2) 3.61(3) 4.06(3)
Bi1 Bi1 1_5455 3.9266 3.9266 3.9266
Bi1 Bi1 1_5545 4.00(2) 3.74(2) 4.53(2)
Bi1 Bi1 1_5565 4.00(2) 3.74(2) 4.53(2)
Bi1 Bi1 1_5655 3.9266 3.9266 3.9266
Bi1 Bi1 1_6555 3.90(2) 3.61(3) 4.06(3)
Bi1 Bi1 5_4445 3.531(15) 3.529(16) 3.533(16)
Bi1 Bi1 5_4455 2.981(9) 2.981(9) 2.981(9)
Bi1 Bi1 5_4545 3.531(15) 3.529(16) 3.533(16)
Bi1 Bi1 5_4555 2.981(9) 2.981(9) 2.981(9)
Bi1 Bi1 5_5445 2.981(9) 2.981(9) 2.981(9)
Bi1 Bi1 5_5455 3.531(15) 3.529(16) 3.533(16)
Bi1 Bi1 5_5545 2.981(9) 2.981(9) 2.981(9)
Bi1 Bi1 5_5555 3.531(15) 3.529(16) 3.533(16)
Bi1 O1 1_5445 3.85(2) 3.64(2) 3.94(2)
Bi1 O1 1_5455 2.517(10) 2.517(10) 2.517(10)
Bi1 O1 1_5465 3.85(2) 3.64(2) 3.94(2)
Bi1 O1 1_5545 3.85(2) 3.64(2) 3.94(2)
Bi1 O1 . 2.517(10) 2.517(10) 2.517(10)
Bi1 O1 1_5565 3.85(2) 3.64(2) 3.94(2)
Bi1 O1 5_4445 2.94(3) 2.20(4) 3.78(4)
Bi1 O1 5_4455 2.99(3) 2.55(5) 3.76(5)
Bi1 O1 5_5445 2.99(3) 2.55(5) 3.76(5)
Bi1 O1 5_5455 2.94(3) 2.20(4) 3.78(4)
Bi1 O2 1_4545 3.98(3) 3.97(4) 3.99(4)
Bi1 O2 1_4565 3.72(3) 3.72(3) 3.72(3)
Bi1 O2 1_5545 3.72(3) 3.72(3) 3.72(3)
Bi1 O2 1_5565 3.98(3) 3.97(4) 3.99(4)
Bi1 O2 5_4445 2.826(10) 2.42(2) 3.51(2)
Bi1 O2 5_4455 2.826(10) 2.42(2) 3.51(2)
Bi1 O2 5_4545 2.826(10) 2.42(2) 3.51(2)
Bi1 O2 5_4555 2.826(10) 2.42(2) 3.51(2)
Bi1 O3 1_4545 4.161(17) 3.997(19) 4.329(19)
Bi1 O3 1_5545 1.040(19) 1.040(19) 1.040(19)
Bi1 O3 . 1.040(19) 1.040(19) 1.040(19)
Bi1 O3 1_6555 4.161(17) 3.997(19) 4.329(19)
Bi1 O3 5_4445 2.811(11) 2.639(19) 2.981(19)
Bi1 O3 5_4545 2.811(11) 2.639(19) 2.981(19)
Bi1 O3 5_5445 2.811(11) 2.639(19) 2.981(19)
Bi1 O3 5_5545 2.811(11) 2.639(19) 2.981(19)
O1 O1 1_4555 3.91(5) 3.59(7) 4.07(7)
O1 O1 1_5455 3.9266 3.9266 3.9266
O1 O1 1_5655 3.9266 3.9266 3.9266
O1 O1 1_6555 3.91(5) 3.59(7) 4.07(7)
O1 O1 5_4445 2.76(3) 2.72(4) 2.83(4)
O1 O1 5_4455 2.620(18) 2.61(2) 2.63(2)
O1 O1 5_4545 2.76(3) 2.72(4) 2.83(4)
O1 O1 5_4555 2.620(18) 2.61(2) 2.63(2)
O1 O1 5_5445 2.620(18) 2.61(2) 2.63(2)
O1 O1 5_5455 2.76(3) 2.72(4) 2.83(4)
O1 O1 5_5545 2.620(18) 2.61(2) 2.63(2)
O1 O1 5_5555 2.76(3) 2.72(4) 2.83(4)
O1 O2 1_4555 2.79(4) 2.66(6) 2.85(6)
O1 O2 1_4655 2.79(4) 2.66(6) 2.85(6)
O1 O2 . 2.79(4) 2.66(6) 2.85(6)
O1 O2 1_5655 2.79(4) 2.66(6) 2.85(6)
O1 O2 5_3545 3.94(7) 3.85(7) 4.07(7)
O1 O2 5_5555 3.94(7) 3.85(7) 4.07(7)
O1 O3 1_5545 2.98(2) 2.83(3) 3.20(3)
O1 O3 . 2.98(2) 2.83(3) 3.20(3)
O1 O3 1_5645 2.98(2) 2.83(3) 3.20(3)
O1 O3 1_5655 2.98(2) 2.83(3) 3.20(3)
O1 O3 5_4535 3.27(3) 3.12(4) 3.34(4)
O1 O3 5_4555 3.13(3) 3.01(3) 3.22(3)
O1 O3 5_5535 3.13(3) 3.01(3) 3.22(3)
O1 O3 5_5555 3.27(3) 3.12(4) 3.34(4)
O2 O2 1_4555 3.96(6) 3.84(9) 4.03(9)
O2 O2 1_5455 3.9266 3.9266 3.9266
O2 O2 1_5655 3.9266 3.9266 3.9266
O2 O2 1_6555 3.96(6) 3.83(9) 4.03(9)
O2 O3 1_5545 2.97(3) 2.82(5) 3.14(5)
O2 O3 . 2.92(3) 2.82(6) 3.09(6)
O2 O3 1_6545 2.92(3) 2.82(6) 3.08(6)
O2 O3 1_6555 2.97(3) 2.82(5) 3.14(5)
O3 O3 1_4555 3.964(5) 3.962(12) 3.973(12)
O3 O3 1_5455 3.9266 3.9266 3.9266
O3 O3 1_5655 3.9266 3.9266 3.9266
O3 O3 1_6555 3.964(6) 3.962(12) 3.974(12)
loop_
_pd_proc_point_id
_pd_proc_2theta_corrected
_pd_proc_intensity_net
_pd_calc_intensity_net
_pd_proc_ls_weight
1 7.1200 1365.00 1329.82 36.10
2 7.1700 1270.00 1313.64 34.80
3 7.2200 1239.00 1301.67 34.20
4 7.2700 1276.00 1293.01 34.90
5 7.3200 1244.00 1286.83 34.40
6 7.3700 1316.00 1282.47 35.30
7 7.4200 1268.00 1279.40 35.00
8 7.4700 1243.00 1277.21 34.40
9 7.5200 1189.00 1275.63 33.80
10 7.5700 1292.00 1274.43 35.30
11 7.6200 1249.00 1273.51 34.60
12 7.6700 1321.00 1272.76 35.60
13 7.7200 1278.00 1272.13 35.20
14 7.7700 1237.00 1271.59 34.50
15 7.8200 1250.00 1271.11 34.70
16 7.8700 1350.00 1270.68 36.10
17 7.9200 1215.00 1270.29 34.40
18 7.9700 1309.00 1269.93 35.50
19 8.0200 1230.00 1269.60 34.60
20 8.0700 1239.00 1269.29 34.70
21 8.1200 1278.00 1269.01 34.90
22 8.1700 1260.00 1268.75 35.00
23 8.2200 1210.00 1268.50 34.20
24 8.2700 1270.00 1268.27 34.80
25 8.3200 1300.00 1268.05 35.60
26 8.3700 1214.00 1267.84 34.30
27 8.4200 1264.00 1267.64 34.90
28 8.4700 1224.00 1267.45 34.60
29 8.5200 1232.00 1267.28 34.60
30 8.5700 1273.00 1267.10 35.00
31 8.6200 1286.00 1266.94 35.30
32 8.6700 1212.00 1266.78 34.30
33 8.7200 1189.00 1266.63 33.70
34 8.7700 1248.00 1266.48 34.80
35 8.8200 1249.00 1266.34 34.70
36 8.8700 1277.00 1266.20 35.00
37 8.9200 1202.00 1266.07 34.10
38 8.9700 1232.00 1265.94 34.50
39 9.0200 1316.00 1265.81 35.60
40 9.0700 1273.00 1265.69 35.10
41 9.1200 1267.00 1265.57 34.90
42 9.1700 1239.00 1265.45 34.50
43 9.2200 1221.00 1265.33 34.10
44 9.2700 1320.00 1265.21 35.60
45 9.3200 1270.00 1265.10 35.10
46 9.3700 1219.00 1264.99 34.10
47 9.4200 1275.00 1264.88 35.00
48 9.4700 1185.00 1264.77 33.90
49 9.5200 1265.00 1264.66 34.70
50 9.5700 1217.00 1264.55 34.20
51 9.6200 1294.00 1264.45 35.20
52 9.6700 1247.00 1264.34 34.50
53 9.7200 1193.00 1264.24 33.90
54 9.7700 1250.00 1264.14 34.60
55 9.8200 1234.00 1264.03 34.40
56 9.8700 1214.00 1263.93 34.20
57 9.9200 1158.00 1263.83 33.60
58 9.9700 1164.00 1263.73 33.50
59 10.0200 1211.00 1263.63 34.40
60 10.0700 1218.00 1263.53 34.40
61 10.1200 1231.00 1263.43 34.70
62 10.1700 1221.00 1263.33 34.50
63 10.2200 1214.00 1263.23 34.60
64 10.2700 1163.00 1263.13 33.70
65 10.3200 1199.00 1263.03 34.60
66 10.3700 1197.00 1262.93 34.40
67 10.4200 1245.00 1262.83 35.40
68 10.4700 1244.00 1262.73 35.30
69 10.5200 1257.00 1262.64 35.80
70 10.5700 1222.00 1262.54 35.10
71 10.6200 1210.00 1262.46 35.20
72 10.6700 1191.00 1262.36 34.80
73 10.7200 1296.00 1262.26 36.50
74 10.7700 1255.00 1262.17 35.80
75 10.8200 1211.00 1262.07 35.50
76 10.8700 1170.00 1261.97 34.70
77 10.9200 1260.00 1261.87 36.20
78 10.9700 1233.00 1261.78 35.80
79 11.0200 1284.00 1261.68 36.70
80 11.0700 1240.00 1261.58 36.00
81 11.1200 1240.00 1261.48 36.10
82 11.1700 1247.00 1261.39 36.20
83 11.2200 1158.00 1261.29 34.90
84 11.2700 1198.00 1261.19 35.50
85 11.3200 1237.00 1261.10 36.10
86 11.3700 1245.00 1261.00 36.10
87 11.4200 1225.00 1260.90 35.80
88 11.4700 1135.00 1260.81 34.60
89 11.5200 1239.00 1260.71 35.90
90 11.5700 1184.00 1260.61 35.20
91 11.6200 1245.00 1260.52 35.90
92 11.6700 1203.00 1260.42 35.40
93 11.7200 1221.00 1260.33 35.30
94 11.7700 1215.00 1260.24 35.40
95 11.8200 1209.00 1260.15 35.00
96 11.8700 1194.00 1260.06 35.00
97 11.9200 1245.00 1259.97 35.50
98 11.9700 1285.00 1259.89 36.10
99 12.0200 1226.00 1259.82 35.10
100 12.0700 1196.00 1259.74 34.80
101 12.1200 1189.00 1259.68 34.30
102 12.1700 1242.00 1259.62 35.30
103 12.2200 1208.00 1259.57 34.50
104 12.2700 1284.00 1259.53 35.50
105 12.3200 1298.00 1259.49 35.60
106 12.3700 1238.00 1259.47 34.90
107 12.4200 1329.00 1259.46 35.90
108 12.4700 1245.00 1259.45 34.90
109 12.5200 1234.00 1259.45 34.50
110 12.5700 1241.00 1259.46 34.70
111 12.6200 1264.00 1259.47 34.80
112 12.6700 1206.00 1259.47 34.10
113 12.7200 1291.00 1259.47 35.00
114 12.7700 1273.00 1259.46 34.90
115 12.8200 1261.00 1259.43 34.70
116 12.8700 1225.00 1259.38 34.10
117 12.9200 1269.00 1259.31 34.80
118 12.9700 1229.00 1259.21 34.30
119 13.0200 1237.00 1259.09 34.30
120 13.0700 1272.00 1258.94 34.80
121 13.1200 1320.00 1258.77 35.30
122 13.1700 1237.00 1258.59 34.30
123 13.2200 1289.00 1258.40 34.80
124 13.2700 1327.00 1258.20 35.40
125 13.3200 1300.00 1258.00 35.10
126 13.3700 1246.00 1257.80 34.20
127 13.4200 1317.00 1257.61 35.30
128 13.4700 1301.00 1257.42 35.10
129 13.5200 1254.00 1257.24 34.40
130 13.5700 1268.00 1257.07 34.60
131 13.6200 1283.00 1256.92 34.90
132 13.6700 1232.00 1256.77 34.10
133 13.7200 1301.00 1256.63 35.00
134 13.7700 1259.00 1256.49 34.50
135 13.8200 1329.00 1256.37 35.40
136 13.8700 1205.00 1256.25 33.70
137 13.9200 1236.00 1256.14 34.30
138 13.9700 1271.00 1256.03 34.70
139 14.0200 1269.00 1255.93 34.60
140 14.0700 1264.00 1255.82 34.70
141 14.1200 1345.00 1255.73 35.60
142 14.1700 1267.00 1255.63 34.60
143 14.2200 1308.00 1255.54 35.10
144 14.2700 1247.00 1255.44 34.30
145 14.3200 1294.00 1255.35 35.00
146 14.3700 1172.00 1255.26 33.30
147 14.4200 1246.00 1255.17 34.40
148 14.4700 1232.00 1255.08 34.20
149 14.5200 1272.00 1254.99 34.60
150 14.5700 1314.00 1254.90 35.30
151 14.6200 1336.00 1254.81 35.50
152 14.6700 1286.00 1254.73 34.80
153 14.7200 1282.00 1254.64 34.80
154 14.7700 1324.00 1254.56 35.30
155 14.8200 1284.00 1254.47 34.80
156 14.8700 1303.00 1254.22 35.10
157 14.9200 1274.00 1254.14 34.90
158 14.9700 1290.00 1254.06 34.80
159 15.0200 1252.00 1253.98 34.50
160 15.0700 1287.00 1253.90 35.10
161 15.1200 1287.00 1253.82 34.90
162 15.1700 1212.00 1253.74 34.00
163 15.2200 1329.00 1253.66 35.70
164 15.2700 1305.00 1253.58 35.10
165 15.3200 1262.00 1253.51 34.70
166 15.3700 1239.00 1253.43 34.40
167 15.4200 1305.00 1253.35 35.30
168 15.4700 1294.00 1253.28 35.10
169 15.5200 1290.00 1253.21 35.20
170 15.5700 1228.00 1253.13 34.20
171 15.6200 1300.00 1253.06 35.10
172 15.6700 1245.00 1252.99 34.60
173 15.7200 1249.00 1252.92 34.60
174 15.7700 1234.00 1252.85 34.20
175 15.8200 1302.00 1252.78 35.40
176 15.8700 1208.00 1252.71 34.00
177 15.9200 1286.00 1252.64 35.10
178 15.9700 1294.00 1252.58 35.30
179 16.0200 1310.00 1252.51 35.60
180 16.0700 1272.00 1252.44 34.90
181 16.1200 1283.00 1252.38 35.10
182 16.1700 1234.00 1252.32 34.50
183 16.2200 1254.00 1252.26 34.70
184 16.2700 1252.00 1252.20 34.70
185 16.3200 1237.00 1252.14 34.90
186 16.3700 1279.00 1252.08 35.10
187 16.4200 1285.00 1252.02 35.50
188 16.4700 1324.00 1251.97 36.10
189 16.5200 1225.00 1251.91 34.60
190 16.5700 1278.00 1251.86 35.40
191 16.6200 1296.00 1251.81 36.00
192 16.6700 1261.00 1251.76 35.10
193 16.7200 1246.00 1251.71 35.30
194 16.7700 1271.00 1251.66 35.60
195 16.8200 1269.00 1251.61 35.80
196 16.8700 1237.00 1251.57 35.10
197 16.9200 1362.00 1251.53 37.30
198 16.9700 1322.00 1251.49 36.50
199 17.0200 1241.00 1251.45 35.70
200 17.0700 1336.00 1251.42 37.00
201 17.1200 1300.00 1251.39 36.70
202 17.1700 1245.00 1251.36 35.80
203 17.2200 1331.00 1251.33 37.30
204 17.2700 1250.00 1251.31 36.00
205 17.3200 1231.00 1251.29 35.90
206 17.3700 1207.00 1251.27 35.50
207 17.4200 1290.00 1251.99 36.80
208 17.4700 1283.00 1251.99 36.70
209 17.5200 1256.00 1252.00 36.40
210 17.5700 1304.00 1252.02 37.00
211 17.6200 1280.00 1252.04 36.80
212 17.6700 1274.00 1252.08 36.60
213 17.7200 1262.00 1252.12 36.50
214 17.7700 1330.00 1252.18 37.50
215 17.8200 1316.00 1252.27 37.30
216 17.8700 1256.00 1252.39 36.40
217 17.9200 1298.00 1252.55 37.00
218 17.9700 1271.00 1252.79 36.60
219 18.0200 1357.00 1253.12 37.60
220 18.0700 1306.00 1253.61 37.10
221 18.1200 1316.00 1254.30 37.10
222 18.1700 1308.00 1255.26 36.90
223 18.2200 1352.00 1256.59 37.40
224 18.2700 1365.00 1258.37 37.80
225 18.3200 1359.00 1260.70 37.20
226 18.3700 1301.00 1263.67 36.70
227 18.4200 1270.00 1267.32 36.10
228 18.4700 1374.00 1271.68 37.50
229 18.5200 1377.00 1276.69 37.40
230 18.5700 1404.00 1282.24 37.90
231 18.6200 1359.00 1288.12 36.70
232 18.6700 1353.00 1294.06 37.10
233 18.7200 1386.00 1299.70 37.20
234 18.7700 1380.00 1304.61 37.00
235 18.8200 1422.00 1308.37 37.70
236 18.8700 1475.00 1310.58 38.40
237 18.9200 1401.00 1310.99 37.10
238 18.9700 1436.00 1309.87 37.90
239 19.0200 1397.00 1306.73 37.00
240 19.0700 1370.00 1302.27 36.70
241 19.1200 1327.00 1296.89 36.10
242 19.1700 1420.00 1291.05 37.30
243 19.2200 1326.00 1285.11 35.90
244 19.2700 1345.00 1279.40 36.30
245 19.3200 1433.00 1274.15 37.30
246 19.3700 1328.00 1269.51 35.90
247 19.4200 1381.00 1265.57 36.70
248 19.4700 1325.00 1262.32 35.80
249 19.5200 1311.00 1259.74 35.60
250 19.5700 1382.00 1257.75 36.70
251 19.6200 1340.00 1256.26 35.90
252 19.6700 1350.00 1255.17 36.10
253 19.7200 1323.00 1254.39 35.70
254 19.7700 1346.00 1253.84 35.90
255 19.8200 1297.00 1253.47 35.50
256 19.8700 1299.00 1253.22 35.30
257 19.9200 1307.00 1253.05 35.60
258 19.9700 1289.00 1252.94 35.30
259 20.0200 1338.00 1252.87 35.90
260 20.0700 1355.00 1252.83 36.20
261 20.1200 1248.00 1252.80 34.60
262 20.1700 1322.00 1252.80 35.60
263 20.2200 1270.00 1252.81 35.10
264 20.2700 1335.00 1252.82 35.80
265 20.3200 1346.00 1252.85 36.00
266 20.3700 1310.00 1252.89 35.60
267 20.4200 1260.00 1252.93 34.80
268 20.4700 1285.00 1252.98 35.20
269 20.5200 1304.00 1253.04 35.50
270 20.5700 1297.00 1253.11 35.30
271 20.6200 1339.00 1253.18 35.90
272 20.6700 1296.00 1253.26 35.30
273 20.7200 1239.00 1253.35 34.50
274 20.7700 1354.00 1253.44 36.10
275 20.8200 1262.00 1253.54 34.90
276 20.8700 1265.00 1253.65 34.80
277 20.9200 1287.00 1253.77 35.20
278 20.9700 1324.00 1253.89 35.80
279 21.0200 1262.00 1254.02 34.80
280 21.0700 1292.00 1254.16 35.30
281 21.1200 1326.00 1254.31 35.60
282 21.1700 1334.00 1254.46 35.80
283 21.2200 1283.00 1254.88 35.00
284 21.2700 1331.00 1255.05 35.70
285 21.3200 1332.00 1255.25 35.80
286 21.3700 1264.00 1255.45 34.80
287 21.4200 1318.00 1255.66 35.50
288 21.4700 1292.00 1255.88 35.30
289 21.5200 1325.00 1256.11 35.60
290 21.5700 1313.00 1256.35 35.50
291 21.6200 1314.00 1256.61 35.50
292 21.6700 1245.00 1256.89 34.50
293 21.7200 1266.00 1257.18 34.80
294 21.7700 1396.00 1257.48 36.60
295 21.8200 1367.00 1257.81 36.20
296 21.8700 1379.00 1258.15 36.30
297 21.9200 1361.00 1258.52 36.40
298 21.9700 1273.00 1258.91 34.90
299 22.0200 1302.00 1259.32 35.40
300 22.0700 1332.00 1259.76 36.00
301 22.1200 1276.00 1260.23 35.20
302 22.1700 1346.00 1260.74 36.10
303 22.2200 1283.00 1261.28 35.40
304 22.2700 1323.00 1261.85 35.90
305 22.3200 1288.00 1262.47 35.40
306 22.3700 1324.00 1263.14 36.00
307 22.4200 1311.00 1263.86 36.00
308 22.4700 1261.00 1264.64 35.00
309 22.5200 1283.00 1265.49 35.60
310 22.5700 1303.00 1266.41 35.90
311 22.6200 1284.00 1267.41 35.40
312 22.6700 1295.00 1268.62 35.80
313 22.7200 1385.00 1269.83 37.20
314 22.7700 1336.00 1271.16 36.10
315 22.8200 1316.00 1272.64 36.40
316 22.8700 1358.00 1274.29 36.90
317 22.9200 1359.00 1276.14 36.80
318 22.9700 1372.00 1278.25 37.10
319 23.0200 1392.00 1280.69 37.70
320 23.0700 1363.00 1283.59 36.80
321 23.1200 1388.00 1287.17 37.50
322 23.1700 1361.00 1291.86 37.30
323 23.2200 1337.00 1298.38 36.70
324 23.2700 1390.00 1308.06 37.60
325 23.3200 1446.00 1323.14 38.70
326 23.3700 1448.00 1347.22 38.20
327 23.4200 1492.00 1385.84 39.20
328 23.4700 1607.00 1446.83 40.80
329 23.5200 1684.00 1540.57 41.60
330 23.5700 1807.00 1679.48 43.10
331 23.6200 1975.00 1876.72 45.40
332 23.6700 2171.00 2143.88 47.20
333 23.7200 2533.00 2487.54 51.30
334 23.7700 2938.00 2905.75 55.30
335 23.8200 3305.00 3384.62 58.80
336 23.8700 3777.00 3896.72 62.70
337 23.9200 4079.00 4401.76 65.30
338 23.9700 4548.00 4849.93 68.90
339 24.0200 4810.00 5188.42 70.70
340 24.0700 5093.00 5371.01 72.90
341 24.1200 5064.00 5370.12 72.80
342 24.1700 5012.00 5186.04 72.10
343 24.2200 4636.00 4846.84 69.30
344 24.2700 4289.00 4398.93 67.00
345 24.3200 3724.00 3895.11 62.00
346 24.3700 3298.00 3384.94 58.40
347 24.4200 2895.00 2908.49 54.70
348 24.4700 2413.00 2492.86 49.90
349 24.5200 2109.00 2151.58 46.40
350 24.5700 1855.00 1886.49 43.80
351 24.6200 1750.00 1690.83 42.10
352 24.6700 1664.00 1553.04 41.30
353 24.7200 1535.00 1460.04 39.40
354 24.7700 1442.00 1399.51 38.20
355 24.8200 1402.00 1361.24 37.50
356 24.8700 1409.00 1337.46 37.80
357 24.9200 1340.00 1322.75 36.50
358 24.9700 1378.00 1313.57 37.20
359 25.0200 1289.00 1307.71 35.80
360 25.0700 1372.00 1303.89 36.90
361 25.1200 1315.00 1301.38 35.90
362 25.1700 1362.00 1299.82 36.80
363 25.2200 1340.00 1299.04 36.00
364 25.2700 1368.00 1299.06 36.60
365 25.3200 1377.00 1300.00 36.70
366 25.3700 1397.00 1302.20 36.80
367 25.4200 1353.00 1306.20 36.10
368 25.4700 1350.00 1312.88 36.30
369 25.5200 1286.00 1323.49 35.10
370 25.5700 1349.00 1339.74 36.10
371 25.6200 1391.00 1363.76 36.40
372 25.6700 1499.00 1398.02 37.90
373 25.7200 1443.00 1445.06 37.00
374 25.7700 1538.00 1507.08 38.30
375 25.8200 1617.00 1585.37 39.10
376 25.8700 1651.00 1679.78 39.60
377 25.9200 1764.00 1788.10 40.90
378 25.9700 1881.00 1905.74 42.20
379 26.0200 1901.00 2025.70 42.20
380 26.0700 1993.00 2138.54 43.50
381 26.1200 2108.00 2233.50 44.40
382 26.1700 2170.00 2299.51 45.10
383 26.2200 2229.00 2327.61 45.70
384 26.2700 2088.00 2313.63 44.20
385 26.3200 2116.00 2259.86 44.80
386 26.3700 2020.00 2174.09 43.50
387 26.4200 1845.00 2067.06 41.70
388 26.4700 1731.00 1949.91 40.50
389 26.5200 1735.00 1832.52 40.30
390 26.5700 1640.00 1722.71 39.40
391 26.6200 1481.00 1625.86 37.30
392 26.6700 1405.00 1544.85 36.20
393 26.7200 1436.00 1480.40 36.70
394 26.7700 1373.00 1431.54 36.00
395 26.8200 1373.00 1396.22 35.90
396 26.8700 1328.00 1371.86 35.30
397 26.9200 1380.00 1355.86 36.10
398 26.9700 1372.00 1345.84 35.90
399 27.0200 1304.00 1339.91 35.00
400 27.0700 1399.00 1336.66 36.40
401 27.1200 1309.00 1335.22 35.00
402 27.1700 1315.00 1335.28 35.20
403 27.2200 1340.00 1337.09 35.50
404 27.2700 1345.00 1341.45 35.50
405 27.3200 1380.00 1349.86 36.10
406 27.3700 1399.00 1364.43 36.30
407 27.4200 1323.00 1387.88 35.20
408 27.4700 1398.00 1423.35 36.30
409 27.5200 1444.00 1474.03 36.70
410 27.5700 1488.00 1542.49 37.40
411 27.6200 1593.00 1629.91 38.50
412 27.6700 1719.00 1735.23 40.10
413 27.7200 1776.00 1854.45 40.80
414 27.7700 1843.00 1980.34 41.40
415 27.8200 2001.00 2102.62 43.30
416 27.8700 2146.00 2208.81 44.90
417 27.9200 2095.00 2285.73 44.40
418 27.9700 2182.00 2322.13 45.20
419 28.0200 2166.00 2312.01 45.10
420 28.0700 2071.00 2256.94 44.10
421 28.1200 2012.00 2165.34 43.40
422 28.1700 1895.00 2049.56 42.20
423 28.2200 1733.00 1922.74 40.30
424 28.2700 1652.00 1796.57 39.30
425 28.3200 1585.00 1680.36 38.60
426 28.3700 1430.00 1579.64 36.60
427 28.4200 1391.00 1497.37 36.20
428 28.4700 1381.00 1433.65 36.00
429 28.5200 1317.00 1386.71 35.20
430 28.5700 1394.00 1353.72 36.30
431 28.6200 1339.00 1331.53 35.50
432 28.6700 1267.00 1317.25 34.50
433 28.7200 1227.00 1308.47 34.10
434 28.7700 1318.00 1303.42 35.20
435 28.8200 1268.00 1300.89 34.70
436 28.8700 1235.00 1300.18 34.20
437 28.9200 1257.00 1300.97 34.50
438 28.9700 1309.00 1303.24 35.20
439 29.0200 1266.00 1307.19 34.80
440 29.0700 1320.00 1313.22 35.30
441 29.1200 1244.00 1321.85 36.80
442 29.1700 1359.00 1333.65 36.10
443 29.2200 1333.00 1349.19 35.70
444 29.2700 1339.00 1368.86 35.70
445 29.3200 1334.00 1392.78 35.80
446 29.3700 1318.00 1420.65 35.50
447 29.4200 1338.00 1451.62 36.20
448 29.4700 1422.00 1484.26 37.00
449 29.5200 1428.00 1516.60 37.40
450 29.5700 1334.00 1546.22 36.10
451 29.6200 1422.00 1570.56 37.30
452 29.6700 1438.00 1587.33 37.50
453 29.7200 1462.00 1595.10 38.10
454 29.7700 1457.00 1593.46 37.80
455 29.8200 1526.00 1582.88 39.10
456 29.8700 1574.00 1564.68 39.60
457 29.9200 1454.00 1539.79 38.20
458 29.9700 1442.00 1510.48 38.00
459 30.0200 1429.00 1478.95 38.10
460 30.0700 1402.00 1447.38 37.50
461 30.1200 1377.00 1417.55 37.30
462 30.1700 1326.00 1390.68 36.70
463 30.2200 1325.00 1367.49 36.50
464 30.2700 1297.00 1348.20 36.20
465 30.3200 1276.00 1332.72 36.10
466 30.3700 1160.00 1320.72 34.10
467 30.4200 1296.00 1311.71 36.30
468 30.4700 1243.00 1305.14 35.70
469 30.5200 1252.00 1300.50 35.70
470 30.5700 1188.00 1297.31 34.80
471 30.6200 1251.00 1295.16 35.70
472 30.6700 1219.00 1293.74 35.20
473 30.7200 1255.00 1292.82 35.60
474 30.7700 1224.00 1292.24 35.30
475 30.8200 1187.00 1291.22 34.50
476 30.8700 1215.00 1291.01 35.10
477 30.9200 1273.00 1290.91 35.90
478 30.9700 1200.00 1290.88 34.80
479 31.0200 1276.00 1290.90 35.60
480 31.0700 1203.00 1290.97 34.90
481 31.1200 1199.00 1291.08 34.40
482 31.1700 1268.00 1291.21 35.50
483 31.2200 1259.00 1291.38 35.40
484 31.2700 1219.00 1291.57 34.60
485 31.3200 1206.00 1291.79 34.50
486 31.3700 1264.00 1292.04 35.50
487 31.4200 1283.00 1292.31 35.50
488 31.4700 1256.00 1292.60 35.20
489 31.5200 1276.00 1292.93 35.40
490 31.5700 1275.00 1293.29 35.30
491 31.6200 1288.00 1293.70 35.30
492 31.6700 1232.00 1294.15 34.80
493 31.7200 1218.00 1294.67 34.10
494 31.7700 1263.00 1295.28 34.90
495 31.8200 1213.00 1295.98 34.20
496 31.8700 1299.00 1296.82 35.30
497 31.9200 1309.00 1297.82 35.30
498 31.9700 1304.00 1298.99 35.50
499 32.0200 1206.00 1300.38 33.80
500 32.0700 1271.00 1303.01 34.80
501 32.1200 1245.00 1304.88 34.40
502 32.1700 1269.00 1306.97 34.70
503 32.2200 1202.00 1309.26 33.70
504 32.2700 1246.00 1311.72 34.40
505 32.3200 1283.00 1314.28 34.70
506 32.3700 1251.00 1316.86 34.40
507 32.4200 1252.00 1319.38 34.40
508 32.4700 1291.00 1321.75 34.90
509 32.5200 1307.00 1323.90 35.00
510 32.5700 1284.00 1325.84 34.90
511 32.6200 1267.00 1327.66 34.40
512 32.6700 1270.00 1329.58 34.50
513 32.7200 1276.00 1331.97 34.60
514 32.7700 1340.00 1337.65 35.40
515 32.8200 1289.00 1342.47 34.80
516 32.8700 1342.00 1349.27 35.50
517 32.9200 1365.00 1358.47 35.50
518 32.9700 1345.00 1370.33 35.50
519 33.0200 1444.00 1384.85 36.70
520 33.0700 1383.00 1401.66 35.80
521 33.1200 1412.00 1420.03 36.20
522 33.1700 1488.00 1438.79 37.20
523 33.2200 1460.00 1456.44 36.50
524 33.2700 1524.00 1471.18 37.60
525 33.3200 1499.00 1481.17 37.30
526 33.3700 1476.00 1484.97 36.70
527 33.4200 1519.00 1481.97 37.50
528 33.4700 1460.00 1472.67 36.80
529 33.5200 1479.00 1458.13 36.70
530 33.5700 1481.00 1440.77 37.10
531 33.6200 1545.00 1425.49 37.70
532 33.6700 1431.00 1406.96 36.10
533 33.7200 1353.00 1389.76 35.30
534 33.7700 1372.00 1374.67 35.50
535 33.8200 1320.00 1362.12 34.60
536 33.8700 1432.00 1352.18 36.30
537 33.9200 1354.00 1344.71 35.30
538 33.9700 1308.00 1339.39 34.40
539 34.0200 1379.00 1335.82 35.60
540 34.0700 1310.00 1333.66 34.70
541 34.1200 1313.00 1332.54 34.40
542 34.1700 1322.00 1332.19 34.80
543 34.2200 1357.00 1332.39 35.20
544 34.2700 1349.00 1332.99 34.90
545 34.3200 1372.00 1333.94 35.40
546 34.3700 1307.00 1335.20 34.50
547 34.4200 1322.00 1336.82 34.70
548 34.4700 1346.00 1338.93 35.10
549 34.5200 1380.00 1341.74 35.40
550 34.5700 1362.00 1345.65 35.20
551 34.6200 1372.00 1351.23 35.30
552 34.6700 1341.00 1359.29 34.90
553 34.7200 1385.00 1370.95 35.40
554 34.7700 1351.00 1387.57 35.00
555 34.8200 1412.00 1410.41 35.90
556 34.8700 1422.00 1441.47 35.90
557 34.9200 1458.00 1481.66 36.50
558 34.9700 1535.00 1531.45 37.40
559 35.0200 1576.00 1590.25 37.90
560 35.0700 1603.00 1656.10 38.30
561 35.1200 1715.00 1725.47 39.60
562 35.1700 1814.00 1793.55 40.70
563 35.2200 1943.00 1853.54 42.40
564 35.2700 1929.00 1898.69 42.00
565 35.3200 1982.00 1922.67 42.80
566 35.3700 2014.00 1921.74 43.10
567 35.4200 1975.00 1896.25 43.10
568 35.4700 1978.00 1850.53 42.80
569 35.5200 1833.00 1791.14 41.60
570 35.5700 1802.00 1725.03 41.20
571 35.6200 1705.00 1658.36 40.10
572 35.6700 1678.00 1595.94 39.80
573 35.7200 1549.00 1541.03 38.70
574 35.7700 1459.00 1495.38 37.10
575 35.8200 1399.00 1459.52 36.90
576 35.8700 1458.00 1432.56 37.50
577 35.9200 1468.00 1413.41 37.90
578 35.9700 1421.00 1400.55 37.20
579 36.0200 1454.00 1392.50 38.00
580 36.0700 1398.00 1387.95 37.00
581 36.1200 1384.00 1385.89 37.10
582 36.1700 1415.00 1385.58 37.50
583 36.2200 1428.00 1386.55 38.00
584 36.2700 1395.00 1388.55 37.20
585 36.3200 1407.00 1391.53 38.00
586 36.3700 1414.00 1395.61 37.80
587 36.4200 1437.00 1401.09 38.40
588 36.4700 1465.00 1408.46 38.80
589 36.5200 1479.00 1418.48 39.30
590 36.5700 1535.00 1432.12 39.70
591 36.6200 1451.00 1450.65 38.90
592 36.6700 1540.00 1475.47 40.10
593 36.7200 1575.00 1508.01 40.60
594 36.7700 1612.00 1549.63 41.00
595 36.8200 1669.00 1601.10 42.00
596 36.8700 1678.00 1662.40 41.90
597 36.9200 1841.00 1732.41 44.00
598 36.9700 1802.00 1808.69 43.70
599 37.0200 1910.00 1887.30 44.80
600 37.0700 1902.00 1962.92 44.80
601 37.1200 2030.00 2029.06 46.20
602 37.1700 2013.00 2078.72 46.00
603 37.2200 2037.00 2105.87 46.00
604 37.2700 2039.00 2107.36 46.30
605 37.3200 2138.00 2084.44 47.10
606 37.3700 2041.00 2042.11 46.00
607 37.4200 1994.00 1987.52 45.40
608 37.4700 1904.00 1928.35 44.50
609 37.5200 1845.00 1871.92 43.30
610 37.5700 1848.00 1825.30 43.70
611 37.6200 1843.00 1795.74 43.10
612 37.6700 1818.00 1791.56 43.00
613 37.7200 1834.00 1823.18 42.80
614 37.7700 1838.00 1903.75 43.00
615 37.8200 2108.00 2048.99 45.60
616 37.8700 2276.00 2275.38 47.70
617 37.9200 2606.00 2596.67 50.50
618 37.9700 2976.00 3018.79 54.30
619 38.0200 3416.00 3534.27 57.90
620 38.0700 4000.00 4118.15 62.60
621 38.1200 4377.00 4726.06 65.10
622 38.1700 4948.00 5296.69 69.60
623 38.2200 5411.00 5758.96 71.80
624 38.2700 5922.00 6044.86 75.70
625 38.3200 6049.00 6110.05 76.30
626 38.3700 5985.00 5953.86 75.50
627 38.4200 5771.00 5623.83 74.10
628 38.4700 5417.00 5201.43 72.20
629 38.5200 4925.00 4782.43 67.90
630 38.5700 4765.00 4461.87 67.40
631 38.6200 4620.00 4323.39 65.90
632 38.6700 4712.00 4430.53 66.40
633 38.7200 5142.00 4819.02 69.30
634 38.7700 5747.00 5490.08 73.50
635 38.8200 6659.00 6405.88 78.60
636 38.8700 7648.00 7488.63 84.50
637 38.9200 8605.00 8623.95 90.00
638 38.9700 9441.00 9671.40 93.60
639 39.0200 10220.00 10482.00 97.40
640 39.0700 10886.00 10930.60 101.20
641 39.1200 10961.00 10959.50 100.40
642 39.1700 10873.00 10611.80 100.40
643 39.2200 10272.00 10022.50 97.50
644 39.2700 9374.00 9376.25 92.80
645 39.3200 8854.00 8861.13 90.20
646 39.3700 8472.00 8633.60 88.50
647 39.4200 8504.00 8792.45 88.20
648 39.4700 9191.00 9361.26 91.90
649 39.5200 9907.00 10281.60 95.60
650 39.5700 11113.00 11419.70 100.80
651 39.6200 12192.00 12585.20 105.60
652 39.6700 13321.00 13563.30 110.80
653 39.7200 13826.00 14159.60 112.20
654 39.7700 14312.00 14249.10 114.50
655 39.8200 13892.00 13801.40 113.60
656 39.8700 12867.00 12871.30 108.20
657 39.9200 11460.00 11575.90 103.30
658 39.9700 10055.00 10070.10 96.60
659 40.0200 8112.00 8515.13 86.10
660 40.0700 6663.00 7045.52 78.80
661 40.1200 5505.00 5752.42 71.40
662 40.1700 4380.00 4682.00 63.30
663 40.2200 3714.00 3842.58 58.80
664 40.2700 3214.00 3215.84 54.60
665 40.3200 2825.00 2768.04 51.20
666 40.3700 2555.00 2459.46 48.70
667 40.4200 2310.00 2252.98 46.70
668 40.4700 2137.00 2111.92 44.60
669 40.5200 2035.00 2012.24 43.90
670 40.5700 1898.00 1936.26 42.30
671 40.6200 1794.00 1873.28 41.10
672 40.6700 1761.00 1817.66 40.80
673 40.7200 1673.00 1766.97 39.80
674 40.7700 1630.00 1720.46 39.20
675 40.8200 1673.00 1678.44 39.90
676 40.8700 1568.00 1641.25 38.60
677 40.9200 1556.00 1609.28 38.60
678 40.9700 1577.00 1582.67 38.70
679 41.0200 1591.00 1561.32 39.00
680 41.0700 1535.00 1544.86 38.30
681 41.1200 1586.00 1532.74 38.80
682 41.1700 1492.00 1524.30 37.80
683 41.2200 1658.00 1518.80 40.10
684 41.2700 1736.00 1515.48 40.60
685 41.3200 1658.00 1514.91 40.10
686 41.3700 1635.00 1513.73 39.80
687 41.4200 1672.00 1512.56 40.30
688 41.4700 1620.00 1510.79 39.60
689 41.5200 1700.00 1508.01 40.90
690 41.5700 1579.00 1504.03 39.10
691 41.6200 1636.00 1498.95 39.70
692 41.6700 1609.00 1493.03 39.80
693 41.7200 1512.00 1486.63 38.30
694 41.7700 1452.00 1480.10 37.50
695 41.8200 1549.00 1473.75 39.20
696 41.8700 1498.00 1467.83 38.10
697 41.9200 1448.00 1462.50 37.70
698 41.9700 1428.00 1457.88 37.60
699 42.0200 1418.00 1454.02 37.20
700 42.0700 1412.00 1451.26 37.20
701 42.1200 1491.00 1448.87 38.20
702 42.1700 1480.00 1447.13 38.00
703 42.2200 1488.00 1445.97 38.40
704 42.2700 1430.00 1445.34 37.50
705 42.3200 1416.00 1445.16 37.60
706 42.3700 1405.00 1445.19 37.30
707 42.4200 1419.00 1445.83 37.60
708 42.4700 1415.00 1446.86 37.60
709 42.5200 1439.00 1448.33 38.00
710 42.5700 1455.00 1450.34 38.10
711 42.6200 1464.00 1453.01 38.40
712 42.6700 1424.00 1456.59 37.80
713 42.7200 1504.00 1461.41 38.70
714 42.7700 1461.00 1467.91 38.40
715 42.8200 1544.00 1476.73 39.60
716 42.8700 1531.00 1488.60 39.10
717 42.9200 1504.00 1504.42 39.30
718 42.9700 1526.00 1525.17 39.40
719 43.0200 1555.00 1551.82 39.50
720 43.0700 1565.00 1585.82 40.00
721 43.1200 1510.00 1626.65 39.20
722 43.1700 1656.00 1675.04 40.80
723 43.2200 1715.00 1730.57 42.20
724 43.2700 1740.00 1792.04 42.10
725 43.3200 1830.00 1857.42 43.30
726 43.3700 1931.00 1923.69 44.80
727 43.4200 1911.00 1986.90 44.20
728 43.4700 1971.00 2042.28 45.00
729 43.5200 2002.00 2084.57 45.40
730 43.5700 2109.00 2108.97 46.50
731 43.6200 2073.00 2112.31 45.60
732 43.6700 2012.00 2094.18 45.50
733 43.7200 2155.00 2057.09 46.70
734 43.7700 2004.00 2005.56 44.90
735 43.8200 1886.00 1944.83 43.70
736 43.8700 1878.00 1879.88 43.60
737 43.9200 1790.00 1814.91 42.10
738 43.9700 1694.00 1753.16 41.40
739 44.0200 1624.00 1696.95 40.20
740 44.0700 1616.00 1647.68 40.00
741 44.1200 1561.00 1605.95 39.40
742 44.1700 1557.00 1571.72 39.40
743 44.2200 1502.00 1544.48 38.30
744 44.2700 1432.00 1523.38 37.80
745 44.3200 1419.00 1507.48 37.40
746 44.3700 1428.00 1495.77 37.40
747 44.4200 1448.00 1487.35 37.70
748 44.4700 1509.00 1481.43 38.60
749 44.5200 1434.00 1477.38 37.20
750 44.5700 1465.00 1473.69 37.90
751 44.6200 1508.00 1471.77 38.20
752 44.6700 1452.00 1470.86 37.40
753 44.7200 1455.00 1470.51 37.60
754 44.7700 1457.00 1470.59 37.50
755 44.8200 1486.00 1471.03 37.80
756 44.8700 1493.00 1471.77 38.10
757 44.9200 1505.00 1472.78 38.10
758 44.9700 1508.00 1474.05 38.10
759 45.0200 1494.00 1475.56 37.80
760 45.0700 1487.00 1477.33 37.90
761 45.1200 1550.00 1479.48 38.50
762 45.1700 1465.00 1481.79 37.50
763 45.2200 1483.00 1484.39 37.70
764 45.2700 1500.00 1487.31 37.90
765 45.3200 1505.00 1490.60 38.00
766 45.3700 1496.00 1494.28 37.90
767 45.4200 1524.00 1496.08 38.20
768 45.4700 1558.00 1500.77 38.70
769 45.5200 1428.00 1506.06 37.00
770 45.5700 1471.00 1512.12 37.50
771 45.6200 1477.00 1519.14 37.60
772 45.6700 1533.00 1527.46 38.40
773 45.7200 1536.00 1537.70 38.40
774 45.7700 1594.00 1551.00 39.10
775 45.8200 1565.00 1569.40 38.90
776 45.8700 1571.00 1594.69 38.90
777 45.9200 1641.00 1636.01 39.90
778 45.9700 1709.00 1700.37 40.70
779 46.0200 1706.00 1799.97 40.50
780 46.0700 1808.00 1950.39 41.90
781 46.1200 2012.00 2169.09 44.20
782 46.1700 2310.00 2472.28 47.20
783 46.2200 2720.00 2870.32 51.40
784 46.2700 3279.00 3362.43 56.40
785 46.3200 3821.00 3930.29 60.90
786 46.3700 4204.00 4535.65 63.90
787 46.4200 4944.00 5124.82 69.60
788 46.4700 5489.00 5624.54 73.00
789 46.5200 5945.00 5958.46 76.20
790 46.5700 6178.00 6067.25 77.80
791 46.6200 6222.00 5934.31 77.90
792 46.6700 5755.00 5595.43 74.90
793 46.7200 5350.00 5121.63 72.00
794 46.7700 4587.00 4594.02 66.90
795 46.8200 4174.00 4086.69 63.80
796 46.8700 3720.00 3659.19 60.00
797 46.9200 3572.00 3354.00 59.00
798 46.9700 3413.00 3196.54 57.60
799 47.0200 3368.00 3196.80 57.20
800 47.0700 3572.00 3351.05 59.00
801 47.1200 3862.00 3642.39 61.10
802 47.1700 4310.00 4039.92 64.70
803 47.2200 4555.00 4498.02 66.40
804 47.2700 4963.00 4956.47 69.20
805 47.3200 5198.00 5344.03 71.10
806 47.3700 5482.00 5587.40 72.80
807 47.4200 5726.00 5629.66 74.50
808 47.4700 5509.00 5453.71 73.20
809 47.5200 5178.00 5090.34 70.50
810 47.5700 4752.00 4601.87 67.90
811 47.6200 4086.00 4058.02 62.80
812 47.6700 3480.00 3519.67 57.70
813 47.7200 2947.00 3031.89 53.00
814 47.7700 2439.00 2621.69 48.50
815 47.8200 2273.00 2298.81 46.50
816 47.8700 2113.00 2059.76 44.90
817 47.9200 1951.00 1892.61 43.50
818 47.9700 1785.00 1781.96 41.20
819 48.0200 1745.00 1712.84 40.90
820 48.0700 1627.00 1672.95 39.70
821 48.1200 1666.00 1653.58 39.60
822 48.1700 1660.00 1649.49 39.90
823 48.2200 1607.00 1658.34 39.30
824 48.2700 1640.00 1679.85 39.30
825 48.3200 1596.00 1714.88 39.30
826 48.3700 1677.00 1764.61 40.20
827 48.4200 1772.00 1829.65 41.20
828 48.4700 1944.00 1909.37 43.40
829 48.5200 2020.00 2001.09 44.10
830 48.5700 2179.00 2100.41 45.70
831 48.6200 2289.00 2200.36 47.30
832 48.6700 2489.00 2292.40 48.90
833 48.7200 2647.00 2367.48 50.80
834 48.7700 2744.00 2418.78 51.80
835 48.8200 2758.00 2445.49 51.90
836 48.8700 2700.00 2455.08 51.30
837 48.9200 2609.00 2461.40 51.20
838 48.9700 2630.00 2479.83 50.70
839 49.0200 2597.00 2522.54 50.90
840 49.0700 2783.00 2595.43 52.90
841 49.1200 2840.00 2696.31 53.10
842 49.1700 2952.00 2816.77 54.30
843 49.2200 3141.00 2933.14 56.50
844 49.2700 3301.00 3023.03 57.30
845 49.3200 3446.00 3061.10 59.10
846 49.3700 3358.00 3030.26 58.40
847 49.4200 3215.00 2929.60 56.90
848 49.4700 3002.00 2773.93 55.20
849 49.5200 2794.00 2585.93 53.40
850 49.5700 2480.00 2388.16 50.00
851 49.6200 2307.00 2199.14 48.40
852 49.6700 2054.00 2031.73 45.80
853 49.7200 1892.00 1892.87 43.70
854 49.7700 1779.00 1784.34 42.50
855 49.8200 1758.00 1703.90 42.20
856 49.8700 1594.00 1647.09 40.10
857 49.9200 1551.00 1608.53 39.60
858 49.9700 1574.00 1583.13 40.00
859 50.0200 1512.00 1566.64 38.80
860 50.0700 1512.00 1555.91 39.10
861 50.1200 1545.00 1548.76 39.20
862 50.1700 1493.00 1543.80 38.60
863 50.2200 1520.00 1540.19 38.90
864 50.2700 1485.00 1537.44 38.50
865 50.3200 1463.00 1535.30 37.80
866 50.3700 1455.00 1533.59 38.10
867 50.4200 1490.00 1532.23 38.20
868 50.4700 1534.00 1531.16 38.70
869 50.5200 1497.00 1530.35 38.10
870 50.5700 1460.00 1529.77 37.80
871 50.6200 1469.00 1529.38 37.40
872 50.6700 1443.00 1529.18 37.40
873 50.7200 1461.00 1529.15 37.30
874 50.7700 1468.00 1529.27 37.40
875 50.8200 1508.00 1529.54 37.90
876 50.8700 1394.00 1529.92 36.40
877 50.9200 1487.00 1530.43 37.40
878 50.9700 1528.00 1531.04 38.10
879 51.0200 1433.00 1531.75 36.60
880 51.0700 1468.00 1532.54 37.20
881 51.1200 1491.00 1533.42 37.30
882 51.1700 1426.00 1534.39 36.50
883 51.2200 1554.00 1535.47 38.00
884 51.2700 1446.00 1536.70 36.70
885 51.3200 1576.00 1538.18 38.20
886 51.3700 1507.00 1540.06 37.40
887 51.4200 1510.00 1542.55 37.40
888 51.4700 1581.00 1545.90 38.20
889 51.5200 1563.00 1550.71 38.00
890 51.5700 1620.00 1557.44 38.70
891 51.6200 1665.00 1566.71 39.10
892 51.6700 1703.00 1579.14 39.70
893 51.7200 1709.00 1595.24 39.70
894 51.7700 1743.00 1615.32 40.00
895 51.8200 1800.00 1647.88 40.80
896 51.8700 1883.00 1675.26 41.70
897 51.9200 1892.00 1704.66 41.80
898 51.9700 1881.00 1734.18 41.70
899 52.0200 1787.00 1761.22 40.60
900 52.0700 1901.00 1782.45 41.90
901 52.1200 1845.00 1795.24 41.30
902 52.1700 1920.00 1797.27 42.10
903 52.2200 1766.00 1788.36 40.40
904 52.2700 1753.00 1770.32 40.20
905 52.3200 1777.00 1746.17 40.50
906 52.3700 1689.00 1719.07 39.50
907 52.4200 1682.00 1691.72 39.50
908 52.4700 1574.00 1666.18 38.10
909 52.5200 1533.00 1643.84 37.60
910 52.5700 1584.00 1625.45 38.40
911 52.6200 1566.00 1611.25 38.00
912 52.6700 1573.00 1601.05 38.10
913 52.7200 1527.00 1594.45 37.70
914 52.7700 1499.00 1589.49 37.10
915 52.8200 1510.00 1588.45 37.30
916 52.8700 1481.00 1589.41 37.10
917 52.9200 1538.00 1591.97 37.60
918 52.9700 1523.00 1595.83 37.50
919 53.0200 1504.00 1600.78 37.30
920 53.0700 1555.00 1606.71 37.80
921 53.1200 1491.00 1613.62 36.90
922 53.1700 1501.00 1621.64 37.30
923 53.2200 1546.00 1631.09 37.60
924 53.2700 1485.00 1642.55 36.90
925 53.3200 1550.00 1656.84 37.90
926 53.3700 1546.00 1674.89 37.60
927 53.4200 1608.00 1697.61 38.30
928 53.4700 1562.00 1725.70 38.00
929 53.5200 1607.00 1759.58 38.30
930 53.5700 1695.00 1797.90 39.30
931 53.6200 1797.00 1842.66 40.60
932 53.6700 1730.00 1891.34 39.80
933 53.7200 1810.00 1941.99 40.50
934 53.7700 1909.00 1991.93 41.90
935 53.8200 1983.00 2037.75 42.50
936 53.8700 2025.00 2075.53 42.80
937 53.9200 2002.00 2101.32 42.70
938 53.9700 1959.00 2112.14 42.30
939 54.0200 2020.00 2106.92 42.80
940 54.0700 1930.00 2086.92 42.00
941 54.1200 1898.00 2055.26 41.60
942 54.1700 1823.00 2015.94 40.70
943 54.2200 1808.00 1972.86 40.70
944 54.2700 1779.00 1929.41 40.30
945 54.3200 1797.00 1888.29 40.70
946 54.3700 1695.00 1851.44 39.50
947 54.4200 1784.00 1820.19 40.70
948 54.4700 1734.00 1795.27 40.00
949 54.5200 1770.00 1777.03 40.40
950 54.5700 1775.00 1765.48 40.60
951 54.6200 1661.00 1760.91 39.40
952 54.6700 1723.00 1762.91 39.90
953 54.7200 1811.00 1772.56 41.30
954 54.7700 1850.00 1791.68 41.60
955 54.8200 1883.00 1824.68 42.00
956 54.8700 1887.00 1875.82 42.10
957 54.9200 1928.00 1954.95 43.00
958 54.9700 1990.00 2074.47 43.20
959 55.0200 2190.00 2249.66 45.80
960 55.0700 2329.00 2497.90 47.20
961 55.1200 2645.00 2832.86 50.50
962 55.1700 3115.00 3264.23 54.70
963 55.2200 3521.00 3790.34 58.80
964 55.2700 4209.00 4393.71 63.70
965 55.3200 4778.00 5038.78 68.80
966 55.3700 5546.00 5669.38 73.70
967 55.4200 6256.00 6211.09 78.60
968 55.4700 6634.00 6579.57 81.00
969 55.5200 6894.00 6703.34 83.10
970 55.5700 6865.00 6555.56 82.40
971 55.6200 6286.00 6170.27 79.40
972 55.6700 5698.00 5621.31 75.50
973 55.7200 4922.00 4993.73 70.60
974 55.7700 4192.00 4359.73 64.90
975 55.8200 3625.00 3772.96 60.80
976 55.8700 3026.00 3266.96 55.30
977 55.9200 2770.00 2857.04 53.10
978 55.9700 2596.00 2543.53 51.40
979 56.0200 2318.00 2316.47 48.80
980 56.0700 2275.00 2160.54 48.10
981 56.1200 2058.00 2059.15 45.90
982 56.1700 1999.00 1997.27 45.30
983 56.2200 1991.00 1962.85 45.00
984 56.2700 1965.00 1947.15 44.90
985 56.3200 1934.00 1944.29 44.40
986 56.3700 1882.00 1950.65 43.70
987 56.4200 1929.00 1964.21 44.40
988 56.4700 1848.00 1984.01 43.40
989 56.5200 1853.00 2009.93 43.20
990 56.5700 1978.00 2043.12 44.90
991 56.6200 1996.00 2085.07 44.70
992 56.6700 2035.00 2141.30 45.30
993 56.7200 2164.00 2222.45 46.60
994 56.7700 2174.00 2349.08 46.70
995 56.8200 2350.00 2557.88 48.40
996 56.8700 2608.00 2908.73 51.20
997 56.9200 3220.00 3490.40 56.40
998 56.9700 3989.00 4420.36 63.10
999 57.0200 5397.00 5831.79 72.90
1000 57.0700 7342.00 7844.94 85.10
1001 57.1200 10246.00 10522.70 100.50
1002 57.1700 13502.00 13818.30 115.40
1003 57.2200 17284.00 17533.50 129.80
1004 57.2700 21026.00 21300.30 143.90
1005 57.3200 24855.00 24601.80 156.00
1006 57.3700 27486.00 26844.40 163.70
1007 57.4200 29218.00 27528.60 169.10
1008 57.4700 28799.00 26483.80 167.90
1009 57.5200 26068.00 23972.80 159.10
1010 57.5700 22051.00 20532.60 146.90
1011 57.6200 16855.00 16752.10 127.90
1012 57.6700 12523.00 13118.10 110.30
1013 57.7200 9226.00 9959.02 94.40
1014 57.7700 6810.00 7436.75 81.30
1015 57.8200 5173.00 5567.87 70.80
1016 57.8700 4306.00 4272.75 64.50
1017 57.9200 3588.00 3424.89 58.90
1018 57.9700 3067.00 2893.55 54.50
1019 58.0200 2763.00 2568.48 51.50
1020 58.0700 2373.00 2368.70 47.90
1021 58.1200 2171.00 2240.94 45.80
1022 58.1700 2053.00 2153.32 44.40
1023 58.2200 1929.00 2088.14 43.10
1024 58.2700 1833.00 2036.19 42.10
1025 58.3200 1804.00 1992.80 41.60
1026 58.3700 1750.00 1955.60 41.00
1027 58.4200 1742.00 1923.34 40.90
1028 58.4700 1785.00 1895.73 41.40
1029 58.5200 1691.00 1871.18 40.10
1030 58.5700 1693.00 1849.73 40.30
1031 58.6200 1698.00 1831.00 40.10
1032 58.6700 1586.00 1814.67 38.80
1033 58.7200 1685.00 1800.82 39.90
1034 58.7700 1681.00 1788.51 39.90
1035 58.8200 1547.00 1777.88 38.00
1036 58.8700 1663.00 1768.76 39.60
1037 58.9200 1553.00 1760.99 38.20
1038 58.9700 1581.00 1754.47 38.40
1039 59.0200 1656.00 1749.07 39.40
1040 59.0700 1646.00 1744.71 39.40
1041 59.1200 1695.00 1741.32 39.50
1042 59.1700 1624.00 1738.87 39.00
1043 59.2200 1622.00 1737.22 38.90
1044 59.2700 1610.00 1736.64 38.50
1045 59.3200 1616.00 1737.10 38.70
1046 59.3700 1611.00 1738.78 38.80
1047 59.4200 1669.00 1742.06 39.20
1048 59.4700 1695.00 1747.66 39.60
1049 59.5200 1658.00 1756.85 39.10
1050 59.5700 1635.00 1772.45 38.80
1051 59.6200 1688.00 1796.71 39.30
1052 59.6700 1776.00 1835.32 40.50
1053 59.7200 1796.00 1895.14 40.50
1054 59.7700 1864.00 1984.38 41.30
1055 59.8200 2067.00 2111.79 43.70
1056 59.8700 2176.00 2285.14 44.60
1057 59.9200 2486.00 2509.18 47.90
1058 59.9700 2750.00 2783.40 50.40
1059 60.0200 2919.00 3099.46 51.70
1060 60.0700 3333.00 3439.93 55.40
1061 60.1200 3739.00 3779.98 58.60
1062 60.1700 4092.00 4093.74 61.20
1063 60.2200 4339.00 4356.86 63.10
1064 60.2700 4450.00 4543.87 64.00
1065 60.3200 4689.00 4628.97 65.90
1066 60.3700 4796.00 4599.08 66.30
1067 60.4200 4459.00 4463.40 64.20
1068 60.4700 4258.00 4244.71 62.80
1069 60.5200 3982.00 3965.32 60.60
1070 60.5700 3669.00 3645.80 58.30
1071 60.6200 3266.00 3310.42 54.90
1072 60.6700 2891.00 2985.99 51.60
1073 60.7200 2662.00 2694.74 49.50
1074 60.7700 2401.00 2449.88 47.10
1075 60.8200 2244.00 2255.84 45.80
1076 60.8700 2106.00 2110.60 44.00
1077 60.9200 1971.00 2007.64 42.90
1078 60.9700 2015.00 1938.57 43.40
1079 61.0200 1847.00 1894.82 41.30
1080 61.0700 1867.00 1869.07 41.80
1081 61.1200 1882.00 1855.93 42.00
1082 61.1700 1752.00 1851.76 40.30
1083 61.2200 1861.00 1854.30 41.90
1084 61.2700 1863.00 1862.08 41.90
1085 61.3200 1831.00 1873.95 41.30
1086 61.3700 1850.00 1888.77 41.80
1087 61.4200 1860.00 1905.18 42.30
1088 61.4700 1875.00 1921.60 41.80
1089 61.5200 1912.00 1936.08 42.70
1090 61.5700 1950.00 1946.99 43.30
1091 61.6200 1907.00 1953.38 42.40
1092 61.6700 2006.00 1955.40 43.70
1093 61.7200 2033.00 1954.28 44.60
1094 61.7700 2003.00 1951.84 43.50
1095 61.8200 1913.00 1950.21 43.10
1096 61.8700 1945.00 1951.21 43.60
1097 61.9200 1975.00 1954.67 43.70
1098 61.9700 1885.00 1967.55 42.90
1099 62.0200 1923.00 1989.91 43.60
1100 62.0700 1966.00 2024.25 43.60
1101 62.1200 2035.00 2072.79 44.80
1102 62.1700 2116.00 2136.68 45.80
1103 62.2200 2249.00 2215.14 47.10
1104 62.2700 2304.00 2304.36 47.70
1105 62.3200 2430.00 2396.93 49.50
1106 62.3700 2559.00 2481.25 50.30
1107 62.4200 2623.00 2543.88 51.20
1108 62.4700 2754.00 2571.63 52.70
1109 62.5200 2663.00 2559.76 51.60
1110 62.5700 2687.00 2516.63 51.80
1111 62.6200 2574.00 2461.16 50.80
1112 62.6700 2498.00 2416.29 50.00
1113 62.7200 2349.00 2404.43 48.30
1114 62.7700 2339.00 2445.00 48.40
1115 62.8200 2559.00 2552.13 50.50
1116 62.8700 2695.00 2732.01 51.70
1117 62.9200 2829.00 2980.08 53.00
1118 62.9700 3170.00 3278.89 56.20
1119 63.0200 3449.00 3592.63 57.90
1120 63.0700 3680.00 3882.88 60.50
1121 63.1200 4016.00 4100.71 62.50
1122 63.1700 4138.00 4197.30 63.40
1123 63.2200 4060.00 4154.28 62.60
1124 63.2700 3909.00 3986.67 61.70
1125 63.3200 3637.00 3731.04 58.70
1126 63.3700 3316.00 3431.03 56.60
1127 63.4200 2999.00 3128.01 53.30
1128 63.4700 2761.00 2854.71 51.10
1129 63.5200 2502.00 2632.41 48.30
1130 63.5700 2306.00 2470.97 46.80
1131 63.6200 2263.00 2371.09 45.60
1132 63.6700 2236.00 2326.76 45.70
1133 63.7200 2309.00 2329.45 46.10
1134 63.7700 2351.00 2362.36 46.50
1135 63.8200 2417.00 2413.03 47.00
1136 63.8700 2562.00 2468.59 48.60
1137 63.9200 2671.00 2521.68 49.00
1138 63.9700 2564.00 2572.13 48.30
1139 64.0200 2650.00 2623.28 48.90
1140 64.0700 2693.00 2676.72 49.20
1141 64.1200 2755.00 2728.77 49.60
1142 64.1700 2819.00 2772.98 50.50
1143 64.2200 2834.00 2803.48 50.20
1144 64.2700 2776.00 2817.42 49.80
1145 64.3200 2849.00 2812.40 50.50
1146 64.3700 2755.00 2783.00 49.50
1147 64.4200 2607.00 2722.13 48.10
1148 64.4700 2633.00 2627.51 48.50
1149 64.5200 2486.00 2506.54 47.00
1150 64.5700 2317.00 2373.33 45.30
1151 64.6200 2201.00 2242.12 44.20
1152 64.6700 2091.00 2123.48 43.10
1153 64.7200 1912.00 2023.58 41.20
1154 64.7700 1841.00 1944.78 40.40
1155 64.8200 1838.00 1886.39 40.40
1156 64.8700 1780.00 1845.81 39.70
1157 64.9200 1766.00 1819.57 39.80
1158 64.9700 1787.00 1804.20 39.80
1159 65.0200 1740.00 1796.88 39.30
1160 65.0700 1873.00 1795.81 41.00
1161 65.1200 1801.00 1800.23 40.10
1162 65.1700 1786.00 1810.55 39.90
1163 65.2200 1827.00 1829.69 40.60
1164 65.2700 1845.00 1857.42 40.60
1165 65.3200 1898.00 1898.61 41.20
1166 65.3700 1884.00 1957.22 41.20
1167 65.4200 2025.00 2036.99 42.80
1168 65.4700 2095.00 2140.43 43.30
1169 65.5200 2186.00 2267.46 44.60
1170 65.5700 2333.00 2414.36 46.00
1171 65.6200 2498.00 2572.52 47.50
1172 65.6700 2611.00 2727.40 48.70
1173 65.7200 2743.00 2859.87 50.00
1174 65.7700 2967.00 2952.00 51.70
1175 65.8200 3051.00 2977.33 53.10
1176 65.8700 3107.00 2935.86 53.20
1177 65.9200 2948.00 2839.03 51.80
1178 65.9700 2747.00 2703.87 50.40
1179 66.0200 2544.00 2549.61 48.30
1180 66.0700 2414.00 2393.16 46.90
1181 66.1200 2190.00 2248.52 44.90
1182 66.1700 2041.00 2123.79 43.30
1183 66.2200 1931.00 2022.66 42.00
1184 66.2700 1950.00 1945.35 42.40
1185 66.3200 1818.00 1889.84 41.00
1186 66.3700 1798.00 1852.85 40.60
1187 66.4200 1787.00 1830.93 40.60
1188 66.4700 1752.00 1820.98 40.20
1189 66.5200 1742.00 1820.39 40.00
1190 66.5700 1793.00 1826.92 40.70
1191 66.6200 1780.00 1838.46 40.50
1192 66.6700 1804.00 1852.70 40.70
1193 66.7200 1718.00 1866.95 39.90
1194 66.7700 1825.00 1878.02 41.00
1195 66.8200 1861.00 1884.76 41.50
1196 66.8700 1747.00 1881.34 40.20
1197 66.9200 1756.00 1870.08 40.30
1198 66.9700 1819.00 1853.32 41.10
1199 67.0200 1797.00 1834.00 40.60
1200 67.0700 1770.00 1814.64 40.40
1201 67.1200 1720.00 1797.04 39.90
1202 67.1700 1689.00 1784.76 39.40
1203 67.2200 1726.00 1773.26 40.10
1204 67.2700 1670.00 1764.96 39.30
1205 67.3200 1733.00 1759.48 40.20
1206 67.3700 1746.00 1756.33 40.30
1207 67.4200 1771.00 1755.06 40.80
1208 67.4700 1846.00 1755.29 41.40
1209 67.5200 1752.00 1756.79 40.80
1210 67.5700 1856.00 1759.46 41.80
1211 67.6200 1837.00 1763.27 41.70
1212 67.6700 1833.00 1768.25 41.70
1213 67.7200 1879.00 1774.38 42.30
1214 67.7700 1973.00 1781.61 43.20
1215 67.8200 1896.00 1789.74 42.70
1216 67.8700 1943.00 1798.48 43.00
1217 67.9200 1976.00 1807.33 43.90
1218 67.9700 1991.00 1815.66 43.80
1219 68.0200 1924.00 1822.80 43.30
1220 68.0700 1909.00 1828.25 43.10
1221 68.1200 1913.00 1831.91 43.30
1222 68.1700 1919.00 1834.23 43.20
1223 68.2200 1998.00 1835.94 44.80
1224 68.2700 1927.00 1837.94 43.50
1225 68.3200 1889.00 1841.07 43.50
1226 68.3700 1842.00 1846.14 43.00
1227 68.4200 1866.00 1853.45 43.20
1228 68.4700 1844.00 1864.23 43.00
1229 68.5200 1934.00 1878.68 44.40
1230 68.5700 1930.00 1897.20 44.00
1231 68.6200 1883.00 1920.37 43.70
1232 68.6700 1942.00 1949.23 44.50
1233 68.7200 1995.00 1985.75 44.80
1234 68.7700 2044.00 2033.44 45.50
1235 68.8200 2053.00 2098.13 46.00
1236 68.8700 2142.00 2187.76 46.40
1237 68.9200 2325.00 2315.74 48.70
1238 68.9700 2539.00 2494.76 51.20
1239 69.0200 2722.00 2736.79 52.40
1240 69.0700 3085.00 3047.30 56.20
1241 69.1200 3353.00 3419.67 58.50
1242 69.1700 3773.00 3830.73 61.70
1243 69.2200 4181.00 4238.07 65.10
1244 69.2700 4502.00 4579.39 67.80
1245 69.3200 4753.00 4782.07 68.80
1246 69.3700 4876.00 4791.06 70.30
1247 69.4200 4806.00 4603.49 69.10
1248 69.4700 4395.00 4270.68 66.20
1249 69.5200 4062.00 3865.56 63.40
1250 69.5700 3616.00 3452.44 60.00
1251 69.6200 3124.00 3076.90 55.00
1252 69.6700 2952.00 2765.14 54.10
1253 69.7200 2696.00 2526.90 51.10
1254 69.7700 2640.00 2359.74 50.60
1255 69.8200 2475.00 2253.81 49.10
1256 69.8700 2357.00 2196.43 47.80
1257 69.9200 2344.00 2177.06 47.20
1258 69.9700 2312.00 2187.17 47.40
1259 70.0200 2342.00 2222.67 46.90
1260 70.0700 2428.00 2283.60 48.00
1261 70.1200 2437.00 2373.90 48.10
1262 70.1700 2547.00 2500.54 48.90
1263 70.2200 2701.00 2673.37 50.10
1264 70.2700 2953.00 2900.11 53.00
1265 70.3200 3238.00 3185.32 54.80
1266 70.3700 3522.00 3523.16 57.30
1267 70.4200 3949.00 3895.58 60.80
1268 70.4700 4231.00 4271.47 62.70
1269 70.5200 4703.00 4606.50 65.80
1270 70.5700 4960.00 4847.19 68.10
1271 70.6200 5182.00 4946.45 69.20
1272 70.6700 5137.00 4897.55 68.80
1273 70.7200 5074.00 4752.38 68.50
1274 70.7700 4876.00 4597.50 67.10
1275 70.8200 4768.00 4516.37 66.30
1276 70.8700 4822.00 4567.85 66.70
1277 70.9200 4945.00 4777.44 67.60
1278 70.9700 5356.00 5134.02 70.20
1279 71.0200 5752.00 5589.53 72.60
1280 71.0700 6322.00 6064.45 76.40
1281 71.1200 6750.00 6467.60 78.50
1282 71.1700 7091.00 6739.33 80.60
1283 71.2200 7092.00 6882.49 80.90
1284 71.2700 7149.00 6939.19 80.80
1285 71.3200 7086.00 6942.64 80.70
1286 71.3700 6931.00 6891.40 79.90
1287 71.4200 6941.00 6753.88 79.70
1288 71.4700 6680.00 6496.37 78.40
1289 71.5200 6429.00 6116.31 76.90
1290 71.5700 6019.00 5649.65 74.20
1291 71.6200 5355.00 5151.83 70.00
1292 71.6700 4945.00 4678.02 67.40
1293 71.7200 4555.00 4276.60 64.40
1294 71.7700 4105.00 3988.43 61.30
1295 71.8200 4111.00 3844.57 61.60
1296 71.8700 4104.00 3861.79 61.20
1297 71.9200 4283.00 4038.12 62.70
1298 71.9700 4699.00 4348.68 65.90
1299 72.0200 5010.00 4742.91 67.40
1300 72.0700 5418.00 5143.87 70.50
1301 72.1200 5875.00 5456.25 73.50
1302 72.1700 5901.00 5590.24 73.20
1303 72.2200 5976.00 5510.73 74.00
1304 72.2700 5648.00 5271.04 72.00
1305 72.3200 5379.00 4974.06 70.00
1306 72.3700 5075.00 4720.35 68.20
1307 72.4200 4812.00 4579.93 66.60
1308 72.4700 4736.00 4583.40 65.60
1309 72.5200 4843.00 4720.25 66.40
1310 72.5700 5222.00 4941.02 69.30
1311 72.6200 5312.00 5163.55 69.50
1312 72.6700 5470.00 5288.44 70.50
1313 72.7200 5579.00 5234.64 71.80
1314 72.7700 5493.00 4983.67 70.70
1315 72.8200 4973.00 4584.93 67.40
1316 72.8700 4363.00 4116.63 63.50
1317 72.9200 3799.00 3648.25 59.10
1318 72.9700 3288.00 3227.88 54.90
1319 73.0200 2938.00 2882.34 52.10
1320 73.0700 2530.00 2620.06 48.20
1321 73.1200 2416.00 2436.10 47.00
1322 73.1700 2350.00 2317.69 46.60
1323 73.2200 2369.00 2249.18 46.90
1324 73.2700 2250.00 2215.77 45.40
1325 73.3200 2262.00 2206.32 45.80
1326 73.3700 2317.00 2208.97 46.40
1327 73.4200 2381.00 2217.61 46.90
1328 73.4700 2323.00 2226.45 46.40
1329 73.5200 2316.00 2230.81 46.60
1330 73.5700 2275.00 2227.24 45.90
1331 73.6200 2216.00 2213.98 45.30
1332 73.6700 2190.00 2191.35 45.30
1333 73.7200 2146.00 2161.31 44.80
1334 73.7700 2133.00 2126.67 44.40
1335 73.8200 2146.00 2090.25 45.00
1336 73.8700 2059.00 2054.49 43.90
1337 73.9200 2077.00 2021.33 44.10
1338 73.9700 2036.00 1992.19 43.90
1339 74.0200 1992.00 1968.10 43.10
1340 74.0700 2074.00 1949.76 44.10
1341 74.1200 2026.00 1937.57 43.80
1342 74.1700 2029.00 1931.70 43.50
1343 74.2200 2024.00 1932.12 43.90
1344 74.2700 1955.00 1938.60 43.00
1345 74.3200 2051.00 1950.74 44.30
1346 74.3700 2051.00 1968.02 44.20
1347 74.4200 2067.00 1989.41 44.70
1348 74.4700 2066.00 2013.86 44.50
1349 74.5200 2153.00 2039.87 45.80
1350 74.5700 2217.00 2065.52 46.30
1351 74.6200 2148.00 2088.46 45.70
1352 74.6700 2221.00 2106.02 46.50
1353 74.7200 2252.00 2115.71 46.90
1354 74.7700 2306.00 2115.80 47.30
1355 74.8200 2271.00 2105.98 47.50
1356 74.8700 2253.00 2087.46 46.90
1357 74.9200 2124.00 2062.50 45.70
1358 74.9700 2132.00 2033.65 46.00
1359 75.0200 2036.00 2001.63 44.80
1360 75.0700 2081.00 1971.57 45.20
1361 75.1200 1928.00 1943.21 43.90
1362 75.1700 1896.00 1917.48 43.20
1363 75.2200 1883.00 1894.93 43.20
1364 75.2700 1919.00 1875.80 43.80
1365 75.3200 1868.00 1860.04 43.20
1366 75.3700 1915.00 1847.45 43.60
1367 75.4200 1906.00 1837.67 43.60
1368 75.4700 1835.00 1830.29 42.80
1369 75.5200 1901.00 1824.88 43.30
1370 75.5700 1938.00 1821.03 43.90
1371 75.6200 1830.00 1818.36 42.40
1372 75.6700 1883.00 1816.55 43.00
1373 75.7200 1897.00 1815.33 43.20
1374 75.7700 1896.00 1814.49 43.20
1375 75.8200 1940.00 1813.86 43.40
1376 75.8700 1854.00 1813.33 42.70
1377 75.9200 1882.00 1812.81 42.80
1378 75.9700 1848.00 1812.28 42.30
1379 76.0200 1811.00 1811.69 41.80
1380 76.0700 1874.00 1809.70 42.70
1381 76.1200 1934.00 1809.02 42.90
1382 76.1700 1854.00 1808.30 42.40
1383 76.2200 1833.00 1807.58 41.90
1384 76.2700 1841.00 1806.88 41.90
1385 76.3200 1824.00 1806.26 41.60
1386 76.3700 1835.00 1805.80 42.00
1387 76.4200 1844.00 1805.53 41.70
1388 76.4700 1924.00 1805.53 42.70
1389 76.5200 1889.00 1804.25 42.30
1390 76.5700 1832.00 1804.92 41.60
1391 76.6200 1907.00 1805.98 42.20
1392 76.6700 1839.00 1807.43 41.70
1393 76.7200 1859.00 1809.29 41.60
1394 76.7700 1827.00 1811.59 41.30
1395 76.8200 1908.00 1816.60 42.40
1396 76.8700 1859.00 1819.85 41.70
1397 76.9200 1845.00 1823.66 41.40
1398 76.9700 1900.00 1828.23 42.30
1399 77.0200 1882.00 1833.93 41.80
1400 77.0700 1874.00 1841.37 41.70
1401 77.1200 1931.00 1851.50 42.40
1402 77.1700 1912.00 1865.78 42.10
1403 77.2200 1918.00 1886.30 42.20
1404 77.2700 1948.00 1916.03 42.60
1405 77.3200 2100.00 1958.78 44.40
1406 77.3700 2143.00 2018.98 44.60
1407 77.4200 2238.00 2100.80 45.60
1408 77.4700 2332.00 2206.95 46.80
1409 77.5200 2509.00 2337.10 48.40
1410 77.5700 2668.00 2484.99 49.80
1411 77.6200 2854.00 2643.79 51.70
1412 77.6700 2981.00 2793.87 52.70
1413 77.7200 3146.00 2909.35 54.00
1414 77.7700 3161.00 2959.38 54.40
1415 77.8200 3075.00 2932.43 53.70
1416 77.8700 2860.00 2834.60 51.50
1417 77.9200 2790.00 2692.75 51.20
1418 77.9700 2686.00 2535.92 50.20
1419 78.0200 2504.00 2386.11 48.20
1420 78.0700 2512.00 2256.76 48.60
1421 78.1200 2555.00 2154.29 48.90
1422 78.1700 2563.00 2079.62 48.70
1423 78.2200 2539.00 2030.13 48.90
1424 78.2700 2713.00 1999.55 50.40
1425 78.3200 2676.00 1987.22 49.90
1426 78.3700 2679.00 1987.66 50.20
1427 78.4200 2820.00 1998.89 51.50
1428 78.4700 2860.00 2024.47 51.60
1429 78.5200 2676.00 2058.86 49.90
1430 78.5700 2687.00 2109.00 50.20
1431 78.6200 2567.00 2179.29 48.70
1432 78.6700 2522.00 2274.18 48.50
1433 78.7200 2675.00 2396.74 50.00
1434 78.7700 2672.00 2546.81 49.70
1435 78.8200 2925.00 2719.31 52.20
1436 78.8700 3073.00 2902.68 53.60
1437 78.9200 3103.00 3076.93 53.70
1438 78.9700 3317.00 3214.00 55.60
1439 79.0200 3318.00 3283.22 55.60
1440 79.0700 3397.00 3266.29 56.10
1441 79.1200 3371.00 3169.66 56.10
1442 79.1700 3131.00 3019.36 54.00
1443 79.2200 2836.00 2844.98 51.20
1444 79.2700 2749.00 2670.03 50.70
1445 79.3200 2641.00 2509.66 49.70
1446 79.3700 2514.00 2371.89 48.20
1447 79.4200 2370.00 2259.19 47.20
1448 79.4700 2379.00 2170.11 47.20
1449 79.5200 2252.00 2101.19 45.70
1450 79.5700 2230.00 2048.52 45.80
1451 79.6200 2255.00 2007.59 45.90
1452 79.6700 2106.00 1975.56 44.20
1453 79.7200 2125.00 1950.12 44.90
1454 79.7700 1973.00 1929.77 42.90
1455 79.8200 2003.00 1913.63 43.30
1456 79.8700 1963.00 1901.20 43.10
1457 79.9200 1901.00 1892.24 42.20
1458 79.9700 1923.00 1886.60 42.40
1459 80.0200 1844.00 1884.09 42.00
1460 80.0700 1848.00 1884.29 41.70
1461 80.1200 1938.00 1886.91 42.60
1462 80.1700 1973.00 1891.01 43.40
1463 80.2200 1936.00 1895.41 42.80
1464 80.2700 1992.00 1898.66 43.20
1465 80.3200 1935.00 1899.43 43.20
1466 80.3700 1963.00 1897.25 43.10
1467 80.4200 1922.00 1892.76 42.90
1468 80.4700 1920.00 1887.21 43.00
1469 80.5200 1874.00 1881.76 42.40
1470 80.5700 1842.00 1877.22 42.00
1471 80.6200 1935.00 1873.98 43.40
1472 80.6700 1876.00 1872.13 42.30
1473 80.7200 1780.00 1871.54 41.70
1474 80.7700 1868.00 1871.92 42.60
1475 80.8200 1886.00 1872.88 43.10
1476 80.8700 1930.00 1883.26 43.40
1477 80.9200 1945.00 1884.61 43.90
1478 80.9700 1870.00 1885.94 42.90
1479 81.0200 1852.00 1887.46 43.00
1480 81.0700 1893.00 1889.51 43.30
1481 81.1200 1940.00 1892.47 44.00
1482 81.1700 1866.00 1896.73 43.20
1483 81.2200 1921.00 1902.73 44.00
1484 81.2700 1980.00 1911.01 44.40
1485 81.3200 1982.00 1922.43 44.80
1486 81.3700 1906.00 1938.47 43.80
1487 81.4200 2040.00 1961.75 45.40
1488 81.4700 2006.00 1996.84 45.10
1489 81.5200 2185.00 2051.07 47.00
1490 81.5700 2182.00 2135.17 46.90
1491 81.6200 2348.00 2262.89 48.70
1492 81.6700 2589.00 2448.90 51.10
1493 81.7200 2819.00 2704.77 53.50
1494 81.7700 3213.00 3033.00 57.00
1495 81.8200 3625.00 3420.92 60.50
1496 81.8700 3943.00 3834.01 63.30
1497 81.9200 4375.00 4211.54 66.00
1498 81.9700 4546.00 4468.18 67.70
1499 82.0200 4656.00 4525.17 68.20
1500 82.0700 4533.00 4366.18 67.10
1501 82.1200 3946.00 4052.02 62.40
1502 82.1700 3599.00 3672.19 59.90
1503 82.2200 3238.00 3299.65 56.20
1504 82.2700 2824.00 2979.62 52.80
1505 82.3200 2657.00 2733.06 51.00
1506 82.3700 2514.00 2562.67 49.50
1507 82.4200 2464.00 2458.99 48.80
1508 82.4700 2411.00 2406.40 48.60
1509 82.5200 2464.00 2388.01 48.40
1510 82.5700 2505.00 2388.40 49.20
1511 82.6200 2513.00 2394.78 49.00
1512 82.6700 2426.00 2397.48 48.00
1513 82.7200 2360.00 2390.38 47.10
1514 82.7700 2391.00 2371.31 47.80
1515 82.8200 2318.00 2341.60 46.60
1516 82.8700 2228.00 2304.78 45.80
1517 82.9200 2259.00 2264.90 46.10
1518 82.9700 2170.00 2225.70 45.10
1519 83.0200 2104.00 2189.83 44.20
1520 83.0700 2106.00 2160.69 44.50
1521 83.1200 2064.00 2137.24 43.70
1522 83.1700 2091.00 2121.58 44.00
1523 83.2200 2154.00 2115.74 44.80
1524 83.2700 2133.00 2119.27 44.40
1525 83.3200 2204.00 2134.92 45.10
1526 83.3700 2330.00 2166.48 46.60
1527 83.4200 2391.00 2219.71 46.90
1528 83.4700 2433.00 2306.50 47.40
1529 83.5200 2558.00 2440.77 48.60
1530 83.5700 2776.00 2640.98 50.50
1531 83.6200 3157.00 2926.57 53.90
1532 83.6700 3416.00 3314.15 56.20
1533 83.7200 3896.00 3807.29 59.90
1534 83.7700 4600.00 4395.42 65.10
1535 83.8200 5130.00 5036.62 68.80
1536 83.8700 5811.00 5658.91 73.20
1537 83.9200 6259.00 6150.86 76.10
1538 83.9700 6544.00 6386.71 77.70
1539 84.0200 6374.00 6293.66 76.40
1540 84.0700 6118.00 5908.76 75.30
1541 84.1200 5391.00 5348.56 70.20
1542 84.1700 4720.00 4734.37 65.80
1543 84.2200 4039.00 4153.05 61.00
1544 84.2700 3628.00 3654.81 57.60
1545 84.3200 3361.00 3260.72 55.60
1546 84.3700 3024.00 2971.46 52.80
1547 84.4200 2910.00 2774.97 51.50
1548 84.4700 2745.00 2653.36 50.20
1549 84.5200 2581.00 2588.42 48.60
1550 84.5700 2500.00 2564.05 47.70
1551 84.6200 2538.00 2568.88 48.10
1552 84.6700 2434.00 2586.26 47.20
1553 84.7200 2526.00 2606.19 47.90
1554 84.7700 2481.00 2617.52 47.50
1555 84.8200 2490.00 2614.27 47.60
1556 84.8700 2578.00 2602.40 48.40
1557 84.9200 2514.00 2591.78 47.70
1558 84.9700 2426.00 2595.00 47.00
1559 85.0200 2519.00 2626.93 47.80
1560 85.0700 2615.00 2709.00 48.70
1561 85.1200 2748.00 2875.29 49.90
1562 85.1700 3213.00 3177.83 54.00
1563 85.2200 3820.00 3687.67 59.00
1564 85.2700 4654.00 4484.63 65.00
1565 85.3200 6016.00 5633.28 73.90
1566 85.3700 7707.00 7144.58 83.80
1567 85.4200 9550.00 8935.26 93.20
1568 85.4700 11657.00 10788.40 102.90
1569 85.5200 13314.00 12326.90 109.70
1570 85.5700 14086.00 13082.20 113.20
1571 85.6200 13697.00 12774.90 111.20
1572 85.6700 12129.00 11578.00 104.80
1573 85.7200 10232.00 9946.29 96.30
1574 85.7700 8050.00 8293.22 85.30
1575 85.8200 6328.00 6869.00 75.90
1576 85.8700 5371.00 5773.92 69.80
1577 85.9200 4805.00 4995.32 66.20
1578 85.9700 4345.00 4454.41 62.90
1579 86.0200 3959.00 4058.39 60.00
1580 86.0700 3695.00 3737.44 58.00
1581 86.1200 3384.00 3455.76 55.70
1582 86.1700 2975.00 3201.16 52.00
1583 86.2200 2790.00 2972.63 50.50
1584 86.2700 2553.00 2772.32 48.40
1585 86.3200 2356.00 2602.02 46.50
1586 86.3700 2356.00 2461.93 46.40
1587 86.4200 2229.00 2350.22 45.30
1588 86.4700 2183.00 2263.49 44.80
1589 86.5200 2047.00 2197.56 43.50
1590 86.5700 2086.00 2148.13 43.80
1591 86.6200 2020.00 2112.86 43.20
1592 86.6700 2080.00 2085.51 43.80
1593 86.7200 2109.00 2065.17 44.40
1594 86.7700 2077.00 2050.13 43.80
1595 86.8200 1999.00 2039.27 43.40
1596 86.8700 2086.00 2031.90 44.20
1597 86.9200 2026.00 2027.63 43.80
1598 86.9700 2149.00 2026.33 45.00
1599 87.0200 2171.00 2028.13 45.30
1600 87.0700 2125.00 2033.68 44.90
1601 87.1200 2120.00 2043.55 45.10
1602 87.1700 2118.00 2059.93 44.80
1603 87.2200 2184.00 2084.64 46.00
1604 87.2700 2116.00 2127.42 45.00
1605 87.3200 2232.00 2195.67 46.40
1606 87.3700 2457.00 2301.70 48.80
1607 87.4200 2562.00 2459.20 50.00
1608 87.4700 2839.00 2679.73 52.30
1609 87.5200 2954.00 2966.91 53.80
1610 87.5700 3349.00 3310.04 57.20
1611 87.6200 3762.00 3678.57 60.50
1612 87.6700 4225.00 4019.45 64.30
1613 87.7200 4418.00 4268.89 65.80
1614 87.7700 4688.00 4388.24 67.60
1615 87.8200 4787.00 4381.02 69.00
1616 87.8700 4651.00 4262.56 67.50
1617 87.9200 4577.00 4060.55 67.00
1618 87.9700 4409.00 3834.88 66.20
1619 88.0200 4224.00 3659.11 64.40
1620 88.0700 4032.00 3582.56 62.90
1621 88.1200 4221.00 3616.98 64.50
1622 88.1700 4208.00 3736.68 64.30
1623 88.2200 4302.00 3882.97 64.80
1624 88.2700 4331.00 3988.69 65.30
1625 88.3200 4273.00 4020.58 64.50
1626 88.3700 4084.00 3979.82 63.20
1627 88.4200 4079.00 3861.57 63.00
1628 88.4700 3687.00 3653.09 59.90
1629 88.5200 3310.00 3371.96 56.30
1630 88.5700 2918.00 3068.27 53.30
1631 88.6200 2762.00 2789.19 51.20
1632 88.6700 2461.00 2560.66 48.60
1633 88.7200 2273.00 2390.52 46.50
1634 88.7700 2192.00 2275.57 45.60
1635 88.8200 2135.00 2206.51 44.80
1636 88.8700 2069.00 2172.05 44.40
1637 88.9200 2108.00 2161.65 44.40
1638 88.9700 2135.00 2166.73 44.80
1639 89.0200 2126.00 2180.68 44.40
1640 89.0700 2188.00 2198.63 45.30
1641 89.1200 2279.00 2216.51 45.80
1642 89.1700 2255.00 2231.74 45.70
1643 89.2200 2224.00 2243.96 45.20
1644 89.2700 2207.00 2255.45 45.10
1645 89.3200 2261.00 2272.06 45.50
1646 89.3700 2229.00 2297.42 45.30
1647 89.4200 2281.00 2340.46 45.70
1648 89.4700 2314.00 2410.47 46.10
1649 89.5200 2446.00 2518.20 47.10
1650 89.5700 2651.00 2671.82 49.20
1651 89.6200 2796.00 2887.22 50.40
1652 89.6700 3172.00 3164.61 53.60
1653 89.7200 3565.00 3497.15 57.00
1654 89.7700 3927.00 3861.55 59.70
1655 89.8200 4240.00 4212.09 61.90
1656 89.8700 4587.00 4477.62 64.60
1657 89.9200 4592.00 4579.61 64.30
1658 89.9700 4423.00 4477.85 63.20
1659 90.0200 4074.00 4203.83 60.80
1660 90.0700 3711.00 3833.31 57.80
1661 90.1200 3191.00 3443.49 53.50
1662 90.1700 2914.00 3085.75 51.40
1663 90.2200 2674.00 2786.87 49.00
1664 90.2700 2406.00 2555.65 46.50
1665 90.3200 2238.00 2381.46 45.00
1666 90.3700 2203.00 2268.64 44.50
1667 90.4200 2172.00 2196.80 44.10
1668 90.4700 2107.00 2153.08 43.60
1669 90.5200 2095.00 2126.39 43.30
1670 90.5700 2064.00 2108.02 43.00
1671 90.6200 1994.00 2092.20 42.30
1672 90.6700 1975.00 2076.46 42.00
1673 90.7200 1950.00 2062.46 41.70
1674 90.7700 1959.00 2053.39 42.00
1675 90.8200 1976.00 2054.16 42.10
1676 90.8700 2050.00 2070.42 42.80
1677 90.9200 2074.00 2107.53 43.00
1678 90.9700 2113.00 2168.87 43.60
1679 91.0200 2221.00 2253.48 44.50
1680 91.0700 2369.00 2353.44 46.00
1681 91.1200 2443.00 2450.99 46.90
1682 91.1700 2595.00 2518.55 48.10
1683 91.2200 2549.00 2531.93 47.60
1684 91.2700 2472.00 2493.38 47.20
1685 91.3200 2390.00 2430.16 46.10
1686 91.3700 2375.00 2370.94 45.90
1687 91.4200 2250.00 2333.43 45.00
1688 91.4700 2230.00 2324.75 44.60
1689 91.5200 2201.00 2343.90 44.10
1690 91.5700 2187.00 2384.38 44.40
1691 91.6200 2286.00 2436.18 45.00
1692 91.6700 2376.00 2487.02 45.80
1693 91.7200 2489.00 2523.71 47.10
1694 91.7700 2393.00 2534.95 46.00
1695 91.8200 2463.00 2515.78 46.60
1696 91.8700 2366.00 2469.89 45.90
1697 91.9200 2266.00 2407.14 44.80
1698 91.9700 2206.00 2338.60 44.10
1699 92.0200 2169.00 2273.12 43.70
1700 92.0700 2114.00 2216.17 43.30
1701 92.1200 2000.00 2170.00 41.90
1702 92.1700 2018.00 2134.18 42.20
1703 92.2200 1953.00 2104.20 41.50
1704 92.2700 1941.00 2075.63 41.30
1705 92.3200 1907.00 2045.72 41.20
1706 92.3700 1845.00 2014.40 40.40
1707 92.4200 1848.00 1984.30 40.60
1708 92.4700 1869.00 1958.41 40.70
1709 92.5200 1811.00 1936.00 40.10
1710 92.5700 1929.00 1916.65 41.50
1711 92.6200 1918.00 1901.21 41.20
1712 92.6700 1857.00 1888.48 40.60
1713 92.7200 1967.00 1878.00 42.00
1714 92.7700 1808.00 1869.35 40.10
1715 92.8200 1761.00 1862.23 39.70
1716 92.8700 1767.00 1856.43 39.80
1717 92.9200 1721.00 1851.01 39.40
1718 92.9700 1766.00 1847.66 39.80
1719 93.0200 1718.00 1845.57 39.50
1720 93.0700 1761.00 1844.92 39.90
1721 93.1200 1697.00 1845.82 39.30
1722 93.1700 1728.00 1848.35 39.60
1723 93.2200 1757.00 1854.84 40.30
1724 93.2700 1755.00 1865.40 39.90
1725 93.3200 1759.00 1881.31 40.50
1726 93.3700 1786.00 1903.79 40.70
1727 93.4200 1822.00 1934.27 41.20
1728 93.4700 1793.00 1973.26 40.90
1729 93.5200 1921.00 2020.38 42.50
1730 93.5700 1947.00 2073.75 42.60
1731 93.6200 1959.00 2129.23 43.00
1732 93.6700 1977.00 2179.66 43.10
1733 93.7200 1960.00 2215.26 43.30
1734 93.7700 2051.00 2226.79 44.00
1735 93.8200 2098.00 2211.36 45.00
1736 93.8700 2023.00 2174.65 44.00
1737 93.9200 1881.00 2126.71 42.50
1738 93.9700 1963.00 2076.62 43.60
1739 94.0200 1863.00 2031.85 42.70
1740 94.0700 1857.00 1992.84 42.30
1741 94.1200 1870.00 1962.26 42.70
1742 94.1700 1853.00 1940.02 42.60
1743 94.2200 1828.00 1925.15 42.20
1744 94.2700 1758.00 1916.31 41.40
1745 94.3200 1764.00 1912.11 41.90
1746 94.3700 1818.00 1911.42 42.10
1747 94.4200 1837.00 1913.55 42.40
1748 94.4700 1853.00 1921.13 43.00
1749 94.5200 1848.00 1928.73 42.30
1750 94.5700 1894.00 1939.79 43.00
1751 94.6200 1941.00 1955.30 43.90
1752 94.6700 1869.00 1976.55 42.50
1753 94.7200 1856.00 2005.11 42.50
1754 94.7700 1925.00 2042.66 43.70
1755 94.8200 1981.00 2090.87 43.70
1756 94.8700 1955.00 2150.99 43.60
1757 94.9200 2083.00 2224.43 45.00
1758 94.9700 2152.00 2307.97 45.50
1759 95.0200 2186.00 2399.70 45.70
1760 95.0700 2305.00 2494.12 47.40
1761 95.1200 2424.00 2582.43 47.90
1762 95.1700 2494.00 2652.62 48.90
1763 95.2200 2506.00 2691.66 49.00
1764 95.2700 2568.00 2689.71 49.30
1765 95.3200 2482.00 2649.15 48.30
1766 95.3700 2365.00 2580.85 47.60
1767 95.4200 2403.00 2498.03 47.40
1768 95.4700 2270.00 2413.21 46.20
1769 95.5200 2096.00 2335.19 44.10
1770 95.5700 2117.00 2269.23 44.50
1771 95.6200 2066.00 2217.76 43.70
1772 95.6700 2125.00 2181.01 44.40
1773 95.7200 2050.00 2157.47 43.40
1774 95.7700 2146.00 2144.02 44.60
1775 95.8200 2038.00 2138.61 43.20
1776 95.8700 2042.00 2138.43 43.30
1777 95.9200 2120.00 2142.12 43.90
1778 95.9700 2116.00 2148.76 44.00
1779 96.0200 2198.00 2157.18 44.60
1780 96.0700 2050.00 2165.58 43.20
1781 96.1200 2059.00 2172.02 43.00
1782 96.1700 2035.00 2175.55 42.90
1783 96.2200 2158.00 2177.21 44.00
1784 96.2700 2045.00 2179.57 42.90
1785 96.3200 2006.00 2185.49 42.40
1786 96.3700 1961.00 2197.27 42.00
1787 96.4200 2019.00 2216.22 42.30
1788 96.4700 2064.00 2243.46 43.00
1789 96.5200 2090.00 2278.98 43.10
1790 96.5700 2139.00 2322.19 43.60
1791 96.6200 2170.00 2372.21 43.70
1792 96.6700 2229.00 2426.77 44.50
1793 96.7200 2281.00 2482.94 44.80
1794 96.7700 2371.00 2537.51 45.70
1795 96.8200 2392.00 2586.39 46.00
1796 96.8700 2483.00 2622.23 46.80
1797 96.9200 2545.00 2631.33 47.20
1798 96.9700 2402.00 2597.93 46.10
1799 97.0200 2317.00 2519.66 45.00
1800 97.0700 2273.00 2413.47 44.60
1801 97.1200 2248.00 2301.66 44.50
1802 97.1700 2102.00 2199.81 42.90
1803 97.2200 2031.00 2114.60 42.10
1804 97.2700 1981.00 2048.21 41.80
1805 97.3200 1969.00 1998.92 41.40
1806 97.3700 1936.00 1963.16 41.10
1807 97.4200 1908.00 1937.73 41.00
1808 97.4700 1930.00 1920.05 41.00
1809 97.5200 1905.00 1908.12 40.80
1810 97.5700 1859.00 1900.79 40.50
1811 97.6200 1971.00 1897.13 41.50
1812 97.6700 1831.00 1896.64 40.00
1813 97.7200 1832.00 1899.17 40.20
1814 97.7700 1801.00 1904.81 39.70
1815 97.8200 1902.00 1914.01 41.00
1816 97.8700 1879.00 1927.80 40.70
1817 97.9200 1908.00 1948.25 40.90
1818 97.9700 2010.00 1979.23 42.20
1819 98.0200 2092.00 2027.24 43.00
1820 98.0700 2063.00 2102.03 42.60
1821 98.1200 2298.00 2215.68 45.10
1822 98.1700 2372.00 2379.80 45.80
1823 98.2200 2553.00 2600.38 47.60
1824 98.2700 2789.00 2870.54 49.70
1825 98.3200 2982.00 3161.73 51.50
1826 98.3700 3250.00 3413.40 53.70
1827 98.4200 3355.00 3549.03 54.60
1828 98.4700 3403.00 3547.32 55.00
1829 98.5200 3451.00 3484.30 55.50
1830 98.5700 3338.00 3468.33 54.50
1831 98.6200 3586.00 3572.71 56.50
1832 98.6700 3668.00 3820.98 57.20
1833 98.7200 4024.00 4175.27 60.00
1834 98.7700 4126.00 4536.37 60.60
1835 98.8200 4413.00 4740.11 63.10
1836 98.8700 4211.00 4650.01 61.40
1837 98.9200 3968.00 4284.35 59.70
1838 98.9700 3502.00 3787.25 56.20
1839 99.0200 3091.00 3295.65 52.70
1840 99.0700 2659.00 2883.56 48.90
1841 99.1200 2395.00 2575.25 46.60
1842 99.1700 2231.00 2365.46 44.70
1843 99.2200 2159.00 2234.64 44.10
1844 99.2700 2063.00 2160.13 43.20
1845 99.3200 1981.00 2122.51 42.40
1846 99.3700 1986.00 2107.95 42.30
1847 99.4200 2031.00 2107.46 43.30
1848 99.4700 1871.00 2115.42 41.20
1849 99.5200 2006.00 2128.55 42.80
1850 99.5700 2020.00 2146.11 43.20
1851 99.6200 1958.00 2170.49 42.20
1852 99.6700 2061.00 2209.06 43.40
1853 99.7200 2180.00 2261.06 45.00
1854 99.7700 2130.00 2330.09 44.00
1855 99.8200 2211.00 2412.28 45.50
1856 99.8700 2265.00 2493.51 45.90
1857 99.9200 2414.00 2549.67 47.40
1858 99.9700 2302.00 2555.19 46.40
1859 100.0200 2326.00 2503.48 46.90
1860 100.0700 2394.00 2413.32 47.20
1861 100.1200 2221.00 2311.06 46.00
1862 100.1700 2071.00 2215.24 44.30
1863 100.2200 2113.00 2134.75 44.90
1864 100.2700 1973.00 2072.09 43.40
1865 100.3200 1998.00 2025.88 44.10
1866 100.3700 1869.00 1992.79 42.20
1867 100.4200 1983.00 1968.89 44.10
1868 100.4700 1830.00 1950.67 42.20
1869 100.5200 1858.00 1935.52 42.60
1870 100.5700 1879.00 1921.82 42.90
1871 100.6200 1740.00 1908.77 41.20
1872 100.6700 1753.00 1897.54 41.40
1873 100.7200 1802.00 1885.34 42.30
1874 100.7700 1828.00 1873.72 42.20
1875 100.8200 1800.00 1862.84 42.30
1876 100.8700 1795.00 1852.84 42.20
1877 100.9200 1789.00 1843.87 42.10
1878 100.9700 1706.00 1836.04 41.20
1879 101.0200 1820.00 1829.40 42.30
1880 101.0700 1718.00 1823.91 41.30
1881 101.1200 1723.00 1819.67 41.10
1882 101.1700 1753.00 1816.69 41.60
1883 101.2200 1802.00 1814.50 42.00
1884 101.2700 1693.00 1813.05 40.70
1885 101.3200 1793.00 1812.07 41.70
1886 101.3700 1715.00 1811.20 41.00
1887 101.4200 1701.00 1810.10 40.40
1888 101.4700 1773.00 1808.48 41.40
1889 101.5200 1771.00 1806.29 41.10
1890 101.5700 1759.00 1803.67 41.10
1891 101.6200 1765.00 1800.89 40.70
1892 101.6700 1724.00 1798.26 40.50
1893 101.7200 1716.00 1796.03 40.00
1894 101.7700 1677.00 1794.41 39.70
1895 101.8200 1726.00 1793.44 40.00
1896 101.8700 1734.00 1793.57 40.20
1897 101.9200 1703.00 1794.81 39.50
1898 101.9700 1822.00 1797.31 41.20
1899 102.0200 1793.00 1801.22 40.30
1900 102.0700 1714.00 1805.93 39.60
1901 102.1200 1793.00 1812.81 40.40
1902 102.1700 1759.00 1820.96 40.00
1903 102.2200 1813.00 1829.87 40.40
1904 102.2700 1882.00 1838.72 41.30
1905 102.3200 1771.00 1846.70 39.90
1906 102.3700 1865.00 1853.96 41.00
1907 102.4200 1890.00 1861.05 41.20
1908 102.4700 1864.00 1868.96 41.00
1909 102.5200 1920.00 1878.13 41.30
1910 102.5700 1931.00 1888.76 41.70
1911 102.6200 1965.00 1900.93 41.70
1912 102.6700 2022.00 1914.78 42.40
1913 102.7200 1961.00 1930.60 41.80
1914 102.7700 2028.00 1948.67 42.40
1915 102.8200 2074.00 1968.87 42.90
1916 102.8700 2014.00 1988.74 42.30
1917 102.9200 2071.00 2008.53 42.80
1918 102.9700 2076.00 2023.57 42.90
1919 103.0200 2176.00 2031.91 43.80
1920 103.0700 2074.00 2035.37 42.80
1921 103.1200 2047.00 2039.11 42.40
1922 103.1700 2091.00 2048.36 42.90
1923 103.2200 2001.00 2071.01 41.90
1924 103.2700 2012.00 2111.06 42.00
1925 103.3200 2121.00 2170.84 43.10
1926 103.3700 2189.00 2255.10 43.80
1927 103.4200 2215.00 2360.08 43.90
1928 103.4700 2275.00 2476.85 44.60
1929 103.5200 2311.00 2585.72 44.80
1930 103.5700 2361.00 2660.00 45.40
1931 103.6200 2404.00 2668.48 45.50
1932 103.6700 2381.00 2619.38 45.50
1933 103.7200 2350.00 2542.17 45.30
1934 103.7700 2225.00 2466.69 43.70
1935 103.8200 2245.00 2412.33 44.10
1936 103.8700 2188.00 2390.32 43.70
1937 103.9200 2216.00 2407.79 43.60
1938 103.9700 2284.00 2469.58 44.50
1939 104.0200 2317.00 2578.45 44.80
1940 104.0700 2491.00 2733.10 46.20
1941 104.1200 2655.00 2923.91 47.70
1942 104.1700 2849.00 3125.94 49.70
1943 104.2200 3005.00 3298.34 50.80
1944 104.2700 3142.00 3408.27 51.90
1945 104.3200 3380.00 3458.16 54.20
1946 104.3700 3347.00 3464.98 53.60
1947 104.4200 3296.00 3427.71 53.30
1948 104.4700 3265.00 3332.90 53.30
1949 104.5200 2991.00 3180.63 50.80
1950 104.5700 2858.00 2995.06 49.70
1951 104.6200 2551.00 2807.44 47.00
1952 104.6700 2527.00 2641.85 46.70
1953 104.7200 2437.00 2511.03 45.80
1954 104.7700 2394.00 2418.03 45.60
1955 104.8200 2364.00 2356.93 45.30
1956 104.8700 2283.00 2312.11 44.30
1957 104.9200 2320.00 2262.72 44.90
1958 104.9700 2299.00 2199.33 44.70
1959 105.0200 2220.00 2130.97 43.60
1960 105.0700 2043.00 2069.53 42.10
1961 105.1200 2136.00 2022.42 43.00
1962 105.1700 2002.00 1989.52 41.40
1963 105.2200 2009.00 1968.39 41.70
1964 105.2700 1972.00 1955.38 41.30
1965 105.3200 1998.00 1947.20 41.50
1966 105.3700 2027.00 1942.20 41.90
1967 105.4200 1898.00 1939.92 40.60
1968 105.4700 1966.00 1940.56 41.20
1969 105.5200 1973.00 1944.27 41.40
1970 105.5700 1940.00 1950.94 41.10
1971 105.6200 1940.00 1960.05 41.00
1972 105.6700 1970.00 1970.75 41.40
1973 105.7200 1924.00 1981.87 40.90
1974 105.7700 1881.00 1992.05 40.30
1975 105.8200 2014.00 1999.99 42.10
1976 105.8700 1994.00 2004.75 41.60
1977 105.9200 2021.00 2005.93 42.10
1978 105.9700 2081.00 2003.54 42.80
1979 106.0200 2100.00 1998.88 42.80
1980 106.0700 2102.00 1990.57 43.00
1981 106.1200 2059.00 1980.10 42.60
1982 106.1700 2122.00 1967.95 43.00
1983 106.2200 2125.00 1955.09 43.60
1984 106.2700 2046.00 1942.02 42.50
1985 106.3200 1987.00 1929.30 42.20
1986 106.3700 2002.00 1917.38 42.30
1987 106.4200 2024.00 1906.62 42.80
1988 106.4700 1932.00 1897.26 41.60
1989 106.5200 1869.00 1889.51 41.20
1990 106.5700 1824.00 1883.54 40.60
1991 106.6200 1916.00 1879.50 41.70
1992 106.6700 1939.00 1879.97 42.00
1993 106.7200 1903.00 1880.12 41.90
1994 106.7700 1875.00 1882.35 41.30
1995 106.8200 1957.00 1886.45 42.50
1996 106.8700 1897.00 1891.90 41.80
1997 106.9200 1969.00 1897.73 42.70
1998 106.9700 1902.00 1902.34 41.90
1999 107.0200 1986.00 1903.75 43.00
2000 107.0700 1995.00 1900.69 43.00
2001 107.1200 1904.00 1893.57 42.00
2002 107.1700 2026.00 1884.11 43.40
2003 107.2200 1834.00 1874.55 41.40
2004 107.2700 1883.00 1866.23 41.80
2005 107.3200 1812.00 1860.00 41.50
2006 107.3700 1865.00 1856.41 41.80
2007 107.4200 1750.00 1855.15 40.30
2008 107.4700 1798.00 1856.39 41.40
2009 107.5200 1818.00 1859.98 41.00
2010 107.5700 1838.00 1865.70 41.30
2011 107.6200 1782.00 1873.36 40.90
2012 107.6700 1914.00 1882.74 42.10
2013 107.7200 1803.00 1893.67 40.70
2014 107.7700 1878.00 1905.95 42.00
2015 107.8200 1825.00 1919.38 40.90
2016 107.8700 1875.00 1933.76 41.50
2017 107.9200 1919.00 1948.91 42.00
2018 107.9700 1960.00 1964.78 42.40
2019 108.0200 1983.00 1981.59 42.30
2020 108.0700 2074.00 1999.97 43.70
2021 108.1200 1935.00 2021.14 41.70
2022 108.1700 2067.00 2047.03 43.20
2023 108.2200 2118.00 2080.74 43.60
2024 108.2700 2077.00 2127.04 43.20
2025 108.3200 2142.00 2193.05 43.60
2026 108.3700 2243.00 2288.69 44.90
2027 108.4200 2493.00 2426.36 46.90
2028 108.4700 2654.00 2619.74 48.60
2029 108.5200 2983.00 2880.67 51.20
2030 108.5700 3300.00 3214.20 54.00
2031 108.6200 3736.00 3614.21 57.10
2032 108.6700 4189.00 4047.73 60.70
2033 108.7200 4494.00 4441.92 62.60
2034 108.7700 4660.00 4683.47 63.80
2035 108.8200 4633.00 4673.09 63.50
2036 108.8700 4315.00 4415.25 61.30
2037 108.9200 3966.00 4010.64 58.80
2038 108.9700 3488.00 3571.55 55.10
2039 109.0200 3162.00 3168.71 52.30
2040 109.0700 2691.00 2832.62 48.50
2041 109.1200 2484.00 2570.08 46.20
2042 109.1700 2357.00 2375.05 45.20
2043 109.2200 2171.00 2235.15 43.30
2044 109.2700 2088.00 2137.38 42.40
2045 109.3200 1997.00 2069.06 41.60
2046 109.3700 1951.00 2020.37 41.10
2047 109.4200 1928.00 1984.29 40.80
2048 109.4700 1995.00 1956.18 41.60
2049 109.5200 1925.00 1933.24 40.70
2050 109.5700 1977.00 1913.84 41.30
2051 109.6200 1862.00 1897.15 40.10
2052 109.6700 1823.00 1882.78 39.60
2053 109.7200 1921.00 1870.62 40.60
2054 109.7700 1807.00 1860.75 39.50
2055 109.8200 1859.00 1853.46 40.00
2056 109.8700 1893.00 1849.34 40.20
2057 109.9200 1945.00 1849.45 40.90
2058 109.9700 1826.00 1855.31 39.60
2059 110.0200 1918.00 1868.84 40.60
2060 110.0700 1916.00 1891.79 40.60
2061 110.1200 1903.00 1924.85 40.20
2062 110.1700 1990.00 1965.99 41.30
2063 110.2200 2014.00 2007.62 41.60
2064 110.2700 1973.00 2034.30 40.90
2065 110.3200 1991.00 2029.88 41.40
2066 110.3700 1960.00 1998.90 41.10
2067 110.4200 1929.00 1954.83 40.50
2068 110.4700 1992.00 1912.71 41.40
2069 110.5200 1961.00 1878.90 41.00
2070 110.5700 1888.00 1854.84 40.00
2071 110.6200 1868.00 1839.71 40.00
2072 110.6700 1812.00 1831.79 39.40
2073 110.7200 1867.00 1830.12 39.90
2074 110.7700 1834.00 1832.50 39.60
2075 110.8200 1890.00 1837.16 40.30
2076 110.8700 1842.00 1844.31 39.60
2077 110.9200 1858.00 1853.56 39.90
2078 110.9700 1913.00 1864.65 40.50
2079 111.0200 1883.00 1877.29 40.00
2080 111.0700 1957.00 1891.24 41.00
2081 111.1200 1940.00 1906.45 40.80
2082 111.1700 1886.00 1922.29 40.00
2083 111.2200 1977.00 1938.96 41.00
2084 111.2700 2029.00 1956.70 41.70
2085 111.3200 1973.00 1976.59 41.00
2086 111.3700 2061.00 2000.04 41.90
2087 111.4200 2025.00 2029.06 41.70
2088 111.4700 2088.00 2065.70 42.20
2089 111.5200 2160.00 2111.13 42.80
2090 111.5700 2065.00 2164.16 42.10
2091 111.6200 2155.00 2218.97 42.90
2092 111.6700 2259.00 2262.17 43.80
2093 111.7200 2147.00 2275.60 42.90
2094 111.7700 2099.00 2249.27 42.30
2095 111.8200 2123.00 2191.97 42.60
2096 111.8700 2009.00 2122.55 41.50
2097 111.9200 2023.00 2055.98 41.70
2098 111.9700 2010.00 1999.79 41.40
2099 112.0200 2009.00 1956.41 41.60
2100 112.0700 1886.00 1925.58 40.20
2101 112.1200 1916.00 1905.86 40.60
2102 112.1700 1877.00 1895.46 40.20
2103 112.2200 1963.00 1892.83 41.50
2104 112.2700 1913.00 1896.98 40.60
2105 112.3200 1962.00 1907.67 41.40
2106 112.3700 1953.00 1925.55 41.30
2107 112.4200 1948.00 1951.98 41.40
2108 112.4700 2020.00 1989.09 42.10
2109 112.5200 2025.00 2039.79 42.50
2110 112.5700 2004.00 2107.29 42.00
2111 112.6200 2099.00 2194.89 43.30
2112 112.6700 2147.00 2305.36 43.80
2113 112.7200 2330.00 2440.57 45.90
2114 112.7700 2484.00 2599.02 47.10
2115 112.8200 2720.00 2776.52 50.10
2116 112.8700 2857.00 2962.36 50.90
2117 112.9200 3149.00 3137.32 53.80
2118 112.9700 3177.00 3273.63 54.10
2119 113.0200 3356.00 3342.38 55.80
2120 113.0700 3258.00 3327.60 54.80
2121 113.1200 3232.00 3235.92 54.90
2122 113.1700 3172.00 3090.36 54.20
2123 113.2200 2923.00 2916.57 52.40
2124 113.2700 2603.00 2735.53 49.30
2125 113.3200 2452.00 2562.54 48.30
2126 113.3700 2355.00 2407.68 47.00
2127 113.4200 2227.00 2275.95 46.00
2128 113.4700 2154.00 2168.24 45.30
2129 113.5200 1980.00 2082.95 43.40
2130 113.5700 2013.00 2017.07 43.70
2131 113.6200 1924.00 1967.52 42.90
2132 113.6700 1876.00 1929.98 42.20
2133 113.7200 1927.00 1901.87 42.90
2134 113.7700 1856.00 1880.77 42.10
2135 113.8200 1808.00 1864.82 41.50
2136 113.8700 1793.00 1852.73 41.40
2137 113.9200 2010.00 1844.05 43.70
2138 113.9700 1844.00 1837.31 41.90
2139 114.0200 1821.00 1829.28 41.40
2140 114.0700 1782.00 1826.46 41.10
2141 114.1200 1858.00 1825.40 41.70
2142 114.1700 1888.00 1826.13 42.10
2143 114.2200 1828.00 1828.84 41.40
2144 114.2700 1851.00 1833.94 41.60
2145 114.3200 1903.00 1842.04 42.10
2146 114.3700 1906.00 1855.02 42.30
2147 114.4200 1997.00 1873.28 42.80
2148 114.4700 2018.00 1899.41 43.40
2149 114.5200 2093.00 1935.48 43.60
2150 114.5700 2121.00 1982.88 44.10
2151 114.6200 2217.00 2040.70 44.80
2152 114.6700 2299.00 2104.51 45.60
2153 114.7200 2343.00 2163.18 45.80
2154 114.7700 2325.00 2205.13 45.80
2155 114.8200 2529.00 2230.42 47.20
2156 114.8700 2494.00 2252.47 47.20
2157 114.9200 2550.00 2285.71 47.50
2158 114.9700 2539.00 2336.69 47.30
2159 115.0200 2645.00 2403.48 48.20
2160 115.0700 2731.00 2479.03 49.20
2161 115.1200 2783.00 2556.11 49.10
2162 115.1700 2757.00 2628.22 49.20
2163 115.2200 2791.00 2682.89 49.50
2164 115.2700 2717.00 2696.98 48.50
2165 115.3200 2670.00 2648.32 48.20
2166 115.3700 2634.00 2541.34 48.10
2167 115.4200 2562.00 2408.30 47.10
2168 115.4700 2367.00 2280.99 45.40
2169 115.5200 2238.00 2176.09 44.20
2170 115.5700 2279.00 2098.77 44.40
2171 115.6200 2138.00 2048.77 42.90
2172 115.6700 2095.00 2023.43 42.80
2173 115.7200 2028.00 2019.24 42.00
2174 115.7700 2089.00 2032.16 42.40
2175 115.8200 2122.00 2056.83 43.10
2176 115.8700 2047.00 2084.61 42.20
2177 115.9200 2033.00 2103.35 41.90
2178 115.9700 2149.00 2098.64 43.30
2179 116.0200 2087.00 2067.69 42.60
2180 116.0700 2013.00 2019.59 41.60
2181 116.1200 1928.00 1967.00 40.90
2182 116.1700 1868.00 1919.15 40.30
2183 116.2200 1899.00 1878.35 40.40
2184 116.2700 1869.00 1846.13 40.30
2185 116.3200 1918.00 1821.84 40.90
2186 116.3700 1881.00 1804.23 40.20
2187 116.4200 1911.00 1791.94 40.80
2188 116.4700 1883.00 1783.75 40.60
2189 116.5200 1855.00 1779.52 39.80
2190 116.5700 1920.00 1777.12 40.90
2191 116.6200 1992.00 1777.03 41.60
2192 116.6700 1841.00 1779.23 39.70
2193 116.7200 1870.00 1783.84 40.30
2194 116.7700 1850.00 1791.14 40.10
2195 116.8200 1919.00 1800.93 40.90
2196 116.8700 1904.00 1814.55 40.60
2197 116.9200 1938.00 1831.72 41.10
2198 116.9700 1903.00 1852.53 40.70
2199 117.0200 1973.00 1876.84 41.50
2200 117.0700 1927.00 1904.14 41.00
2201 117.1200 1978.00 1933.37 41.40
2202 117.1700 2026.00 1962.70 42.10
2203 117.2200 2041.00 1989.43 42.40
2204 117.2700 2078.00 2010.07 42.50
2205 117.3200 2116.00 2021.17 49.90
2206 117.3700 2148.00 2020.54 43.50
2207 117.4200 2078.00 2008.78 42.60
2208 117.4700 2062.00 1988.40 49.20
2209 117.5200 2067.00 1963.14 42.60
2210 117.5700 2048.00 1936.55 42.30
2211 117.6200 1953.00 1911.42 47.60
2212 117.6700 1979.00 1889.67 41.70
2213 117.7200 2029.00 1872.55 42.20
2214 117.7700 2015.00 1860.80 48.30
2215 117.8200 1957.00 1854.81 41.50
2216 117.8700 2007.00 1854.62 42.00
2217 117.9200 2033.00 1859.94 48.80
2218 117.9700 2086.00 1870.14 42.80
2219 118.0200 1991.00 1884.06 41.80
2220 118.0700 2009.00 1899.90 48.50
2221 118.1200 1966.00 1914.97 41.50
2222 118.1700 2025.00 1925.87 42.10
2223 118.2200 2069.00 1929.39 49.20
2224 118.2700 2024.00 1923.91 42.10
2225 118.3200 2011.00 1910.41 42.20
2226 118.3700 1952.00 1891.60 47.80
2227 118.4200 1906.00 1870.62 40.90
2228 118.4700 1870.00 1849.94 40.70
2229 118.5200 1824.00 1831.14 40.10
2230 118.5700 1878.00 1815.14 40.60
2231 118.6200 1884.00 1802.30 40.80
2232 118.6700 1868.00 1792.77 40.60
2233 118.7200 1842.00 1789.07 40.50
2234 118.7700 1839.00 1786.14 40.30
2235 118.8200 1823.00 1786.46 40.50
2236 118.8700 1853.00 1790.12 40.70
2237 118.9200 1826.00 1797.30 40.40
2238 118.9700 1953.00 1808.25 41.90
2239 119.0200 1874.00 1823.23 41.20
2240 119.0700 1954.00 1842.42 41.80
2241 119.1200 1913.00 1865.62 41.70
2242 119.1700 1944.00 1892.63 41.90
2243 119.2200 1991.00 1921.83 42.50
2244 119.2700 1994.00 1951.10 42.60
2245 119.3200 2112.00 1976.58 44.20
2246 119.3700 2071.00 1993.70 43.30
2247 119.4200 2104.00 1999.37 44.20
2248 119.4700 2008.00 1994.07 43.10
2249 119.5200 1986.00 1981.82 42.80
2250 119.5700 2048.00 1968.00 43.60
2251 119.6200 1969.00 1957.27 42.80
2252 119.6700 1944.00 1953.02 42.30
2253 119.7200 1937.00 1955.61 42.80
2254 119.7700 1967.00 1969.34 42.80
2255 119.8200 2110.00 1992.59 44.40
2256 119.8700 2045.00 2024.21 44.00
2257 119.9200 2043.00 2060.82 43.90
2258 119.9700 2147.00 2098.58 44.80
2259 120.0200 2141.00 2129.27 44.90
2260 120.0700 2097.00 2144.70 44.40
2261 120.1200 2067.00 2146.36 43.90
2262 120.1700 2118.00 2124.35 44.60
2263 120.2200 2169.00 2092.19 44.90
2264 120.2700 2018.00 2058.24 43.40
2265 120.3200 2016.00 2028.80 43.30
2266 120.3700 1998.00 2007.77 43.10
2267 120.4200 1913.00 1997.17 41.90
2268 120.4700 2071.00 1997.81 43.90
2269 120.5200 1989.00 2009.54 42.50
2270 120.5700 2048.00 2031.40 43.30
2271 120.6200 2128.00 2061.43 43.90
2272 120.6700 2152.00 2096.06 44.30
2273 120.7200 2273.00 2130.37 45.00
2274 120.7700 2309.00 2157.85 45.80
2275 120.8200 2271.00 2171.22 45.20
2276 120.8700 2278.00 2166.55 45.10
2277 120.9200 2273.00 2145.30 44.80
2278 120.9700 2210.00 2113.25 44.60
2279 121.0200 2220.00 2077.38 43.90
2280 121.0700 2051.00 2043.31 42.50
2281 121.1200 2050.00 2014.77 42.30
2282 121.1700 1950.00 1994.00 41.20
2283 121.2200 1967.00 1981.87 41.40
2284 121.2700 2140.00 1979.85 43.20
2285 121.3200 2098.00 1988.02 42.40
2286 121.3700 2050.00 2006.48 42.20
2287 121.4200 2140.00 2035.14 43.10
2288 121.4700 2187.00 2073.77 43.30
2289 121.5200 2265.00 2121.54 44.10
2290 121.5700 2218.00 2176.92 43.90
2291 121.6200 2240.00 2237.22 43.70
2292 121.6700 2328.00 2298.00 44.70
2293 121.7200 2443.00 2353.22 45.90
2294 121.7700 2393.00 2396.51 45.20
2295 121.8200 2372.00 2423.80 45.10
2296 121.8700 2457.00 2435.64 46.10
2297 121.9200 2387.00 2437.12 45.10
2298 121.9700 2458.00 2435.88 45.90
2299 122.0200 2339.00 2440.13 44.80
2300 122.0700 2371.00 2456.87 44.90
2301 122.1200 2432.00 2490.89 45.60
2302 122.1700 2425.00 2542.54 45.70
2303 122.2200 2623.00 2607.26 47.20
2304 122.2700 2701.00 2674.32 48.00
2305 122.3200 2796.00 2727.24 49.10
2306 122.3700 2725.00 2753.21 48.10
2307 122.4200 2719.00 2729.34 48.00
2308 122.4700 2636.00 2662.78 47.70
2309 122.5200 2532.00 2567.99 46.20
2310 122.5700 2504.00 2463.23 46.10
2311 122.6200 2374.00 2362.76 45.10
2312 122.6700 2253.00 2274.55 43.60
2313 122.7200 2088.00 2201.87 42.10
2314 122.7700 2202.00 2145.01 43.40
2315 122.8200 2117.00 2102.96 42.20
2316 122.8700 2060.00 2072.88 41.80
2317 122.9200 2093.00 2052.55 42.30
2318 122.9700 1986.00 2039.53 40.80
2319 123.0200 2096.00 2031.80 42.10
2320 123.0700 2119.00 2027.77 42.60
2321 123.1200 2023.00 2026.18 41.10
2322 123.1700 2108.00 2026.00 42.20
2323 123.2200 2096.00 2026.37 42.20
2324 123.2700 2034.00 2026.62 41.30
2325 123.3200 2073.00 2026.23 41.70
2326 123.3700 2107.00 2024.93 42.30
2327 123.4200 2024.00 2022.65 41.20
2328 123.4700 2038.00 2019.59 41.40
2329 123.5200 2019.00 2016.18 41.20
2330 123.5700 1959.00 2013.05 40.50
2331 123.6200 2022.00 2010.88 41.10
2332 123.6700 2061.00 2010.35 41.70
2333 123.7200 2100.00 2011.94 41.90
2334 123.7700 2011.00 2015.69 41.00
2335 123.8200 1991.00 2020.79 40.80
2336 123.8700 2116.00 2025.22 42.10
2337 123.9200 2065.00 2026.22 41.60
2338 123.9700 2059.00 2022.55 41.50
2339 124.0200 2137.00 2016.16 42.20
2340 124.0700 2109.00 2010.89 42.10
2341 124.1200 2041.00 2010.29 41.20
2342 124.1700 2065.00 2016.88 41.40
2343 124.2200 2070.00 2032.61 41.70
2344 124.2700 2113.00 2059.21 41.90
2345 124.3200 2132.00 2098.31 42.20
2346 124.3700 2127.00 2151.31 42.30
2347 124.4200 2280.00 2219.27 43.60
2348 124.4700 2380.00 2302.24 44.60
2349 124.5200 2411.00 2398.69 45.20
2350 124.5700 2484.00 2504.11 45.50
2351 124.6200 2688.00 2609.37 47.40
2352 124.6700 2727.00 2700.11 48.00
2353 124.7200 2714.00 2759.83 47.70
2354 124.7700 2737.00 2778.05 47.80
2355 124.8200 2815.00 2757.59 48.90
2356 124.8700 2768.00 2712.82 48.10
2357 124.9200 2653.00 2660.82 47.40
2358 124.9700 2553.00 2614.72 46.60
2359 125.0200 2584.00 2582.20 46.90
2360 125.0700 2569.00 2566.73 46.60
2361 125.1200 2575.00 2569.01 46.80
2362 125.1700 2494.00 2587.92 46.10
2363 125.2200 2637.00 2620.84 47.60
2364 125.2700 2648.00 2665.32 47.50
2365 125.3200 2668.00 2717.81 48.10
2366 125.3700 2802.00 2774.96 49.00
2367 125.4200 2775.00 2834.25 49.10
2368 125.4700 2947.00 2891.55 50.50
2369 125.5200 2919.00 2940.17 50.60
2370 125.5700 2962.00 2970.06 50.80
2371 125.6200 2966.00 2971.28 51.10
2372 125.6700 3017.00 2941.24 51.50
2373 125.7200 2994.00 2888.71 51.50
2374 125.7700 2908.00 2829.30 50.50
2375 125.8200 2916.00 2777.76 51.30
2376 125.8700 2731.00 2744.11 49.20
2377 125.9200 2778.00 2733.42 50.20
2378 125.9700 2857.00 2746.66 50.70
2379 126.0200 2927.00 2780.84 51.60
2380 126.0700 2848.00 2828.22 50.80
2381 126.1200 2812.00 2874.96 50.80
2382 126.1700 2876.00 2903.77 51.20
2383 126.2200 2912.00 2899.54 51.90
2384 126.2700 2842.00 2859.74 51.10
2385 126.3200 2787.00 2795.79 50.90
2386 126.3700 2697.00 2724.82 49.90
2387 126.4200 2667.00 2661.42 50.00
2388 126.4700 2544.00 2614.88 48.60
2389 126.5200 2584.00 2590.38 49.10
2390 126.5700 2503.00 2590.13 48.40
2391 126.6200 2492.00 2616.22 48.10
2392 126.6700 2630.00 2668.58 49.50
2393 126.7200 2664.00 2746.95 49.80
2394 126.7700 2699.00 2850.39 50.10
2395 126.8200 2898.00 2976.92 51.90
2396 126.8700 2993.00 3122.91 52.70
2397 126.9200 3154.00 3281.91 54.00
2398 126.9700 3544.00 3444.07 57.40
2399 127.0200 3624.00 3595.36 57.60
2400 127.0700 3610.00 3718.43 57.80
2401 127.1200 3699.00 3795.05 58.10
2402 127.1700 3758.00 3811.17 58.60
2403 127.2200 3789.00 3762.39 58.60
2404 127.2700 3644.00 3656.63 57.60
2405 127.3200 3549.00 3510.59 56.40
2406 127.3700 3401.00 3343.18 55.50
2407 127.4200 3230.00 3170.07 53.80
2408 127.4700 3056.00 3002.30 52.30
2409 127.5200 2860.00 2846.80 50.30
2410 127.5700 2768.00 2707.40 49.80
2411 127.6200 2656.00 2585.88 48.10
2412 127.6700 2585.00 2482.35 47.80
2413 127.7200 2423.00 2395.94 46.10
2414 127.7700 2375.00 2324.84 45.50
2415 127.8200 2334.00 2268.19 45.00
2416 127.8700 2274.00 2225.18 44.60
2417 127.9200 2235.00 2192.00 43.90
2418 127.9700 2215.00 2168.87 43.90
2419 128.0200 2218.00 2155.21 43.70
2420 128.0700 2189.00 2151.20 43.40
2421 128.1200 2278.00 2157.39 44.10
2422 128.1700 2227.00 2175.03 43.70
2423 128.2200 2227.00 2205.86 43.50
2424 128.2700 2253.00 2252.06 43.80
2425 128.3200 2331.00 2315.78 44.60
2426 128.3700 2513.00 2398.85 46.20
2427 128.4200 2577.00 2502.01 46.80
2428 128.4700 2741.00 2623.94 48.40
2429 128.5200 2838.00 2759.81 48.90
2430 128.5700 2915.00 2898.59 49.70
2431 128.6200 3028.00 3021.74 50.40
2432 128.6700 3027.00 3105.38 50.50
2433 128.7200 3113.00 3134.28 51.20
2434 128.7700 3158.00 3109.26 51.50
2435 128.8200 3157.00 3049.16 51.60
2436 128.8700 3001.00 2978.03 50.30
2437 128.9200 2997.00 2915.42 50.20
2438 128.9700 2880.00 2873.93 49.20
2439 129.0200 2886.00 2860.24 49.00
2440 129.0700 2881.00 2878.03 49.20
2441 129.1200 2852.00 2926.42 48.90
2442 129.1700 2888.00 3001.18 49.10
2443 129.2200 3026.00 3094.17 50.40
2444 129.2700 3131.00 3191.90 51.20
2445 129.3200 3141.00 3279.77 51.10
2446 129.3700 3274.00 3343.81 52.40
2447 129.4200 3358.00 3379.18 52.90
2448 129.4700 3333.00 3390.78 52.60
2449 129.5200 3518.00 3388.09 54.10
2450 129.5700 3479.00 3378.59 53.80
2451 129.6200 3535.00 3364.77 54.10
2452 129.6700 3481.00 3344.66 53.90
2453 129.7200 3419.00 3314.13 53.30
2454 129.7700 3353.00 3269.49 52.70
2455 129.8200 3381.00 3209.49 53.00
2456 129.8700 3199.00 3135.79 51.60
2457 129.9200 3143.00 3052.10 50.90
2458 129.9700 3047.00 2962.91 50.30
2459 130.0200 2794.00 2872.10 47.90
2460 130.0700 2753.00 2782.60 47.70
2461 130.1200 2673.00 2696.37 47.00
2462 130.1700 2559.00 2614.44 45.90
2463 130.2200 2454.00 2537.39 45.10
2464 130.2700 2431.00 2465.35 44.80
2465 130.3200 2260.00 2398.39 43.10
2466 130.3700 2238.00 2336.50 43.00
2467 130.4200 2233.00 2279.60 42.80
2468 130.4700 2172.00 2227.63 42.30
2469 130.5200 2080.00 2180.36 41.40
2470 130.5700 1970.00 2137.58 40.30
2471 130.6200 2102.00 2099.00 41.60
2472 130.6700 1924.00 2064.30 39.80
2473 130.7200 1979.00 2033.16 40.40
2474 130.7700 1985.00 2005.23 40.50
2475 130.8200 1949.00 1980.24 40.20
2476 130.8700 1960.00 1957.91 40.20
2477 130.9200 1905.00 1938.00 39.60
2478 130.9700 1897.00 1920.28 39.60
2479 131.0200 1874.00 1904.57 39.30
2480 131.0700 1919.00 1890.70 39.80
2481 131.1200 1900.00 1878.48 39.80
2482 131.1700 1883.00 1867.78 39.40
2483 131.2200 1858.00 1858.46 39.30
2484 131.2700 1882.00 1850.38 39.60
2485 131.3200 1854.00 1843.45 39.20
2486 131.3700 1841.00 1836.58 39.20
2487 131.4200 1847.00 1831.62 39.50
2488 131.4700 1804.00 1827.50 38.70
2489 131.5200 1888.00 1824.17 39.80
2490 131.5700 1859.00 1821.56 39.60
2491 131.6200 1909.00 1819.60 40.10
2492 131.6700 1835.00 1818.27 39.30
2493 131.7200 1843.00 1817.59 39.70
2494 131.7700 1867.00 1817.37 39.60
2495 131.8200 1870.00 1817.63 40.10
2496 131.8700 1802.00 1818.38 39.30
2497 131.9200 1821.00 1819.54 39.60
2498 131.9700 1864.00 1821.05 40.00
2499 132.0200 1872.00 1822.84 40.40
2500 132.0700 1869.00 1824.12 40.20
2501 132.1200 1828.00 1826.19 40.20
2502 132.1700 1894.00 1828.19 40.70
2503 132.2200 1834.00 1829.94 40.50
2504 132.2700 1906.00 1831.27 41.00
2505 132.3200 1838.00 1831.97 40.60
2506 132.3700 1892.00 1831.89 41.00
2507 132.4200 1849.00 1830.94 40.90
2508 132.4700 1785.00 1829.38 40.00
2509 132.5200 1865.00 1826.84 41.20
2510 132.5700 1842.00 1822.88 40.90
2511 132.6200 1866.00 1819.41 41.20
2512 132.6700 1883.00 1815.74 41.50
2513 132.7200 1867.00 1812.02 41.60
2514 132.7700 1808.00 1808.36 40.60
2515 132.8200 1801.00 1804.84 40.90
2516 132.8700 1835.00 1801.53 41.20
2517 132.9200 1804.00 1798.45 40.80
2518 132.9700 1765.00 1795.63 40.50
2519 133.0200 1874.00 1793.07 41.60
2520 133.0700 1801.00 1790.77 40.80
2521 133.1200 1847.00 1788.71 41.30
2522 133.1700 1872.00 1787.15 41.50
2523 133.2200 1910.00 1785.53 41.80
2524 133.2700 1917.00 1784.09 42.00
2525 133.3200 1950.00 1782.82 42.20
2526 133.3700 1867.00 1781.69 41.30
2527 133.4200 1888.00 1780.67 41.40
2528 133.4700 1862.00 1779.76 41.20
2529 133.5200 1757.00 1778.93 39.50
2530 133.5700 1856.00 1778.17 41.00
2531 133.6200 1873.00 1777.46 40.60
2532 133.6700 1864.00 1776.79 40.70
2533 133.7200 1828.00 1776.16 40.10
2534 133.7700 1848.00 1775.56 40.30
2535 133.8200 1827.00 1774.99 39.90
2536 133.8700 1849.00 1774.43 40.30
2537 133.9200 1835.00 1773.90 39.70
2538 133.9700 1770.00 1773.39 39.30
2539 134.0200 1807.00 1772.90 39.20
2540 134.0700 1779.00 1772.43 39.10
2541 134.1200 1790.00 1771.99 38.90
2542 134.1700 1772.00 1771.58 38.80
2543 134.2200 1803.00 1771.20 38.90
2544 134.2700 1797.00 1770.86 39.00
2545 134.3200 1768.00 1770.55 38.30
2546 134.3700 1872.00 1770.29 39.60
2547 134.4200 1799.00 1770.07 38.60
2548 134.4700 1849.00 1769.90 39.20
2549 134.5200 1747.00 1769.78 37.80
2550 134.5700 1738.00 1769.71 37.90
2551 134.6200 1805.00 1769.70 38.20
2552 134.6700 1774.00 1769.75 38.10
2553 134.7200 1774.00 1768.59 38.00
2554 134.7700 1730.00 1768.78 37.40
2555 134.8200 1797.00 1769.04 38.30
2556 134.8700 1826.00 1769.37 38.50
2557 134.9200 1805.00 1772.36 38.10
2558 134.9700 1829.00 1772.86 38.60
2559 135.0200 1825.00 1773.43 38.20
2560 135.0700 1787.00 1772.92 37.90
2561 135.1200 1809.00 1773.21 38.10
2562 135.1700 1797.00 1774.07 37.90
2563 135.2200 1853.00 1775.03 38.60
2564 135.2700 1835.00 1776.09 38.40
2565 135.3200 1766.00 1777.26 37.60
2566 135.3700 1812.00 1778.06 38.20
2567 135.4200 1802.00 1779.48 38.10
2568 135.4700 1816.00 1781.03 38.10
2569 135.5200 1806.00 1782.72 38.10
2570 135.5700 1807.00 1784.58 38.10
2571 135.6200 1817.00 1786.61 38.20
2572 135.6700 1828.00 1788.84 38.30
2573 135.7200 1838.00 1791.27 38.60
2574 135.7700 1795.00 1793.94 38.00
2575 135.8200 1854.00 1796.85 38.80
2576 135.8700 1827.00 1800.06 38.50
2577 135.9200 1815.00 1803.57 38.40
2578 135.9700 1834.00 1807.41 38.60
2579 136.0200 1812.00 1811.63 38.40
2580 136.0700 1798.00 1816.26 38.20
2581 136.1200 1868.00 1821.25 39.10
2582 136.1700 1909.00 1826.92 39.40
2583 136.2200 1814.00 1832.98 38.70
2584 136.2700 1867.00 1840.64 39.10
2585 136.3200 1850.00 1847.84 39.10
2586 136.3700 1914.00 1855.66 39.80
2587 136.4200 1866.00 1868.74 39.40
2588 136.4700 1844.00 1877.90 39.00
2589 136.5200 1987.00 1887.74 40.70
2590 136.5700 1978.00 1898.27 40.60
2591 136.6200 1861.00 1909.48 39.30
2592 136.6700 1964.00 1921.37 40.50
2593 136.7200 1947.00 1933.92 40.50
2594 136.7700 1982.00 1947.10 40.60
2595 136.8200 1970.00 1960.89 40.80
2596 136.8700 1951.00 1975.21 40.60
2597 136.9200 1952.00 1990.04 40.40
2598 136.9700 2057.00 2005.21 41.70
2599 137.0200 2051.00 2020.78 41.80
2600 137.0700 1944.00 2036.61 40.30
2601 137.1200 2065.00 2052.52 41.90
2602 137.1700 2094.00 2068.38 42.30
2603 137.2200 2176.00 2084.00 42.80
2604 137.2700 2196.00 2099.21 43.20
2605 137.3200 2178.00 2113.83 43.10
2606 137.3700 2229.00 2127.66 43.30
2607 137.4200 2144.00 2140.49 42.60
2608 137.4700 2262.00 2152.04 44.00
2609 137.5200 2290.00 2161.95 43.90
2610 137.5700 2218.00 2169.71 43.30
2611 137.6200 2203.00 2174.60 43.30
2612 137.6700 2241.00 2176.17 43.40
2613 137.7200 2215.00 2173.82 43.40
2614 137.7700 2117.00 2167.37 42.50
2615 137.8200 2255.00 2157.12 44.10
2616 137.8700 2107.00 2143.74 42.30
2617 137.9200 2158.00 2128.14 43.40
2618 137.9700 2095.00 2111.28 42.50
2619 138.0200 2082.00 2093.97 42.10
2620 138.0700 2055.00 2076.69 42.30
2621 138.1200 2057.00 2060.30 42.30
2622 138.1700 2081.00 2044.97 42.10
2623 138.2200 2039.00 2030.94 42.40
2624 138.2700 1964.00 2018.32 41.30
2625 138.3200 2066.00 2007.22 42.40
2626 138.3700 1984.00 1997.72 41.90
2627 138.4200 1946.00 1989.80 41.60
2628 138.4700 1939.00 1983.46 41.10
2629 138.5200 1968.00 1978.68 42.20
2630 138.5700 1963.00 1975.44 41.80
2631 138.6200 1937.00 1973.73 41.60
2632 138.6700 1968.00 1973.56 42.20
2633 138.7200 2000.00 1974.92 42.50
2634 138.7700 1939.00 1977.82 41.60
2635 138.8200 1972.00 1982.25 42.70
2636 138.8700 1970.00 1988.22 42.20
2637 138.9200 1934.00 1995.26 41.90
2638 138.9700 1985.00 2004.17 42.80
2639 139.0200 2022.00 2014.40 42.80
2640 139.0700 2048.00 2025.79 43.10
2641 139.1200 2132.00 2038.08 44.50
2642 139.1700 2032.00 2050.92 42.90
2643 139.2200 2036.00 2063.83 43.30
2644 139.2700 2134.00 2076.18 44.50
2645 139.3200 2125.00 2087.23 44.10
2646 139.3700 2140.00 2096.16 44.40
2647 139.4200 2111.00 2102.15 44.20
2648 139.4700 2146.00 2104.53 44.40
2649 139.5200 2095.00 2101.88 43.70
2650 139.5700 2119.00 2096.26 44.30
2651 139.6200 2135.00 2086.97 44.00
2652 139.6700 2138.00 2074.67 44.20
2653 139.7200 2073.00 2060.13 43.50
2654 139.7700 2087.00 2044.16 43.40
2655 139.8200 2094.00 2027.49 43.50
2656 139.8700 2116.00 2010.75 43.90
2657 139.9200 2011.00 1994.39 42.30
2658 139.9700 1955.00 1978.80 42.00
2659 140.0200 1958.00 1964.23 41.70
2660 140.0700 1975.00 1950.87 42.00
2661 140.1200 2040.00 1938.84 42.40
2662 140.1700 1933.00 1928.21 41.40
2663 140.2200 1952.00 1919.02 41.30
2664 140.2700 1879.00 1911.26 40.70
2665 140.3200 1985.00 1904.92 41.50
2666 140.3700 1880.00 1899.95 40.60
2667 140.4200 1856.00 1896.33 40.10
2668 140.4700 1849.00 1894.00 40.10
2669 140.5200 1899.00 1892.91 40.30
2670 140.5700 1872.00 1893.02 40.30
2671 140.6200 1998.00 1894.29 41.20
2672 140.6700 1899.00 1896.57 40.20
2673 140.7200 1887.00 1900.03 40.10
2674 140.7700 1932.00 1904.54 40.50
2675 140.8200 1869.00 1910.05 39.70
2676 140.8700 1945.00 1916.49 40.70
2677 140.9200 1841.00 1923.79 39.40
2678 140.9700 1916.00 1931.81 40.20
2679 141.0200 2042.00 1940.41 41.60
2680 141.0700 1981.00 1949.35 40.90
2681 141.1200 1980.00 1958.36 40.70
2682 141.1700 1981.00 1967.09 40.90
2683 141.2200 1965.00 1975.15 40.60
2684 141.2700 2088.00 1982.07 41.80
2685 141.3200 2067.00 1987.40 41.70
2686 141.3700 2079.00 1990.67 41.80
2687 141.4200 2093.00 1991.50 41.90
2688 141.4700 2068.00 1989.70 41.70
2689 141.5200 2026.00 1985.30 41.20
2690 141.5700 2071.00 1978.57 41.60
2691 141.6200 1954.00 1970.03 40.40
2692 141.6700 1938.00 1960.25 40.30
2693 141.7200 1920.00 1949.82 40.20
2694 141.7700 2066.00 1939.22 41.50
2695 141.8200 1868.00 1928.85 39.60
2696 141.8700 1954.00 1918.99 40.50
2697 141.9200 1854.00 1909.83 39.40
2698 141.9700 1875.00 1901.50 39.70
2699 142.0200 1898.00 1894.05 39.80
2700 142.0700 1947.00 1887.54 40.30
2701 142.1200 1877.00 1881.96 39.60
2702 142.1700 1817.00 1877.26 39.00
2703 142.2200 1860.00 1873.41 39.40
2704 142.2700 1806.00 1870.34 38.80
2705 142.3200 1875.00 1867.99 39.70
2706 142.3700 1832.00 1866.30 39.10
2707 142.4200 1862.00 1865.19 39.50
2708 142.4700 1803.00 1864.62 38.90
2709 142.5200 1872.00 1864.54 39.40
2710 142.5700 1933.00 1864.90 40.20
2711 142.6200 1802.00 1865.68 38.90
2712 142.6700 1849.00 1866.86 39.20
2713 142.7200 1845.00 1868.44 39.20
2714 142.7700 1824.00 1870.46 39.10
2715 142.8200 1762.00 1872.95 38.40
2716 142.8700 1791.00 1875.97 38.60
2717 142.9200 1880.00 1879.60 39.80
2718 142.9700 1887.00 1883.76 39.70
2719 143.0200 1918.00 1888.90 39.90
2720 143.0700 1845.00 1894.98 39.40
2721 143.1200 1800.00 1902.11 38.80
2722 143.1700 1843.00 1910.44 39.10
2723 143.2200 1906.00 1920.06 40.00
2724 143.2700 1844.00 1931.03 39.30
2725 143.3200 1896.00 1943.53 39.80
2726 143.3700 1867.00 1957.51 39.60
2727 143.4200 1942.00 1972.93 40.40
2728 143.4700 1965.00 1989.66 40.50
2729 143.5200 1981.00 2007.47 40.70
2730 143.5700 2016.00 2026.02 41.10
2731 143.6200 1950.00 2044.78 40.30
2732 143.6700 2071.00 2063.06 41.70
2733 143.7200 2121.00 2079.95 42.30
2734 143.7700 2079.00 2094.39 41.60
2735 143.8200 2087.00 2105.26 41.90
2736 143.8700 2120.00 2111.58 42.30
2737 143.9200 2138.00 2112.74 42.40
2738 143.9700 2058.00 2108.66 41.60
2739 144.0200 2064.00 2099.82 41.80
2740 144.0700 2038.00 2087.12 41.40
2741 144.1200 2124.00 2071.68 42.30
2742 144.1700 2173.00 2054.59 42.90
2743 144.2200 2037.00 2036.80 41.60
2744 144.2700 2054.00 2019.06 41.60
2745 144.3200 1987.00 2001.95 41.40
2746 144.3700 2018.00 1985.87 41.40
2747 144.4200 2036.00 1971.07 41.70
2748 144.4700 1934.00 1957.73 40.80
2749 144.5200 1913.00 1945.91 40.50
2750 144.5700 1873.00 1935.61 40.00
2751 144.6200 1930.00 1926.79 41.10
2752 144.6700 1835.00 1919.36 39.70
2753 144.7200 1903.00 1913.21 40.90
2754 144.7700 1856.00 1908.20 40.30
2755 144.8200 1973.00 1904.21 41.70
2756 144.8700 1832.00 1901.10 40.10
2757 144.9200 1852.00 1898.75 40.70
2758 144.9700 1932.00 1897.06 41.30
2759 145.0200 1921.00 1895.93 41.50
2760 145.0700 1888.00 1895.28 41.10
2761 145.1200 1834.00 1895.04 40.70
2762 145.1700 1973.00 1895.18 42.10
2763 145.2200 1876.00 1895.64 41.40
2764 145.2700 1872.00 1896.40 41.10
2765 145.3200 1857.00 1897.45 41.20
2766 145.3700 1924.00 1898.77 42.00
2767 145.4200 1816.00 1900.35 40.70
2768 145.4700 1912.00 1902.21 41.80
2769 145.5200 1884.00 1904.34 41.70
2770 145.5700 1854.00 1906.75 41.10
2771 145.6200 1838.00 1909.46 41.20
2772 145.6700 1915.00 1912.50 42.00
2773 145.7200 1866.00 1915.86 41.40
2774 145.7700 1855.00 1919.60 41.40
2775 145.8200 1877.00 1923.75 41.70
2776 145.8700 1938.00 1928.24 42.30
2777 145.9200 1825.00 1933.34 40.80
2778 145.9700 1974.00 1939.01 42.80
2779 146.0200 1935.00 1945.33 41.90
2780 146.0700 1836.00 1952.41 41.00
2781 146.1200 1956.00 1960.37 42.30
2782 146.1700 1861.00 1969.39 41.10
2783 146.2200 1911.00 1979.66 41.50
2784 146.2700 1879.00 1991.44 41.40
2785 146.3200 1907.00 2005.02 41.30
2786 146.3700 1934.00 2020.79 41.80
2787 146.4200 1962.00 2039.16 42.00
2788 146.4700 2030.00 2060.68 42.70
2789 146.5200 2002.00 2085.92 42.10
2790 146.5700 2028.00 2115.57 42.60
2791 146.6200 2003.00 2150.36 42.00
2792 146.6700 2057.00 2191.13 42.70
2793 146.7200 2038.00 2238.69 42.40
2794 146.7700 2107.00 2293.95 43.10
2795 146.8200 2114.00 2357.79 43.10
2796 146.8700 2106.00 2430.98 43.10
2797 146.9200 2211.00 2514.26 43.80
2798 146.9700 2338.00 2608.12 45.30
2799 147.0200 2362.00 2712.96 45.30
2800 147.0700 2501.00 2828.87 46.60
2801 147.1200 2658.00 2955.50 48.00
2802 147.1700 2746.00 3092.19 48.80
2803 147.2200 2952.00 3237.68 50.50
2804 147.2700 3257.00 3390.28 53.10
2805 147.3200 3406.00 3547.35 54.20
2806 147.3700 3681.00 3705.55 56.30
2807 147.4200 3813.00 3860.65 57.30
2808 147.4700 3888.00 4007.29 57.90
2809 147.5200 4104.00 4139.68 59.10
2810 147.5700 4098.00 4251.30 59.40
2811 147.6200 4386.00 4336.11 61.30
2812 147.6700 4308.00 4388.83 60.50
2813 147.7200 4364.00 4406.59 61.00
2814 147.7700 4293.00 4388.39 60.70
2815 147.8200 4329.00 4335.93 60.70
2816 147.8700 4308.00 4253.01 60.60
2817 147.9200 4266.00 4145.06 60.40
2818 147.9700 4124.00 4018.23 59.20
2819 148.0200 4031.00 3878.58 58.20
2820 148.0700 3873.00 3731.94 57.60
2821 148.1200 3733.00 3583.16 56.00
2822 148.1700 3526.00 3436.39 54.40
2823 148.2200 3403.00 3294.76 53.60
2824 148.2700 3266.00 3160.52 52.30
2825 148.3200 3095.00 3035.40 50.80
2826 148.3700 2984.00 2920.36 50.20
2827 148.4200 2740.00 2815.94 47.70
2828 148.4700 2567.00 2722.17 46.20
2829 148.5200 2517.00 2638.76 45.90
2830 148.5700 2435.00 2565.09 45.00
2831 148.6200 2346.00 2500.36 43.90
2832 148.6700 2317.00 2443.65 44.00
2833 148.7200 2283.00 2393.93 43.60
2834 148.7700 2233.00 2350.20 42.80
2835 148.8200 2215.00 2311.51 43.00
2836 148.8700 2130.00 2277.04 42.10
2837 148.9200 2153.00 2246.07 42.10
2838 148.9700 2081.00 2218.05 41.70
2839 149.0200 2094.00 2192.50 41.60
2840 149.0700 2092.00 2169.09 41.50
2841 149.1200 2032.00 2147.56 41.00
2842 149.1700 2159.00 2127.69 42.20
2843 149.2200 2063.00 2109.33 41.20
2844 149.2700 2030.00 2092.34 40.90
2845 149.3200 1950.00 2076.62 40.20
2846 149.3700 1989.00 2062.10 40.50
2847 149.4200 1916.00 2048.70 39.80
2848 149.4700 1919.00 2036.39 39.90
2849 149.5200 1974.00 2025.09 40.40
2850 149.5700 2013.00 2014.78 40.80
2851 149.6200 1927.00 2005.43 39.90
2852 149.6700 1913.00 1997.00 39.80
2853 149.7200 1924.00 1989.47 39.70
2854 149.7700 1866.00 1982.81 39.20
2855 149.8200 1846.00 1976.99 39.10
2856 149.8700 1952.00 1971.99 40.10
2857 149.9200 1952.00 1967.79 40.20
2858 149.9700 1945.00 1964.37 40.20
2859 150.0200 1900.00 1961.73 39.50
2860 150.0700 1896.00 1959.85 39.60
2861 150.1200 1895.00 1958.75 39.80
2862 150.1700 1948.00 1958.42 40.00
2863 150.2200 1936.00 1958.88 40.10
2864 150.2700 1967.00 1960.17 40.50
2865 150.3200 1906.00 1962.31 39.70
2866 150.3700 1840.00 1965.35 39.10
2867 150.4200 1978.00 1969.34 40.90
2868 150.4700 1939.00 1974.35 40.10
2869 150.5200 1996.00 1980.43 40.90
2870 150.5700 1929.00 1987.67 40.40
2871 150.6200 1957.00 1996.13 40.60
2872 150.6700 1943.00 2005.91 40.30
2873 150.7200 1977.00 2017.07 41.10
2874 150.7700 1901.00 2029.70 40.00
2875 150.8200 1864.00 2043.86 39.80
2876 150.8700 1975.00 2059.63 41.10
2877 150.9200 2031.00 2077.03 41.50
2878 150.9700 2023.00 2096.11 41.40
2879 151.0200 1975.00 2116.89 41.40
2880 151.0700 2016.00 2139.34 41.40
2881 151.1200 2042.00 2163.42 41.90
2882 151.1700 2096.00 2189.05 42.60
2883 151.2200 2194.00 2216.11 43.60
2884 151.2700 2156.00 2244.45 43.10
2885 151.3200 2151.00 2273.79 43.60
2886 151.3700 2214.00 2303.98 43.80
2887 151.4200 2202.00 2334.68 44.00
2888 151.4700 2248.00 2365.51 44.50
2889 151.5200 2253.00 2395.92 44.60
2890 151.5700 2409.00 2426.02 46.00
2891 151.6200 2294.00 2455.20 45.20
2892 151.6700 2395.00 2483.18 46.00
2893 151.7200 2416.00 2509.63 46.40
2894 151.7700 2491.00 2534.36 47.10
2895 151.8200 2626.00 2557.16 48.30
2896 151.8700 2555.00 2577.92 47.80
2897 151.9200 2715.00 2596.59 49.40
2898 151.9700 2636.00 2613.19 48.50
2899 152.0200 2739.00 2627.85 49.80
2900 152.0700 2688.00 2640.77 49.10
2901 152.1200 2742.00 2652.23 49.80
2902 152.1700 2643.00 2662.54 48.90
2903 152.2200 2811.00 2671.98 50.30
2904 152.2700 2782.00 2680.87 50.20
2905 152.3200 2802.00 2689.41 50.40
2906 152.3700 2894.00 2697.78 51.10
2907 152.4200 2780.00 2706.06 49.80
2908 152.4700 2856.00 2714.27 50.90
2909 152.5200 2832.00 2722.38 50.10
2910 152.5700 2757.00 2730.28 49.70
2911 152.6200 2824.00 2737.86 50.20
2912 152.6700 2735.00 2744.97 49.20
2913 152.7200 2716.00 2751.34 48.90
2914 152.7700 2777.00 2757.12 49.70
2915 152.8200 2738.00 2762.11 48.90
2916 152.8700 2716.00 2766.28 48.90
2917 152.9200 2760.00 2769.67 49.10
2918 152.9700 2773.00 2772.36 49.20
2919 153.0200 2715.00 2774.46 48.50
2920 153.0700 2802.00 2776.09 49.50
2921 153.1200 2764.00 2777.36 48.60
2922 153.1700 2781.00 2778.34 49.10
2923 153.2200 2776.00 2779.07 48.80
2924 153.2700 2790.00 2779.51 48.90
2925 153.3200 2842.00 2779.55 49.20
2926 153.3700 2774.00 2779.06 48.80
2927 153.4200 2764.00 2777.84 48.20
2928 153.4700 2760.00 2775.71 48.50
2929 153.5200 2736.00 2772.48 48.00
2930 153.5700 2786.00 2767.97 48.40
2931 153.6200 2782.00 2762.09 48.40
2932 153.6700 2689.00 2754.73 47.60
2933 153.7200 2734.00 2745.88 47.70
2934 153.7700 2816.00 2735.54 48.70
2935 153.8200 2655.00 2723.73 47.10
2936 153.8700 2701.00 2710.51 47.40
2937 153.9200 2649.00 2695.93 46.90
2938 153.9700 2595.00 2680.10 46.60
2939 154.0200 2663.00 2663.12 46.60
2940 154.0700 2670.00 2645.15 47.10
2941 154.1200 2664.00 2626.39 46.90
2942 154.1700 2508.00 2607.05 45.20
2943 154.2200 2552.00 2587.40 45.80
2944 154.2700 2449.00 2567.68 44.90
2945 154.3200 2557.00 2548.15 45.50
2946 154.3700 2468.00 2529.06 45.00
2947 154.4200 2463.00 2510.62 45.00
2948 154.4700 2452.00 2493.00 44.60
2949 154.5200 2462.00 2476.36 44.80
2950 154.5700 2367.00 2460.80 44.10
2951 154.6200 2360.00 2446.37 43.60
2952 154.6700 2432.00 2433.08 44.60
2953 154.7200 2323.00 2420.71 43.50
2954 154.7700 2367.00 2409.67 43.70
2955 154.8200 2268.00 2399.68 43.00
2956 154.8700 2307.00 2390.65 43.30
2957 154.9200 2333.00 2382.50 43.30
2958 154.9700 2409.00 2375.14 44.30
2959 155.0200 2348.00 2368.46 43.60
2960 155.0700 2271.00 2362.38 42.70
2961 155.1200 2423.00 2356.83 44.40
2962 155.1700 2330.00 2351.72 43.40
2963 155.2200 2313.00 2347.01 43.30
2964 155.2700 2323.00 2342.62 43.50
2965 155.3200 2450.00 2338.41 44.70
2966 155.3700 2309.00 2334.60 43.30
2967 155.4200 2433.00 2331.02 44.60
2968 155.4700 2370.00 2327.67 44.00
2969 155.5200 2322.00 2324.52 43.40
2970 155.5700 2390.00 2321.58 44.20
2971 155.6200 2378.00 2318.85 44.10
2972 155.6700 2382.00 2316.31 44.00
2973 155.7200 2406.00 2314.00 44.40
2974 155.7700 2419.00 2311.91 44.50
2975 155.8200 2314.00 2310.08 43.70
2976 155.8700 2341.00 2308.52 43.80
2977 155.9200 2364.00 2307.29 44.40
2978 155.9700 2377.00 2306.41 44.20
2979 156.0200 2335.00 2305.91 43.80
2980 156.0700 2314.00 2305.84 43.90
2981 156.1200 2307.00 2306.23 43.70
2982 156.1700 2376.00 2307.10 44.20
2983 156.2200 2359.00 2308.47 44.40
2984 156.2700 2419.00 2310.35 44.70
2985 156.3200 2359.00 2312.73 44.30
2986 156.3700 2333.00 2315.60 44.20
2987 156.4200 2334.00 2318.94 44.10
2988 156.4700 2429.00 2322.69 45.00
2989 156.5200 2337.00 2326.82 44.20
2990 156.5700 2340.00 2331.26 44.10
2991 156.6200 2300.00 2335.93 43.90
2992 156.6700 2372.00 2340.77 44.60
2993 156.7200 2469.00 2345.58 45.70
2994 156.7700 2458.00 2350.51 45.40
2995 156.8200 2441.00 2355.36 45.50
2996 156.8700 2380.00 2360.07 44.80
2997 156.9200 2316.00 2364.57 44.30
2998 156.9700 2388.00 2368.81 45.00
2999 157.0200 2411.00 2372.78 45.40
3000 157.0700 2419.00 2376.45 45.30
3001 157.1200 2297.00 2379.86 44.30
3002 157.1700 2479.00 2383.03 46.00
3003 157.2200 2422.00 2386.01 45.90
3004 157.2700 2379.00 2388.89 45.10
3005 157.3200 2352.00 2391.75 45.50
3006 157.3700 2338.00 2394.67 45.10
3007 157.4200 2416.00 2397.77 46.10
3008 157.4700 2422.00 2401.13 46.20
3009 157.5200 2392.00 2404.85 46.10
3010 157.5700 2357.00 2409.01 45.60
3011 157.6200 2369.00 2413.69 46.30
3012 157.6700 2477.00 2418.95 46.90
3013 157.7200 2449.00 2424.82 47.00
3014 157.7700 2467.00 2431.33 47.20
3015 157.8200 2420.00 2438.49 46.90
3016 157.8700 2475.00 2446.28 47.30
3017 157.9200 2483.00 2454.66 47.90
3018 157.9700 2503.00 2463.57 47.70
3019 158.0200 2521.00 2472.95 48.00
3020 158.0700 2478.00 2482.68 47.80
3021 158.1200 2492.00 2492.65 47.80
3022 158.1700 2514.00 2502.70 47.90
3023 158.2200 2548.00 2512.68 48.80
3024 158.2700 2616.00 2522.40 49.00
3025 158.3200 2532.00 2531.65 48.40
3026 158.3700 2665.00 2540.21 49.90
3027 158.4200 2609.00 2547.87 48.90
3028 158.4700 2680.00 2554.37 49.80
3029 158.5200 2617.00 2559.50 49.20
3030 158.5700 2578.00 2563.03 48.60
3031 158.6200 2550.00 2564.78 48.20
3032 158.6700 2632.00 2564.57 49.30
3033 158.7200 2584.00 2562.28 48.60
3034 158.7700 2634.00 2557.83 49.00
3035 158.8200 2572.00 2551.19 48.40
3036 158.8700 2629.00 2542.38 49.00
3037 158.9200 2518.00 2531.48 47.60
3038 158.9700 2626.00 2518.60 48.90
3039 159.0200 2545.00 2503.88 47.80
3040 159.0700 2564.00 2487.54 48.00
3041 159.1200 2550.00 2469.76 47.70
3042 159.1700 2593.00 2450.76 48.30
3043 159.2200 2519.00 2430.77 47.20
3044 159.2700 2551.00 2409.98 47.70
3045 159.3200 2498.00 2388.60 46.90
3046 159.3700 2514.00 2366.84 47.10
3047 159.4200 2489.00 2344.86 46.50
3048 159.4700 2394.00 2322.85 45.90
3049 159.5200 2378.00 2300.94 45.40
3050 159.5700 2456.00 2279.29 46.20
3051 159.6200 2324.00 2258.00 44.80
3052 159.6700 2328.00 2237.19 44.90
3053 159.7200 2303.00 2216.98 44.50
3054 159.7700 2261.00 2197.44 44.20
3055 159.8200 2290.00 2178.66 44.40
3056 159.8700 2292.00 2160.70 44.40
3057 159.9200 2276.00 2143.63 44.10
3058 159.9700 2190.00 2127.50 43.40
3059 160.0200 2184.00 2112.33 43.10
loop_
_pd_proc_info_excluded_regions
'from 3.646 to 7.000'
'from 160 to 164.765'
loop_
_refln_index_h
_refln_index_k
_refln_index_l
_refln_index_m_1
_refln_F_squared_calc
_refln_F_squared_meas
_refln_observed_status
_refln_d_spacing
0 0 0 4 0.01 0.03 < 8.367761
0 0 1 -3 0.69 1.74 o 5.741894
0 0 1 -1 57.28 53.94 o 4.518034
1 0 0 -3 1.44 1.36 o 4.506996
1 0 0 -1 19.56 16.31 o 4.156137
1 0 1 -4 0.94 0.77 o 4.021775
0 1 0 1 10.11 8.35 o 3.899867
0 1 0 3 0.33 0.20 o 3.703917
1 0 0 1 4.26 2.56 o 3.683652
0 0 1 1 3.38 2.01 o 3.656650
0 1 1 -4 0.37 0.38 o 3.360740
1 0 1 -2 5.24 5.53 o 3.284143
1 0 0 3 0.00 0.00 < 3.216777
0 1 1 -2 9.31 10.05 o 3.106463
0 0 1 3 0.10 0.11 o 3.046741
1 1 0 -4 0.30 0.30 o 2.982297
-1 0 1 -2 25.06 24.88 o 2.953700
-1 0 1 -4 0.06 0.05 o 2.944518
1 1 0 -2 0.91 0.86 o 2.916972
-1 0 1 0 144.43 144.87 o 2.874243
0 1 1 0 154.65 154.36 o 2.818812
1 1 0 0 143.80 140.75 o 2.776070
1 0 1 0 167.69 163.87 o 2.765552
-1 0 1 2 14.47 14.16 o 2.725569
1 1 1 -3 1.32 1.35 o 2.660891
1 1 0 2 0.03 0.03 o 2.589479
0 0 2 -4 26.83 24.74 o 2.539425
0 1 1 2 5.07 4.67 o 2.538172
-1 0 1 4 2.41 2.22 o 2.537391
1 1 0 4 0.08 0.08 o 2.386041
1 1 1 -1 100.84 100.82 o 2.385705
1 0 1 2 1.33 1.33 o 2.384190
-1 1 1 -3 8.82 8.96 o 2.363959
-1 1 1 -1 92.98 94.81 o 2.345326
0 1 1 4 0.26 0.30 o 2.283761
-1 1 1 1 22.25 25.74 o 2.283396
0 0 2 -2 76.24 88.38 o 2.259017
-1 1 1 3 0.00 0.00 < 2.187752
2 0 0 -4 0.56 0.66 o 2.178690
1 1 1 1 8.22 8.71 o 2.145210
1 0 2 -3 1.19 0.68 o 2.105758
1 0 1 4 0.10 0.07 o 2.093190
2 0 0 -2 42.67 30.54 o 2.078068
0 1 2 -3 0.00 0.00 < 2.043459
0 0 2 0 329.87 323.54 o 2.024505
2 0 1 -3 0.15 0.15 o 1.991148
-1 0 2 -3 3.16 3.06 o 1.986042
0 2 0 0 837.56 848.25 o 1.963305
2 0 0 0 670.02 679.65 o 1.962650
1 1 2 -4 4.84 4.92 o 1.950224
0 2 0 2 0.27 0.28 o 1.949933
1 1 1 3 2.56 2.63 o 1.938757
0 2 0 4 0.01 0.00 < 1.911399
-1 0 2 -1 51.73 51.09 o 1.882509
0 1 2 -1 58.46 57.89 o 1.876677
2 1 0 -3 5.64 5.55 o 1.872887
1 0 2 -1 60.26 60.19 o 1.870615
0 2 1 -3 1.85 1.85 o 1.857710
2 1 1 -4 0.24 0.23 o 1.842302
2 0 0 2 17.78 16.71 o 1.841826
0 0 2 2 14.93 15.31 o 1.828325
2 0 1 -1 54.13 54.15 o 1.818203
-1 1 2 -4 0.12 0.11 o 1.805585
0 2 1 -1 63.86 59.85 o 1.800643
1 2 0 -3 1.23 1.17 o 1.799942
-2 0 1 1 5.20 4.90 o 1.799281
2 1 0 -1 27.93 26.21 o 1.797350
-2 0 1 3 0.37 0.35 o 1.795412
-2 0 1 -1 26.09 25.48 o 1.782599
1 2 0 -1 23.94 23.84 o 1.775203
-1 0 2 1 0.76 0.75 o 1.773389
1 1 2 -2 24.83 24.29 o 1.768832
1 2 1 -4 0.42 0.42 o 1.764304
-2 0 1 -3 2.17 2.11 o 1.747019
-1 1 2 -2 46.78 45.68 o 1.736000
1 2 0 1 6.99 6.83 o 1.732584
0 2 1 1 0.42 0.41 o 1.729750
0 1 2 1 0.51 0.49 o 1.726361
2 0 0 4 0.00 0.00 < 1.722343
2 1 0 1 5.76 3.30 o 1.712068
2 1 1 -2 0.13 0.08 o 1.711652
1 2 1 -2 1.77 2.39 o 1.685144
1 0 2 1 2.12 2.30 o 1.682679
1 2 0 3 0.13 0.13 o 1.675833
2 0 1 1 11.14 11.20 o 1.666900
-1 0 2 3 0.08 0.09 o 1.664566
0 0 2 4 2.84 2.94 o 1.663293
-1 1 2 0 121.49 124.76 o 1.657387
0 2 1 3 0.11 0.11 o 1.650335
2 0 2 -4 4.67 4.94 o 1.642071
-2 1 1 2 9.68 10.29 o 1.636224
-1 2 1 -2 15.14 16.05 o 1.635056
-1 2 1 -4 0.00 0.00 < 1.633494
-2 1 1 0 97.89 103.39 o 1.631345
-2 1 1 4 3.19 3.37 o 1.625589
2 1 0 3 0.36 0.38 o 1.622411
-1 2 1 0 121.26 127.81 o 1.621192
1 1 2 0 178.09 188.28 o 1.614909
-2 1 1 -2 11.63 12.36 o 1.611359
1 2 1 0 134.74 147.12 o 1.600911
-1 2 1 2 9.71 10.58 o 1.593042
0 1 2 3 0.14 0.16 o 1.592581
2 1 1 0 131.90 142.98 o 1.590789
-2 1 1 -4 0.02 0.02 o 1.577875
-1 1 2 2 22.78 24.43 o 1.574447
0 2 2 -4 20.75 26.88 o 1.553231
-1 2 1 4 1.73 2.19 o 1.552766
2 0 1 3 2.34 3.06 o 1.534931
1 0 2 3 2.59 3.26 o 1.529039
1 2 1 2 0.51 0.66 o 1.515580
0 0 3 -3 5.00 5.84 o 1.506011
2 0 2 -2 109.23 129.91 o 1.501835
-1 1 2 4 4.02 4.60 o 1.490856
1 1 2 2 12.12 13.80 o 1.483449
0 2 2 -2 59.49 66.22 o 1.481864
2 1 1 2 0.06 0.06 o 1.480648
1 0 3 -4 11.71 13.12 o 1.480385
-2 0 2 -4 22.71 25.49 o 1.476850
-2 0 2 -2 6.45 7.05 o 1.462128
2 2 0 -4 0.50 0.61 o 1.458486
2 1 2 -3 0.34 0.36 o 1.456981
0 1 3 -4 1.83 2.03 o 1.453538
-2 0 2 0 250.35 256.61 o 1.437121
1 2 2 -3 1.33 1.37 o 1.435988
1 2 1 4 0.18 0.18 o 1.431984
-1 0 3 -4 6.36 6.42 o 1.427975
2 2 0 -2 29.52 29.30 o 1.427114
0 2 2 0 233.55 241.09 o 1.409406
-2 0 2 2 27.11 27.44 o 1.403382
0 0 3 -1 27.65 26.70 o 1.398691
2 2 1 -3 0.27 0.29 o 1.398007
-1 2 2 -3 3.88 4.16 o 1.396236
2 2 0 0 487.11 509.51 o 1.388035
3 0 0 -3 1.96 2.02 o 1.385379
2 0 2 0 168.34 173.09 o 1.382776
2 1 1 4 0.46 0.48 o 1.381111
-2 1 2 -3 0.32 0.30 o 1.377389
3 0 1 -4 1.35 1.39 o 1.376826
1 1 2 4 0.39 0.40 o 1.370338
-2 0 2 4 7.47 8.23 o 1.362785
1 0 3 -2 10.64 11.93 o 1.362356
-2 1 2 -1 47.95 54.59 o 1.360900
0 1 3 -2 13.66 15.67 o 1.360831
-1 0 3 -2 31.38 36.16 o 1.359203
-1 2 2 -1 46.43 53.64 o 1.358801
1 2 2 -1 55.43 63.10 o 1.354308
2 1 2 -1 56.42 61.42 o 1.351917
2 2 0 2 14.61 14.08 o 1.343262
0 2 2 2 10.36 9.96 o 1.337997
-2 1 2 1 2.33 2.25 o 1.336386
3 0 0 -1 27.10 26.12 o 1.334758
1 1 3 -3 76.46 73.79 o 1.334508
2 2 1 -1 58.06 56.06 o 1.334015
-2 2 1 1 8.36 7.53 o 1.326487
3 1 0 -4 0.51 0.48 o 1.326359
-2 2 1 3 0.09 0.08 o 1.324935
-2 2 1 -1 27.74 25.49 o 1.319761
-1 2 2 1 2.03 1.77 o 1.316010
-1 1 3 -3 48.70 40.84 o 1.313273
0 3 0 1 6.28 4.68 o 1.307871
-2 1 2 3 0.10 0.08 o 1.305140
-2 2 1 -3 3.85 2.84 o 1.305125
0 0 3 1 0.66 0.44 o 1.303485
3 0 1 -2 0.15 0.08 o 1.301865
0 3 0 3 0.24 0.12 o 1.299956
2 2 0 4 0.07 0.04 o 1.294739
-1 0 3 0 52.31 27.55 o 1.291733
-3 0 1 4 4.80 3.32 o 1.289261
3 1 0 -2 2.92 1.91 o 1.285510
0 3 1 -4 0.37 0.27 o 1.283103
3 0 0 1 0.32 0.23 o 1.281724
2 0 2 2 2.53 1.86 o 1.280611
-3 0 1 2 17.04 13.04 o 1.277737
1 2 2 1 0.49 0.38 o 1.277635
0 1 3 0 57.86 44.24 o 1.276375
2 2 1 1 5.55 4.27 o 1.270687
-1 2 2 3 0.20 0.15 o 1.269651
0 2 2 4 1.83 1.39 o 1.269086
0 3 1 -2 6.26 4.51 o 1.267458
3 1 1 -3 16.88 13.01 o 1.267206
1 0 3 0 68.86 52.02 o 1.261465
2 2 2 -4 3.83 2.89 o 1.259584
2 1 2 1 1.37 1.03 o 1.259535
-3 0 1 0 47.82 37.07 o 1.259326
1 3 0 -4 0.12 0.09 o 1.258585
-1 1 3 -1 0.36 0.28 o 1.255635
1 3 0 -2 0.22 0.19 o 1.253539
0 3 1 0 72.87 66.80 o 1.245417
1 1 3 -1 2.07 1.85 o 1.242673
1 3 0 0 54.38 48.47 o 1.241662
3 1 0 0 82.74 73.68 o 1.241331
-3 0 1 -2 23.57 18.56 o 1.234908
3 0 1 0 75.59 55.86 o 1.231231
1 3 1 -3 1.53 1.12 o 1.230821
3 0 0 3 0.50 0.36 o 1.227884
-1 0 3 2 25.40 18.28 o 1.226760
1 3 0 2 0.10 0.06 o 1.223523
-3 1 1 3 0.79 0.59 o 1.220756
0 0 3 3 0.00 0.00 < 1.218883
0 3 1 2 2.24 1.00 o 1.217984
2 0 3 -3 2.65 2.69 o 1.210718
2 2 1 3 1.55 1.26 o 1.209234
-3 1 1 1 4.16 4.21 o 1.207802
1 2 2 3 2.04 1.56 o 1.206347
-3 0 1 -4 0.38 0.29 o 1.205553
3 1 1 -1 8.73 7.46 o 1.204901
1 3 0 4 0.03 0.03 o 1.199941
1 3 1 -1 38.68 28.67 o 1.199898
0 1 3 2 15.09 12.59 o 1.199701
-1 1 3 1 0.16 0.13 o 1.198778
-1 3 1 -3 2.81 2.32 o 1.197103
2 1 3 -4 5.73 4.75 o 1.196248
3 1 0 2 1.09 0.91 o 1.195270
0 2 3 -3 3.00 2.50 o 1.194942
-1 3 1 -1 37.80 32.11 o 1.194662
2 2 2 -2 83.07 72.16 o 1.192853
2 0 2 4 0.06 0.05 o 1.192095
-3 1 1 -1 12.39 11.31 o 1.189202
0 3 1 4 0.22 0.20 o 1.186282
-1 3 1 1 3.83 3.74 o 1.186230
1 2 3 -4 8.93 9.68 o 1.182019
3 0 2 -3 2.04 2.20 o 1.181203
-2 2 2 -4 17.03 18.65 o 1.180218
-2 0 3 -3 0.01 0.00 < 1.179482
2 1 2 3 1.47 1.56 o 1.177945
1 0 3 2 16.20 16.02 o 1.174287
-2 2 2 -2 5.01 4.80 o 1.172663
-1 3 1 3 0.00 0.00 < 1.172182
-3 1 1 -3 5.27 5.28 o 1.165737
1 3 1 1 0.34 0.34 o 1.165500
3 0 1 2 0.40 0.40 o 1.165282
-1 0 3 4 2.61 2.58 o 1.165012
3 1 2 -4 9.18 9.07 o 1.163795
1 1 3 1 0.12 0.12 o 1.161872
-2 2 2 0 182.97 181.85 o 1.159644
-1 2 3 -4 5.43 5.38 o 1.154822
-2 0 3 -1 25.36 25.17 o 1.148997
3 1 0 4 0.08 0.08 o 1.148535
0 3 2 -3 1.52 1.52 o 1.148330
3 1 1 1 0.01 0.01 o 1.145560
-1 1 3 3 0.08 0.08 o 1.143626
-2 1 3 -4 0.07 0.06 o 1.141813
-2 2 2 2 19.37 18.10 o 1.141698
0 2 3 -1 25.85 23.42 o 1.139168
3 2 0 -3 1.04 0.97 o 1.131942
1 3 2 -4 1.97 1.87 o 1.130980
2 2 2 0 117.87 111.47 o 1.130520
0 1 3 4 2.20 2.11 o 1.130179
0 0 4 -4 0.30 0.29 o 1.129508
2 0 3 -1 18.11 17.15 o 1.129337
1 3 1 3 0.72 0.68 o 1.128731
3 2 1 -4 0.82 0.81 o 1.127262
2 1 3 -2 0.43 0.58 o 1.120066
-3 0 2 -1 17.67 23.19 o 1.119580
-2 2 2 4 4.94 5.34 o 1.119516
1 2 3 -2 3.98 5.08 o 1.119279
-1 2 3 -2 16.60 19.83 o 1.117528
-3 0 2 -3 6.51 7.66 o 1.117514
-3 0 2 1 9.83 11.51 o 1.116654
-2 1 3 -2 12.87 15.24 o 1.116566
0 3 2 -1 28.26 33.19 o 1.116082
-2 0 3 1 2.34 2.72 o 1.115767
2 3 0 -3 3.15 3.68 o 1.115283
3 0 2 -1 39.35 43.06 o 1.112079
-3 0 2 3 0.07 0.08 o 1.108850
2 3 1 -4 0.02 0.02 o 1.108721
3 0 1 4 0.01 0.02 o 1.104071
3 2 0 -1 27.42 36.49 o 1.103822
-1 3 2 -4 0.06 0.08 o 1.100563
3 1 2 -2 0.00 0.00 < 1.099883
2 3 0 -1 16.23 22.67 o 1.098690
1 0 3 4 0.21 0.24 o 1.098237
1 3 2 -2 18.45 20.25 o 1.092078
1 1 3 3 0.08 0.09 o 1.090368
3 1 1 3 2.13 2.35 o 1.089555
-2 1 3 0 27.69 28.39 o 1.088292
0 2 3 1 0.01 0.00 < 1.085938
3 2 1 -2 0.64 0.70 o 1.085001
-1 3 2 -2 30.03 33.97 o 1.084216
0 3 2 1 0.26 0.27 o 1.081856
-2 0 3 3 0.00 0.00 < 1.080728
-1 2 3 0 41.77 41.48 o 1.079114
2 3 0 1 4.32 4.29 o 1.078312
2 3 1 -2 0.36 0.36 o 1.078208
-3 2 1 4 3.32 3.38 o 1.077672
-3 1 2 -2 23.38 22.85 o 1.076306
-3 1 2 0 41.93 40.81 o 1.075922
3 2 0 1 0.69 0.69 o 1.073259
2 2 2 2 1.77 1.77 o 1.072605
-3 1 2 -4 0.31 0.31 o 1.072262
-3 1 2 2 15.91 16.01 o 1.071123
-3 2 1 2 12.82 13.02 o 1.070915
0 0 4 -2 9.17 9.92 o 1.068244
-1 3 2 0 60.31 60.40 o 1.064247
-3 1 2 4 4.48 4.45 o 1.062084
1 2 3 0 51.04 51.64 o 1.061280
1 0 4 -3 0.29 0.29 o 1.060131
-3 2 1 0 42.86 43.30 o 1.060004
-2 3 1 2 3.74 3.69 o 1.058580
2 0 3 1 2.04 2.02 o 1.058174
-2 1 3 2 16.74 16.58 o 1.057811
0 1 4 -3 0.07 0.07 o 1.057603
-2 3 1 0 49.95 49.64 o 1.057256
-2 3 1 4 1.61 1.61 o 1.055684
-1 0 4 -3 2.83 2.79 o 1.055042
2 3 0 3 0.08 0.08 o 1.054812
1 1 4 -4 37.21 36.67 o 1.053283
1 3 2 0 91.34 90.08 o 1.052742
2 1 3 0 53.87 53.29 o 1.052612
-2 3 1 -2 6.45 6.39 o 1.051757
3 0 2 1 1.16 1.17 o 1.049670
0 3 2 3 0.26 0.26 o 1.046482
2 3 1 0 67.75 67.81 o 1.045973
-3 2 1 -2 17.00 17.24 o 1.045319
3 2 1 0 59.91 60.60 o 1.043086
-2 3 1 -4 0.19 0.20 o 1.042277
3 1 2 0 99.41 99.15 o 1.041407
-1 3 2 2 9.99 9.96 o 1.041287
3 2 0 3 0.07 0.07 o 1.041049
-1 2 3 2 18.24 18.19 o 1.040363
-1 1 4 -4 22.46 22.24 o 1.039306
4 0 0 -4 1.43 1.44 o 1.039034
0 2 3 3 0.04 0.04 o 1.035546
3 0 3 -4 11.80 13.18 o 1.030653
2 2 3 -3 1.92 2.29 o 1.030525
-3 2 1 -4 0.26 0.32 o 1.027334
-2 1 3 4 3.96 4.78 o 1.025878
2 2 2 4 0.05 0.05 o 1.018968
-1 3 2 4 1.89 2.01 o 1.015986
1 3 2 2 5.05 5.29 o 1.013633
2 3 1 2 0.06 0.06 o 1.012738
0 0 4 0 37.50 38.99 o 1.012252
3 2 2 -3 1.55 1.61 o 1.012140
-2 2 3 -3 0.16 0.16 o 1.011057
-1 0 4 -1 24.62 25.62 o 1.010858
4 0 0 -2 40.58 42.02 o 1.010783
1 2 3 2 11.56 12.05 o 1.007779
2 3 2 -3 2.28 2.29 o 1.005067
0 1 4 -1 25.86 26.49 o 1.004992
0 3 3 -4 2.09 2.16 o 1.003935
4 0 1 -3 0.11 0.11 o 1.003349
3 2 1 2 0.54 0.57 o 1.002069
-1 2 3 4 1.74 1.74 o 1.001898
1 0 4 -1 27.10 27.36 o 0.999183
-1 1 4 -2 5.36 5.52 o 0.998766
2 0 3 3 0.66 0.63 o 0.995424
1 1 4 -2 0.07 0.05 o 0.995199
3 0 2 3 3.57 3.14 o 0.993196
2 1 3 2 5.42 4.81 o 0.992530
4 1 0 -3 2.26 1.96 o 0.991854
-2 2 3 -1 22.25 20.12 o 0.991657
2 0 4 -4 0.48 0.43 o 0.990621
4 1 1 -4 0.02 0.02 o 0.990179
3 1 2 2 1.56 1.40 o 0.987903
-4 0 1 3 0.01 0.01 o 0.984409
0 4 0 0 351.12 330.89 o 0.981653
4 0 0 0 150.60 141.73 o 0.981325
0 4 0 2 0.02 0.02 o 0.979968
2 3 1 4 0.13 0.12 o 0.979113
0 2 4 -4 0.09 0.08 o 0.979047
2 2 3 -1 17.35 16.94 o 0.978935
-3 0 3 -4 0.78 0.72 o 0.978827
-2 3 2 -3 1.43 1.39 o 0.977784
1 3 2 4 0.29 0.28 o 0.975252
0 4 0 4 0.23 0.22 o 0.974967
3 0 3 -2 0.02 0.02 o 0.973355
-3 2 2 -1 15.05 14.65 o 0.972560
-2 3 2 -1 22.20 21.82 o 0.971833
0 3 3 -2 7.02 6.89 o 0.971808
-3 2 2 -3 6.62 6.46 o 0.971205
-3 2 2 1 10.15 9.88 o 0.970640
-4 0 1 1 17.16 16.67 o 0.970279
3 1 3 -3 40.90 39.93 o 0.970181
-2 2 3 1 3.27 3.18 o 0.970058
-3 0 3 -2 25.43 25.27 o 0.969912
2 3 2 -1 32.73 32.56 o 0.968546
-1 0 4 1 7.21 7.11 o 0.968537
-2 0 4 -4 0.47 0.47 o 0.967713
3 2 2 -1 35.49 35.29 o 0.967631
0 4 1 -3 4.36 4.37 o 0.967614
4 1 0 -1 38.46 38.27 o 0.965579
-3 2 2 3 0.23 0.24 o 0.965501
4 0 1 -1 32.49 32.41 o 0.964392
-2 3 2 1 2.99 3.05 o 0.962786
3 2 1 4 0.01 0.00 < 0.962342
1 3 3 -3 51.93 53.81 o 0.962084
0 0 4 2 20.89 21.37 o 0.961048
-4 1 1 4 2.73 2.78 o 0.960330
-1 1 4 0 27.84 29.40 o 0.959458
0 4 1 -1 64.17 67.75 o 0.959271
1 4 0 -3 0.76 0.81 o 0.959165
3 3 0 -4 0.17 0.18 o 0.959017
1 2 3 4 0.14 0.14 o 0.958471
-3 0 3 0 17.32 18.31 o 0.958081
loop_
_jana_atom_site_displace_legendre_atom_site_label
_jana_atom_site_displace_legendre_axis
_jana_atom_site_displace_legendre_param_order
_jana_atom_site_displace_legendre_param_coeff
Fe1 x 1 0.0299(14)
Fe1 y 1 0
Fe1 z 1 0.0501(10)
Fe1 x 2 0
Fe1 y 2 0
Fe1 z 2 0
Fe1 x 3 -0.024(3)
Fe1 y 3 0
Fe1 z 3 0.105(3)
Fe1 x 4 0
Fe1 y 4 0
Fe1 z 4 0
Pb1 x 1 0.004(2)
Pb1 y 1 0
Pb1 z 1 -0.0445(18)
Pb1 x 2 0
Pb1 y 2 0
Pb1 z 2 0
Pb1 x 3 -0.085(5)
Pb1 y 3 0
Pb1 z 3 0.096(5)
Pb1 x 4 0
Pb1 y 4 0
Pb1 z 4 0
Bi1 x 1 0.004(2)
Bi1 y 1 0
Bi1 z 1 -0.0445(18)
Bi1 x 2 0
Bi1 y 2 0
Bi1 z 2 0
Bi1 x 3 -0.085(5)
Bi1 y 3 0
Bi1 z 3 0.096(5)
Bi1 x 4 0
Bi1 y 4 0
Bi1 z 4 0
O1 x 1 0.028(4)
O1 y 1 0
O1 z 1 0.249(3)
O1 x 2 0
O1 y 2 0
O1 z 2 0
O1 x 3 -0.100(11)
O1 y 3 0
O1 z 3 0.069(5)
O1 x 4 0
O1 y 4 0
O1 z 4 0
O2 x 1 0.039(6)
O2 y 1 0
O2 z 1 0.157(3)
O2 x 2 0
O2 y 2 0
O2 z 2 0
O2 x 3 -0.031(15)
O2 y 3 0
O2 z 3 0
O2 x 4 0
O2 y 4 0
O2 z 4 0
O3 x 1 0.034(3)
O3 y 1 0
O3 z 1 0.134(3)
O3 x 2 0
O3 y 2 0
O3 z 2 0
O3 x 3 0
O3 y 3 0
O3 z 3 0.071(8)
O3 x 4 0
O3 y 4 0
O3 z 4 0
