#------------------------------------------------------------------------------
#$Date: 2018-07-21 22:54:28 +0300 (Sat, 21 Jul 2018) $
#$Revision: 209177 $
#$URL: file:///home/coder/svn-repositories/cod/cif/2/31/07/2310784.cif $
#------------------------------------------------------------------------------
#
# This file is available in the Crystallography Open Database (COD),
# http://www.crystallography.net/. The original data for this entry
# were provided by IUCr Journals, http://journals.iucr.org/.
#
# The file may be used within the scientific community so long as
# proper attribution is given to the journal article from which the
# data were obtained.
#
data_2310784
loop_
_publ_author_name
'Batuk, Dmitry'
'Batuk, Maria'
'Abakumov, Artem M.'
'Hadermann, Joke'
_publ_section_title
;
 Synergy between transmission electron microscopy and powder diffraction:
 application to modulated structures.
;
_journal_coden_ASTM              ACSBDA
_journal_coeditor_code           DQ5010
_journal_issue                   2
_journal_name_full
;
 Acta Crystallographica, Section B: Structural Science, Crystal Engineering
 and Materials
;
_journal_page_first              127
_journal_page_last               143
_journal_paper_doi               10.1107/S2052520615005466
_journal_volume                  71
_journal_year                    2015
_chemical_formula_sum            'Bi0.545 Fe1.027 O2.783 Pb0.428'
_chemical_formula_weight         304.5
_space_group_crystal_system      monoclinic
_space_group_IT_number           12
_space_group_name_Hall           '-I 2y'
_space_group_name_H-M_alt        'I 1 2/m 1'
_space_group_ssg_name            X2/m(\a0\g)00
_cell_angle_alpha                90
_cell_angle_beta                 91.318(3)
_cell_angle_gamma                90
_cell_formula_units_Z            1
_cell_length_a                   3.90908(15)
_cell_length_b                   3.90585(12)
_cell_length_c                   4.16564(17)
_cell_measurement_temperature    900
_cell_modulation_dimension       1
_cell_volume                     63.585(4)
_diffrn_ambient_temperature      900
_diffrn_radiation_probe          neutron
_diffrn_radiation_wavelength     1.8857
_exptl_absorpt_coefficient_mu    0.004
_exptl_crystal_density_diffrn    7.9508
_exptl_crystal_F_000             129
_pd_instr_location               ' ?'
_pd_meas_2theta_range_inc        0.05
_pd_meas_2theta_range_max        164.600
_pd_meas_2theta_range_min        3.650
_pd_meas_number_of_points        3220
_pd_proc_2theta_range_inc        0.05
_pd_proc_2theta_range_max        159.95
_pd_proc_2theta_range_min        6.05
_pd_proc_ls_background_function  '7 Legendre polynoms'
_pd_proc_ls_pref_orient_corr     none
_pd_proc_ls_profile_function     Pseudo-Voigt
_pd_proc_ls_prof_R_factor        0.0389
_pd_proc_ls_prof_wR_expected     0.0203
_pd_proc_ls_prof_wR_factor       0.0495
_refine_ls_goodness_of_fit_all   2.44
_refine_ls_number_constraints    7
_refine_ls_number_parameters     66
_refine_ls_number_restraints     0
_refine_ls_R_factor_all          0.0578
_refine_ls_R_factor_gt           0.0555
_refine_ls_shift/su_max          0.0693
_refine_ls_shift/su_mean         0.0378
_refine_ls_weighting_scheme      sigma
_refine_ls_wR_factor_all         0.0713
_refine_ls_wR_factor_gt          0.0712
_cod_data_source_file            dq5010sup5.cif
_cod_data_source_block           I
_cod_depositor_comments
;
 Updating space group information.

 Antanas Vaitkus,
 2018-07-22
;
_cod_database_code               2310784
loop_
_space_group_symop_id
_space_group_symop_operation_xyz
1 x,y,z
2 -x,y,-z
3 x+0.5,y+0.5,z+0.5
4 -x+0.5,y+0.5,-z+0.5
5 -x,-y,-z
6 x,-y,z
7 -x+0.5,-y+0.5,-z+0.5
8 x+0.5,-y+0.5,z+0.5
loop_
_space_group_symop_ssg_id
_space_group_symop_ssg_operation_algebraic
1 x1,x2,x3,x4
2 -x1,x2,-x3,-x4
3 -x1,-x2,-x3,-x4
4 x1,-x2,x3,x4
5 x1+1/2,x2+1/2,x3+1/2,x4+1/2
6 -x1+1/2,x2+1/2,-x3+1/2,-x4+1/2
7 -x1+1/2,-x2+1/2,-x3+1/2,-x4+1/2
8 x1+1/2,-x2+1/2,x3+1/2,x4+1/2
loop_
_atom_site_label
_atom_site_type_symbol
_atom_site_fract_x
_atom_site_fract_y
_atom_site_fract_z
_atom_site_adp_type
_atom_site_U_iso_or_equiv
_atom_site_site_symmetry_multiplicity
_atom_site_occupancy
_atom_site_calc_flag
Fe1 Fe 0 0 0 Uiso 0.0202(6) 2 0.51334(11) d
Pb1 Pb 0 0 0 Uiso 0.0557(11) 2 0.21413(5) d
Bi1 Bi 0 0 0 Uiso 0.0557(11) 2 0.2726 d
O1 O 0 0.5 0 Uani 0.0326(18) 2 0.51334(11) d
O2 O 0.5 0 0 Uiso 0.0635(18) 2 0.4258(3) d
O3 O 0 0 0.5 Uiso 0.0650(13) 2 0.45246(11) d
loop_
_atom_site_aniso_label
_atom_site_aniso_type_symbol
_atom_site_aniso_U_11
_atom_site_aniso_U_22
_atom_site_aniso_U_33
_atom_site_aniso_U_12
_atom_site_aniso_U_13
_atom_site_aniso_U_23
O1 O 0.056(4) 0.0119(16) 0.028(4) 0 -0.029(3) 0
loop_
_atom_site_Fourier_wave_vector_seq_id
_jana_atom_site_fourier_wave_vector_q1_coeff
1 1
2 2
loop_
_atom_site_occ_special_func_atom_site_label
_atom_site_occ_special_func_crenel_c
_atom_site_occ_special_func_crenel_w
Fe1 0 0.51334(11)
Pb1 0.5 0.48666(11)
Bi1 0.5 0.4868
O1 0 0.51334(11)
O2 0 0.4258(3)
O3 0 0.45246(11)
loop_
_atom_type_symbol
_atom_type_scat_length_neutron
_atom_type_scat_source
Pb 9.405 International_Tables_Vol_C
Bi 8.532 International_Tables_Vol_C
Fe 9.450 International_Tables_Vol_C
O 5.803 International_Tables_Vol_C
loop_
_cell_wave_vector_seq_id
_cell_wave_vector_x
_cell_wave_vector_y
_cell_wave_vector_z
1 0.034196 0.000000 0.060882
loop_
_geom_angle_atom_site_label_1
_geom_angle_atom_site_label_2
_geom_angle_atom_site_label_3
_geom_angle_site_ssg_symmetry_1
_geom_angle_site_ssg_symmetry_3
_geom_angle_av
_geom_angle_min
_geom_angle_max
Fe1 Fe1 Fe1 1_4555 1_5455 90.0(3) 90.0(3) 90.0(3)
Fe1 Fe1 Fe1 1_4555 1_5655 90.0(3) 90.0(3) 90.0(3)
Fe1 Fe1 Fe1 1_4555 1_6555 179.2(4) 178.3(4) 180.0(5)
Fe1 Fe1 Fe1 1_4555 5_4445 52.5(4) 52.3(4) 52.6(4)
Fe1 Fe1 Fe1 1_4555 5_4455 51.2(3) 50.9(3) 51.5(3)
Fe1 Fe1 Fe1 1_4555 5_4545 52.5(4) 52.3(4) 52.6(4)
Fe1 Fe1 Fe1 1_4555 5_4555 51.2(3) 50.9(3) 51.5(3)
Fe1 Fe1 Fe1 1_4555 5_5455 126.9(4) 126.4(4) 128.0(4)
Fe1 Fe1 Fe1 1_4555 5_5555 126.9(4) 126.4(4) 128.0(4)
Fe1 Fe1 Pb1 1_4555 1_5545 88.0(5) 87.9(5) 88.1(5)
Fe1 Fe1 Pb1 1_4555 1_5565 90.6(5) 90.2(5) 91.3(5)
Fe1 Fe1 Pb1 1_4555 1_6555 169.5(5) 169.2(5) 169.6(5)
Fe1 Fe1 Pb1 1_4555 5_4445 55.8(5) 52.9(5) 59.8(6)
Fe1 Fe1 Pb1 1_4555 5_4455 55.4(5) 53.4(6) 61.6(5)
Fe1 Fe1 Pb1 1_4555 5_4545 55.8(5) 52.9(5) 59.8(6)
Fe1 Fe1 Pb1 1_4555 5_4555 55.4(5) 53.4(6) 61.6(5)
Fe1 Fe1 Pb1 1_4555 5_5445 124.3(5) 118.1(5) 126.1(5)
Fe1 Fe1 Pb1 1_4555 5_5455 124.4(6) 119.1(6) 126.9(5)
Fe1 Fe1 Pb1 1_4555 5_5545 124.3(5) 118.1(5) 126.1(5)
Fe1 Fe1 Pb1 1_4555 5_5555 124.4(6) 119.1(6) 126.9(5)
Fe1 Fe1 Bi1 1_4555 1_5545 88.0(5) 87.9(5) 88.1(5)
Fe1 Fe1 Bi1 1_4555 1_5565 90.6(5) 90.2(5) 91.3(5)
Fe1 Fe1 Bi1 1_4555 1_6555 169.5(5) 169.2(5) 169.6(5)
Fe1 Fe1 Bi1 1_4555 5_4445 55.8(5) 52.9(5) 59.8(6)
Fe1 Fe1 Bi1 1_4555 5_4455 55.3(5) 53.4(6) 61.6(5)
Fe1 Fe1 Bi1 1_4555 5_4545 55.8(5) 52.9(5) 59.8(6)
Fe1 Fe1 Bi1 1_4555 5_4555 55.3(5) 53.4(6) 61.6(5)
Fe1 Fe1 Bi1 1_4555 5_5445 124.3(5) 118.1(5) 126.1(5)
Fe1 Fe1 Bi1 1_4555 5_5455 124.4(6) 119.1(6) 126.9(5)
Fe1 Fe1 Bi1 1_4555 5_5545 124.3(5) 118.1(5) 126.1(5)
Fe1 Fe1 Bi1 1_4555 5_5555 124.4(6) 119.1(6) 126.9(5)
Fe1 Fe1 O1 1_4555 1_5455 89.7(14) 86.3(13) 92.0(14)
Fe1 Fe1 O1 1_4555 . 89.7(14) 86.3(13) 92.0(14)
Fe1 Fe1 O1 1_4555 5_4445 22.6(9) 21.9(9) 23.1(10)
Fe1 Fe1 O1 1_4555 5_4455 24.1(9) 23.9(9) 24.3(10)
Fe1 Fe1 O1 1_4555 5_5455 156.0(10) 155.2(10) 157.3(10)
Fe1 Fe1 O2 1_4555 1_4555 7.2(17) 0.1(17) 19.5(18)
Fe1 Fe1 O2 1_4555 . 172.0(17) 159.1(18) 179.7(17)
Fe1 Fe1 O3 1_4555 1_5545 90.3(15) 88.6(16) 91.2(13)
Fe1 Fe1 O3 1_4555 . 89.7(15) 87.8(12) 92.7(16)
Fe1 Fe1 Fe1 1_5455 1_5655 180.0(5) 180.0(5) 180.0(5)
Fe1 Fe1 Fe1 1_5455 1_6555 90.0(2) 90 90
Fe1 Fe1 Fe1 1_5455 5_4445 50.2(3) 50.1(3) 50.3(2)
Fe1 Fe1 Fe1 1_5455 5_4455 50.9(3) 50.8(3) 51.0(2)
Fe1 Fe1 Fe1 1_5455 5_4545 129.8(3) 129.7(3) 129.9(4)
Fe1 Fe1 Fe1 1_5455 5_4555 129.1(3) 129.0(3) 129.2(3)
Fe1 Fe1 Fe1 1_5455 5_5445 50.9(3) 50.8(3) 51.0(2)
Fe1 Fe1 Fe1 1_5455 5_5455 50.2(3) 50.1(3) 50.3(2)
Fe1 Fe1 Fe1 1_5455 5_5545 129.1(3) 129.0(3) 129.2(3)
Fe1 Fe1 Fe1 1_5455 5_5555 129.8(3) 129.7(3) 129.9(4)
Fe1 Fe1 Pb1 1_5455 1_4555 90.00(14) 90.00(14) 90.00(14)
Fe1 Fe1 Pb1 1_5455 1_5545 90.00(14) 90.00(11) 90.00(11)
Fe1 Fe1 Pb1 1_5455 1_5565 90.00(14) 90.00(19) 90.00(19)
Fe1 Fe1 Pb1 1_5455 1_6555 90.00(14) 90.00(15) 90.00(15)
Fe1 Fe1 Pb1 1_5455 5_4445 55.7(3) 53.8(4) 59.1(3)
Fe1 Fe1 Pb1 1_5455 5_4455 56.0(3) 53.7(4) 58.2(3)
Fe1 Fe1 Pb1 1_5455 5_4545 124.3(4) 120.9(3) 126.2(5)
Fe1 Fe1 Pb1 1_5455 5_4555 124.0(4) 121.8(5) 126.3(5)
Fe1 Fe1 Pb1 1_5455 5_5445 56.0(3) 53.7(4) 58.2(3)
Fe1 Fe1 Pb1 1_5455 5_5455 55.7(3) 53.8(4) 59.1(3)
Fe1 Fe1 Pb1 1_5455 5_5545 124.0(4) 121.8(5) 126.3(5)
Fe1 Fe1 Pb1 1_5455 5_5555 124.3(4) 120.9(3) 126.2(5)
Fe1 Fe1 Bi1 1_5455 1_4555 90.00(14) 90.00(14) 90.00(14)
Fe1 Fe1 Bi1 1_5455 1_5545 90.00(14) 90.00(11) 90.00(11)
Fe1 Fe1 Bi1 1_5455 1_5565 90.00(14) 90.00(19) 90.00(19)
Fe1 Fe1 Bi1 1_5455 1_6555 90.00(14) 90.00(15) 90.00(15)
Fe1 Fe1 Bi1 1_5455 5_4445 55.7(3) 53.8(4) 59.1(3)
Fe1 Fe1 Bi1 1_5455 5_4455 56.1(3) 53.7(4) 58.2(3)
Fe1 Fe1 Bi1 1_5455 5_4545 124.3(4) 120.9(3) 126.2(5)
Fe1 Fe1 Bi1 1_5455 5_4555 123.9(4) 121.8(5) 126.3(5)
Fe1 Fe1 Bi1 1_5455 5_5445 56.1(3) 53.7(4) 58.2(3)
Fe1 Fe1 Bi1 1_5455 5_5455 55.7(3) 53.8(4) 59.1(3)
Fe1 Fe1 Bi1 1_5455 5_5545 123.9(4) 121.8(5) 126.3(5)
Fe1 Fe1 Bi1 1_5455 5_5555 124.3(4) 120.9(3) 126.2(5)
Fe1 Fe1 O1 1_5455 1_5455 12.1(9) 0.0(5) 17.8(8)
Fe1 Fe1 O1 1_5455 . 167.9(9) 162.2(9) 180.0(5)
Fe1 Fe1 O1 1_5455 5_4445 90.00(16) 90.00(13) 90.00(13)
Fe1 Fe1 O1 1_5455 5_4455 90.00(14) 90.00(15) 90.00(15)
Fe1 Fe1 O1 1_5455 5_5445 90.00(14) 90.00(13) 90.00(13)
Fe1 Fe1 O1 1_5455 5_5455 90.00(16) 90.0(2) 90.0(2)
Fe1 Fe1 O2 1_5455 1_4555 90.0(2) 90 90
Fe1 Fe1 O2 1_5455 . 90.0(2) 90 90
Fe1 Fe1 O3 1_5455 1_5545 90.00(18) 90 90
Fe1 Fe1 O3 1_5455 . 90.00(18) 90 90
Fe1 Fe1 Fe1 1_5655 1_6555 90.0(2) 90 90
Fe1 Fe1 Fe1 1_5655 5_4445 129.8(3) 129.7(3) 129.9(4)
Fe1 Fe1 Fe1 1_5655 5_4455 129.1(3) 129.0(3) 129.2(3)
Fe1 Fe1 Fe1 1_5655 5_4545 50.2(3) 50.1(3) 50.3(2)
Fe1 Fe1 Fe1 1_5655 5_4555 50.9(3) 50.8(3) 51.0(2)
Fe1 Fe1 Fe1 1_5655 5_5445 129.1(3) 129.0(3) 129.2(3)
Fe1 Fe1 Fe1 1_5655 5_5455 129.8(3) 129.7(3) 129.9(4)
Fe1 Fe1 Fe1 1_5655 5_5545 50.9(3) 50.8(3) 51.0(2)
Fe1 Fe1 Fe1 1_5655 5_5555 50.2(3) 50.1(3) 50.3(2)
Fe1 Fe1 Pb1 1_5655 1_4555 90.00(14) 90.00(14) 90.00(14)
Fe1 Fe1 Pb1 1_5655 1_5545 90.00(14) 90.00(11) 90.00(11)
Fe1 Fe1 Pb1 1_5655 1_5565 90.00(14) 90.00(19) 90.00(19)
Fe1 Fe1 Pb1 1_5655 1_6555 90.00(14) 90.00(15) 90.00(15)
Fe1 Fe1 Pb1 1_5655 5_4445 124.3(4) 120.9(3) 126.2(5)
Fe1 Fe1 Pb1 1_5655 5_4455 124.0(4) 121.8(5) 126.3(5)
Fe1 Fe1 Pb1 1_5655 5_4545 55.7(3) 53.8(4) 59.1(3)
Fe1 Fe1 Pb1 1_5655 5_4555 56.0(3) 53.7(4) 58.2(3)
Fe1 Fe1 Pb1 1_5655 5_5445 124.0(4) 121.8(5) 126.3(5)
Fe1 Fe1 Pb1 1_5655 5_5455 124.3(4) 120.9(3) 126.2(5)
Fe1 Fe1 Pb1 1_5655 5_5545 56.0(3) 53.7(4) 58.2(3)
Fe1 Fe1 Pb1 1_5655 5_5555 55.7(3) 53.8(4) 59.1(3)
Fe1 Fe1 Bi1 1_5655 1_4555 90.00(14) 90.00(14) 90.00(14)
Fe1 Fe1 Bi1 1_5655 1_5545 90.00(14) 90.00(11) 90.00(11)
Fe1 Fe1 Bi1 1_5655 1_5565 90.00(14) 90.00(19) 90.00(19)
Fe1 Fe1 Bi1 1_5655 1_6555 90.00(14) 90.00(15) 90.00(15)
Fe1 Fe1 Bi1 1_5655 5_4445 124.3(4) 120.9(3) 126.2(5)
Fe1 Fe1 Bi1 1_5655 5_4455 123.9(4) 121.8(5) 126.3(5)
Fe1 Fe1 Bi1 1_5655 5_4545 55.7(3) 53.8(4) 59.1(3)
Fe1 Fe1 Bi1 1_5655 5_4555 56.1(3) 53.7(4) 58.2(3)
Fe1 Fe1 Bi1 1_5655 5_5445 123.9(4) 121.8(5) 126.3(5)
Fe1 Fe1 Bi1 1_5655 5_5455 124.3(4) 120.9(3) 126.2(5)
Fe1 Fe1 Bi1 1_5655 5_5545 56.1(3) 53.7(4) 58.2(3)
Fe1 Fe1 Bi1 1_5655 5_5555 55.7(3) 53.8(4) 59.1(3)
Fe1 Fe1 O1 1_5655 1_5455 167.9(9) 162.2(9) 180.0(5)
Fe1 Fe1 O1 1_5655 . 12.1(9) 0.0(5) 17.8(8)
Fe1 Fe1 O1 1_5655 5_4445 90.00(16) 90.00(13) 90.00(13)
Fe1 Fe1 O1 1_5655 5_4455 90.00(14) 90.00(15) 90.00(15)
Fe1 Fe1 O1 1_5655 5_5445 90.00(14) 90.00(13) 90.00(13)
Fe1 Fe1 O1 1_5655 5_5455 90.00(16) 90.0(2) 90.0(2)
Fe1 Fe1 O2 1_5655 1_4555 90.0(2) 90 90
Fe1 Fe1 O2 1_5655 . 90.0(2) 90 90
Fe1 Fe1 O3 1_5655 1_5545 90.00(18) 90 90
Fe1 Fe1 O3 1_5655 . 90.00(18) 90 90
Fe1 Fe1 Fe1 1_6555 5_4445 126.9(4) 126.4(4) 128.0(4)
Fe1 Fe1 Fe1 1_6555 5_4545 126.9(4) 126.4(4) 128.0(4)
Fe1 Fe1 Fe1 1_6555 5_5445 51.2(3) 50.9(3) 51.5(3)
Fe1 Fe1 Fe1 1_6555 5_5455 52.5(4) 52.3(4) 52.6(4)
Fe1 Fe1 Fe1 1_6555 5_5545 51.2(3) 50.9(3) 51.5(3)
Fe1 Fe1 Fe1 1_6555 5_5555 52.5(4) 52.3(4) 52.6(4)
Fe1 Fe1 Pb1 1_6555 1_4555 169.5(5) 169.2(5) 169.6(5)
Fe1 Fe1 Pb1 1_6555 1_5545 90.6(5) 90.2(5) 91.3(5)
Fe1 Fe1 Pb1 1_6555 1_5565 88.0(5) 87.9(5) 88.1(5)
Fe1 Fe1 Pb1 1_6555 5_4445 124.4(6) 119.1(6) 126.9(5)
Fe1 Fe1 Pb1 1_6555 5_4455 124.3(5) 118.1(5) 126.1(5)
Fe1 Fe1 Pb1 1_6555 5_4545 124.4(6) 119.1(6) 126.9(5)
Fe1 Fe1 Pb1 1_6555 5_4555 124.3(5) 118.1(5) 126.1(5)
Fe1 Fe1 Pb1 1_6555 5_5445 55.4(5) 53.4(6) 61.6(5)
Fe1 Fe1 Pb1 1_6555 5_5455 55.8(5) 52.9(5) 59.8(6)
Fe1 Fe1 Pb1 1_6555 5_5545 55.4(5) 53.4(6) 61.6(5)
Fe1 Fe1 Pb1 1_6555 5_5555 55.8(5) 52.9(5) 59.8(6)
Fe1 Fe1 Bi1 1_6555 1_4555 169.5(5) 169.2(5) 169.6(5)
Fe1 Fe1 Bi1 1_6555 1_5545 90.6(5) 90.2(5) 91.3(5)
Fe1 Fe1 Bi1 1_6555 1_5565 88.0(5) 87.9(5) 88.1(5)
Fe1 Fe1 Bi1 1_6555 5_4445 124.4(6) 119.1(6) 126.9(5)
Fe1 Fe1 Bi1 1_6555 5_4455 124.3(5) 118.1(5) 126.1(5)
Fe1 Fe1 Bi1 1_6555 5_4545 124.4(6) 119.1(6) 126.9(5)
Fe1 Fe1 Bi1 1_6555 5_4555 124.3(5) 118.1(5) 126.1(5)
Fe1 Fe1 Bi1 1_6555 5_5445 55.3(5) 53.4(6) 61.6(5)
Fe1 Fe1 Bi1 1_6555 5_5455 55.8(5) 52.9(5) 59.8(6)
Fe1 Fe1 Bi1 1_6555 5_5545 55.3(5) 53.4(6) 61.6(5)
Fe1 Fe1 Bi1 1_6555 5_5555 55.8(5) 52.9(5) 59.8(6)
Fe1 Fe1 O1 1_6555 1_5455 89.7(14) 86.3(13) 92.0(14)
Fe1 Fe1 O1 1_6555 . 89.7(14) 86.3(13) 92.0(14)
Fe1 Fe1 O1 1_6555 5_4445 156.0(10) 155.2(10) 157.3(10)
Fe1 Fe1 O1 1_6555 5_5445 24.1(9) 23.9(9) 24.3(10)
Fe1 Fe1 O1 1_6555 5_5455 22.6(9) 21.9(9) 23.1(10)
Fe1 Fe1 O2 1_6555 1_4555 172.0(17) 159.1(18) 179.7(17)
Fe1 Fe1 O2 1_6555 . 7.2(17) 0.1(17) 19.5(18)
Fe1 Fe1 O3 1_6555 1_5545 89.7(15) 87.8(12) 92.7(16)
Fe1 Fe1 O3 1_6555 . 90.3(15) 88.6(16) 91.2(13)
Fe1 Fe1 Fe1 5_4445 5_4545 79.6(3) 79.5(3) 79.9(3)
Fe1 Fe1 Fe1 5_4445 5_5445 76.1(4) 75.8(3) 76.5(4)
Fe1 Fe1 Fe1 5_4445 5_5545 124.5(4) 124.2(4) 125.1(4)
Fe1 Fe1 Pb1 5_4445 1_4555 59.4(4) 58.8(4) 60.0(3)
Fe1 Fe1 Pb1 5_4445 1_5545 61.0(4) 60.5(4) 61.8(4)
Fe1 Fe1 Pb1 5_4445 5_4455 72.0(5) 71.3(5) 72.6(4)
Fe1 Fe1 Pb1 5_4445 5_4555 112.1(5) 111.0(5) 112.7(5)
Fe1 Fe1 Pb1 5_4445 5_5445 73.1(5) 72.8(5) 73.4(5)
Fe1 Fe1 Pb1 5_4445 5_5455 107.8(3) 107.2(3) 108.0(3)
Fe1 Fe1 Pb1 5_4445 5_5545 114.5(5) 113.5(5) 115.6(5)
Fe1 Fe1 Pb1 5_4445 5_5555 166.1(5) 164.8(5) 166.7(5)
Fe1 Fe1 Bi1 5_4445 1_4555 59.4(4) 58.8(4) 60.0(3)
Fe1 Fe1 Bi1 5_4445 1_5545 61.0(4) 60.6(4) 61.8(4)
Fe1 Fe1 Bi1 5_4445 5_4455 72.0(5) 71.3(5) 72.6(4)
Fe1 Fe1 Bi1 5_4445 5_4555 112.1(5) 111.0(5) 112.7(5)
Fe1 Fe1 Bi1 5_4445 5_5445 73.1(5) 72.8(5) 73.4(5)
Fe1 Fe1 Bi1 5_4445 5_5455 107.8(3) 107.2(3) 108.0(3)
Fe1 Fe1 Bi1 5_4445 5_5545 114.1(5) 113.0(5) 115.6(5)
Fe1 Fe1 Bi1 5_4445 5_5555 166.1(5) 164.8(5) 166.7(5)
Fe1 Fe1 O1 5_4445 1_5455 42.5(12) 40.7(12) 45.0(12)
Fe1 Fe1 O1 5_4445 . 118.9(11) 117.7(11) 121.1(11)
Fe1 Fe1 O1 5_4445 5_4445 42.0(3) 41.8(3) 42.3(3)
Fe1 Fe1 O1 5_4445 5_5445 111.0(7) 110.1(7) 112.1(7)
Fe1 Fe1 O2 5_4445 . 115.8(12) 114.5(12) 117.2(12)
Fe1 Fe1 O3 5_4445 . 119.4(11) 118.3(11) 120.0(11)
Fe1 Fe1 Fe1 5_4455 5_4555 78.1(3) 78.0(3) 78.4(3)
Fe1 Fe1 Fe1 5_4455 5_5455 76.1(4) 75.8(4) 76.5(4)
Fe1 Fe1 Fe1 5_4455 5_5555 124.5(4) 124.2(4) 125.1(4)
Fe1 Fe1 Pb1 5_4455 1_5565 63.3(4) 63.2(4) 63.5(4)
Fe1 Fe1 Pb1 5_4455 1_6555 134.4(3) 134.3(3) 134.6(3)
Fe1 Fe1 Pb1 5_4455 5_4445 69.7(4) 69.3(4) 70.1(4)
Fe1 Fe1 Pb1 5_4455 5_4545 107.7(5) 107.5(5) 107.8(5)
Fe1 Fe1 Pb1 5_4455 5_5445 106.1(3) 105.8(3) 106.2(3)
Fe1 Fe1 Pb1 5_4455 5_5545 163.3(5) 163.1(5) 163.4(5)
Fe1 Fe1 Bi1 5_4455 1_5565 63.3(4) 63.2(4) 63.5(4)
Fe1 Fe1 Bi1 5_4455 1_6555 134.4(3) 134.3(3) 134.5(3)
Fe1 Fe1 Bi1 5_4455 5_4445 69.7(4) 69.3(4) 70.1(4)
Fe1 Fe1 Bi1 5_4455 5_4455 11.3(4) 11.3(4) 11.3(4)
Fe1 Fe1 Bi1 5_4455 5_4545 107.7(5) 107.5(5) 107.8(5)
Fe1 Fe1 Bi1 5_4455 5_4555 72.2(3) 72.2(3) 72.2(3)
Fe1 Fe1 Bi1 5_4455 5_5445 106.1(3) 105.8(3) 106.2(3)
Fe1 Fe1 Bi1 5_4455 5_5545 163.3(5) 163.1(5) 163.4(5)
Fe1 Fe1 O1 5_4455 1_5455 39.8(13) 39.0(12) 40.6(13)
Fe1 Fe1 O1 5_4455 . 115.7(11) 115.0(11) 116.4(11)
Fe1 Fe1 O1 5_4455 5_4455 40.6(3) 40.5(3) 40.7(3)
Fe1 Fe1 O1 5_4455 5_5455 112.9(7) 112.6(7) 113.3(7)
Fe1 Fe1 O3 5_4455 1_5545 116.3(11) 116.0(11) 116.6(11)
Fe1 Fe1 Fe1 5_4545 5_5445 124.5(4) 124.2(4) 125.1(4)
Fe1 Fe1 Fe1 5_4545 5_5545 76.1(4) 75.8(3) 76.5(4)
Fe1 Fe1 Pb1 5_4545 1_4555 59.4(4) 58.8(4) 60.0(3)
Fe1 Fe1 Pb1 5_4545 1_5545 61.0(4) 60.5(4) 61.8(4)
Fe1 Fe1 Pb1 5_4545 5_4455 112.1(5) 111.0(5) 112.7(5)
Fe1 Fe1 Pb1 5_4545 5_4555 72.0(5) 71.3(5) 72.6(4)
Fe1 Fe1 Pb1 5_4545 5_5445 114.5(5) 113.5(5) 115.6(5)
Fe1 Fe1 Pb1 5_4545 5_5455 166.1(5) 164.8(5) 166.7(5)
Fe1 Fe1 Pb1 5_4545 5_5545 73.1(5) 72.8(5) 73.4(5)
Fe1 Fe1 Pb1 5_4545 5_5555 107.8(3) 107.2(3) 108.0(3)
Fe1 Fe1 Bi1 5_4545 1_4555 59.4(4) 58.8(4) 60.0(3)
Fe1 Fe1 Bi1 5_4545 1_5545 61.0(4) 60.6(4) 61.8(4)
Fe1 Fe1 Bi1 5_4545 5_4455 112.1(5) 111.0(5) 112.7(5)
Fe1 Fe1 Bi1 5_4545 5_4555 72.0(5) 71.3(5) 72.6(4)
Fe1 Fe1 Bi1 5_4545 5_5445 114.1(5) 113.0(5) 115.6(5)
Fe1 Fe1 Bi1 5_4545 5_5455 166.1(5) 164.8(5) 166.7(5)
Fe1 Fe1 Bi1 5_4545 5_5545 73.1(5) 72.8(5) 73.4(5)
Fe1 Fe1 Bi1 5_4545 5_5555 107.8(3) 107.2(3) 108.0(3)
Fe1 Fe1 O1 5_4545 1_5455 118.9(11) 117.7(11) 121.1(11)
Fe1 Fe1 O1 5_4545 . 42.5(12) 40.7(12) 45.0(12)
Fe1 Fe1 O1 5_4545 5_4445 42.0(3) 41.8(3) 42.3(3)
Fe1 Fe1 O1 5_4545 5_5445 111.0(7) 110.1(7) 112.1(7)
Fe1 Fe1 O2 5_4545 . 115.8(12) 114.5(12) 117.2(12)
Fe1 Fe1 O3 5_4545 . 119.4(11) 118.3(11) 120.0(11)
Fe1 Fe1 Fe1 5_4555 5_5455 124.5(4) 124.2(4) 125.1(4)
Fe1 Fe1 Fe1 5_4555 5_5555 76.1(4) 75.8(4) 76.5(4)
Fe1 Fe1 Pb1 5_4555 1_5565 63.3(4) 63.2(4) 63.5(4)
Fe1 Fe1 Pb1 5_4555 1_6555 134.4(3) 134.3(3) 134.6(3)
Fe1 Fe1 Pb1 5_4555 5_4445 107.7(5) 107.5(5) 107.8(5)
Fe1 Fe1 Pb1 5_4555 5_4545 69.7(4) 69.3(4) 70.1(4)
Fe1 Fe1 Pb1 5_4555 5_5445 163.3(5) 163.1(5) 163.4(5)
Fe1 Fe1 Pb1 5_4555 5_5545 106.1(3) 105.8(3) 106.2(3)
Fe1 Fe1 Bi1 5_4555 1_5565 63.3(4) 63.2(4) 63.5(4)
Fe1 Fe1 Bi1 5_4555 1_6555 134.4(3) 134.3(3) 134.5(3)
Fe1 Fe1 Bi1 5_4555 5_4445 107.7(5) 107.5(5) 107.8(5)
Fe1 Fe1 Bi1 5_4555 5_4455 72.2(3) 72.2(3) 72.2(3)
Fe1 Fe1 Bi1 5_4555 5_4545 69.7(4) 69.3(4) 70.1(4)
Fe1 Fe1 Bi1 5_4555 5_4555 11.3(4) 11.3(4) 11.3(4)
Fe1 Fe1 Bi1 5_4555 5_5445 163.3(5) 163.1(5) 163.4(5)
Fe1 Fe1 Bi1 5_4555 5_5545 106.1(3) 105.8(3) 106.2(3)
Fe1 Fe1 O1 5_4555 1_5455 115.7(11) 115.0(11) 116.4(11)
Fe1 Fe1 O1 5_4555 . 39.8(13) 39.0(12) 40.6(13)
Fe1 Fe1 O1 5_4555 5_4455 40.6(3) 40.5(3) 40.7(3)
Fe1 Fe1 O1 5_4555 5_5455 112.9(7) 112.6(7) 113.3(7)
Fe1 Fe1 O3 5_4555 1_5545 116.3(11) 116.0(11) 116.6(11)
Fe1 Fe1 Fe1 5_5445 5_5545 78.1(3) 78.0(3) 78.4(3)
Fe1 Fe1 Pb1 5_5445 1_4555 134.4(3) 134.3(3) 134.6(3)
Fe1 Fe1 Pb1 5_5445 1_5545 63.3(4) 63.2(4) 63.5(4)
Fe1 Fe1 Pb1 5_5445 5_4455 106.1(3) 105.8(3) 106.2(3)
Fe1 Fe1 Pb1 5_5445 5_4555 163.3(5) 163.1(5) 163.4(5)
Fe1 Fe1 Pb1 5_5445 5_5455 69.7(4) 69.3(4) 70.1(4)
Fe1 Fe1 Pb1 5_5445 5_5555 107.7(5) 107.5(5) 107.8(5)
Fe1 Fe1 Bi1 5_5445 1_4555 134.4(3) 134.3(3) 134.5(3)
Fe1 Fe1 Bi1 5_5445 1_5545 63.3(4) 63.2(4) 63.5(4)
Fe1 Fe1 Bi1 5_5445 5_4455 106.1(3) 105.8(3) 106.2(3)
Fe1 Fe1 Bi1 5_5445 5_4555 163.3(5) 163.1(5) 163.4(5)
Fe1 Fe1 Bi1 5_5445 5_5445 11.3(4) 11.3(4) 11.3(4)
Fe1 Fe1 Bi1 5_5445 5_5455 69.7(4) 69.3(4) 70.1(4)
Fe1 Fe1 Bi1 5_5445 5_5545 72.2(3) 72.2(3) 72.2(3)
Fe1 Fe1 Bi1 5_5445 5_5555 107.7(5) 107.5(5) 107.8(5)
Fe1 Fe1 O1 5_5445 1_5455 39.8(13) 39.0(12) 40.6(13)
Fe1 Fe1 O1 5_5445 . 115.7(11) 115.0(11) 116.4(11)
Fe1 Fe1 O1 5_5445 5_4445 112.9(7) 112.6(7) 113.3(7)
Fe1 Fe1 O1 5_5445 5_5445 40.6(3) 40.5(3) 40.7(3)
Fe1 Fe1 O3 5_5445 . 116.3(11) 116.0(11) 116.6(11)
Fe1 Fe1 Fe1 5_5455 5_5555 79.6(3) 79.5(3) 79.9(3)
Fe1 Fe1 Pb1 5_5455 1_5565 61.0(4) 60.5(4) 61.8(4)
Fe1 Fe1 Pb1 5_5455 1_6555 59.4(4) 58.8(4) 60.0(3)
Fe1 Fe1 Pb1 5_5455 5_4445 107.8(3) 107.2(3) 108.0(3)
Fe1 Fe1 Pb1 5_5455 5_4455 73.1(5) 72.8(5) 73.4(5)
Fe1 Fe1 Pb1 5_5455 5_4545 166.1(5) 164.8(5) 166.7(5)
Fe1 Fe1 Pb1 5_5455 5_4555 114.5(5) 113.5(5) 115.6(5)
Fe1 Fe1 Pb1 5_5455 5_5445 72.0(5) 71.3(5) 72.6(4)
Fe1 Fe1 Pb1 5_5455 5_5545 112.1(5) 111.0(5) 112.7(5)
Fe1 Fe1 Bi1 5_5455 1_5565 61.0(4) 60.6(4) 61.8(4)
Fe1 Fe1 Bi1 5_5455 1_6555 59.4(4) 58.8(4) 60.0(3)
Fe1 Fe1 Bi1 5_5455 5_4445 107.8(3) 107.2(3) 108.0(3)
Fe1 Fe1 Bi1 5_5455 5_4455 73.1(5) 72.8(5) 73.4(5)
Fe1 Fe1 Bi1 5_5455 5_4545 166.1(5) 164.8(5) 166.7(5)
Fe1 Fe1 Bi1 5_5455 5_4555 114.1(5) 113.0(5) 115.6(5)
Fe1 Fe1 Bi1 5_5455 5_5445 72.0(5) 71.3(5) 72.6(4)
Fe1 Fe1 Bi1 5_5455 5_5545 112.1(5) 111.0(5) 112.7(5)
Fe1 Fe1 O1 5_5455 1_5455 42.5(12) 40.7(12) 45.0(12)
Fe1 Fe1 O1 5_5455 . 118.9(11) 117.7(11) 121.1(11)
Fe1 Fe1 O1 5_5455 5_4455 111.0(7) 110.1(7) 112.1(7)
Fe1 Fe1 O1 5_5455 5_5455 42.0(3) 41.8(3) 42.3(3)
Fe1 Fe1 O2 5_5455 1_4555 115.8(12) 114.5(12) 117.2(12)
Fe1 Fe1 O3 5_5455 1_5545 119.4(11) 118.3(11) 120.0(11)
Fe1 Fe1 Pb1 5_5545 1_4555 134.4(3) 134.3(3) 134.6(3)
Fe1 Fe1 Pb1 5_5545 1_5545 63.3(4) 63.2(4) 63.5(4)
Fe1 Fe1 Pb1 5_5545 5_4455 163.3(5) 163.1(5) 163.4(5)
Fe1 Fe1 Pb1 5_5545 5_4555 106.1(3) 105.8(3) 106.2(3)
Fe1 Fe1 Pb1 5_5545 5_5455 107.7(5) 107.5(5) 107.8(5)
Fe1 Fe1 Pb1 5_5545 5_5555 69.7(4) 69.3(4) 70.1(4)
Fe1 Fe1 Bi1 5_5545 1_4555 134.4(3) 134.3(3) 134.5(3)
Fe1 Fe1 Bi1 5_5545 1_5545 63.3(4) 63.2(4) 63.5(4)
Fe1 Fe1 Bi1 5_5545 5_4455 163.3(5) 163.1(5) 163.4(5)
Fe1 Fe1 Bi1 5_5545 5_4555 106.1(3) 105.8(3) 106.2(3)
Fe1 Fe1 Bi1 5_5545 5_5445 72.2(3) 72.2(3) 72.2(3)
Fe1 Fe1 Bi1 5_5545 5_5455 107.7(5) 107.5(5) 107.8(5)
Fe1 Fe1 Bi1 5_5545 5_5545 11.3(4) 11.3(4) 11.3(4)
Fe1 Fe1 Bi1 5_5545 5_5555 69.7(4) 69.3(4) 70.1(4)
Fe1 Fe1 O1 5_5545 1_5455 115.7(11) 115.0(11) 116.4(11)
Fe1 Fe1 O1 5_5545 . 39.8(13) 39.0(12) 40.6(13)
Fe1 Fe1 O1 5_5545 5_4445 112.9(7) 112.6(7) 113.3(7)
Fe1 Fe1 O1 5_5545 5_5445 40.6(3) 40.5(3) 40.7(3)
Fe1 Fe1 O3 5_5545 . 116.3(11) 116.0(11) 116.6(11)
Fe1 Fe1 Pb1 5_5555 1_5565 61.0(4) 60.5(4) 61.8(4)
Fe1 Fe1 Pb1 5_5555 1_6555 59.4(4) 58.8(4) 60.0(3)
Fe1 Fe1 Pb1 5_5555 5_4445 166.1(5) 164.8(5) 166.7(5)
Fe1 Fe1 Pb1 5_5555 5_4455 114.5(5) 113.5(5) 115.6(5)
Fe1 Fe1 Pb1 5_5555 5_4545 107.8(3) 107.2(3) 108.0(3)
Fe1 Fe1 Pb1 5_5555 5_4555 73.1(5) 72.8(5) 73.4(5)
Fe1 Fe1 Pb1 5_5555 5_5445 112.1(5) 111.0(5) 112.7(5)
Fe1 Fe1 Pb1 5_5555 5_5545 72.0(5) 71.3(5) 72.6(4)
Fe1 Fe1 Bi1 5_5555 1_5565 61.0(4) 60.6(4) 61.8(4)
Fe1 Fe1 Bi1 5_5555 1_6555 59.4(4) 58.8(4) 60.0(3)
Fe1 Fe1 Bi1 5_5555 5_4445 166.1(5) 164.8(5) 166.7(5)
Fe1 Fe1 Bi1 5_5555 5_4455 114.1(5) 113.0(5) 115.6(5)
Fe1 Fe1 Bi1 5_5555 5_4545 107.8(3) 107.2(3) 108.0(3)
Fe1 Fe1 Bi1 5_5555 5_4555 73.1(5) 72.8(5) 73.4(5)
Fe1 Fe1 Bi1 5_5555 5_5445 112.1(5) 111.0(5) 112.7(5)
Fe1 Fe1 Bi1 5_5555 5_5545 72.0(5) 71.3(5) 72.6(4)
Fe1 Fe1 O1 5_5555 1_5455 118.9(11) 117.7(11) 121.1(11)
Fe1 Fe1 O1 5_5555 . 42.5(12) 40.7(12) 45.0(12)
Fe1 Fe1 O1 5_5555 5_4455 111.0(7) 110.1(7) 112.1(7)
Fe1 Fe1 O1 5_5555 5_5455 42.0(3) 41.8(3) 42.3(3)
Fe1 Fe1 O2 5_5555 1_4555 115.8(12) 114.5(12) 117.2(12)
Fe1 Fe1 O3 5_5555 1_5545 119.4(11) 118.3(11) 120.0(11)
Pb1 Fe1 Pb1 1_4555 1_5545 99.7(5) 99.5(5) 100.0(5)
Pb1 Fe1 Pb1 1_4555 5_4455 53.3(5) 52.8(5) 53.7(5)
Pb1 Fe1 Pb1 1_4555 5_4555 53.3(5) 52.8(5) 53.7(5)
Pb1 Fe1 Pb1 1_4555 5_5455 113.3(5) 113.2(5) 113.4(5)
Pb1 Fe1 Pb1 1_4555 5_5555 113.3(5) 113.2(5) 113.4(5)
Pb1 Fe1 Bi1 1_4555 1_4555 0.0(5) 0.0(5) 0.0(5)
Pb1 Fe1 Bi1 1_4555 1_5545 99.7(5) 99.5(5) 100.0(5)
Pb1 Fe1 Bi1 1_4555 5_4455 53.3(5) 52.8(5) 53.7(5)
Pb1 Fe1 Bi1 1_4555 5_4555 53.3(5) 52.8(5) 53.7(5)
Pb1 Fe1 Bi1 1_4555 5_5445 133.0(5) 133.0(5) 133.0(5)
Pb1 Fe1 Bi1 1_4555 5_5455 113.3(5) 113.2(5) 113.4(5)
Pb1 Fe1 Bi1 1_4555 5_5545 133.0(5) 133.0(5) 133.0(5)
Pb1 Fe1 Bi1 1_4555 5_5555 113.3(5) 113.2(5) 113.4(5)
Pb1 Fe1 O1 1_4555 1_5455 95.9(13) 95.0(13) 96.8(13)
Pb1 Fe1 O1 1_4555 . 95.9(13) 95.0(13) 96.8(13)
Pb1 Fe1 O1 1_4555 5_4445 34.3(10) 33.5(10) 35.1(10)
Pb1 Fe1 O1 1_4555 5_5445 166.4(10) 166.1(10) 166.9(10)
Pb1 Fe1 O3 1_4555 . 80.8(16) 80.6(16) 80.9(16)
Pb1 Fe1 Pb1 1_5545 5_4455 133.0(5) 132.2(5) 133.3(5)
Pb1 Fe1 Pb1 1_5545 5_4555 133.0(5) 132.2(5) 133.3(5)
Pb1 Fe1 Pb1 1_5545 5_5445 53.9(5) 53.1(5) 54.7(5)
Pb1 Fe1 Pb1 1_5545 5_5455 132.8(5) 132.6(5) 133.3(5)
Pb1 Fe1 Pb1 1_5545 5_5545 53.9(5) 53.1(5) 54.7(5)
Pb1 Fe1 Pb1 1_5545 5_5555 132.8(5) 132.6(5) 133.3(5)
Pb1 Fe1 Bi1 1_5545 1_4555 99.7(5) 99.5(5) 100.0(5)
Pb1 Fe1 Bi1 1_5545 1_5545 0.0(5) 0.0(5) 0.0(5)
Pb1 Fe1 Bi1 1_5545 5_4455 133.0(5) 132.2(5) 133.3(5)
Pb1 Fe1 Bi1 1_5545 5_4555 133.0(5) 132.2(5) 133.3(5)
Pb1 Fe1 Bi1 1_5545 5_5445 53.5(5) 52.4(5) 54.7(5)
Pb1 Fe1 Bi1 1_5545 5_5455 132.8(5) 132.6(5) 133.3(5)
Pb1 Fe1 Bi1 1_5545 5_5545 53.5(5) 52.4(5) 54.7(5)
Pb1 Fe1 Bi1 1_5545 5_5555 132.8(5) 132.6(5) 133.3(5)
Pb1 Fe1 O1 1_5545 1_5455 72.5(8) 72.3(8) 72.9(8)
Pb1 Fe1 O1 1_5545 . 72.5(8) 72.3(8) 72.9(8)
Pb1 Fe1 O1 1_5545 5_4445 65.4(10) 64.9(10) 66.0(10)
Pb1 Fe1 O1 1_5545 5_5445 66.7(10) 66.1(10) 67.4(10)
Pb1 Fe1 O2 1_5545 . 74.1(17) 72.4(16) 75.8(17)
Pb1 Fe1 O3 1_5545 . 179.5(16) 179.2(16) 179.8(16)
Pb1 Fe1 Pb1 1_5565 1_6555 99.7(5) 99.5(5) 100.0(5)
Pb1 Fe1 Pb1 1_5565 5_4445 132.8(5) 132.6(5) 133.3(5)
Pb1 Fe1 Pb1 1_5565 5_4455 53.9(5) 53.1(5) 54.7(5)
Pb1 Fe1 Pb1 1_5565 5_4545 132.8(5) 132.6(5) 133.3(5)
Pb1 Fe1 Pb1 1_5565 5_4555 53.9(5) 53.1(5) 54.7(5)
Pb1 Fe1 Pb1 1_5565 5_5445 133.0(5) 132.2(5) 133.3(5)
Pb1 Fe1 Pb1 1_5565 5_5545 133.0(5) 132.2(5) 133.3(5)
Pb1 Fe1 Bi1 1_5565 1_5565 0.0(5) 0.0(5) 0.0(5)
Pb1 Fe1 Bi1 1_5565 1_6555 99.7(5) 99.5(5) 100.0(5)
Pb1 Fe1 Bi1 1_5565 5_4445 132.8(5) 132.6(5) 133.3(5)
Pb1 Fe1 Bi1 1_5565 5_4455 53.5(5) 52.4(5) 54.7(5)
Pb1 Fe1 Bi1 1_5565 5_4545 132.8(5) 132.6(5) 133.3(5)
Pb1 Fe1 Bi1 1_5565 5_4555 53.5(5) 52.4(5) 54.7(5)
Pb1 Fe1 Bi1 1_5565 5_5445 133.0(5) 132.2(5) 133.3(5)
Pb1 Fe1 Bi1 1_5565 5_5545 133.0(5) 132.2(5) 133.3(5)
Pb1 Fe1 O1 1_5565 1_5455 72.5(8) 72.3(8) 72.9(8)
Pb1 Fe1 O1 1_5565 . 72.5(8) 72.3(8) 72.9(8)
Pb1 Fe1 O1 1_5565 5_4455 66.7(10) 66.1(10) 67.4(10)
Pb1 Fe1 O1 1_5565 5_5455 65.4(10) 64.9(10) 66.0(10)
Pb1 Fe1 O2 1_5565 1_4555 74.1(17) 72.4(16) 75.8(17)
Pb1 Fe1 O3 1_5565 1_5545 179.5(16) 179.2(16) 179.8(16)
Pb1 Fe1 Pb1 1_6555 5_4445 113.3(5) 113.2(5) 113.4(5)
Pb1 Fe1 Pb1 1_6555 5_4545 113.3(5) 113.2(5) 113.4(5)
Pb1 Fe1 Pb1 1_6555 5_5445 53.3(5) 52.8(5) 53.7(5)
Pb1 Fe1 Pb1 1_6555 5_5545 53.3(5) 52.8(5) 53.7(5)
Pb1 Fe1 Bi1 1_6555 1_5565 99.7(5) 99.5(5) 100.0(5)
Pb1 Fe1 Bi1 1_6555 1_6555 0.0(5) 0.0(5) 0.0(5)
Pb1 Fe1 Bi1 1_6555 5_4445 113.3(5) 113.2(5) 113.4(5)
Pb1 Fe1 Bi1 1_6555 5_4455 133.0(5) 133.0(5) 133.0(5)
Pb1 Fe1 Bi1 1_6555 5_4545 113.3(5) 113.2(5) 113.4(5)
Pb1 Fe1 Bi1 1_6555 5_4555 133.0(5) 133.0(5) 133.0(5)
Pb1 Fe1 Bi1 1_6555 5_5445 53.3(5) 52.8(5) 53.7(5)
Pb1 Fe1 Bi1 1_6555 5_5545 53.3(5) 52.8(5) 53.7(5)
Pb1 Fe1 O1 1_6555 1_5455 95.9(13) 95.0(13) 96.8(13)
Pb1 Fe1 O1 1_6555 . 95.9(13) 95.0(13) 96.8(13)
Pb1 Fe1 O1 1_6555 5_4455 166.4(10) 166.1(10) 166.9(10)
Pb1 Fe1 O1 1_6555 5_5455 34.3(10) 33.5(10) 35.1(10)
Pb1 Fe1 O3 1_6555 1_5545 80.8(16) 80.6(16) 80.9(16)
Pb1 Fe1 Pb1 5_4445 5_4455 73.2(6) 68.9(5) 83.6(5)
Pb1 Fe1 Pb1 5_4445 5_4545 68.7(4) 61.8(3) 72.4(5)
Pb1 Fe1 Pb1 5_4445 5_4555 110.5(6) 107.5(5) 119.6(6)
Pb1 Fe1 Pb1 5_4445 5_5445 68.4(6) 60.2(5) 73.2(6)
Pb1 Fe1 Pb1 5_4445 5_5455 110.3(3) 109.2(3) 113.0(4)
Pb1 Fe1 Pb1 5_4445 5_5545 105.5(6) 93.5(5) 113.8(7)
Pb1 Fe1 Pb1 5_4445 5_5555 176.6(6) 175.2(7) 180.0(5)
Pb1 Fe1 Bi1 5_4445 1_5565 132.8(5) 132.6(5) 133.3(4)
Pb1 Fe1 Bi1 5_4445 1_6555 113.3(5) 113.2(5) 113.4(5)
Pb1 Fe1 Bi1 5_4445 5_4445 0.0(5) 0.0(5) 0.0(5)
Pb1 Fe1 Bi1 5_4445 5_4455 73.4(6) 68.9(5) 83.6(5)
Pb1 Fe1 Bi1 5_4445 5_4545 68.7(4) 61.8(3) 72.4(5)
Pb1 Fe1 Bi1 5_4445 5_4555 110.5(6) 107.5(5) 119.6(6)
Pb1 Fe1 Bi1 5_4445 5_5445 68.4(6) 60.2(5) 73.2(6)
Pb1 Fe1 Bi1 5_4445 5_5455 110.3(3) 109.2(3) 113.0(3)
Pb1 Fe1 Bi1 5_4445 5_5545 105.5(6) 93.5(5) 113.8(7)
Pb1 Fe1 Bi1 5_4445 5_5555 176.6(6) 175.2(7) 180.0(5)
Pb1 Fe1 O1 5_4445 1_5455 57.8(11) 41.3(11) 72.8(10)
Pb1 Fe1 O1 5_4445 . 125.8(12) 110.2(10) 135.7(12)
Pb1 Fe1 O1 5_4445 5_4455 78.1(9) 77.7(8) 78.5(9)
Pb1 Fe1 O1 5_4445 5_5455 138.9(7) 138.2(7) 139.4(7)
Pb1 Fe1 O2 5_4445 1_4555 55.9(12) 46.4(11) 73.1(14)
Pb1 Fe1 O2 5_4445 . 125.6(13) 108.8(14) 136.6(12)
Pb1 Fe1 O3 5_4445 1_5545 53.1(11) 46.6(11) 58.1(10)
Pb1 Fe1 O3 5_4445 . 126.0(11) 122.7(11) 131.6(11)
Pb1 Fe1 Pb1 5_4455 5_4545 110.5(6) 107.5(5) 119.6(7)
Pb1 Fe1 Pb1 5_4455 5_4555 68.0(4) 63.5(4) 72.6(5)
Pb1 Fe1 Pb1 5_4455 5_5445 111.6(3) 110.4(3) 114.5(3)
Pb1 Fe1 Pb1 5_4455 5_5455 68.4(6) 60.2(5) 73.2(5)
Pb1 Fe1 Pb1 5_4455 5_5545 174.7(6) 172.5(7) 180.0(5)
Pb1 Fe1 Pb1 5_4455 5_5555 105.5(6) 93.5(5) 113.8(6)
Pb1 Fe1 Bi1 5_4455 1_4555 53.3(4) 52.8(4) 53.7(4)
Pb1 Fe1 Bi1 5_4455 1_5545 133.0(4) 132.2(5) 133.3(4)
Pb1 Fe1 Bi1 5_4455 1_5565 53.9(4) 53.1(4) 54.7(4)
Pb1 Fe1 Bi1 5_4455 5_4445 73.2(6) 68.9(5) 83.6(6)
Pb1 Fe1 Bi1 5_4455 5_4455 0.0(5) 0.0(5) 0.0(5)
Pb1 Fe1 Bi1 5_4455 5_4545 110.5(6) 107.5(5) 119.6(7)
Pb1 Fe1 Bi1 5_4455 5_4555 68.0(4) 63.5(4) 72.6(5)
Pb1 Fe1 Bi1 5_4455 5_5445 111.7(3) 110.4(3) 114.9(3)
Pb1 Fe1 Bi1 5_4455 5_5455 68.4(6) 60.2(5) 73.2(5)
Pb1 Fe1 Bi1 5_4455 5_5545 174.7(6) 172.5(7) 180.0(5)
Pb1 Fe1 Bi1 5_4455 5_5555 105.5(6) 93.5(5) 113.8(6)
Pb1 Fe1 O1 5_4455 1_5455 58.0(11) 44.6(12) 73.5(10)
Pb1 Fe1 O1 5_4455 . 124.9(12) 108.8(11) 139.0(11)
Pb1 Fe1 O1 5_4455 5_4445 80.2(9) 78.5(9) 81.0(9)
Pb1 Fe1 O1 5_4455 5_5445 136.1(6) 135.4(6) 136.7(6)
Pb1 Fe1 O1 5_4455 5_5455 107.0(8) 106.1(8) 108.0(8)
Pb1 Fe1 O2 5_4455 1_4555 55.7(12) 42.2(10) 75.9(15)
Pb1 Fe1 O2 5_4455 . 124.5(13) 110.3(15) 133.0(12)
Pb1 Fe1 O3 5_4455 1_5545 126.8(11) 122.8(13) 133.8(8)
Pb1 Fe1 O3 5_4455 . 52.4(11) 47.0(11) 55.8(10)
Pb1 Fe1 Pb1 5_4545 5_4555 73.2(6) 68.9(5) 83.6(5)
Pb1 Fe1 Pb1 5_4545 5_5445 105.5(6) 93.5(5) 113.8(7)
Pb1 Fe1 Pb1 5_4545 5_5455 176.6(6) 175.2(7) 180.0(5)
Pb1 Fe1 Pb1 5_4545 5_5545 68.4(6) 60.2(5) 73.2(6)
Pb1 Fe1 Pb1 5_4545 5_5555 110.3(3) 109.2(3) 113.0(4)
Pb1 Fe1 Bi1 5_4545 1_5565 132.8(5) 132.6(5) 133.3(4)
Pb1 Fe1 Bi1 5_4545 1_6555 113.3(5) 113.2(5) 113.4(5)
Pb1 Fe1 Bi1 5_4545 5_4445 68.7(4) 61.8(3) 72.4(5)
Pb1 Fe1 Bi1 5_4545 5_4455 110.5(6) 107.5(5) 119.6(6)
Pb1 Fe1 Bi1 5_4545 5_4545 0.0(5) 0.0(5) 0.0(5)
Pb1 Fe1 Bi1 5_4545 5_4555 73.4(6) 68.9(5) 83.6(5)
Pb1 Fe1 Bi1 5_4545 5_5445 105.5(6) 93.5(5) 113.8(7)
Pb1 Fe1 Bi1 5_4545 5_5455 176.6(6) 175.2(7) 180.0(5)
Pb1 Fe1 Bi1 5_4545 5_5545 68.4(6) 60.2(5) 73.2(6)
Pb1 Fe1 Bi1 5_4545 5_5555 110.3(3) 109.2(3) 113.0(3)
Pb1 Fe1 O1 5_4545 1_5455 125.8(12) 110.2(10) 135.7(12)
Pb1 Fe1 O1 5_4545 . 57.8(11) 41.3(11) 72.8(10)
Pb1 Fe1 O1 5_4545 5_4455 78.1(9) 77.7(8) 78.5(9)
Pb1 Fe1 O1 5_4545 5_5455 138.9(7) 138.2(7) 139.4(7)
Pb1 Fe1 O2 5_4545 1_4555 55.9(12) 46.4(11) 73.1(14)
Pb1 Fe1 O2 5_4545 . 125.6(13) 108.8(14) 136.6(12)
Pb1 Fe1 O3 5_4545 1_5545 53.1(11) 46.6(11) 58.1(10)
Pb1 Fe1 O3 5_4545 . 126.0(11) 122.7(11) 131.6(11)
Pb1 Fe1 Pb1 5_4555 5_5445 174.7(6) 172.5(7) 180.0(5)
Pb1 Fe1 Pb1 5_4555 5_5455 105.5(6) 93.5(5) 113.8(6)
Pb1 Fe1 Pb1 5_4555 5_5545 111.6(3) 110.4(3) 114.5(3)
Pb1 Fe1 Pb1 5_4555 5_5555 68.4(6) 60.2(5) 73.2(5)
Pb1 Fe1 Bi1 5_4555 1_4555 53.3(4) 52.8(4) 53.7(4)
Pb1 Fe1 Bi1 5_4555 1_5545 133.0(4) 132.2(5) 133.3(4)
Pb1 Fe1 Bi1 5_4555 1_5565 53.9(4) 53.1(4) 54.7(4)
Pb1 Fe1 Bi1 5_4555 5_4445 110.5(6) 107.5(5) 119.6(7)
Pb1 Fe1 Bi1 5_4555 5_4455 68.0(4) 63.5(4) 72.6(5)
Pb1 Fe1 Bi1 5_4555 5_4545 73.2(6) 68.9(5) 83.6(6)
Pb1 Fe1 Bi1 5_4555 5_4555 0.0(5) 0.0(5) 0.0(5)
Pb1 Fe1 Bi1 5_4555 5_5445 174.7(6) 172.5(7) 180.0(5)
Pb1 Fe1 Bi1 5_4555 5_5455 105.5(6) 93.5(5) 113.8(6)
Pb1 Fe1 Bi1 5_4555 5_5545 111.7(3) 110.4(3) 114.9(3)
Pb1 Fe1 Bi1 5_4555 5_5555 68.4(6) 60.2(5) 73.2(5)
Pb1 Fe1 O1 5_4555 1_5455 124.9(12) 108.8(11) 139.0(11)
Pb1 Fe1 O1 5_4555 . 58.0(11) 44.6(12) 73.5(10)
Pb1 Fe1 O1 5_4555 5_4445 80.2(9) 78.5(9) 81.0(9)
Pb1 Fe1 O1 5_4555 5_5445 136.1(6) 135.4(6) 136.7(6)
Pb1 Fe1 O1 5_4555 5_5455 107.0(8) 106.1(8) 108.0(8)
Pb1 Fe1 O2 5_4555 1_4555 55.7(12) 42.2(10) 75.9(15)
Pb1 Fe1 O2 5_4555 . 124.5(13) 110.3(15) 133.0(12)
Pb1 Fe1 O3 5_4555 1_5545 126.8(11) 122.8(13) 133.8(8)
Pb1 Fe1 O3 5_4555 . 52.4(11) 47.0(11) 55.8(10)
Pb1 Fe1 Pb1 5_5445 5_5455 73.2(6) 68.9(5) 83.6(6)
Pb1 Fe1 Pb1 5_5445 5_5545 68.0(4) 63.5(4) 72.6(5)
Pb1 Fe1 Pb1 5_5445 5_5555 110.5(6) 107.5(5) 119.6(7)
Pb1 Fe1 Bi1 5_5445 1_5545 53.9(4) 53.1(4) 54.7(4)
Pb1 Fe1 Bi1 5_5445 1_5565 133.0(4) 132.2(5) 133.3(4)
Pb1 Fe1 Bi1 5_5445 1_6555 53.3(4) 52.8(4) 53.7(4)
Pb1 Fe1 Bi1 5_5445 5_4445 68.4(6) 60.2(5) 73.2(5)
Pb1 Fe1 Bi1 5_5445 5_4455 111.7(3) 110.4(3) 114.9(3)
Pb1 Fe1 Bi1 5_5445 5_4545 105.5(6) 93.5(5) 113.8(6)
Pb1 Fe1 Bi1 5_5445 5_4555 174.7(6) 172.5(7) 180.0(5)
Pb1 Fe1 Bi1 5_5445 5_5445 0.0(5) 0.0(5) 0.0(5)
Pb1 Fe1 Bi1 5_5445 5_5455 73.2(6) 68.9(5) 83.6(6)
Pb1 Fe1 Bi1 5_5445 5_5545 68.0(4) 63.5(4) 72.6(5)
Pb1 Fe1 Bi1 5_5445 5_5555 110.5(6) 107.5(5) 119.6(7)
Pb1 Fe1 O1 5_5445 1_5455 58.0(11) 44.6(12) 73.5(10)
Pb1 Fe1 O1 5_5445 . 124.9(12) 108.8(11) 139.0(11)
Pb1 Fe1 O1 5_5445 5_4445 107.0(8) 106.1(8) 108.0(8)
Pb1 Fe1 O1 5_5445 5_4455 136.1(6) 135.4(6) 136.7(6)
Pb1 Fe1 O1 5_5445 5_5455 80.2(9) 78.5(9) 81.0(9)
Pb1 Fe1 O2 5_5445 1_4555 124.5(13) 110.3(15) 133.0(12)
Pb1 Fe1 O2 5_5445 . 55.7(12) 42.2(10) 75.9(15)
Pb1 Fe1 O3 5_5445 1_5545 52.4(11) 47.0(11) 55.8(10)
Pb1 Fe1 O3 5_5445 . 126.8(11) 122.8(13) 133.8(8)
Pb1 Fe1 Pb1 5_5455 5_5545 110.5(6) 107.5(5) 119.6(6)
Pb1 Fe1 Pb1 5_5455 5_5555 68.7(4) 61.8(3) 72.4(5)
Pb1 Fe1 Bi1 5_5455 1_4555 113.3(5) 113.2(5) 113.4(5)
Pb1 Fe1 Bi1 5_5455 1_5545 132.8(5) 132.6(5) 133.3(4)
Pb1 Fe1 Bi1 5_5455 5_4445 110.3(3) 109.2(3) 113.0(3)
Pb1 Fe1 Bi1 5_5455 5_4455 68.4(6) 60.2(5) 73.2(6)
Pb1 Fe1 Bi1 5_5455 5_4545 176.6(6) 175.2(7) 180.0(5)
Pb1 Fe1 Bi1 5_5455 5_4555 105.5(6) 93.5(5) 113.8(7)
Pb1 Fe1 Bi1 5_5455 5_5445 73.4(6) 68.9(5) 83.6(5)
Pb1 Fe1 Bi1 5_5455 5_5455 0.0(5) 0.0(5) 0.0(5)
Pb1 Fe1 Bi1 5_5455 5_5545 110.5(6) 107.5(5) 119.6(6)
Pb1 Fe1 Bi1 5_5455 5_5555 68.7(4) 61.8(3) 72.4(5)
Pb1 Fe1 O1 5_5455 1_5455 57.8(11) 41.3(11) 72.8(10)
Pb1 Fe1 O1 5_5455 . 125.8(12) 110.2(10) 135.7(12)
Pb1 Fe1 O1 5_5455 5_4445 138.9(7) 138.2(7) 139.4(7)
Pb1 Fe1 O1 5_5455 5_5445 78.1(9) 77.7(8) 78.5(9)
Pb1 Fe1 O2 5_5455 1_4555 125.6(13) 108.8(14) 136.6(12)
Pb1 Fe1 O2 5_5455 . 55.9(12) 46.4(11) 73.1(14)
Pb1 Fe1 O3 5_5455 1_5545 126.0(11) 122.7(11) 131.6(11)
Pb1 Fe1 O3 5_5455 . 53.1(11) 46.6(11) 58.1(10)
Pb1 Fe1 Pb1 5_5545 5_5555 73.2(6) 68.9(5) 83.6(6)
Pb1 Fe1 Bi1 5_5545 1_5545 53.9(4) 53.1(4) 54.7(4)
Pb1 Fe1 Bi1 5_5545 1_5565 133.0(4) 132.2(5) 133.3(4)
Pb1 Fe1 Bi1 5_5545 1_6555 53.3(4) 52.8(4) 53.7(4)
Pb1 Fe1 Bi1 5_5545 5_4445 105.5(6) 93.5(5) 113.8(6)
Pb1 Fe1 Bi1 5_5545 5_4455 174.7(6) 172.5(7) 180.0(5)
Pb1 Fe1 Bi1 5_5545 5_4545 68.4(6) 60.2(5) 73.2(5)
Pb1 Fe1 Bi1 5_5545 5_4555 111.7(3) 110.4(3) 114.9(3)
Pb1 Fe1 Bi1 5_5545 5_5445 68.0(4) 63.5(4) 72.6(5)
Pb1 Fe1 Bi1 5_5545 5_5455 110.5(6) 107.5(5) 119.6(7)
Pb1 Fe1 Bi1 5_5545 5_5545 0.0(5) 0.0(5) 0.0(5)
Pb1 Fe1 Bi1 5_5545 5_5555 73.2(6) 68.9(5) 83.6(6)
Pb1 Fe1 O1 5_5545 1_5455 124.9(12) 108.8(11) 139.0(11)
Pb1 Fe1 O1 5_5545 . 58.0(11) 44.6(12) 73.5(10)
Pb1 Fe1 O1 5_5545 5_4445 107.0(8) 106.1(8) 108.0(8)
Pb1 Fe1 O1 5_5545 5_4455 136.1(6) 135.4(6) 136.7(6)
Pb1 Fe1 O1 5_5545 5_5455 80.2(9) 78.5(9) 81.0(9)
Pb1 Fe1 O2 5_5545 1_4555 124.5(13) 110.3(15) 133.0(12)
Pb1 Fe1 O2 5_5545 . 55.7(12) 42.2(10) 75.9(15)
Pb1 Fe1 O3 5_5545 1_5545 52.4(11) 47.0(11) 55.8(10)
Pb1 Fe1 O3 5_5545 . 126.8(11) 122.8(13) 133.8(8)
Pb1 Fe1 Bi1 5_5555 1_4555 113.3(5) 113.2(5) 113.4(5)
Pb1 Fe1 Bi1 5_5555 1_5545 132.8(5) 132.6(5) 133.3(4)
Pb1 Fe1 Bi1 5_5555 5_4445 176.6(6) 175.2(7) 180.0(5)
Pb1 Fe1 Bi1 5_5555 5_4455 105.5(6) 93.5(5) 113.8(7)
Pb1 Fe1 Bi1 5_5555 5_4545 110.3(3) 109.2(3) 113.0(3)
Pb1 Fe1 Bi1 5_5555 5_4555 68.4(6) 60.2(5) 73.2(6)
Pb1 Fe1 Bi1 5_5555 5_5445 110.5(6) 107.5(5) 119.6(6)
Pb1 Fe1 Bi1 5_5555 5_5455 68.7(4) 61.8(3) 72.4(5)
Pb1 Fe1 Bi1 5_5555 5_5545 73.4(6) 68.9(5) 83.6(5)
Pb1 Fe1 Bi1 5_5555 5_5555 0.0(5) 0.0(5) 0.0(5)
Pb1 Fe1 O1 5_5555 1_5455 125.8(12) 110.2(10) 135.7(12)
Pb1 Fe1 O1 5_5555 . 57.8(11) 41.3(11) 72.8(10)
Pb1 Fe1 O1 5_5555 5_4445 138.9(7) 138.2(7) 139.4(7)
Pb1 Fe1 O1 5_5555 5_5445 78.1(9) 77.7(8) 78.5(9)
Pb1 Fe1 O2 5_5555 1_4555 125.6(13) 108.8(14) 136.6(12)
Pb1 Fe1 O2 5_5555 . 55.9(12) 46.4(11) 73.1(14)
Pb1 Fe1 O3 5_5555 1_5545 126.0(11) 122.7(11) 131.6(11)
Pb1 Fe1 O3 5_5555 . 53.1(11) 46.6(11) 58.1(10)
Bi1 Fe1 Bi1 1_4555 1_5545 99.7(5) 99.5(5) 100.0(5)
Bi1 Fe1 Bi1 1_4555 5_4455 53.3(5) 52.8(5) 53.7(5)
Bi1 Fe1 Bi1 1_4555 5_4555 53.3(5) 52.8(5) 53.7(5)
Bi1 Fe1 Bi1 1_4555 5_5445 133.0(5) 133.0(5) 133.0(5)
Bi1 Fe1 Bi1 1_4555 5_5455 113.3(5) 113.2(5) 113.4(5)
Bi1 Fe1 Bi1 1_4555 5_5545 133.0(5) 133.0(5) 133.0(5)
Bi1 Fe1 Bi1 1_4555 5_5555 113.3(5) 113.2(5) 113.4(5)
Bi1 Fe1 O1 1_4555 1_5455 95.9(13) 95.0(13) 96.8(13)
Bi1 Fe1 O1 1_4555 . 95.9(13) 95.0(13) 96.8(13)
Bi1 Fe1 O1 1_4555 5_4445 34.3(10) 33.5(10) 35.0(10)
Bi1 Fe1 O1 1_4555 5_5445 166.4(10) 166.1(10) 166.9(10)
Bi1 Fe1 O3 1_4555 . 80.8(16) 80.6(16) 80.9(16)
Bi1 Fe1 Bi1 1_5545 5_4455 133.0(5) 132.3(5) 133.3(5)
Bi1 Fe1 Bi1 1_5545 5_4555 133.0(5) 132.3(5) 133.3(5)
Bi1 Fe1 Bi1 1_5545 5_5445 53.5(5) 52.4(5) 54.7(5)
Bi1 Fe1 Bi1 1_5545 5_5455 132.8(5) 132.6(5) 133.3(5)
Bi1 Fe1 Bi1 1_5545 5_5545 53.5(5) 52.4(5) 54.7(5)
Bi1 Fe1 Bi1 1_5545 5_5555 132.8(5) 132.6(5) 133.3(5)
Bi1 Fe1 O1 1_5545 1_5455 72.5(8) 72.3(8) 72.9(8)
Bi1 Fe1 O1 1_5545 . 72.5(8) 72.3(8) 72.9(8)
Bi1 Fe1 O1 1_5545 5_4445 65.4(10) 64.9(10) 66.0(10)
Bi1 Fe1 O1 1_5545 5_5445 66.7(10) 66.1(10) 67.4(10)
Bi1 Fe1 O2 1_5545 . 74.1(17) 72.4(16) 75.8(17)
Bi1 Fe1 O3 1_5545 . 179.5(16) 179.2(16) 179.8(16)
Bi1 Fe1 Bi1 1_5565 1_6555 99.7(5) 99.5(5) 100.0(5)
Bi1 Fe1 Bi1 1_5565 5_4445 132.8(5) 132.6(5) 133.3(5)
Bi1 Fe1 Bi1 1_5565 5_4455 53.5(5) 52.4(5) 54.7(5)
Bi1 Fe1 Bi1 1_5565 5_4545 132.8(5) 132.6(5) 133.3(5)
Bi1 Fe1 Bi1 1_5565 5_4555 53.5(5) 52.4(5) 54.7(5)
Bi1 Fe1 Bi1 1_5565 5_5445 133.0(5) 132.3(5) 133.3(5)
Bi1 Fe1 Bi1 1_5565 5_5545 133.0(5) 132.3(5) 133.3(5)
Bi1 Fe1 O1 1_5565 1_5455 72.5(8) 72.3(8) 72.9(8)
Bi1 Fe1 O1 1_5565 . 72.5(8) 72.3(8) 72.9(8)
Bi1 Fe1 O1 1_5565 5_4455 66.7(10) 66.1(10) 67.4(10)
Bi1 Fe1 O1 1_5565 5_5455 65.4(10) 64.9(10) 66.0(10)
Bi1 Fe1 O2 1_5565 1_4555 74.1(17) 72.4(16) 75.8(17)
Bi1 Fe1 O3 1_5565 1_5545 179.5(16) 179.2(16) 179.8(16)
Bi1 Fe1 Bi1 1_6555 5_4445 113.3(5) 113.2(5) 113.4(5)
Bi1 Fe1 Bi1 1_6555 5_4455 133.0(5) 133.0(5) 133.0(5)
Bi1 Fe1 Bi1 1_6555 5_4545 113.3(5) 113.2(5) 113.4(5)
Bi1 Fe1 Bi1 1_6555 5_4555 133.0(5) 133.0(5) 133.0(5)
Bi1 Fe1 Bi1 1_6555 5_5445 53.3(5) 52.8(5) 53.7(5)
Bi1 Fe1 Bi1 1_6555 5_5545 53.3(5) 52.8(5) 53.7(5)
Bi1 Fe1 O1 1_6555 1_5455 95.9(13) 95.0(13) 96.8(13)
Bi1 Fe1 O1 1_6555 . 95.9(13) 95.0(13) 96.8(13)
Bi1 Fe1 O1 1_6555 5_4455 166.4(10) 166.1(10) 166.9(10)
Bi1 Fe1 O1 1_6555 5_5455 34.3(10) 33.5(10) 35.0(10)
Bi1 Fe1 O3 1_6555 1_5545 80.8(16) 80.6(16) 80.9(16)
Bi1 Fe1 Bi1 5_4445 5_4455 73.4(6) 68.9(5) 83.6(5)
Bi1 Fe1 Bi1 5_4445 5_4545 68.7(4) 61.8(3) 72.4(5)
Bi1 Fe1 Bi1 5_4445 5_4555 110.5(6) 107.5(5) 119.6(6)
Bi1 Fe1 Bi1 5_4445 5_5445 68.4(6) 60.2(5) 73.2(6)
Bi1 Fe1 Bi1 5_4445 5_5455 110.3(3) 109.2(3) 113.0(4)
Bi1 Fe1 Bi1 5_4445 5_5545 105.5(6) 93.5(5) 113.8(7)
Bi1 Fe1 Bi1 5_4445 5_5555 176.6(6) 175.2(7) 180.0(5)
Bi1 Fe1 O1 5_4445 1_5455 57.8(11) 41.3(11) 72.8(10)
Bi1 Fe1 O1 5_4445 . 125.8(12) 110.2(10) 135.7(12)
Bi1 Fe1 O1 5_4445 5_4455 78.1(9) 77.8(8) 78.5(9)
Bi1 Fe1 O1 5_4445 5_5455 138.9(7) 138.2(7) 139.4(7)
Bi1 Fe1 O2 5_4445 1_4555 55.9(12) 46.4(11) 73.1(14)
Bi1 Fe1 O2 5_4445 . 125.6(13) 108.8(14) 136.6(12)
Bi1 Fe1 O3 5_4445 1_5545 53.1(11) 46.6(11) 58.1(10)
Bi1 Fe1 O3 5_4445 . 126.0(11) 122.7(11) 131.6(11)
Bi1 Fe1 Bi1 5_4455 5_4545 110.5(6) 107.5(5) 119.6(7)
Bi1 Fe1 Bi1 5_4455 5_4555 67.9(4) 63.5(4) 72.6(5)
Bi1 Fe1 Bi1 5_4455 5_5445 111.8(3) 110.4(3) 114.9(3)
Bi1 Fe1 Bi1 5_4455 5_5455 68.4(6) 60.2(5) 73.2(5)
Bi1 Fe1 Bi1 5_4455 5_5545 174.6(6) 172.5(7) 180.0(5)
Bi1 Fe1 Bi1 5_4455 5_5555 105.5(6) 93.5(5) 113.8(6)
Bi1 Fe1 O1 5_4455 1_5455 57.7(11) 44.5(12) 73.5(10)
Bi1 Fe1 O1 5_4455 . 124.6(12) 107.7(11) 138.9(11)
Bi1 Fe1 O1 5_4455 5_4445 80.2(9) 78.5(9) 81.0(9)
Bi1 Fe1 O1 5_4455 5_4455 38.5(5) 38.5(5) 38.5(5)
Bi1 Fe1 O1 5_4455 5_5445 136.1(6) 135.4(6) 136.8(6)
Bi1 Fe1 O1 5_4455 5_5455 106.7(8) 105.8(8) 108.0(8)
Bi1 Fe1 O2 5_4455 1_4555 55.7(12) 42.2(10) 75.9(15)
Bi1 Fe1 O2 5_4455 . 124.5(13) 110.3(15) 133.0(12)
Bi1 Fe1 O3 5_4455 1_5545 126.8(11) 122.8(13) 133.8(8)
Bi1 Fe1 O3 5_4455 . 52.4(11) 47.0(11) 55.8(10)
Bi1 Fe1 Bi1 5_4545 5_4555 73.4(6) 68.9(5) 83.6(5)
Bi1 Fe1 Bi1 5_4545 5_5445 105.5(6) 93.5(5) 113.8(7)
Bi1 Fe1 Bi1 5_4545 5_5455 176.6(6) 175.2(7) 180.0(5)
Bi1 Fe1 Bi1 5_4545 5_5545 68.4(6) 60.2(5) 73.2(6)
Bi1 Fe1 Bi1 5_4545 5_5555 110.3(3) 109.2(3) 113.0(4)
Bi1 Fe1 O1 5_4545 1_5455 125.8(12) 110.2(10) 135.7(12)
Bi1 Fe1 O1 5_4545 . 57.8(11) 41.3(11) 72.8(10)
Bi1 Fe1 O1 5_4545 5_4455 78.1(9) 77.8(8) 78.5(9)
Bi1 Fe1 O1 5_4545 5_5455 138.9(7) 138.2(7) 139.4(7)
Bi1 Fe1 O2 5_4545 1_4555 55.9(12) 46.4(11) 73.1(14)
Bi1 Fe1 O2 5_4545 . 125.6(13) 108.8(14) 136.6(12)
Bi1 Fe1 O3 5_4545 1_5545 53.1(11) 46.6(11) 58.1(10)
Bi1 Fe1 O3 5_4545 . 126.0(11) 122.7(11) 131.6(11)
Bi1 Fe1 Bi1 5_4555 5_5445 174.6(6) 172.5(7) 180.0(5)
Bi1 Fe1 Bi1 5_4555 5_5455 105.5(6) 93.5(5) 113.8(6)
Bi1 Fe1 Bi1 5_4555 5_5545 111.8(3) 110.4(3) 114.9(3)
Bi1 Fe1 Bi1 5_4555 5_5555 68.4(6) 60.2(5) 73.2(5)
Bi1 Fe1 O1 5_4555 1_5455 124.6(12) 107.7(11) 138.9(11)
Bi1 Fe1 O1 5_4555 . 57.7(11) 44.5(12) 73.5(10)
Bi1 Fe1 O1 5_4555 5_4445 80.2(9) 78.5(9) 81.0(9)
Bi1 Fe1 O1 5_4555 5_4455 38.5(5) 38.5(5) 38.5(5)
Bi1 Fe1 O1 5_4555 5_5445 136.1(6) 135.4(6) 136.8(6)
Bi1 Fe1 O1 5_4555 5_5455 106.7(8) 105.8(8) 108.0(8)
Bi1 Fe1 O2 5_4555 1_4555 55.7(12) 42.2(10) 75.9(15)
Bi1 Fe1 O2 5_4555 . 124.5(13) 110.3(15) 133.0(12)
Bi1 Fe1 O3 5_4555 1_5545 126.8(11) 122.8(13) 133.8(8)
Bi1 Fe1 O3 5_4555 . 52.4(11) 47.0(11) 55.8(10)
Bi1 Fe1 Bi1 5_5445 5_5455 73.4(6) 68.9(5) 83.6(6)
Bi1 Fe1 Bi1 5_5445 5_5545 67.9(4) 63.5(4) 72.6(5)
Bi1 Fe1 Bi1 5_5445 5_5555 110.5(6) 107.5(5) 119.6(7)
Bi1 Fe1 O1 5_5445 1_5455 57.7(11) 44.5(12) 73.5(10)
Bi1 Fe1 O1 5_5445 . 124.6(12) 107.7(11) 138.9(11)
Bi1 Fe1 O1 5_5445 5_4445 106.7(8) 105.8(8) 108.0(8)
Bi1 Fe1 O1 5_5445 5_4455 136.1(6) 135.4(6) 136.8(6)
Bi1 Fe1 O1 5_5445 5_5445 38.5(5) 38.5(5) 38.5(5)
Bi1 Fe1 O1 5_5445 5_5455 80.2(9) 78.5(9) 81.0(9)
Bi1 Fe1 O2 5_5445 1_4555 124.5(13) 110.3(15) 133.0(12)
Bi1 Fe1 O2 5_5445 . 55.7(12) 42.2(10) 75.9(15)
Bi1 Fe1 O3 5_5445 1_5545 52.4(11) 47.0(11) 55.8(10)
Bi1 Fe1 O3 5_5445 . 126.8(11) 122.8(13) 133.8(8)
Bi1 Fe1 Bi1 5_5455 5_5545 110.5(6) 107.5(5) 119.6(6)
Bi1 Fe1 Bi1 5_5455 5_5555 68.7(4) 61.8(3) 72.4(5)
Bi1 Fe1 O1 5_5455 1_5455 57.8(11) 41.3(11) 72.8(10)
Bi1 Fe1 O1 5_5455 . 125.8(12) 110.2(10) 135.7(12)
Bi1 Fe1 O1 5_5455 5_4445 138.9(7) 138.2(7) 139.4(7)
Bi1 Fe1 O1 5_5455 5_5445 78.1(9) 77.8(8) 78.5(9)
Bi1 Fe1 O2 5_5455 1_4555 125.6(13) 108.8(14) 136.6(12)
Bi1 Fe1 O2 5_5455 . 55.9(12) 46.4(11) 73.1(14)
Bi1 Fe1 O3 5_5455 1_5545 126.0(11) 122.7(11) 131.6(11)
Bi1 Fe1 O3 5_5455 . 53.1(11) 46.6(11) 58.1(10)
Bi1 Fe1 Bi1 5_5545 5_5555 73.4(6) 68.9(5) 83.6(6)
Bi1 Fe1 O1 5_5545 1_5455 124.6(12) 107.7(11) 138.9(11)
Bi1 Fe1 O1 5_5545 . 57.7(11) 44.5(12) 73.5(10)
Bi1 Fe1 O1 5_5545 5_4445 106.7(8) 105.8(8) 108.0(8)
Bi1 Fe1 O1 5_5545 5_4455 136.1(6) 135.4(6) 136.8(6)
Bi1 Fe1 O1 5_5545 5_5445 38.5(5) 38.5(5) 38.5(5)
Bi1 Fe1 O1 5_5545 5_5455 80.2(9) 78.5(9) 81.0(9)
Bi1 Fe1 O2 5_5545 1_4555 124.5(13) 110.3(15) 133.0(12)
Bi1 Fe1 O2 5_5545 . 55.7(12) 42.2(10) 75.9(15)
Bi1 Fe1 O3 5_5545 1_5545 52.4(11) 47.0(11) 55.8(10)
Bi1 Fe1 O3 5_5545 . 126.8(11) 122.8(13) 133.8(8)
Bi1 Fe1 O1 5_5555 1_5455 125.8(12) 110.2(10) 135.7(12)
Bi1 Fe1 O1 5_5555 . 57.8(11) 41.3(11) 72.8(10)
Bi1 Fe1 O1 5_5555 5_4445 138.9(7) 138.2(7) 139.4(7)
Bi1 Fe1 O1 5_5555 5_5445 78.1(9) 77.8(8) 78.5(9)
Bi1 Fe1 O2 5_5555 1_4555 125.6(13) 108.8(14) 136.6(12)
Bi1 Fe1 O2 5_5555 . 55.9(12) 46.4(11) 73.1(14)
Bi1 Fe1 O3 5_5555 1_5545 126.0(11) 122.7(11) 131.6(11)
Bi1 Fe1 O3 5_5555 . 53.1(11) 46.6(11) 58.1(10)
O1 Fe1 O1 1_5455 . 155.7(11) 144.4(9) 180.0(5)
O1 Fe1 O1 1_5455 5_4445 84.4(6) 83.0(7) 86.9(5)
O1 Fe1 O1 1_5455 5_4455 80.4(5) 79.7(4) 81.1(5)
O1 Fe1 O1 1_5455 5_5445 80.4(5) 79.7(4) 81.1(5)
O1 Fe1 O1 1_5455 5_5455 84.4(6) 83.0(7) 86.9(5)
O1 Fe1 O2 1_5455 1_4555 88.1(8) 83.3(9) 91.2(9)
O1 Fe1 O2 1_5455 . 88.1(8) 83.3(9) 91.2(9)
O1 Fe1 O3 1_5455 1_5545 92.3(5) 72.6(6) 107.7(4)
O1 Fe1 O3 1_5455 . 92.3(5) 72.6(6) 107.7(4)
O1 Fe1 O1 . 5_4445 84.4(6) 83.0(7) 86.9(5)
O1 Fe1 O1 . 5_4455 80.4(5) 79.7(4) 81.1(5)
O1 Fe1 O1 . 5_5445 80.4(5) 79.7(4) 81.1(5)
O1 Fe1 O1 . 5_5455 84.4(6) 83.0(7) 86.9(5)
O1 Fe1 O2 . 1_4555 88.1(8) 83.3(9) 91.2(9)
O1 Fe1 O2 . . 88.1(8) 83.3(9) 91.2(9)
O1 Fe1 O3 . 1_5545 92.3(5) 72.6(6) 107.7(4)
O1 Fe1 O3 . . 92.3(5) 72.6(6) 107.7(4)
O1 Fe1 O1 5_4445 5_5445 132.1(11) 131.0(11) 133.4(11)
O1 Fe1 O2 5_4445 . 139.5(17) 137.4(17) 141.8(17)
O1 Fe1 O3 5_4445 . 115.1(17) 114.1(17) 115.8(17)
O1 Fe1 O1 5_4455 5_5455 132.1(11) 131.0(11) 133.4(11)
O1 Fe1 O3 5_4455 1_5545 112.8(16) 112.5(16) 113.1(16)
O1 Fe1 O3 5_5445 . 112.8(16) 112.5(16) 113.1(16)
O1 Fe1 O2 5_5455 1_4555 139.5(17) 137.4(17) 141.8(17)
O1 Fe1 O3 5_5455 1_5545 115.1(17) 114.1(17) 115.8(17)
O2 Fe1 O2 1_4555 . 166(2) 146(2) 180.0(5)
O2 Fe1 O3 1_4555 1_5545 90.1(18) 71.2(13) 106.8(18)
O2 Fe1 O3 1_4555 . 91.0(18) 74.5(16) 111.6(19)
O2 Fe1 O3 . 1_5545 91.0(18) 74.5(16) 111.6(19)
O2 Fe1 O3 . . 90.1(18) 71.2(13) 106.8(18)
O3 Fe1 O3 1_5545 . 178.3(17) 177.2(18) 180.0(5)
Fe1 Pb1 Fe1 1_4555 1_5545 99.0(4) 98.7(4) 99.5(4)
Fe1 Pb1 Fe1 1_4555 5_4455 47.5(3) 46.9(3) 48.0(3)
Fe1 Pb1 Fe1 1_4555 5_4555 47.5(3) 46.9(3) 48.0(3)
Fe1 Pb1 Fe1 1_4555 5_5445 126.8(4) 126.7(4) 127.0(4)
Fe1 Pb1 Fe1 1_4555 5_5455 114.4(4) 111.9(4) 116.5(5)
Fe1 Pb1 Fe1 1_4555 5_5545 126.8(4) 126.7(4) 127.0(4)
Fe1 Pb1 Fe1 1_4555 5_5555 114.4(4) 111.9(4) 116.5(5)
Fe1 Pb1 Pb1 1_4555 1_5455 90.0(5) 90.0(5) 90.0(5)
Fe1 Pb1 Pb1 1_4555 1_5655 90.0(5) 90.0(5) 90.0(5)
Fe1 Pb1 Pb1 1_4555 1_6555 168.7(6) 166.9(6) 170.0(6)
Fe1 Pb1 Pb1 1_4555 5_4445 58.2(5) 57.8(6) 58.5(5)
Fe1 Pb1 Pb1 1_4555 5_4545 58.2(5) 57.8(6) 58.5(5)
Fe1 Pb1 Bi1 1_4555 1_5455 90.0(5) 90.0(5) 90.0(5)
Fe1 Pb1 Bi1 1_4555 . 0(3000) 0(2000) 0(3000)
Fe1 Pb1 Bi1 1_4555 1_5655 90.0(5) 90.0(5) 90.0(5)
Fe1 Pb1 Bi1 1_4555 1_6555 168.6(6) 166.9(6) 170.0(6)
Fe1 Pb1 Bi1 1_4555 5_4445 58.2(5) 57.8(6) 58.5(5)
Fe1 Pb1 Bi1 1_4555 5_4545 58.2(5) 57.8(6) 58.5(5)
Fe1 Pb1 O1 1_4555 1_5445 97.3(7) 97.2(7) 97.4(7)
Fe1 Pb1 O1 1_4555 1_5545 97.3(7) 97.2(7) 97.4(7)
Fe1 Pb1 O1 1_4555 5_4455 26.6(8) 25.7(8) 27.2(8)
Fe1 Pb1 O1 1_4555 5_5445 131.0(7) 130.2(8) 132.3(7)
Fe1 Pb1 O1 1_4555 5_5455 129.0(11) 125.7(11) 131.8(11)
Fe1 Pb1 O2 1_4555 1_4545 68.7(10) 68.4(10) 68.9(10)
Fe1 Pb1 O2 1_4555 5_4455 81.5(15) 80.0(15) 82.8(16)
Fe1 Pb1 O2 1_4555 5_4555 81.5(15) 80.0(15) 82.8(16)
Fe1 Pb1 O3 1_4555 5_5445 133.4(8) 132.6(8) 134.2(8)
Fe1 Pb1 O3 1_4555 5_5545 133.4(8) 132.6(8) 134.2(8)
Fe1 Pb1 Fe1 1_5545 5_4445 46.9(3) 46.8(3) 47.0(3)
Fe1 Pb1 Fe1 1_5545 5_4455 126.2(4) 125.8(5) 126.3(4)
Fe1 Pb1 Fe1 1_5545 5_4545 46.9(3) 46.8(3) 47.0(3)
Fe1 Pb1 Fe1 1_5545 5_4555 126.2(4) 125.8(5) 126.3(4)
Fe1 Pb1 Fe1 1_5545 5_5445 47.1(3) 46.6(3) 48.1(3)
Fe1 Pb1 Fe1 1_5545 5_5455 127.6(4) 124.2(5) 131.7(4)
Fe1 Pb1 Fe1 1_5545 5_5545 47.1(3) 46.6(3) 48.1(3)
Fe1 Pb1 Fe1 1_5545 5_5555 127.6(4) 124.2(5) 131.7(4)
Fe1 Pb1 Pb1 1_5545 1_4555 88.2(6) 87.8(6) 88.6(6)
Fe1 Pb1 Pb1 1_5545 1_5455 90.0(5) 90.0(5) 90.0(5)
Fe1 Pb1 Pb1 1_5545 1_5655 90.0(5) 90.0(5) 90.0(5)
Fe1 Pb1 Pb1 1_5545 1_6555 91.3(6) 89.1(6) 94.4(6)
Fe1 Pb1 Pb1 1_5545 5_4445 57.5(5) 57.0(5) 58.4(5)
Fe1 Pb1 Pb1 1_5545 5_4545 57.5(5) 57.0(5) 58.4(5)
Fe1 Pb1 Bi1 1_5545 1_4555 88.2(6) 87.8(6) 88.6(6)
Fe1 Pb1 Bi1 1_5545 1_5455 90.0(5) 90.0(5) 90.0(5)
Fe1 Pb1 Bi1 1_5545 . 0(3000) 0(2000) 0(4000)
Fe1 Pb1 Bi1 1_5545 1_5655 90.0(5) 90.0(5) 90.0(5)
Fe1 Pb1 Bi1 1_5545 1_6555 91.3(6) 89.1(6) 94.4(6)
Fe1 Pb1 Bi1 1_5545 5_4445 57.5(5) 57.0(5) 58.4(5)
Fe1 Pb1 Bi1 1_5545 5_4545 57.5(5) 57.0(5) 58.4(5)
Fe1 Pb1 O1 1_5545 1_5445 30.3(3) 30.0(3) 31.0(2)
Fe1 Pb1 O1 1_5545 1_5545 30.3(3) 30.0(3) 31.0(2)
Fe1 Pb1 O1 1_5545 5_4445 30.0(7) 29.7(7) 30.3(7)
Fe1 Pb1 O1 1_5545 5_4455 125.3(9) 124.7(10) 125.9(9)
Fe1 Pb1 O1 1_5545 5_5445 31.4(7) 30.1(7) 33.7(7)
Fe1 Pb1 O1 1_5545 5_5455 130.2(11) 126.0(12) 135.7(11)
Fe1 Pb1 O2 1_5545 1_4545 30.4(10) 30.2(10) 30.6(10)
Fe1 Pb1 O2 1_5545 5_4455 128.0(11) 127.9(11) 128.1(11)
Fe1 Pb1 O2 1_5545 5_4555 128.0(11) 127.9(11) 128.1(11)
Fe1 Pb1 O3 1_5545 5_4445 75.6(9) 75.5(9) 75.7(9)
Fe1 Pb1 O3 1_5545 5_4545 75.6(9) 75.5(9) 75.7(9)
Fe1 Pb1 O3 1_5545 5_5445 77.2(9) 76.0(9) 79.3(9)
Fe1 Pb1 O3 1_5545 5_5545 77.2(9) 76.0(9) 79.3(9)
Fe1 Pb1 Fe1 1_5565 1_6555 99.0(4) 98.7(4) 99.5(4)
Fe1 Pb1 Fe1 1_5565 5_4445 127.6(4) 124.2(5) 131.7(4)
Fe1 Pb1 Fe1 1_5565 5_4455 47.1(3) 46.6(3) 48.1(3)
Fe1 Pb1 Fe1 1_5565 5_4545 127.6(4) 124.2(5) 131.7(4)
Fe1 Pb1 Fe1 1_5565 5_4555 47.1(3) 46.6(3) 48.1(3)
Fe1 Pb1 Fe1 1_5565 5_5445 126.2(4) 125.8(5) 126.3(4)
Fe1 Pb1 Fe1 1_5565 5_5455 46.9(3) 46.8(3) 47.0(3)
Fe1 Pb1 Fe1 1_5565 5_5545 126.2(4) 125.8(5) 126.3(4)
Fe1 Pb1 Fe1 1_5565 5_5555 46.9(3) 46.8(3) 47.0(3)
Fe1 Pb1 Pb1 1_5565 1_4555 91.3(6) 89.1(6) 94.4(6)
Fe1 Pb1 Pb1 1_5565 1_5455 90.0(5) 90.0(5) 90.0(5)
Fe1 Pb1 Pb1 1_5565 1_5655 90.0(5) 90.0(5) 90.0(5)
Fe1 Pb1 Pb1 1_5565 1_6555 88.2(6) 87.8(6) 88.6(6)
Fe1 Pb1 Pb1 1_5565 5_5455 57.5(5) 57.0(5) 58.4(5)
Fe1 Pb1 Pb1 1_5565 5_5555 57.5(5) 57.0(5) 58.4(5)
Fe1 Pb1 Bi1 1_5565 1_4555 91.3(6) 89.1(6) 94.4(6)
Fe1 Pb1 Bi1 1_5565 1_5455 90.0(5) 90.0(5) 90.0(5)
Fe1 Pb1 Bi1 1_5565 . 0(3000) 0(2000) 0(4000)
Fe1 Pb1 Bi1 1_5565 1_5655 90.0(5) 90.0(5) 90.0(5)
Fe1 Pb1 Bi1 1_5565 1_6555 88.2(6) 87.8(6) 88.6(6)
Fe1 Pb1 Bi1 1_5565 5_5455 57.5(5) 57.0(5) 58.4(5)
Fe1 Pb1 Bi1 1_5565 5_5555 57.5(5) 57.0(5) 58.4(5)
Fe1 Pb1 O1 1_5565 1_5465 30.3(3) 30.0(3) 31.0(2)
Fe1 Pb1 O1 1_5565 1_5565 30.3(3) 30.0(3) 31.0(2)
Fe1 Pb1 O1 1_5565 5_4445 130.2(11) 126.0(12) 135.7(11)
Fe1 Pb1 O1 1_5565 5_4455 31.4(7) 30.1(7) 33.7(7)
Fe1 Pb1 O1 1_5565 5_5445 125.3(9) 124.7(10) 125.9(9)
Fe1 Pb1 O1 1_5565 5_5455 30.0(7) 29.7(7) 30.3(7)
Fe1 Pb1 O2 1_5565 1_5565 30.4(10) 30.2(10) 30.6(10)
Fe1 Pb1 O2 1_5565 5_4445 128.0(11) 127.9(11) 128.1(11)
Fe1 Pb1 O2 1_5565 5_4545 128.0(11) 127.9(11) 128.1(11)
Fe1 Pb1 O3 1_5565 5_4445 77.2(9) 76.0(9) 79.3(9)
Fe1 Pb1 O3 1_5565 5_4545 77.2(9) 76.0(9) 79.3(9)
Fe1 Pb1 O3 1_5565 5_5445 75.6(9) 75.5(9) 75.7(9)
Fe1 Pb1 O3 1_5565 5_5545 75.6(9) 75.5(9) 75.7(9)
Fe1 Pb1 Fe1 1_6555 5_4445 114.4(4) 111.9(4) 116.5(5)
Fe1 Pb1 Fe1 1_6555 5_4455 126.8(4) 126.7(4) 127.0(4)
Fe1 Pb1 Fe1 1_6555 5_4545 114.4(4) 111.9(4) 116.5(5)
Fe1 Pb1 Fe1 1_6555 5_4555 126.8(4) 126.7(4) 127.0(4)
Fe1 Pb1 Fe1 1_6555 5_5445 47.5(3) 46.9(3) 48.0(3)
Fe1 Pb1 Fe1 1_6555 5_5545 47.5(3) 46.9(3) 48.0(3)
Fe1 Pb1 Pb1 1_6555 1_4555 168.7(6) 166.9(6) 170.0(6)
Fe1 Pb1 Pb1 1_6555 1_5455 90.0(5) 90.0(5) 90.0(5)
Fe1 Pb1 Pb1 1_6555 1_5655 90.0(5) 90.0(5) 90.0(5)
Fe1 Pb1 Pb1 1_6555 5_5455 58.2(5) 57.8(6) 58.5(5)
Fe1 Pb1 Pb1 1_6555 5_5555 58.2(5) 57.8(6) 58.5(5)
Fe1 Pb1 Bi1 1_6555 1_4555 168.6(6) 166.9(6) 170.0(6)
Fe1 Pb1 Bi1 1_6555 1_5455 90.0(5) 90.0(5) 90.0(5)
Fe1 Pb1 Bi1 1_6555 . 0(3000) 0(2000) 0(3000)
Fe1 Pb1 Bi1 1_6555 1_5655 90.0(5) 90.0(5) 90.0(5)
Fe1 Pb1 Bi1 1_6555 5_5455 58.2(5) 57.8(6) 58.5(5)
Fe1 Pb1 Bi1 1_6555 5_5555 58.2(5) 57.8(6) 58.5(5)
Fe1 Pb1 O1 1_6555 1_5465 97.3(7) 97.2(7) 97.4(7)
Fe1 Pb1 O1 1_6555 1_5565 97.3(7) 97.2(7) 97.4(7)
Fe1 Pb1 O1 1_6555 5_4445 129.0(11) 125.7(11) 131.8(11)
Fe1 Pb1 O1 1_6555 5_4455 131.0(7) 130.2(8) 132.3(7)
Fe1 Pb1 O1 1_6555 5_5445 26.6(8) 25.7(8) 27.2(8)
Fe1 Pb1 O2 1_6555 1_5565 68.7(10) 68.4(10) 68.9(10)
Fe1 Pb1 O2 1_6555 5_4445 81.5(15) 80.0(15) 82.8(16)
Fe1 Pb1 O2 1_6555 5_4545 81.5(15) 80.0(15) 82.8(16)
Fe1 Pb1 O3 1_6555 5_4445 133.4(8) 132.6(8) 134.2(8)
Fe1 Pb1 O3 1_6555 5_4545 133.4(8) 132.6(8) 134.2(8)
Fe1 Pb1 Fe1 5_4445 5_4455 74.7(4) 71.0(3) 83.7(3)
Fe1 Pb1 Fe1 5_4445 5_4545 68.7(4) 61.8(3) 72.4(6)
Fe1 Pb1 Fe1 5_4445 5_4555 111.5(6) 108.0(5) 121.1(5)
Fe1 Pb1 Fe1 5_4445 5_5445 68.8(4) 60.8(4) 73.6(4)
Fe1 Pb1 Fe1 5_4445 5_5455 111.0(2) 110.5(2) 112.8(2)
Fe1 Pb1 Fe1 5_4445 5_5545 105.9(5) 93.3(4) 114.4(8)
Fe1 Pb1 Fe1 5_4445 5_5555 172.6(6) 169.7(9) 180.0(5)
Fe1 Pb1 Pb1 5_4445 1_4555 56.2(5) 53.4(5) 58.9(6)
Fe1 Pb1 Pb1 5_4445 1_5455 55.7(5) 53.8(5) 59.1(5)
Fe1 Pb1 Pb1 5_4445 1_5545 53.6(4) 48.7(4) 57.7(5)
Fe1 Pb1 Pb1 5_4445 1_5565 126.7(5) 120.6(7) 133.3(5)
Fe1 Pb1 Pb1 5_4445 1_5655 124.3(6) 120.9(6) 126.2(8)
Fe1 Pb1 Pb1 5_4445 1_6555 123.9(5) 119.9(7) 127.6(7)
Fe1 Pb1 Pb1 5_4445 5_5455 109.0(3) 108.9(3) 109.2(3)
Fe1 Pb1 Pb1 5_4445 5_5555 172.2(7) 169.6(7) 174.0(8)
Fe1 Pb1 Bi1 5_4445 1_4555 56.2(5) 53.4(5) 58.9(6)
Fe1 Pb1 Bi1 5_4445 1_5455 55.7(5) 53.8(5) 59.1(5)
Fe1 Pb1 Bi1 5_4445 1_5545 53.6(4) 48.7(4) 57.7(5)
Fe1 Pb1 Bi1 5_4445 . 0(18000) 0 0(4000)
Fe1 Pb1 Bi1 5_4445 1_5565 126.7(5) 120.6(7) 133.3(5)
Fe1 Pb1 Bi1 5_4445 1_5655 124.3(6) 120.9(6) 126.2(8)
Fe1 Pb1 Bi1 5_4445 1_6555 123.9(5) 119.9(7) 127.6(7)
Fe1 Pb1 Bi1 5_4445 5_5455 109.0(3) 108.9(3) 109.2(3)
Fe1 Pb1 Bi1 5_4445 5_5555 172.2(7) 169.7(7) 174.0(8)
Fe1 Pb1 O1 5_4445 1_5445 30.1(7) 29.9(7) 30.3(7)
Fe1 Pb1 O1 5_4445 1_5465 104.0(5) 102.3(5) 106.0(4)
Fe1 Pb1 O1 5_4445 1_5545 69.5(5) 69.5(5) 69.5(5)
Fe1 Pb1 O1 5_4445 1_5565 146.0(8) 143.3(9) 150.0(8)
Fe1 Pb1 O1 5_4445 5_4445 34.7(2) 31.7(2) 36.8(3)
Fe1 Pb1 O1 5_4445 5_4455 93.2(8) 87.1(10) 106.8(6)
Fe1 Pb1 O1 5_4445 5_5445 88.2(8) 70.7(6) 101.9(10)
Fe1 Pb1 O1 5_4445 5_5455 143.6(4) 140.5(5) 145.74(16)
Fe1 Pb1 O2 5_4445 1_5565 143.6(3) 142.5(4) 144.70(19)
Fe1 Pb1 O2 5_4445 5_4445 35.0(14) 32.0(10) 36.8(15)
Fe1 Pb1 O2 5_4445 5_4455 92.7(10) 90.6(12) 99.4(8)
Fe1 Pb1 O2 5_4445 5_4545 88.1(11) 71.9(8) 97.0(14)
Fe1 Pb1 O2 5_4445 5_4555 143.9(14) 139.2(14) 147.9(17)
Fe1 Pb1 O3 5_4445 5_4445 37.6(9) 28.7(9) 52.5(9)
Fe1 Pb1 O3 5_4445 5_4545 90.0(9) 80.0(8) 103.3(10)
Fe1 Pb1 O3 5_4445 5_5445 90.0(8) 79.8(9) 97.6(7)
Fe1 Pb1 O3 5_4445 5_5545 143.7(10) 122.9(10) 161.2(12)
Fe1 Pb1 Fe1 5_4455 5_4545 111.5(6) 108.0(5) 121.1(5)
Fe1 Pb1 Fe1 5_4455 5_4555 67.9(4) 63.5(4) 72.6(6)
Fe1 Pb1 Fe1 5_4455 5_5445 111.9(2) 111.02(18) 113.93(19)
Fe1 Pb1 Fe1 5_4455 5_5455 68.8(4) 60.8(4) 73.6(5)
Fe1 Pb1 Fe1 5_4455 5_5545 174.3(6) 172.2(7) 180.0(5)
Fe1 Pb1 Fe1 5_4455 5_5555 105.9(5) 93.3(4) 114.4(8)
Fe1 Pb1 Pb1 5_4455 1_4555 55.6(4) 53.2(3) 63.1(4)
Fe1 Pb1 Pb1 5_4455 1_5455 56.1(5) 53.7(5) 58.2(5)
Fe1 Pb1 Pb1 5_4455 1_5545 128.0(5) 124.5(5) 134.3(3)
Fe1 Pb1 Pb1 5_4455 1_5565 52.9(4) 45.4(4) 56.8(5)
Fe1 Pb1 Pb1 5_4455 1_5655 123.9(6) 121.8(7) 126.3(8)
Fe1 Pb1 Pb1 5_4455 1_6555 125.0(5) 118.0(5) 127.1(4)
Fe1 Pb1 Pb1 5_4455 5_4445 68.8(5) 67.9(5) 69.3(5)
Fe1 Pb1 Pb1 5_4455 5_4545 105.6(6) 105.2(6) 105.9(6)
Fe1 Pb1 Pb1 5_4455 5_5455 68.6(5) 68.2(5) 69.2(6)
Fe1 Pb1 Pb1 5_4455 5_5555 104.7(6) 104.4(6) 105.0(6)
Fe1 Pb1 Bi1 5_4455 1_4555 55.6(4) 53.2(3) 63.1(4)
Fe1 Pb1 Bi1 5_4455 1_5455 56.1(5) 53.7(5) 58.2(5)
Fe1 Pb1 Bi1 5_4455 1_5545 128.0(5) 124.5(5) 134.3(3)
Fe1 Pb1 Bi1 5_4455 . 0(7000) 0 0(11000)
Fe1 Pb1 Bi1 5_4455 1_5565 52.9(4) 45.4(4) 56.8(5)
Fe1 Pb1 Bi1 5_4455 1_5655 123.9(6) 121.8(7) 126.3(8)
Fe1 Pb1 Bi1 5_4455 1_6555 125.0(5) 118.0(5) 127.1(4)
Fe1 Pb1 Bi1 5_4455 5_4445 68.8(5) 67.9(5) 69.3(5)
Fe1 Pb1 Bi1 5_4455 5_4545 105.6(6) 105.2(6) 105.9(6)
Fe1 Pb1 Bi1 5_4455 5_5455 68.6(5) 68.2(5) 69.2(6)
Fe1 Pb1 Bi1 5_4455 5_5555 104.7(6) 104.4(6) 105.0(6)
Fe1 Pb1 O1 5_4455 1_5445 102.7(5) 101.4(5) 103.3(5)
Fe1 Pb1 O1 5_4455 1_5465 31.7(7) 31.2(7) 32.8(7)
Fe1 Pb1 O1 5_4455 1_5545 141.3(8) 140.5(9) 141.7(8)
Fe1 Pb1 O1 5_4455 1_5565 72.0(5) 71.4(5) 73.1(5)
Fe1 Pb1 O1 5_4455 5_4445 93.4(8) 87.0(10) 103.1(7)
Fe1 Pb1 O1 5_4455 5_4455 34.5(2) 32.3(2) 37.3(4)
Fe1 Pb1 O1 5_4455 5_5445 143.9(3) 141.6(5) 146.25(17)
Fe1 Pb1 O1 5_4455 5_5455 87.0(8) 69.4(6) 98.7(10)
Fe1 Pb1 O2 5_4455 1_4545 102.3(8) 101.9(8) 102.5(8)
Fe1 Pb1 O2 5_4455 1_5565 70.6(8) 70.2(8) 71.2(8)
Fe1 Pb1 O2 5_4455 5_4445 93.0(11) 89.8(13) 101.5(8)
Fe1 Pb1 O2 5_4455 5_4455 34.6(14) 30.6(10) 37.0(15)
Fe1 Pb1 O2 5_4455 5_4545 145.0(15) 142.9(12) 151.7(15)
Fe1 Pb1 O2 5_4455 5_4555 87.5(11) 71.7(8) 96.7(15)
Fe1 Pb1 O3 5_4455 5_4445 37.1(9) 29.2(9) 50.6(9)
Fe1 Pb1 O3 5_4455 5_4545 89.2(9) 81.3(9) 98.6(11)
Fe1 Pb1 O3 5_4455 5_5445 90.2(8) 78.7(9) 97.5(7)
Fe1 Pb1 O3 5_4455 5_5545 143.5(10) 122.0(10) 158.6(12)
Fe1 Pb1 Fe1 5_4545 5_4555 74.7(4) 71.0(3) 83.7(3)
Fe1 Pb1 Fe1 5_4545 5_5445 105.9(5) 93.3(4) 114.4(8)
Fe1 Pb1 Fe1 5_4545 5_5455 172.6(6) 169.7(9) 180.0(5)
Fe1 Pb1 Fe1 5_4545 5_5545 68.8(4) 60.8(4) 73.6(4)
Fe1 Pb1 Fe1 5_4545 5_5555 111.0(2) 110.5(2) 112.8(2)
Fe1 Pb1 Pb1 5_4545 1_4555 56.2(5) 53.4(5) 58.9(6)
Fe1 Pb1 Pb1 5_4545 1_5455 124.3(6) 120.9(6) 126.2(8)
Fe1 Pb1 Pb1 5_4545 1_5545 53.6(4) 48.7(4) 57.7(5)
Fe1 Pb1 Pb1 5_4545 1_5565 126.7(5) 120.6(7) 133.3(5)
Fe1 Pb1 Pb1 5_4545 1_5655 55.7(5) 53.8(5) 59.1(5)
Fe1 Pb1 Pb1 5_4545 1_6555 123.9(5) 119.9(7) 127.6(7)
Fe1 Pb1 Pb1 5_4545 5_5455 172.2(7) 169.6(7) 174.0(8)
Fe1 Pb1 Pb1 5_4545 5_5555 109.0(3) 108.9(3) 109.2(3)
Fe1 Pb1 Bi1 5_4545 1_4555 56.2(5) 53.4(5) 58.9(6)
Fe1 Pb1 Bi1 5_4545 1_5455 124.3(6) 120.9(6) 126.2(8)
Fe1 Pb1 Bi1 5_4545 1_5545 53.6(4) 48.7(4) 57.7(5)
Fe1 Pb1 Bi1 5_4545 . 0(18000) 0 0(4000)
Fe1 Pb1 Bi1 5_4545 1_5565 126.7(5) 120.6(7) 133.3(5)
Fe1 Pb1 Bi1 5_4545 1_5655 55.7(5) 53.8(5) 59.1(5)
Fe1 Pb1 Bi1 5_4545 1_6555 123.9(5) 119.9(7) 127.6(7)
Fe1 Pb1 Bi1 5_4545 5_5455 172.2(7) 169.7(7) 174.0(8)
Fe1 Pb1 Bi1 5_4545 5_5555 109.0(3) 108.9(3) 109.2(3)
Fe1 Pb1 O1 5_4545 1_5445 69.5(5) 69.5(5) 69.5(5)
Fe1 Pb1 O1 5_4545 1_5465 146.0(8) 143.3(9) 150.0(8)
Fe1 Pb1 O1 5_4545 1_5545 30.1(7) 29.9(7) 30.3(7)
Fe1 Pb1 O1 5_4545 1_5565 104.0(5) 102.3(5) 106.0(4)
Fe1 Pb1 O1 5_4545 5_4445 34.7(2) 31.7(2) 36.8(3)
Fe1 Pb1 O1 5_4545 5_4455 93.2(8) 87.1(10) 106.8(6)
Fe1 Pb1 O1 5_4545 5_5445 88.2(8) 70.7(6) 101.9(10)
Fe1 Pb1 O1 5_4545 5_5455 143.6(4) 140.5(5) 145.74(16)
Fe1 Pb1 O2 5_4545 1_5565 143.6(3) 142.5(4) 144.70(19)
Fe1 Pb1 O2 5_4545 5_4445 88.1(11) 71.9(8) 97.0(14)
Fe1 Pb1 O2 5_4545 5_4455 143.9(14) 139.2(14) 147.9(17)
Fe1 Pb1 O2 5_4545 5_4545 35.0(14) 32.0(10) 36.8(15)
Fe1 Pb1 O2 5_4545 5_4555 92.7(10) 90.6(12) 99.4(8)
Fe1 Pb1 O3 5_4545 5_4445 90.0(9) 80.0(8) 103.3(10)
Fe1 Pb1 O3 5_4545 5_4545 37.6(9) 28.7(9) 52.5(9)
Fe1 Pb1 O3 5_4545 5_5445 143.7(10) 122.9(10) 161.2(12)
Fe1 Pb1 O3 5_4545 5_5545 90.0(8) 79.8(9) 97.6(7)
Fe1 Pb1 Fe1 5_4555 5_5445 174.3(6) 172.2(7) 180.0(5)
Fe1 Pb1 Fe1 5_4555 5_5455 105.9(5) 93.3(4) 114.4(8)
Fe1 Pb1 Fe1 5_4555 5_5545 111.9(2) 111.02(18) 113.93(19)
Fe1 Pb1 Fe1 5_4555 5_5555 68.8(4) 60.8(4) 73.6(5)
Fe1 Pb1 Pb1 5_4555 1_4555 55.6(4) 53.2(3) 63.1(4)
Fe1 Pb1 Pb1 5_4555 1_5455 123.9(6) 121.8(7) 126.3(8)
Fe1 Pb1 Pb1 5_4555 1_5545 128.0(5) 124.5(5) 134.3(3)
Fe1 Pb1 Pb1 5_4555 1_5565 52.9(4) 45.4(4) 56.8(5)
Fe1 Pb1 Pb1 5_4555 1_5655 56.1(5) 53.7(5) 58.2(5)
Fe1 Pb1 Pb1 5_4555 1_6555 125.0(5) 118.0(5) 127.1(4)
Fe1 Pb1 Pb1 5_4555 5_4445 105.6(6) 105.2(6) 105.9(6)
Fe1 Pb1 Pb1 5_4555 5_4545 68.8(5) 67.9(5) 69.3(5)
Fe1 Pb1 Pb1 5_4555 5_5455 104.7(6) 104.4(6) 105.0(6)
Fe1 Pb1 Pb1 5_4555 5_5555 68.6(5) 68.2(5) 69.2(6)
Fe1 Pb1 Bi1 5_4555 1_4555 55.6(4) 53.2(3) 63.1(4)
Fe1 Pb1 Bi1 5_4555 1_5455 123.9(6) 121.8(7) 126.3(8)
Fe1 Pb1 Bi1 5_4555 1_5545 128.0(5) 124.5(5) 134.3(3)
Fe1 Pb1 Bi1 5_4555 . 0(7000) 0 0(11000)
Fe1 Pb1 Bi1 5_4555 1_5565 52.9(4) 45.4(4) 56.8(5)
Fe1 Pb1 Bi1 5_4555 1_5655 56.1(5) 53.7(5) 58.2(5)
Fe1 Pb1 Bi1 5_4555 1_6555 125.0(5) 118.0(5) 127.1(4)
Fe1 Pb1 Bi1 5_4555 5_4445 105.6(6) 105.2(6) 105.9(6)
Fe1 Pb1 Bi1 5_4555 5_4545 68.8(5) 67.9(5) 69.3(5)
Fe1 Pb1 Bi1 5_4555 5_5455 104.7(6) 104.4(6) 105.0(6)
Fe1 Pb1 Bi1 5_4555 5_5555 68.6(5) 68.2(5) 69.2(6)
Fe1 Pb1 O1 5_4555 1_5445 141.3(8) 140.5(9) 141.7(8)
Fe1 Pb1 O1 5_4555 1_5465 72.0(5) 71.4(5) 73.1(5)
Fe1 Pb1 O1 5_4555 1_5545 102.7(5) 101.4(5) 103.3(5)
Fe1 Pb1 O1 5_4555 1_5565 31.7(7) 31.2(7) 32.8(7)
Fe1 Pb1 O1 5_4555 5_4445 93.4(8) 87.0(10) 103.1(7)
Fe1 Pb1 O1 5_4555 5_4455 34.5(2) 32.3(2) 37.3(4)
Fe1 Pb1 O1 5_4555 5_5445 143.9(3) 141.6(5) 146.25(17)
Fe1 Pb1 O1 5_4555 5_5455 87.0(8) 69.4(6) 98.7(10)
Fe1 Pb1 O2 5_4555 1_4545 102.3(8) 101.9(8) 102.5(8)
Fe1 Pb1 O2 5_4555 1_5565 70.6(8) 70.2(8) 71.2(8)
Fe1 Pb1 O2 5_4555 5_4445 145.0(15) 142.9(12) 151.7(15)
Fe1 Pb1 O2 5_4555 5_4455 87.5(11) 71.7(8) 96.7(15)
Fe1 Pb1 O2 5_4555 5_4545 93.0(11) 89.8(13) 101.5(8)
Fe1 Pb1 O2 5_4555 5_4555 34.6(14) 30.6(10) 37.0(15)
Fe1 Pb1 O3 5_4555 5_4445 89.2(9) 81.3(9) 98.6(11)
Fe1 Pb1 O3 5_4555 5_4545 37.1(9) 29.2(9) 50.6(9)
Fe1 Pb1 O3 5_4555 5_5445 143.5(10) 122.0(10) 158.6(12)
Fe1 Pb1 O3 5_4555 5_5545 90.2(8) 78.7(9) 97.5(7)
Fe1 Pb1 Fe1 5_5445 5_5455 74.7(4) 71.0(3) 83.7(3)
Fe1 Pb1 Fe1 5_5445 5_5545 67.9(4) 63.5(4) 72.6(6)
Fe1 Pb1 Fe1 5_5445 5_5555 111.5(6) 108.0(5) 121.1(5)
Fe1 Pb1 Pb1 5_5445 1_4555 125.0(5) 118.0(5) 127.1(4)
Fe1 Pb1 Pb1 5_5445 1_5455 56.1(5) 53.7(5) 58.2(5)
Fe1 Pb1 Pb1 5_5445 1_5545 52.9(4) 45.4(4) 56.8(5)
Fe1 Pb1 Pb1 5_5445 1_5565 128.0(5) 124.5(5) 134.3(3)
Fe1 Pb1 Pb1 5_5445 1_5655 123.9(6) 121.8(7) 126.3(8)
Fe1 Pb1 Pb1 5_5445 1_6555 55.6(4) 53.2(3) 63.1(4)
Fe1 Pb1 Pb1 5_5445 5_4445 68.6(5) 68.2(5) 69.2(6)
Fe1 Pb1 Pb1 5_5445 5_4545 104.7(6) 104.4(6) 105.0(6)
Fe1 Pb1 Pb1 5_5445 5_5455 68.8(5) 67.9(5) 69.3(5)
Fe1 Pb1 Pb1 5_5445 5_5555 105.6(6) 105.2(6) 105.9(6)
Fe1 Pb1 Bi1 5_5445 1_4555 125.0(5) 118.0(5) 127.1(4)
Fe1 Pb1 Bi1 5_5445 1_5455 56.1(5) 53.7(5) 58.2(5)
Fe1 Pb1 Bi1 5_5445 1_5545 52.9(4) 45.4(4) 56.8(5)
Fe1 Pb1 Bi1 5_5445 . 0(7000) 0 0(11000)
Fe1 Pb1 Bi1 5_5445 1_5565 128.0(5) 124.5(5) 134.3(3)
Fe1 Pb1 Bi1 5_5445 1_5655 123.9(6) 121.8(7) 126.3(8)
Fe1 Pb1 Bi1 5_5445 1_6555 55.6(4) 53.2(3) 63.1(4)
Fe1 Pb1 Bi1 5_5445 5_4445 68.6(5) 68.2(5) 69.2(6)
Fe1 Pb1 Bi1 5_5445 5_4545 104.7(6) 104.4(6) 105.0(6)
Fe1 Pb1 Bi1 5_5445 5_5455 68.8(5) 67.9(5) 69.3(5)
Fe1 Pb1 Bi1 5_5445 5_5555 105.6(6) 105.2(6) 105.9(6)
Fe1 Pb1 O1 5_5445 1_5445 31.7(7) 31.2(7) 32.8(7)
Fe1 Pb1 O1 5_5445 1_5465 102.7(5) 101.4(5) 103.3(5)
Fe1 Pb1 O1 5_5445 1_5545 72.0(5) 71.4(5) 73.1(5)
Fe1 Pb1 O1 5_5445 1_5565 141.3(8) 140.5(9) 141.7(8)
Fe1 Pb1 O1 5_5445 5_4445 87.0(8) 69.4(6) 98.7(10)
Fe1 Pb1 O1 5_5445 5_4455 143.9(3) 141.6(5) 146.25(17)
Fe1 Pb1 O1 5_5445 5_5445 34.5(2) 32.3(2) 37.3(4)
Fe1 Pb1 O1 5_5445 5_5455 93.4(8) 87.0(10) 103.1(7)
Fe1 Pb1 O2 5_5445 1_4545 70.6(8) 70.2(8) 71.2(8)
Fe1 Pb1 O2 5_5445 1_5565 102.3(8) 101.9(8) 102.5(8)
Fe1 Pb1 O2 5_5445 5_4445 34.6(14) 30.6(10) 37.0(15)
Fe1 Pb1 O2 5_5445 5_4455 93.0(11) 89.8(13) 101.5(8)
Fe1 Pb1 O2 5_5445 5_4545 87.5(11) 71.7(8) 96.7(15)
Fe1 Pb1 O2 5_5445 5_4555 145.0(15) 142.9(12) 151.7(15)
Fe1 Pb1 O3 5_5445 5_4445 90.2(8) 78.7(9) 97.5(7)
Fe1 Pb1 O3 5_5445 5_4545 143.5(10) 122.0(10) 158.6(12)
Fe1 Pb1 O3 5_5445 5_5445 37.1(9) 29.2(9) 50.6(9)
Fe1 Pb1 O3 5_5445 5_5545 89.2(9) 81.3(9) 98.6(11)
Fe1 Pb1 Fe1 5_5455 5_5545 111.5(6) 108.0(5) 121.1(5)
Fe1 Pb1 Fe1 5_5455 5_5555 68.7(4) 61.8(3) 72.4(6)
Fe1 Pb1 Pb1 5_5455 1_4555 123.9(5) 119.9(7) 127.6(7)
Fe1 Pb1 Pb1 5_5455 1_5455 55.7(5) 53.8(5) 59.1(5)
Fe1 Pb1 Pb1 5_5455 1_5545 126.7(5) 120.6(7) 133.3(5)
Fe1 Pb1 Pb1 5_5455 1_5565 53.6(4) 48.7(4) 57.7(5)
Fe1 Pb1 Pb1 5_5455 1_5655 124.3(6) 120.9(6) 126.2(8)
Fe1 Pb1 Pb1 5_5455 1_6555 56.2(5) 53.4(5) 58.9(6)
Fe1 Pb1 Pb1 5_5455 5_4445 109.0(3) 108.9(3) 109.2(3)
Fe1 Pb1 Pb1 5_5455 5_4545 172.2(7) 169.6(7) 174.0(8)
Fe1 Pb1 Bi1 5_5455 1_4555 123.9(5) 119.9(7) 127.6(7)
Fe1 Pb1 Bi1 5_5455 1_5455 55.7(5) 53.8(5) 59.1(5)
Fe1 Pb1 Bi1 5_5455 1_5545 126.7(5) 120.6(7) 133.3(5)
Fe1 Pb1 Bi1 5_5455 . 0(18000) 0 0(4000)
Fe1 Pb1 Bi1 5_5455 1_5565 53.6(4) 48.7(4) 57.7(5)
Fe1 Pb1 Bi1 5_5455 1_5655 124.3(6) 120.9(6) 126.2(8)
Fe1 Pb1 Bi1 5_5455 1_6555 56.2(5) 53.4(5) 58.9(6)
Fe1 Pb1 Bi1 5_5455 5_4445 109.0(3) 108.9(3) 109.2(3)
Fe1 Pb1 Bi1 5_5455 5_4545 172.2(7) 169.7(7) 174.0(8)
Fe1 Pb1 O1 5_5455 1_5445 104.0(5) 102.3(5) 106.0(4)
Fe1 Pb1 O1 5_5455 1_5465 30.1(7) 29.9(7) 30.3(7)
Fe1 Pb1 O1 5_5455 1_5545 146.0(8) 143.3(9) 150.0(8)
Fe1 Pb1 O1 5_5455 1_5565 69.5(5) 69.5(5) 69.5(5)
Fe1 Pb1 O1 5_5455 5_4445 143.6(4) 140.5(5) 145.74(16)
Fe1 Pb1 O1 5_5455 5_4455 88.2(8) 70.7(6) 101.9(10)
Fe1 Pb1 O1 5_5455 5_5445 93.2(8) 87.1(10) 106.8(6)
Fe1 Pb1 O1 5_5455 5_5455 34.7(2) 31.7(2) 36.8(3)
Fe1 Pb1 O2 5_5455 1_4545 143.6(3) 142.5(4) 144.70(19)
Fe1 Pb1 O2 5_5455 5_4445 92.7(10) 90.6(12) 99.4(8)
Fe1 Pb1 O2 5_5455 5_4455 35.0(14) 32.0(10) 36.8(15)
Fe1 Pb1 O2 5_5455 5_4545 143.9(14) 139.2(14) 147.9(17)
Fe1 Pb1 O2 5_5455 5_4555 88.1(11) 71.9(8) 97.0(14)
Fe1 Pb1 O3 5_5455 5_4445 90.0(8) 79.8(9) 97.6(7)
Fe1 Pb1 O3 5_5455 5_4545 143.7(10) 122.9(10) 161.2(12)
Fe1 Pb1 O3 5_5455 5_5445 37.6(9) 28.7(9) 52.5(9)
Fe1 Pb1 O3 5_5455 5_5545 90.0(9) 80.0(8) 103.3(10)
Fe1 Pb1 Fe1 5_5545 5_5555 74.7(4) 71.0(3) 83.7(3)
Fe1 Pb1 Pb1 5_5545 1_4555 125.0(5) 118.0(5) 127.1(4)
Fe1 Pb1 Pb1 5_5545 1_5455 123.9(6) 121.8(7) 126.3(8)
Fe1 Pb1 Pb1 5_5545 1_5545 52.9(4) 45.4(4) 56.8(5)
Fe1 Pb1 Pb1 5_5545 1_5565 128.0(5) 124.5(5) 134.3(3)
Fe1 Pb1 Pb1 5_5545 1_5655 56.1(5) 53.7(5) 58.2(5)
Fe1 Pb1 Pb1 5_5545 1_6555 55.6(4) 53.2(3) 63.1(4)
Fe1 Pb1 Pb1 5_5545 5_4445 104.7(6) 104.4(6) 105.0(6)
Fe1 Pb1 Pb1 5_5545 5_4545 68.6(5) 68.2(5) 69.2(6)
Fe1 Pb1 Pb1 5_5545 5_5455 105.6(6) 105.2(6) 105.9(6)
Fe1 Pb1 Pb1 5_5545 5_5555 68.8(5) 67.9(5) 69.3(5)
Fe1 Pb1 Bi1 5_5545 1_4555 125.0(5) 118.0(5) 127.1(4)
Fe1 Pb1 Bi1 5_5545 1_5455 123.9(6) 121.8(7) 126.3(8)
Fe1 Pb1 Bi1 5_5545 1_5545 52.9(4) 45.4(4) 56.8(5)
Fe1 Pb1 Bi1 5_5545 . 0(7000) 0 0(11000)
Fe1 Pb1 Bi1 5_5545 1_5565 128.0(5) 124.5(5) 134.3(3)
Fe1 Pb1 Bi1 5_5545 1_5655 56.1(5) 53.7(5) 58.2(5)
Fe1 Pb1 Bi1 5_5545 1_6555 55.6(4) 53.2(3) 63.1(4)
Fe1 Pb1 Bi1 5_5545 5_4445 104.7(6) 104.4(6) 105.0(6)
Fe1 Pb1 Bi1 5_5545 5_4545 68.6(5) 68.2(5) 69.2(6)
Fe1 Pb1 Bi1 5_5545 5_5455 105.6(6) 105.2(6) 105.9(6)
Fe1 Pb1 Bi1 5_5545 5_5555 68.8(5) 67.9(5) 69.3(5)
Fe1 Pb1 O1 5_5545 1_5445 72.0(5) 71.4(5) 73.1(5)
Fe1 Pb1 O1 5_5545 1_5465 141.3(8) 140.5(9) 141.7(8)
Fe1 Pb1 O1 5_5545 1_5545 31.7(7) 31.2(7) 32.8(7)
Fe1 Pb1 O1 5_5545 1_5565 102.7(5) 101.4(5) 103.3(5)
Fe1 Pb1 O1 5_5545 5_4445 87.0(8) 69.4(6) 98.7(10)
Fe1 Pb1 O1 5_5545 5_4455 143.9(3) 141.6(5) 146.25(17)
Fe1 Pb1 O1 5_5545 5_5445 34.5(2) 32.3(2) 37.3(4)
Fe1 Pb1 O1 5_5545 5_5455 93.4(8) 87.0(10) 103.1(7)
Fe1 Pb1 O2 5_5545 1_4545 70.6(8) 70.2(8) 71.2(8)
Fe1 Pb1 O2 5_5545 1_5565 102.3(8) 101.9(8) 102.5(8)
Fe1 Pb1 O2 5_5545 5_4445 87.5(11) 71.7(8) 96.7(15)
Fe1 Pb1 O2 5_5545 5_4455 145.0(15) 142.9(12) 151.7(15)
Fe1 Pb1 O2 5_5545 5_4545 34.6(14) 30.6(10) 37.0(15)
Fe1 Pb1 O2 5_5545 5_4555 93.0(11) 89.8(13) 101.5(8)
Fe1 Pb1 O3 5_5545 5_4445 143.5(10) 122.0(10) 158.6(12)
Fe1 Pb1 O3 5_5545 5_4545 90.2(8) 78.7(9) 97.5(7)
Fe1 Pb1 O3 5_5545 5_5445 89.2(9) 81.3(9) 98.6(11)
Fe1 Pb1 O3 5_5545 5_5545 37.1(9) 29.2(9) 50.6(9)
Fe1 Pb1 Pb1 5_5555 1_4555 123.9(5) 119.9(7) 127.6(7)
Fe1 Pb1 Pb1 5_5555 1_5455 124.3(6) 120.9(6) 126.2(8)
Fe1 Pb1 Pb1 5_5555 1_5545 126.7(5) 120.6(7) 133.3(5)
Fe1 Pb1 Pb1 5_5555 1_5565 53.6(4) 48.7(4) 57.7(5)
Fe1 Pb1 Pb1 5_5555 1_5655 55.7(5) 53.8(5) 59.1(5)
Fe1 Pb1 Pb1 5_5555 1_6555 56.2(5) 53.4(5) 58.9(6)
Fe1 Pb1 Pb1 5_5555 5_4445 172.2(7) 169.6(7) 174.0(8)
Fe1 Pb1 Pb1 5_5555 5_4545 109.0(3) 108.9(3) 109.2(3)
Fe1 Pb1 Bi1 5_5555 1_4555 123.9(5) 119.9(7) 127.6(7)
Fe1 Pb1 Bi1 5_5555 1_5455 124.3(6) 120.9(6) 126.2(8)
Fe1 Pb1 Bi1 5_5555 1_5545 126.7(5) 120.6(7) 133.3(5)
Fe1 Pb1 Bi1 5_5555 . 0(18000) 0 0(4000)
Fe1 Pb1 Bi1 5_5555 1_5565 53.6(4) 48.7(4) 57.7(5)
Fe1 Pb1 Bi1 5_5555 1_5655 55.7(5) 53.8(5) 59.1(5)
Fe1 Pb1 Bi1 5_5555 1_6555 56.2(5) 53.4(5) 58.9(6)
Fe1 Pb1 Bi1 5_5555 5_4445 172.2(7) 169.7(7) 174.0(8)
Fe1 Pb1 Bi1 5_5555 5_4545 109.0(3) 108.9(3) 109.2(3)
Fe1 Pb1 O1 5_5555 1_5445 146.0(8) 143.3(9) 150.0(8)
Fe1 Pb1 O1 5_5555 1_5465 69.5(5) 69.5(5) 69.5(5)
Fe1 Pb1 O1 5_5555 1_5545 104.0(5) 102.3(5) 106.0(4)
Fe1 Pb1 O1 5_5555 1_5565 30.1(7) 29.9(7) 30.3(7)
Fe1 Pb1 O1 5_5555 5_4445 143.6(4) 140.5(5) 145.74(16)
Fe1 Pb1 O1 5_5555 5_4455 88.2(8) 70.7(6) 101.9(10)
Fe1 Pb1 O1 5_5555 5_5445 93.2(8) 87.1(10) 106.8(6)
Fe1 Pb1 O1 5_5555 5_5455 34.7(2) 31.7(2) 36.8(3)
Fe1 Pb1 O2 5_5555 1_4545 143.6(3) 142.5(4) 144.70(19)
Fe1 Pb1 O2 5_5555 5_4445 143.9(14) 139.2(14) 147.9(17)
Fe1 Pb1 O2 5_5555 5_4455 88.1(11) 71.9(8) 97.0(14)
Fe1 Pb1 O2 5_5555 5_4545 92.7(10) 90.6(12) 99.4(8)
Fe1 Pb1 O2 5_5555 5_4555 35.0(14) 32.0(10) 36.8(15)
Fe1 Pb1 O3 5_5555 5_4445 143.7(10) 122.9(10) 161.2(12)
Fe1 Pb1 O3 5_5555 5_4545 90.0(8) 79.8(9) 97.6(7)
Fe1 Pb1 O3 5_5555 5_5445 90.0(9) 80.0(8) 103.3(10)
Fe1 Pb1 O3 5_5555 5_5545 37.6(9) 28.7(9) 52.5(9)
Pb1 Pb1 Pb1 1_4555 1_5455 90.0(5) 90.0(5) 90.0(5)
Pb1 Pb1 Pb1 1_4555 1_5545 91.2(6) 89.2(5) 91.9(8)
Pb1 Pb1 Pb1 1_4555 1_5565 88.8(6) 86.5(7) 92.3(6)
Pb1 Pb1 Pb1 1_4555 1_5655 90.0(5) 90.0(5) 90.0(5)
Pb1 Pb1 Pb1 1_4555 1_6555 178.8(7) 177.5(7) 180.0(5)
Pb1 Pb1 Pb1 1_4555 5_5455 129.8(6) 129.3(6) 130.7(6)
Pb1 Pb1 Pb1 1_4555 5_5555 129.8(6) 129.3(6) 130.7(6)
Pb1 Pb1 Bi1 1_4555 1_4555 0.0(5) 0.0(5) 0.0(5)
Pb1 Pb1 Bi1 1_4555 1_5455 90.0(5) 90.0(5) 90.0(5)
Pb1 Pb1 Bi1 1_4555 1_5545 91.2(6) 89.2(5) 91.9(8)
Pb1 Pb1 Bi1 1_4555 . 0(20000) 0 0(60000)
Pb1 Pb1 Bi1 1_4555 1_5565 88.8(6) 86.5(7) 92.3(6)
Pb1 Pb1 Bi1 1_4555 1_5655 90.0(5) 90.0(5) 90.0(5)
Pb1 Pb1 Bi1 1_4555 1_6555 178.8(7) 177.5(7) 180.0(5)
Pb1 Pb1 Bi1 1_4555 5_5455 129.8(6) 129.3(6) 130.7(6)
Pb1 Pb1 Bi1 1_4555 5_5555 129.8(6) 129.3(6) 130.7(6)
Pb1 Pb1 O1 1_4555 1_5445 86.6(8) 86.6(8) 86.7(8)
Pb1 Pb1 O1 1_4555 1_5465 92.1(8) 91.2(8) 93.8(8)
Pb1 Pb1 O1 1_4555 1_5545 86.6(8) 86.6(8) 86.7(8)
Pb1 Pb1 O1 1_4555 1_5565 92.1(8) 91.2(8) 93.8(8)
Pb1 Pb1 O1 1_4555 5_4445 47.4(9) 36.5(11) 58.4(8)
Pb1 Pb1 O1 1_4555 5_4455 46.5(8) 34.2(10) 60.7(7)
Pb1 Pb1 O1 1_4555 5_5445 135.4(10) 118.1(8) 147.6(13)
Pb1 Pb1 O1 1_4555 5_5455 131.8(10) 119.4(9) 145.6(13)
Pb1 Pb1 O2 1_4555 1_5565 122.7(10) 121.1(11) 124.7(10)
Pb1 Pb1 O2 1_4555 5_4445 90.9(14) 89.4(11) 91.9(15)
Pb1 Pb1 O2 1_4555 5_4455 89.1(14) 87.3(12) 91.0(17)
Pb1 Pb1 O2 1_4555 5_4545 90.9(14) 89.4(11) 91.9(15)
Pb1 Pb1 O2 1_4555 5_4555 89.1(14) 87.3(12) 91.0(17)
Pb1 Pb1 O3 1_4555 5_4445 45.9(8) 43.8(7) 50.2(9)
Pb1 Pb1 O3 1_4555 5_4545 45.9(8) 43.8(7) 50.2(9)
Pb1 Pb1 O3 1_4555 5_5445 134.1(8) 131.4(9) 136.1(7)
Pb1 Pb1 O3 1_4555 5_5545 134.1(8) 131.4(9) 136.1(7)
Pb1 Pb1 Pb1 1_5455 1_5545 90.0(3) 90.0(4) 90.0(4)
Pb1 Pb1 Pb1 1_5455 1_5565 90.0(3) 90.0(2) 90.0(2)
Pb1 Pb1 Pb1 1_5455 1_5655 180.0(5) 180.0(5) 180.0(5)
Pb1 Pb1 Pb1 1_5455 1_6555 90.0(3) 90.0(2) 90.0(2)
Pb1 Pb1 Pb1 1_5455 5_4445 55.0(4) 54.9(4) 55.0(3)
Pb1 Pb1 Pb1 1_5455 5_4545 125.0(5) 125.0(4) 125.1(5)
Pb1 Pb1 Pb1 1_5455 5_5455 55.0(4) 54.9(4) 55.0(3)
Pb1 Pb1 Pb1 1_5455 5_5555 125.0(5) 125.0(4) 125.1(5)
Pb1 Pb1 Bi1 1_5455 1_4555 90.0(3) 90.0(4) 90.0(4)
Pb1 Pb1 Bi1 1_5455 1_5455 0.0(5) 0.0(5) 0.0(5)
Pb1 Pb1 Bi1 1_5455 1_5545 90.0(3) 90.0(4) 90.0(4)
Pb1 Pb1 Bi1 1_5455 . 77.1(3) 0 90.0(2)
Pb1 Pb1 Bi1 1_5455 1_5565 90.0(3) 90.0(2) 90.0(2)
Pb1 Pb1 Bi1 1_5455 1_5655 180.0(5) 180.0(5) 180.0(5)
Pb1 Pb1 Bi1 1_5455 1_6555 90.0(3) 90.0(2) 90.0(2)
Pb1 Pb1 Bi1 1_5455 5_4445 55.0(4) 54.9(4) 55.0(3)
Pb1 Pb1 Bi1 1_5455 5_4545 125.0(5) 125.0(4) 125.1(5)
Pb1 Pb1 Bi1 1_5455 5_5455 55.0(4) 54.9(4) 55.0(3)
Pb1 Pb1 Bi1 1_5455 5_5555 125.0(5) 125.0(4) 125.1(5)
Pb1 Pb1 O1 1_5455 1_5445 59.7(3) 59.0(3) 60.1(3)
Pb1 Pb1 O1 1_5455 1_5465 59.7(3) 59.0(3) 60.1(3)
Pb1 Pb1 O1 1_5455 1_5545 120.3(4) 119.9(5) 121.0(4)
Pb1 Pb1 O1 1_5455 1_5565 120.3(4) 119.9(5) 121.0(4)
Pb1 Pb1 O1 1_5455 5_4445 90.0(3) 90.0(3) 90.0(3)
Pb1 Pb1 O1 1_5455 5_4455 90.0(3) 90.0(2) 90.0(2)
Pb1 Pb1 O1 1_5455 5_5445 90.0(3) 90.0(2) 90.0(2)
Pb1 Pb1 O1 1_5455 5_5455 90.0(3) 90.0(2) 90.0(2)
Pb1 Pb1 O2 1_5455 1_4545 90.0(3) 90.0(2) 90.0(2)
Pb1 Pb1 O2 1_5455 1_5565 90.0(3) 90.0(3) 90.0(3)
Pb1 Pb1 O2 1_5455 5_4445 45.9(9) 37.9(11) 58.8(6)
Pb1 Pb1 O2 1_5455 5_4455 45.9(9) 37.9(11) 58.8(6)
Pb1 Pb1 O2 1_5455 5_4545 134.1(10) 121.2(7) 142.1(12)
Pb1 Pb1 O2 1_5455 5_4555 134.1(10) 121.2(7) 142.1(12)
Pb1 Pb1 O3 1_5455 5_4445 45.8(8) 43.0(8) 47.0(8)
Pb1 Pb1 O3 1_5455 5_4545 134.2(9) 133.0(11) 137.0(9)
Pb1 Pb1 O3 1_5455 5_5445 45.8(8) 43.0(8) 47.0(8)
Pb1 Pb1 O3 1_5455 5_5545 134.2(9) 133.0(11) 137.0(9)
Pb1 Pb1 Pb1 1_5545 1_5565 178.3(7) 177.1(7) 180.0(5)
Pb1 Pb1 Pb1 1_5545 1_5655 90.0(5) 90.0(5) 90.0(5)
Pb1 Pb1 Pb1 1_5545 1_6555 88.8(6) 86.5(7) 92.3(7)
Pb1 Pb1 Pb1 1_5545 5_5455 121.1(6) 120.3(6) 121.5(6)
Pb1 Pb1 Pb1 1_5545 5_5555 121.1(6) 120.3(6) 121.5(6)
Pb1 Pb1 Bi1 1_5545 1_4555 91.2(6) 89.2(6) 91.9(7)
Pb1 Pb1 Bi1 1_5545 1_5455 90.0(5) 90.0(5) 90.0(5)
Pb1 Pb1 Bi1 1_5545 1_5545 0.0(5) 0.0(5) 0.0(5)
Pb1 Pb1 Bi1 1_5545 . 0(20000) 0 0(8000)
Pb1 Pb1 Bi1 1_5545 1_5565 178.3(7) 177.1(7) 180.0(5)
Pb1 Pb1 Bi1 1_5545 1_5655 90.0(5) 90.0(5) 90.0(5)
Pb1 Pb1 Bi1 1_5545 1_6555 88.8(6) 86.5(7) 92.3(7)
Pb1 Pb1 Bi1 1_5545 5_5455 121.1(6) 120.3(6) 121.5(6)
Pb1 Pb1 Bi1 1_5545 5_5555 121.1(6) 120.3(6) 121.5(6)
Pb1 Pb1 O1 1_5545 1_5465 149.6(3) 148.8(3) 150.0(3)
Pb1 Pb1 O1 1_5545 1_5565 149.6(3) 148.8(3) 150.0(3)
Pb1 Pb1 O1 1_5545 5_4445 44.3(9) 32.9(7) 54.3(11)
Pb1 Pb1 O1 1_5545 5_4455 138.2(10) 125.9(12) 150.0(8)
Pb1 Pb1 O1 1_5545 5_5445 45.1(9) 28.1(7) 56.8(10)
Pb1 Pb1 O1 1_5545 5_5455 137.5(10) 123.0(12) 150.4(9)
Pb1 Pb1 O2 1_5545 1_5565 147.7(11) 146.1(10) 148.9(11)
Pb1 Pb1 O2 1_5545 5_4445 44.1(9) 31.3(5) 52.1(11)
Pb1 Pb1 O2 1_5545 5_4455 137.1(8) 128.0(11) 148.8(5)
Pb1 Pb1 O2 1_5545 5_4545 44.1(9) 31.3(5) 52.1(11)
Pb1 Pb1 O2 1_5545 5_4555 137.1(8) 128.0(11) 148.8(5)
Pb1 Pb1 O3 1_5545 5_4445 91.6(10) 77.4(10) 103.8(9)
Pb1 Pb1 O3 1_5545 5_4545 91.6(10) 77.4(10) 103.8(9)
Pb1 Pb1 O3 1_5545 5_5445 91.1(10) 74.6(9) 104.7(10)
Pb1 Pb1 O3 1_5545 5_5545 91.1(10) 74.6(9) 104.7(10)
Pb1 Pb1 Pb1 1_5565 1_5655 90.0(5) 90.0(5) 90.0(5)
Pb1 Pb1 Pb1 1_5565 1_6555 91.2(6) 89.2(6) 91.9(7)
Pb1 Pb1 Pb1 1_5565 5_4445 121.1(6) 120.3(6) 121.5(6)
Pb1 Pb1 Pb1 1_5565 5_4545 121.1(6) 120.3(6) 121.5(6)
Pb1 Pb1 Bi1 1_5565 1_4555 88.8(6) 86.5(7) 92.3(7)
Pb1 Pb1 Bi1 1_5565 1_5455 90.0(5) 90.0(5) 90.0(5)
Pb1 Pb1 Bi1 1_5565 1_5545 178.3(7) 177.1(7) 180.0(5)
Pb1 Pb1 Bi1 1_5565 . 0(20000) 0 0(8000)
Pb1 Pb1 Bi1 1_5565 1_5565 0.0(5) 0.0(5) 0.0(5)
Pb1 Pb1 Bi1 1_5565 1_5655 90.0(5) 90.0(5) 90.0(5)
Pb1 Pb1 Bi1 1_5565 1_6555 91.2(6) 89.2(6) 91.9(7)
Pb1 Pb1 Bi1 1_5565 5_4445 121.1(6) 120.3(6) 121.5(6)
Pb1 Pb1 Bi1 1_5565 5_4545 121.1(6) 120.3(6) 121.5(6)
Pb1 Pb1 O1 1_5565 1_5445 149.6(3) 148.8(3) 150.0(3)
Pb1 Pb1 O1 1_5565 1_5545 149.6(3) 148.8(3) 150.0(3)
Pb1 Pb1 O1 1_5565 5_4445 137.5(10) 123.0(12) 150.4(9)
Pb1 Pb1 O1 1_5565 5_4455 45.1(9) 28.1(7) 56.8(10)
Pb1 Pb1 O1 1_5565 5_5445 138.2(10) 125.9(12) 150.0(8)
Pb1 Pb1 O1 1_5565 5_5455 44.3(9) 32.9(7) 54.3(11)
Pb1 Pb1 O2 1_5565 1_4545 147.7(11) 146.1(10) 148.9(11)
Pb1 Pb1 O2 1_5565 5_4445 137.1(8) 128.0(11) 148.8(5)
Pb1 Pb1 O2 1_5565 5_4455 44.1(9) 31.3(5) 52.1(11)
Pb1 Pb1 O2 1_5565 5_4545 137.1(8) 128.0(11) 148.8(5)
Pb1 Pb1 O2 1_5565 5_4555 44.1(9) 31.3(5) 52.1(11)
Pb1 Pb1 O3 1_5565 5_4445 91.1(10) 74.6(9) 104.7(10)
Pb1 Pb1 O3 1_5565 5_4545 91.1(10) 74.6(9) 104.7(10)
Pb1 Pb1 O3 1_5565 5_5445 91.6(10) 77.4(10) 103.8(9)
Pb1 Pb1 O3 1_5565 5_5545 91.6(10) 77.4(10) 103.8(9)
Pb1 Pb1 Pb1 1_5655 1_6555 90.0(3) 90.0(2) 90.0(2)
Pb1 Pb1 Pb1 1_5655 5_4445 125.0(5) 125.0(4) 125.1(5)
Pb1 Pb1 Pb1 1_5655 5_4545 55.0(4) 54.9(4) 55.0(3)
Pb1 Pb1 Pb1 1_5655 5_5455 125.0(5) 125.0(4) 125.1(5)
Pb1 Pb1 Pb1 1_5655 5_5555 55.0(4) 54.9(4) 55.0(3)
Pb1 Pb1 Bi1 1_5655 1_4555 90.0(3) 90.0(4) 90.0(4)
Pb1 Pb1 Bi1 1_5655 1_5455 180.0(5) 180.0(5) 180.0(5)
Pb1 Pb1 Bi1 1_5655 1_5545 90.0(3) 90.0(4) 90.0(4)
Pb1 Pb1 Bi1 1_5655 . 77.1(3) 0 90.0(2)
Pb1 Pb1 Bi1 1_5655 1_5565 90.0(3) 90.0(2) 90.0(2)
Pb1 Pb1 Bi1 1_5655 1_5655 0.0(5) 0.0(5) 0.0(5)
Pb1 Pb1 Bi1 1_5655 1_6555 90.0(3) 90.0(2) 90.0(2)
Pb1 Pb1 Bi1 1_5655 5_4445 125.0(5) 125.0(4) 125.1(5)
Pb1 Pb1 Bi1 1_5655 5_4545 55.0(4) 54.9(4) 55.0(3)
Pb1 Pb1 Bi1 1_5655 5_5455 125.0(5) 125.0(4) 125.1(5)
Pb1 Pb1 Bi1 1_5655 5_5555 55.0(4) 54.9(4) 55.0(3)
Pb1 Pb1 O1 1_5655 1_5445 120.3(4) 119.9(5) 121.0(4)
Pb1 Pb1 O1 1_5655 1_5465 120.3(4) 119.9(5) 121.0(4)
Pb1 Pb1 O1 1_5655 1_5545 59.7(3) 59.0(3) 60.1(3)
Pb1 Pb1 O1 1_5655 1_5565 59.7(3) 59.0(3) 60.1(3)
Pb1 Pb1 O1 1_5655 5_4445 90.0(3) 90.0(3) 90.0(3)
Pb1 Pb1 O1 1_5655 5_4455 90.0(3) 90.0(2) 90.0(2)
Pb1 Pb1 O1 1_5655 5_5445 90.0(3) 90.0(2) 90.0(2)
Pb1 Pb1 O1 1_5655 5_5455 90.0(3) 90.0(2) 90.0(2)
Pb1 Pb1 O2 1_5655 1_4545 90.0(3) 90.0(2) 90.0(2)
Pb1 Pb1 O2 1_5655 1_5565 90.0(3) 90.0(3) 90.0(3)
Pb1 Pb1 O2 1_5655 5_4445 134.1(10) 121.2(7) 142.1(12)
Pb1 Pb1 O2 1_5655 5_4455 134.1(10) 121.2(7) 142.1(12)
Pb1 Pb1 O2 1_5655 5_4545 45.9(9) 37.9(11) 58.8(6)
Pb1 Pb1 O2 1_5655 5_4555 45.9(9) 37.9(11) 58.8(6)
Pb1 Pb1 O3 1_5655 5_4445 134.2(9) 133.0(11) 137.0(9)
Pb1 Pb1 O3 1_5655 5_4545 45.8(8) 43.0(8) 47.0(8)
Pb1 Pb1 O3 1_5655 5_5445 134.2(9) 133.0(11) 137.0(9)
Pb1 Pb1 O3 1_5655 5_5545 45.8(8) 43.0(8) 47.0(8)
Pb1 Pb1 Pb1 1_6555 5_4445 129.8(6) 129.3(6) 130.7(6)
Pb1 Pb1 Pb1 1_6555 5_4545 129.8(6) 129.3(6) 130.7(6)
Pb1 Pb1 Bi1 1_6555 1_4555 178.8(7) 177.5(7) 180.0(5)
Pb1 Pb1 Bi1 1_6555 1_5455 90.0(5) 90.0(5) 90.0(5)
Pb1 Pb1 Bi1 1_6555 1_5545 88.8(6) 86.5(7) 92.3(6)
Pb1 Pb1 Bi1 1_6555 . 0(20000) 0 0(60000)
Pb1 Pb1 Bi1 1_6555 1_5565 91.2(6) 89.2(5) 91.9(8)
Pb1 Pb1 Bi1 1_6555 1_5655 90.0(5) 90.0(5) 90.0(5)
Pb1 Pb1 Bi1 1_6555 1_6555 0.0(5) 0.0(5) 0.0(5)
Pb1 Pb1 Bi1 1_6555 5_4445 129.8(6) 129.3(6) 130.7(6)
Pb1 Pb1 Bi1 1_6555 5_4545 129.8(6) 129.3(6) 130.7(6)
Pb1 Pb1 O1 1_6555 1_5445 92.1(8) 91.2(8) 93.8(8)
Pb1 Pb1 O1 1_6555 1_5465 86.6(8) 86.6(8) 86.7(8)
Pb1 Pb1 O1 1_6555 1_5545 92.1(8) 91.2(8) 93.8(8)
Pb1 Pb1 O1 1_6555 1_5565 86.6(8) 86.6(8) 86.7(8)
Pb1 Pb1 O1 1_6555 5_4445 131.8(10) 119.4(9) 145.6(13)
Pb1 Pb1 O1 1_6555 5_4455 135.4(10) 118.1(8) 147.6(13)
Pb1 Pb1 O1 1_6555 5_5445 46.5(8) 34.2(10) 60.7(7)
Pb1 Pb1 O1 1_6555 5_5455 47.4(9) 36.5(11) 58.4(8)
Pb1 Pb1 O2 1_6555 1_4545 122.7(10) 121.1(11) 124.7(10)
Pb1 Pb1 O2 1_6555 5_4445 89.1(14) 87.3(12) 91.0(17)
Pb1 Pb1 O2 1_6555 5_4455 90.9(14) 89.4(11) 91.9(15)
Pb1 Pb1 O2 1_6555 5_4545 89.1(14) 87.3(12) 91.0(17)
Pb1 Pb1 O2 1_6555 5_4555 90.9(14) 89.4(11) 91.9(15)
Pb1 Pb1 O3 1_6555 5_4445 134.1(8) 131.4(9) 136.1(7)
Pb1 Pb1 O3 1_6555 5_4545 134.1(8) 131.4(9) 136.1(7)
Pb1 Pb1 O3 1_6555 5_5445 45.9(8) 43.8(7) 50.2(9)
Pb1 Pb1 O3 1_6555 5_5545 45.9(8) 43.8(7) 50.2(9)
Pb1 Pb1 Pb1 5_4445 5_4545 70.0(4) 69.9(4) 70.1(4)
Pb1 Pb1 Bi1 5_4445 1_5455 55.0(5) 54.9(5) 55.0(5)
Pb1 Pb1 Bi1 5_4445 . 0(2000) 0(3000) 100(1900)
Pb1 Pb1 Bi1 5_4445 1_5655 125.0(6) 125.0(5) 125.1(6)
Pb1 Pb1 Bi1 5_4445 1_6555 129.8(5) 129.3(5) 130.7(4)
Pb1 Pb1 Bi1 5_4445 5_4445 0.0(5) 0.0(5) 0.0(5)
Pb1 Pb1 Bi1 5_4445 5_4545 70.0(4) 69.9(4) 70.1(4)
Pb1 Pb1 O1 5_4445 1_5445 40.6(7) 40.3(7) 41.2(7)
Pb1 Pb1 O1 5_4445 1_5545 79.8(5) 79.5(5) 80.2(5)
Pb1 Pb1 O1 5_4445 5_4455 79.0(7) 77.8(8) 79.8(7)
Pb1 Pb1 O1 5_4445 5_5445 82.7(6) 82.2(6) 83.5(6)
Pb1 Pb1 O1 5_4445 5_5455 144.94(18) 144.8(2) 145.03(17)
Pb1 Pb1 O2 5_4445 1_4545 39.1(4) 38.9(4) 39.5(5)
Pb1 Pb1 O2 5_4445 5_4455 81.3(13) 80.6(13) 81.6(13)
Pb1 Pb1 O2 5_4445 5_4555 138.6(16) 137.3(16) 139.4(16)
Pb1 Pb1 O3 5_4445 5_5445 83.3(9) 83.0(9) 83.8(9)
Pb1 Pb1 O3 5_4445 5_5545 135.0(10) 134.5(10) 136.0(10)
Pb1 Pb1 Bi1 5_4545 1_5455 125.0(6) 125.0(5) 125.1(6)
Pb1 Pb1 Bi1 5_4545 . 0(2000) 0(3000) 100(1900)
Pb1 Pb1 Bi1 5_4545 1_5655 55.0(5) 54.9(5) 55.0(5)
Pb1 Pb1 Bi1 5_4545 1_6555 129.8(5) 129.3(5) 130.7(4)
Pb1 Pb1 Bi1 5_4545 5_4445 70.0(4) 69.9(4) 70.1(4)
Pb1 Pb1 Bi1 5_4545 5_4545 0.0(5) 0.0(5) 0.0(5)
Pb1 Pb1 O1 5_4545 1_5445 79.8(5) 79.5(5) 80.2(5)
Pb1 Pb1 O1 5_4545 1_5545 40.6(7) 40.3(7) 41.2(7)
Pb1 Pb1 O1 5_4545 5_4455 79.0(7) 77.8(8) 79.8(7)
Pb1 Pb1 O1 5_4545 5_5445 82.7(6) 82.2(6) 83.5(6)
Pb1 Pb1 O1 5_4545 5_5455 144.94(18) 144.8(2) 145.03(17)
Pb1 Pb1 O2 5_4545 1_4545 39.1(4) 38.9(4) 39.5(5)
Pb1 Pb1 O2 5_4545 5_4455 138.6(16) 137.3(16) 139.4(16)
Pb1 Pb1 O2 5_4545 5_4555 81.3(13) 80.6(13) 81.6(13)
Pb1 Pb1 O3 5_4545 5_5445 135.0(10) 134.5(10) 136.0(10)
Pb1 Pb1 O3 5_4545 5_5545 83.3(9) 83.0(9) 83.8(9)
Pb1 Pb1 Pb1 5_5455 5_5555 70.0(4) 69.9(4) 70.1(4)
Pb1 Pb1 Bi1 5_5455 1_4555 129.8(5) 129.3(5) 130.7(4)
Pb1 Pb1 Bi1 5_5455 1_5455 55.0(5) 54.9(5) 55.0(5)
Pb1 Pb1 Bi1 5_5455 . 0(2000) 0(3000) 100(1900)
Pb1 Pb1 Bi1 5_5455 1_5655 125.0(6) 125.0(5) 125.1(6)
Pb1 Pb1 Bi1 5_5455 5_5455 0.0(5) 0.0(5) 0.0(5)
Pb1 Pb1 Bi1 5_5455 5_5555 70.0(4) 69.9(4) 70.1(4)
Pb1 Pb1 O1 5_5455 1_5465 40.6(7) 40.3(7) 41.2(7)
Pb1 Pb1 O1 5_5455 1_5565 79.8(5) 79.5(5) 80.2(5)
Pb1 Pb1 O1 5_5455 5_4445 144.94(18) 144.8(2) 145.03(17)
Pb1 Pb1 O1 5_5455 5_4455 82.7(6) 82.2(6) 83.5(6)
Pb1 Pb1 O1 5_5455 5_5445 79.0(7) 77.8(8) 79.8(7)
Pb1 Pb1 O2 5_5455 1_5565 39.1(4) 38.9(4) 39.5(5)
Pb1 Pb1 O2 5_5455 5_4445 81.3(13) 80.6(13) 81.6(13)
Pb1 Pb1 O2 5_5455 5_4545 138.6(16) 137.3(16) 139.4(16)
Pb1 Pb1 O3 5_5455 5_4445 83.3(9) 83.0(9) 83.8(9)
Pb1 Pb1 O3 5_5455 5_4545 135.0(10) 134.5(10) 136.0(10)
Pb1 Pb1 Bi1 5_5555 1_4555 129.8(5) 129.3(5) 130.7(4)
Pb1 Pb1 Bi1 5_5555 1_5455 125.0(6) 125.0(5) 125.1(6)
Pb1 Pb1 Bi1 5_5555 . 0(2000) 0(3000) 100(1900)
Pb1 Pb1 Bi1 5_5555 1_5655 55.0(5) 54.9(5) 55.0(5)
Pb1 Pb1 Bi1 5_5555 5_5455 70.0(4) 69.9(4) 70.1(4)
Pb1 Pb1 Bi1 5_5555 5_5555 0.0(5) 0.0(5) 0.0(5)
Pb1 Pb1 O1 5_5555 1_5465 79.8(5) 79.5(5) 80.2(5)
Pb1 Pb1 O1 5_5555 1_5565 40.6(7) 40.3(7) 41.2(7)
Pb1 Pb1 O1 5_5555 5_4445 144.94(18) 144.8(2) 145.03(17)
Pb1 Pb1 O1 5_5555 5_4455 82.7(6) 82.2(6) 83.5(6)
Pb1 Pb1 O1 5_5555 5_5445 79.0(7) 77.8(8) 79.8(7)
Pb1 Pb1 O2 5_5555 1_5565 39.1(4) 38.9(4) 39.5(5)
Pb1 Pb1 O2 5_5555 5_4445 138.6(16) 137.3(16) 139.4(16)
Pb1 Pb1 O2 5_5555 5_4545 81.3(13) 80.6(13) 81.6(13)
Pb1 Pb1 O3 5_5555 5_4445 135.0(10) 134.5(10) 136.0(10)
Pb1 Pb1 O3 5_5555 5_4545 83.3(9) 83.0(9) 83.8(9)
Bi1 Pb1 Bi1 1_4555 1_5455 90.0(5) 90.0(5) 90.0(5)
Bi1 Pb1 Bi1 1_4555 1_5545 91.2(6) 89.2(5) 91.9(8)
Bi1 Pb1 Bi1 1_4555 . 0(20000) 0 0(60000)
Bi1 Pb1 Bi1 1_4555 1_5565 88.8(6) 86.5(7) 92.3(6)
Bi1 Pb1 Bi1 1_4555 1_5655 90.0(5) 90.0(5) 90.0(5)
Bi1 Pb1 Bi1 1_4555 1_6555 178.8(7) 177.5(7) 180.0(5)
Bi1 Pb1 Bi1 1_4555 5_5455 129.8(6) 129.3(6) 130.7(6)
Bi1 Pb1 Bi1 1_4555 5_5555 129.8(6) 129.3(6) 130.7(6)
Bi1 Pb1 O1 1_4555 1_5445 86.6(8) 86.6(8) 86.7(8)
Bi1 Pb1 O1 1_4555 1_5465 92.1(8) 91.2(8) 93.8(8)
Bi1 Pb1 O1 1_4555 1_5545 86.6(8) 86.6(8) 86.7(8)
Bi1 Pb1 O1 1_4555 1_5565 92.1(8) 91.2(8) 93.8(8)
Bi1 Pb1 O1 1_4555 5_4445 47.4(9) 36.5(11) 58.4(8)
Bi1 Pb1 O1 1_4555 5_4455 46.5(8) 34.2(10) 60.7(7)
Bi1 Pb1 O1 1_4555 5_5445 135.4(10) 118.1(8) 147.6(13)
Bi1 Pb1 O1 1_4555 5_5455 131.8(10) 119.4(9) 145.6(13)
Bi1 Pb1 O2 1_4555 1_5565 122.7(10) 121.1(11) 124.7(10)
Bi1 Pb1 O2 1_4555 5_4445 90.9(14) 89.4(11) 91.9(15)
Bi1 Pb1 O2 1_4555 5_4455 89.1(14) 87.3(12) 91.0(17)
Bi1 Pb1 O2 1_4555 5_4545 90.9(14) 89.4(11) 91.9(15)
Bi1 Pb1 O2 1_4555 5_4555 89.1(14) 87.3(12) 91.0(17)
Bi1 Pb1 O3 1_4555 5_4445 45.9(8) 43.8(7) 50.2(9)
Bi1 Pb1 O3 1_4555 5_4545 45.9(8) 43.8(7) 50.2(9)
Bi1 Pb1 O3 1_4555 5_5445 134.1(8) 131.4(9) 136.1(7)
Bi1 Pb1 O3 1_4555 5_5545 134.1(8) 131.4(9) 136.1(7)
Bi1 Pb1 Bi1 1_5455 1_5545 90.0(3) 90.0(2) 90.0(4)
Bi1 Pb1 Bi1 1_5455 . 77.1(3) 0 90.00(3)
Bi1 Pb1 Bi1 1_5455 1_5565 90.0(3) 90.0(2) 90.0(4)
Bi1 Pb1 Bi1 1_5455 1_5655 180.0(5) 180.0(5) 180.0(5)
Bi1 Pb1 Bi1 1_5455 1_6555 90.0(3) 90.0(4) 90.0(2)
Bi1 Pb1 Bi1 1_5455 5_4445 55.0(4) 55.0(4) 55.1(3)
Bi1 Pb1 Bi1 1_5455 5_4545 125.0(5) 125.0(4) 125.1(5)
Bi1 Pb1 Bi1 1_5455 5_5455 55.0(4) 55.0(4) 55.1(3)
Bi1 Pb1 Bi1 1_5455 5_5555 125.0(5) 125.0(4) 125.1(5)
Bi1 Pb1 O1 1_5455 1_5445 59.7(3) 59.0(3) 60.1(3)
Bi1 Pb1 O1 1_5455 1_5465 59.7(3) 59.0(3) 60.1(3)
Bi1 Pb1 O1 1_5455 1_5545 120.3(4) 119.9(5) 121.1(4)
Bi1 Pb1 O1 1_5455 1_5565 120.3(4) 119.9(5) 121.1(4)
Bi1 Pb1 O1 1_5455 5_4445 90.0(3) 90.0(2) 90.0(3)
Bi1 Pb1 O1 1_5455 5_4455 90.0(3) 90.0(2) 90.0(2)
Bi1 Pb1 O1 1_5455 5_5445 90.0(3) 90.0(2) 90.0(2)
Bi1 Pb1 O1 1_5455 5_5455 90.0(3) 90.0(2) 90.0(3)
Bi1 Pb1 O2 1_5455 1_4545 90.0(3) 90.0(3) 90.0(2)
Bi1 Pb1 O2 1_5455 1_5565 90.0(3) 90.0(3) 90.0(2)
Bi1 Pb1 O2 1_5455 5_4445 45.9(9) 37.9(11) 58.8(6)
Bi1 Pb1 O2 1_5455 5_4455 45.9(9) 37.9(11) 58.8(6)
Bi1 Pb1 O2 1_5455 5_4545 134.1(10) 121.2(7) 142.1(12)
Bi1 Pb1 O2 1_5455 5_4555 134.1(10) 121.2(7) 142.1(12)
Bi1 Pb1 O3 1_5455 5_4445 45.8(8) 43.0(8) 47.0(8)
Bi1 Pb1 O3 1_5455 5_4545 134.2(9) 133.0(11) 137.0(9)
Bi1 Pb1 O3 1_5455 5_5445 45.8(8) 43.0(8) 47.0(8)
Bi1 Pb1 O3 1_5455 5_5545 134.2(9) 133.0(11) 137.0(9)
Bi1 Pb1 Bi1 1_5545 . 0(20000) 0 0(8000)
Bi1 Pb1 Bi1 1_5545 1_5565 178.3(7) 177.1(7) 180.0(5)
Bi1 Pb1 Bi1 1_5545 1_5655 90.0(5) 90.0(5) 90.0(5)
Bi1 Pb1 Bi1 1_5545 1_6555 88.8(6) 86.5(7) 92.3(7)
Bi1 Pb1 Bi1 1_5545 5_5455 121.1(6) 120.3(6) 121.5(6)
Bi1 Pb1 Bi1 1_5545 5_5555 121.1(6) 120.3(6) 121.5(6)
Bi1 Pb1 O1 1_5545 1_5465 149.6(3) 148.8(3) 150.0(3)
Bi1 Pb1 O1 1_5545 1_5565 149.6(3) 148.8(3) 150.0(3)
Bi1 Pb1 O1 1_5545 5_4445 44.3(9) 32.9(7) 54.3(11)
Bi1 Pb1 O1 1_5545 5_4455 138.2(10) 125.9(12) 150.0(8)
Bi1 Pb1 O1 1_5545 5_5445 45.1(9) 28.1(7) 56.8(10)
Bi1 Pb1 O1 1_5545 5_5455 137.5(10) 123.0(12) 150.4(9)
Bi1 Pb1 O2 1_5545 1_5565 147.7(11) 146.1(10) 148.9(11)
Bi1 Pb1 O2 1_5545 5_4445 44.1(9) 31.3(5) 52.1(11)
Bi1 Pb1 O2 1_5545 5_4455 137.1(8) 128.0(11) 148.8(5)
Bi1 Pb1 O2 1_5545 5_4545 44.1(9) 31.3(5) 52.1(11)
Bi1 Pb1 O2 1_5545 5_4555 137.1(8) 128.0(11) 148.8(5)
Bi1 Pb1 O3 1_5545 5_4445 91.6(10) 77.4(10) 103.8(9)
Bi1 Pb1 O3 1_5545 5_4545 91.6(10) 77.4(10) 103.8(9)
Bi1 Pb1 O3 1_5545 5_5445 91.1(10) 74.6(9) 104.7(10)
Bi1 Pb1 O3 1_5545 5_5545 91.1(10) 74.6(9) 104.7(10)
Bi1 Pb1 Bi1 . 1_5565 0(13000) 0 0(6000)
Bi1 Pb1 Bi1 . 1_5655 77.1(4) 0 90.0(5)
Bi1 Pb1 Bi1 . 1_6555 0(13000) 0 0(4000)
Bi1 Pb1 Bi1 . 5_4445 100(1200) 100(1700) 100(900)
Bi1 Pb1 Bi1 . 5_4545 100(1200) 100(1700) 100(900)
Bi1 Pb1 Bi1 . 5_5455 100(1200) 100(1700) 100(900)
Bi1 Pb1 Bi1 . 5_5555 100(1200) 100(1700) 100(900)
Bi1 Pb1 O1 . 1_5445 100(1400) 100(600) 100(1300)
Bi1 Pb1 O1 . 1_5465 100(1400) 100(600) 100(1300)
Bi1 Pb1 O1 . 1_5545 100(1400) 100(600) 100(1300)
Bi1 Pb1 O1 . 1_5565 100(1400) 100(600) 100(1300)
Bi1 Pb1 O1 . 5_4445 0(12000) 0 0(3000)
Bi1 Pb1 O1 . 5_4455 0(12000) 0 0(50000)
Bi1 Pb1 O1 . 5_5445 0(12000) 0 0(50000)
Bi1 Pb1 O1 . 5_5455 0(12000) 0 0(3000)
Bi1 Pb1 O2 . 1_4545 100(1400) 100(900) 0(2000)
Bi1 Pb1 O2 . 1_5565 100(1400) 100(900) 0(2000)
Bi1 Pb1 O2 . 5_4445 0(6000) 0 0(4000)
Bi1 Pb1 O2 . 5_4455 0(6000) 0 0(4000)
Bi1 Pb1 O2 . 5_4545 0(6000) 0 0(4000)
Bi1 Pb1 O2 . 5_4555 0(6000) 0 0(4000)
Bi1 Pb1 O3 . 5_4445 0(8000) 0 0(30000)
Bi1 Pb1 O3 . 5_4545 0(8000) 0 0(30000)
Bi1 Pb1 O3 . 5_5445 0(8000) 0 0(30000)
Bi1 Pb1 O3 . 5_5545 0(8000) 0 0(30000)
Bi1 Pb1 Bi1 1_5565 1_5655 90.0(5) 90.0(5) 90.0(5)
Bi1 Pb1 Bi1 1_5565 1_6555 91.2(6) 89.2(6) 91.9(7)
Bi1 Pb1 Bi1 1_5565 5_4445 121.1(6) 120.3(6) 121.5(6)
Bi1 Pb1 Bi1 1_5565 5_4545 121.1(6) 120.3(6) 121.5(6)
Bi1 Pb1 O1 1_5565 1_5445 149.6(3) 148.8(3) 150.0(3)
Bi1 Pb1 O1 1_5565 1_5545 149.6(3) 148.8(3) 150.0(3)
Bi1 Pb1 O1 1_5565 5_4445 137.5(10) 123.0(12) 150.4(9)
Bi1 Pb1 O1 1_5565 5_4455 45.1(9) 28.1(7) 56.8(10)
Bi1 Pb1 O1 1_5565 5_5445 138.2(10) 125.9(12) 150.0(8)
Bi1 Pb1 O1 1_5565 5_5455 44.3(9) 32.9(7) 54.3(11)
Bi1 Pb1 O2 1_5565 1_4545 147.7(11) 146.1(10) 148.9(11)
Bi1 Pb1 O2 1_5565 5_4445 137.1(8) 128.0(11) 148.8(5)
Bi1 Pb1 O2 1_5565 5_4455 44.1(9) 31.3(5) 52.1(11)
Bi1 Pb1 O2 1_5565 5_4545 137.1(8) 128.0(11) 148.8(5)
Bi1 Pb1 O2 1_5565 5_4555 44.1(9) 31.3(5) 52.1(11)
Bi1 Pb1 O3 1_5565 5_4445 91.1(10) 74.6(9) 104.7(10)
Bi1 Pb1 O3 1_5565 5_4545 91.1(10) 74.6(9) 104.7(10)
Bi1 Pb1 O3 1_5565 5_5445 91.6(10) 77.4(10) 103.8(9)
Bi1 Pb1 O3 1_5565 5_5545 91.6(10) 77.4(10) 103.8(9)
Bi1 Pb1 Bi1 1_5655 1_6555 90.0(3) 90.0(4) 90.0(2)
Bi1 Pb1 Bi1 1_5655 5_4445 125.0(5) 125.0(4) 125.1(5)
Bi1 Pb1 Bi1 1_5655 5_4545 55.0(4) 55.0(4) 55.1(3)
Bi1 Pb1 Bi1 1_5655 5_5455 125.0(5) 125.0(4) 125.1(5)
Bi1 Pb1 Bi1 1_5655 5_5555 55.0(4) 55.0(4) 55.1(3)
Bi1 Pb1 O1 1_5655 1_5445 120.3(4) 119.9(5) 121.1(4)
Bi1 Pb1 O1 1_5655 1_5465 120.3(4) 119.9(5) 121.1(4)
Bi1 Pb1 O1 1_5655 1_5545 59.7(3) 59.0(3) 60.1(3)
Bi1 Pb1 O1 1_5655 1_5565 59.7(3) 59.0(3) 60.1(3)
Bi1 Pb1 O1 1_5655 5_4445 90.0(3) 90.0(2) 90.0(3)
Bi1 Pb1 O1 1_5655 5_4455 90.0(3) 90.0(2) 90.0(2)
Bi1 Pb1 O1 1_5655 5_5445 90.0(3) 90.0(2) 90.0(2)
Bi1 Pb1 O1 1_5655 5_5455 90.0(3) 90.0(2) 90.0(3)
Bi1 Pb1 O2 1_5655 1_4545 90.0(3) 90.0(3) 90.0(2)
Bi1 Pb1 O2 1_5655 1_5565 90.0(3) 90.0(3) 90.0(2)
Bi1 Pb1 O2 1_5655 5_4445 134.1(10) 121.2(7) 142.1(12)
Bi1 Pb1 O2 1_5655 5_4455 134.1(10) 121.2(7) 142.1(12)
Bi1 Pb1 O2 1_5655 5_4545 45.9(9) 37.9(11) 58.8(6)
Bi1 Pb1 O2 1_5655 5_4555 45.9(9) 37.9(11) 58.8(6)
Bi1 Pb1 O3 1_5655 5_4445 134.2(9) 133.0(11) 137.0(9)
Bi1 Pb1 O3 1_5655 5_4545 45.8(8) 43.0(8) 47.0(8)
Bi1 Pb1 O3 1_5655 5_5445 134.2(9) 133.0(11) 137.0(9)
Bi1 Pb1 O3 1_5655 5_5545 45.8(8) 43.0(8) 47.0(8)
Bi1 Pb1 Bi1 1_6555 5_4445 129.8(6) 129.3(6) 130.7(6)
Bi1 Pb1 Bi1 1_6555 5_4545 129.8(6) 129.3(6) 130.7(6)
Bi1 Pb1 O1 1_6555 1_5445 92.1(8) 91.2(8) 93.8(8)
Bi1 Pb1 O1 1_6555 1_5465 86.6(8) 86.6(8) 86.7(8)
Bi1 Pb1 O1 1_6555 1_5545 92.1(8) 91.2(8) 93.8(8)
Bi1 Pb1 O1 1_6555 1_5565 86.6(8) 86.6(8) 86.7(8)
Bi1 Pb1 O1 1_6555 5_4445 131.8(10) 119.4(9) 145.6(13)
Bi1 Pb1 O1 1_6555 5_4455 135.4(10) 118.1(8) 147.6(13)
Bi1 Pb1 O1 1_6555 5_5445 46.5(8) 34.2(10) 60.7(7)
Bi1 Pb1 O1 1_6555 5_5455 47.4(9) 36.5(11) 58.4(8)
Bi1 Pb1 O2 1_6555 1_4545 122.7(10) 121.1(11) 124.7(10)
Bi1 Pb1 O2 1_6555 5_4445 89.1(14) 87.3(12) 91.0(17)
Bi1 Pb1 O2 1_6555 5_4455 90.9(14) 89.4(11) 91.9(15)
Bi1 Pb1 O2 1_6555 5_4545 89.1(14) 87.3(12) 91.0(17)
Bi1 Pb1 O2 1_6555 5_4555 90.9(14) 89.4(11) 91.9(15)
Bi1 Pb1 O3 1_6555 5_4445 134.1(8) 131.4(9) 136.1(7)
Bi1 Pb1 O3 1_6555 5_4545 134.1(8) 131.4(9) 136.1(7)
Bi1 Pb1 O3 1_6555 5_5445 45.9(8) 43.8(7) 50.2(9)
Bi1 Pb1 O3 1_6555 5_5545 45.9(8) 43.8(7) 50.2(9)
Bi1 Pb1 Bi1 5_4445 5_4545 70.0(4) 69.9(4) 70.1(4)
Bi1 Pb1 O1 5_4445 1_5445 40.6(7) 40.3(7) 41.2(7)
Bi1 Pb1 O1 5_4445 1_5545 79.8(5) 79.5(5) 80.2(5)
Bi1 Pb1 O1 5_4445 5_4455 79.0(7) 77.8(8) 79.8(7)
Bi1 Pb1 O1 5_4445 5_5445 82.7(6) 82.2(6) 83.5(6)
Bi1 Pb1 O1 5_4445 5_5455 144.94(18) 144.8(2) 145.04(17)
Bi1 Pb1 O2 5_4445 1_4545 39.1(4) 38.9(4) 39.5(5)
Bi1 Pb1 O2 5_4445 5_4455 81.3(13) 80.6(13) 81.6(13)
Bi1 Pb1 O2 5_4445 5_4555 138.6(16) 137.3(16) 139.4(16)
Bi1 Pb1 O3 5_4445 5_5445 83.3(9) 83.0(9) 83.8(9)
Bi1 Pb1 O3 5_4445 5_5545 135.0(10) 134.5(10) 136.0(10)
Bi1 Pb1 O1 5_4545 1_5445 79.8(5) 79.5(5) 80.2(5)
Bi1 Pb1 O1 5_4545 1_5545 40.6(7) 40.3(7) 41.2(7)
Bi1 Pb1 O1 5_4545 5_4455 79.0(7) 77.8(8) 79.8(7)
Bi1 Pb1 O1 5_4545 5_5445 82.7(6) 82.2(6) 83.5(6)
Bi1 Pb1 O1 5_4545 5_5455 144.94(18) 144.8(2) 145.04(17)
Bi1 Pb1 O2 5_4545 1_4545 39.1(4) 38.9(4) 39.5(5)
Bi1 Pb1 O2 5_4545 5_4455 138.6(16) 137.3(16) 139.4(16)
Bi1 Pb1 O2 5_4545 5_4555 81.3(13) 80.6(13) 81.6(13)
Bi1 Pb1 O3 5_4545 5_5445 135.0(10) 134.5(10) 136.0(10)
Bi1 Pb1 O3 5_4545 5_5545 83.3(9) 83.0(9) 83.8(9)
Bi1 Pb1 Bi1 5_5455 5_5555 70.0(4) 69.9(4) 70.1(4)
Bi1 Pb1 O1 5_5455 1_5465 40.6(7) 40.3(7) 41.2(7)
Bi1 Pb1 O1 5_5455 1_5565 79.8(5) 79.5(5) 80.2(5)
Bi1 Pb1 O1 5_5455 5_4445 144.94(18) 144.8(2) 145.04(17)
Bi1 Pb1 O1 5_5455 5_4455 82.7(6) 82.2(6) 83.5(6)
Bi1 Pb1 O1 5_5455 5_5445 79.0(7) 77.8(8) 79.8(7)
Bi1 Pb1 O2 5_5455 1_5565 39.1(4) 38.9(4) 39.5(5)
Bi1 Pb1 O2 5_5455 5_4445 81.3(13) 80.6(13) 81.6(13)
Bi1 Pb1 O2 5_5455 5_4545 138.6(16) 137.3(16) 139.4(16)
Bi1 Pb1 O3 5_5455 5_4445 83.3(9) 83.0(9) 83.8(9)
Bi1 Pb1 O3 5_5455 5_4545 135.0(10) 134.5(10) 136.0(10)
Bi1 Pb1 O1 5_5555 1_5465 79.8(5) 79.5(5) 80.2(5)
Bi1 Pb1 O1 5_5555 1_5565 40.6(7) 40.3(7) 41.2(7)
Bi1 Pb1 O1 5_5555 5_4445 144.94(18) 144.8(2) 145.04(17)
Bi1 Pb1 O1 5_5555 5_4455 82.7(6) 82.2(6) 83.5(6)
Bi1 Pb1 O1 5_5555 5_5445 79.0(7) 77.8(8) 79.8(7)
Bi1 Pb1 O2 5_5555 1_5565 39.1(4) 38.9(4) 39.5(5)
Bi1 Pb1 O2 5_5555 5_4445 138.6(16) 137.3(16) 139.4(16)
Bi1 Pb1 O2 5_5555 5_4545 81.3(13) 80.6(13) 81.6(13)
Bi1 Pb1 O3 5_5555 5_4445 135.0(10) 134.5(10) 136.0(10)
Bi1 Pb1 O3 5_5555 5_4545 83.3(9) 83.0(9) 83.8(9)
O1 Pb1 O1 1_5445 1_5545 60.6(3) 59.9(3) 62.1(3)
O1 Pb1 O1 1_5445 5_4445 40.1(5) 40.1(5) 40.1(5)
O1 Pb1 O1 1_5445 5_4455 119.1(8) 117.6(9) 120.1(8)
O1 Pb1 O1 1_5445 5_5445 43.2(5) 42.6(5) 44.5(5)
O1 Pb1 O1 1_5445 5_5455 124.7(9) 122.6(10) 127.8(9)
O1 Pb1 O2 1_5445 1_4545 41.6(7) 41.0(7) 42.3(7)
O1 Pb1 O2 1_5445 5_4455 97.7(11) 97.2(11) 97.9(11)
O1 Pb1 O2 1_5445 5_4555 158.1(11) 157.8(11) 158.8(11)
O1 Pb1 O3 1_5445 5_4445 54.6(9) 54.4(9) 54.8(9)
O1 Pb1 O3 1_5445 5_4545 96.1(9) 96.0(9) 96.1(9)
O1 Pb1 O3 1_5445 5_5445 57.3(9) 57.0(9) 57.8(9)
O1 Pb1 O3 1_5445 5_5545 100.3(9) 99.2(9) 102.6(9)
O1 Pb1 O1 1_5465 1_5565 60.6(3) 59.9(3) 62.1(3)
O1 Pb1 O1 1_5465 5_4445 124.7(9) 122.6(10) 127.8(9)
O1 Pb1 O1 1_5465 5_4455 43.2(5) 42.6(5) 44.5(5)
O1 Pb1 O1 1_5465 5_5445 119.1(8) 117.6(9) 120.1(8)
O1 Pb1 O1 1_5465 5_5455 40.1(5) 40.1(5) 40.1(5)
O1 Pb1 O2 1_5465 1_5565 41.6(7) 41.0(7) 42.3(7)
O1 Pb1 O2 1_5465 5_4445 97.7(11) 97.2(11) 97.9(11)
O1 Pb1 O2 1_5465 5_4545 158.1(11) 157.8(11) 158.8(11)
O1 Pb1 O3 1_5465 5_4445 57.3(9) 57.0(9) 57.8(9)
O1 Pb1 O3 1_5465 5_4545 100.3(9) 99.2(9) 102.6(9)
O1 Pb1 O3 1_5465 5_5445 54.6(9) 54.4(9) 54.8(9)
O1 Pb1 O3 1_5465 5_5545 96.1(9) 96.0(9) 96.1(9)
O1 Pb1 O1 1_5545 5_4445 40.1(5) 40.1(5) 40.1(5)
O1 Pb1 O1 1_5545 5_4455 119.1(8) 117.6(9) 120.1(8)
O1 Pb1 O1 1_5545 5_5445 43.2(5) 42.6(5) 44.5(5)
O1 Pb1 O1 1_5545 5_5455 124.7(9) 122.6(10) 127.8(9)
O1 Pb1 O2 1_5545 1_4545 41.6(7) 41.0(7) 42.3(7)
O1 Pb1 O2 1_5545 5_4455 158.1(11) 157.8(11) 158.8(11)
O1 Pb1 O2 1_5545 5_4555 97.7(11) 97.2(11) 97.9(11)
O1 Pb1 O3 1_5545 5_4445 96.1(9) 96.0(9) 96.1(9)
O1 Pb1 O3 1_5545 5_4545 54.6(9) 54.4(9) 54.8(9)
O1 Pb1 O3 1_5545 5_5445 100.3(9) 99.2(9) 102.6(9)
O1 Pb1 O3 1_5545 5_5545 57.3(9) 57.0(9) 57.8(9)
O1 Pb1 O1 1_5565 5_4445 124.7(9) 122.6(10) 127.8(9)
O1 Pb1 O1 1_5565 5_4455 43.2(5) 42.6(5) 44.5(5)
O1 Pb1 O1 1_5565 5_5445 119.1(8) 117.6(9) 120.1(8)
O1 Pb1 O1 1_5565 5_5455 40.1(5) 40.1(5) 40.1(5)
O1 Pb1 O2 1_5565 1_5565 41.6(7) 41.0(7) 42.3(7)
O1 Pb1 O2 1_5565 5_4445 158.1(11) 157.8(11) 158.8(11)
O1 Pb1 O2 1_5565 5_4545 97.7(11) 97.2(11) 97.9(11)
O1 Pb1 O3 1_5565 5_4445 100.3(9) 99.2(9) 102.6(9)
O1 Pb1 O3 1_5565 5_4545 57.3(9) 57.0(9) 57.8(9)
O1 Pb1 O3 1_5565 5_5445 96.1(9) 96.0(9) 96.1(9)
O1 Pb1 O3 1_5565 5_5545 54.6(9) 54.4(9) 54.8(9)
O1 Pb1 O1 5_4445 5_4455 93.9(10) 92.0(12) 102.0(9)
O1 Pb1 O1 5_4445 5_5445 88.1(10) 60.0(7) 111.0(15)
O1 Pb1 O1 5_4445 5_5455 163.8(11) 156.1(13) 180.0(5)
O1 Pb1 O2 5_4445 1_5565 162.3(13) 159.3(14) 166.0(12)
O1 Pb1 O2 5_4445 5_4445 58.8(13) 42.8(8) 68.9(15)
O1 Pb1 O2 5_4445 5_4455 121.2(13) 117.8(13) 123.4(13)
O1 Pb1 O2 5_4445 5_4545 58.8(13) 42.8(8) 68.9(15)
O1 Pb1 O2 5_4445 5_4555 121.2(13) 117.8(13) 123.4(13)
O1 Pb1 O3 5_4445 5_4445 61.2(9) 56.1(8) 71.0(10)
O1 Pb1 O3 5_4445 5_4545 61.2(9) 56.1(8) 71.0(10)
O1 Pb1 O3 5_4445 5_5445 117.9(9) 97.1(10) 134.3(8)
O1 Pb1 O3 5_4445 5_5545 117.9(9) 97.1(10) 134.3(8)
O1 Pb1 O1 5_4455 5_5445 162.2(11) 154.7(12) 180.0(5)
O1 Pb1 O1 5_4455 5_5455 88.1(10) 60.0(8) 111.0(15)
O1 Pb1 O2 5_4455 1_4545 95.2(11) 94.6(11) 95.6(10)
O1 Pb1 O2 5_4455 1_5565 62.4(10) 61.3(10) 64.0(10)
O1 Pb1 O2 5_4455 5_4445 121.1(13) 118.7(14) 123.9(13)
O1 Pb1 O2 5_4455 5_4455 59.1(13) 42.2(9) 70.3(16)
O1 Pb1 O2 5_4455 5_4545 121.1(13) 118.7(14) 123.9(13)
O1 Pb1 O2 5_4455 5_4555 59.1(13) 42.2(9) 70.3(16)
O1 Pb1 O3 5_4455 5_4445 60.4(9) 56.5(9) 65.3(10)
O1 Pb1 O3 5_4455 5_4545 60.4(9) 56.5(9) 65.3(10)
O1 Pb1 O3 5_4455 5_5445 118.9(9) 97.4(10) 134.5(8)
O1 Pb1 O3 5_4455 5_5545 118.9(9) 97.4(10) 134.5(8)
O1 Pb1 O1 5_5445 5_5455 93.9(10) 92.0(12) 102.0(11)
O1 Pb1 O2 5_5445 1_4545 62.4(10) 61.3(10) 64.0(10)
O1 Pb1 O2 5_5445 1_5565 95.2(11) 94.6(11) 95.6(10)
O1 Pb1 O2 5_5445 5_4445 59.1(13) 42.2(9) 70.3(16)
O1 Pb1 O2 5_5445 5_4455 121.1(13) 118.7(14) 123.9(13)
O1 Pb1 O2 5_5445 5_4545 59.1(13) 42.2(9) 70.3(16)
O1 Pb1 O2 5_5445 5_4555 121.1(13) 118.7(14) 123.9(13)
O1 Pb1 O3 5_5445 5_4445 118.9(9) 97.4(10) 134.5(8)
O1 Pb1 O3 5_5445 5_4545 118.9(9) 97.4(10) 134.5(8)
O1 Pb1 O3 5_5445 5_5445 60.4(9) 56.5(9) 65.3(10)
O1 Pb1 O3 5_5445 5_5545 60.4(9) 56.5(9) 65.3(10)
O1 Pb1 O2 5_5455 1_4545 162.3(13) 159.3(14) 166.0(12)
O1 Pb1 O2 5_5455 5_4445 121.2(13) 117.8(13) 123.4(13)
O1 Pb1 O2 5_5455 5_4455 58.8(13) 42.8(8) 68.9(15)
O1 Pb1 O2 5_5455 5_4545 121.2(13) 117.8(13) 123.4(13)
O1 Pb1 O2 5_5455 5_4555 58.8(13) 42.8(8) 68.9(15)
O1 Pb1 O3 5_5455 5_4445 117.9(9) 97.1(10) 134.3(8)
O1 Pb1 O3 5_5455 5_4545 117.9(9) 97.1(10) 134.3(8)
O1 Pb1 O3 5_5455 5_5445 61.2(9) 56.1(8) 71.0(10)
O1 Pb1 O3 5_5455 5_5545 61.2(9) 56.1(8) 71.0(10)
O2 Pb1 O2 1_4545 5_4455 120.3(13) 119.4(13) 121.1(13)
O2 Pb1 O2 1_4545 5_4555 120.3(13) 119.4(13) 121.1(13)
O2 Pb1 O3 1_4545 5_5445 98.7(10) 98.0(10) 99.8(10)
O2 Pb1 O3 1_4545 5_5545 98.7(10) 98.0(10) 99.8(10)
O2 Pb1 O2 1_5565 5_4445 120.3(13) 119.4(13) 121.1(13)
O2 Pb1 O2 1_5565 5_4545 120.3(13) 119.4(13) 121.1(13)
O2 Pb1 O3 1_5565 5_4445 98.7(10) 98.0(10) 99.8(10)
O2 Pb1 O3 1_5565 5_4545 98.7(10) 98.0(10) 99.8(10)
O2 Pb1 O2 5_4445 5_4455 94.3(10) 93.1(8) 96.8(11)
O2 Pb1 O2 5_4445 5_4545 88.2(11) 62.4(6) 104.1(14)
O2 Pb1 O2 5_4445 5_4555 168.3(11) 159.2(12) 180.0(5)
O2 Pb1 O3 5_4445 5_4445 61.6(11) 55.6(11) 66.5(12)
O2 Pb1 O3 5_4445 5_4545 119.9(12) 98.7(10) 137.8(12)
O2 Pb1 O3 5_4445 5_5445 61.7(11) 55.4(11) 67.2(14)
O2 Pb1 O3 5_4445 5_5545 119.1(13) 98.6(10) 134.4(19)
O2 Pb1 O2 5_4455 5_4545 168.3(11) 159.2(11) 180.0(5)
O2 Pb1 O2 5_4455 5_4555 88.2(11) 62.4(6) 104.1(14)
O2 Pb1 O3 5_4455 5_4445 61.7(11) 55.4(11) 67.2(14)
O2 Pb1 O3 5_4455 5_4545 119.1(13) 98.6(10) 134.4(19)
O2 Pb1 O3 5_4455 5_5445 61.6(11) 55.6(11) 66.5(12)
O2 Pb1 O3 5_4455 5_5545 119.9(12) 98.7(10) 137.8(12)
O2 Pb1 O2 5_4545 5_4555 94.3(10) 93.1(8) 96.8(11)
O2 Pb1 O3 5_4545 5_4445 119.9(12) 98.7(10) 137.8(12)
O2 Pb1 O3 5_4545 5_4545 61.6(11) 55.6(11) 66.5(12)
O2 Pb1 O3 5_4545 5_5445 119.1(13) 98.6(10) 134.4(19)
O2 Pb1 O3 5_4545 5_5545 61.7(11) 55.4(11) 67.2(14)
O2 Pb1 O3 5_4555 5_4445 119.1(13) 98.6(10) 134.4(19)
O2 Pb1 O3 5_4555 5_4545 61.7(11) 55.4(11) 67.2(14)
O2 Pb1 O3 5_4555 5_5445 119.9(12) 98.7(10) 137.8(12)
O2 Pb1 O3 5_4555 5_5545 61.6(11) 55.6(11) 66.5(12)
O3 Pb1 O3 5_4445 5_4545 88.3(10) 85.9(11) 94.0(9)
O3 Pb1 O3 5_4445 5_5445 88.6(9) 85.4(9) 91.1(7)
O3 Pb1 O3 5_4445 5_5545 161.9(12) 151.6(12) 180.0(5)
O3 Pb1 O3 5_4545 5_5445 161.9(12) 151.6(12) 180.0(5)
O3 Pb1 O3 5_4545 5_5545 88.6(9) 85.4(9) 91.1(7)
O3 Pb1 O3 5_5445 5_5545 88.3(10) 85.9(11) 94.0(9)
Fe1 Bi1 Fe1 1_4555 1_5545 99.0(4) 98.7(4) 99.5(4)
Fe1 Bi1 Fe1 1_4555 5_4455 47.5(3) 46.9(3) 48.0(3)
Fe1 Bi1 Fe1 1_4555 5_4555 47.5(3) 46.9(3) 48.0(3)
Fe1 Bi1 Fe1 1_4555 5_5445 126.8(4) 126.7(4) 127.0(4)
Fe1 Bi1 Fe1 1_4555 5_5455 114.4(4) 111.9(4) 116.5(5)
Fe1 Bi1 Fe1 1_4555 5_5545 126.8(4) 126.7(4) 127.0(4)
Fe1 Bi1 Fe1 1_4555 5_5555 114.4(4) 111.9(4) 116.5(5)
Fe1 Bi1 Pb1 1_4555 1_5455 90.0(5) 90.0(5) 90.0(5)
Fe1 Bi1 Pb1 1_4555 . 0(3000) 0(3000) 0(2000)
Fe1 Bi1 Pb1 1_4555 1_5655 90.0(5) 90.0(5) 90.0(5)
Fe1 Bi1 Pb1 1_4555 1_6555 168.7(6) 167.0(6) 170.0(6)
Fe1 Bi1 Pb1 1_4555 5_4445 58.2(5) 57.8(6) 58.5(5)
Fe1 Bi1 Pb1 1_4555 5_4545 58.2(5) 57.8(6) 58.5(5)
Fe1 Bi1 Bi1 1_4555 1_5455 90.0(5) 90.0(5) 90.0(5)
Fe1 Bi1 Bi1 1_4555 1_5655 90.0(5) 90.0(5) 90.0(5)
Fe1 Bi1 Bi1 1_4555 1_6555 168.7(6) 166.9(6) 170.0(6)
Fe1 Bi1 Bi1 1_4555 5_4445 58.2(5) 57.8(6) 58.5(5)
Fe1 Bi1 Bi1 1_4555 5_4545 58.2(5) 57.8(6) 58.5(5)
Fe1 Bi1 O1 1_4555 1_5445 97.3(7) 97.2(7) 97.4(7)
Fe1 Bi1 O1 1_4555 1_5545 97.3(7) 97.2(7) 97.4(7)
Fe1 Bi1 O1 1_4555 5_4455 26.6(8) 25.7(8) 27.2(8)
Fe1 Bi1 O1 1_4555 5_5445 131.0(7) 130.2(8) 132.3(7)
Fe1 Bi1 O1 1_4555 5_5455 129.1(11) 125.7(11) 131.8(11)
Fe1 Bi1 O2 1_4555 1_4545 68.7(10) 68.4(10) 68.9(10)
Fe1 Bi1 O2 1_4555 5_4455 81.5(15) 80.0(15) 82.8(16)
Fe1 Bi1 O2 1_4555 5_4555 81.5(15) 80.0(15) 82.8(16)
Fe1 Bi1 O3 1_4555 5_5445 133.4(8) 132.6(8) 134.2(8)
Fe1 Bi1 O3 1_4555 5_5545 133.4(8) 132.6(8) 134.2(8)
Fe1 Bi1 Fe1 1_5545 5_4445 46.9(3) 46.8(3) 47.0(3)
Fe1 Bi1 Fe1 1_5545 5_4455 126.2(4) 125.8(5) 126.3(4)
Fe1 Bi1 Fe1 1_5545 5_4545 46.9(3) 46.8(3) 47.0(3)
Fe1 Bi1 Fe1 1_5545 5_4555 126.2(4) 125.8(5) 126.3(4)
Fe1 Bi1 Fe1 1_5545 5_5445 47.1(3) 46.6(3) 48.1(3)
Fe1 Bi1 Fe1 1_5545 5_5455 127.6(4) 124.2(5) 131.7(4)
Fe1 Bi1 Fe1 1_5545 5_5545 47.1(3) 46.6(3) 48.1(3)
Fe1 Bi1 Fe1 1_5545 5_5555 127.6(4) 124.2(5) 131.7(4)
Fe1 Bi1 Pb1 1_5545 1_4555 88.2(6) 87.8(6) 88.6(6)
Fe1 Bi1 Pb1 1_5545 1_5455 90.0(5) 90.0(5) 90.0(5)
Fe1 Bi1 Pb1 1_5545 . 0(3000) 0(4000) 0(2000)
Fe1 Bi1 Pb1 1_5545 1_5655 90.0(5) 90.0(5) 90.0(5)
Fe1 Bi1 Pb1 1_5545 1_6555 91.3(6) 89.1(6) 94.4(6)
Fe1 Bi1 Pb1 1_5545 5_4445 57.5(5) 57.0(5) 58.4(5)
Fe1 Bi1 Pb1 1_5545 5_4545 57.5(5) 57.0(5) 58.4(5)
Fe1 Bi1 Bi1 1_5545 1_4555 88.2(6) 87.8(6) 88.6(6)
Fe1 Bi1 Bi1 1_5545 1_5455 90.0(5) 90.0(5) 90.0(5)
Fe1 Bi1 Bi1 1_5545 1_5655 90.0(5) 90.0(5) 90.0(5)
Fe1 Bi1 Bi1 1_5545 1_6555 91.3(6) 89.1(6) 94.4(6)
Fe1 Bi1 Bi1 1_5545 5_4445 57.5(5) 57.0(5) 58.4(5)
Fe1 Bi1 Bi1 1_5545 5_4545 57.5(5) 57.0(5) 58.4(5)
Fe1 Bi1 O1 1_5545 1_5445 30.3(3) 30.0(3) 31.0(2)
Fe1 Bi1 O1 1_5545 1_5545 30.3(3) 30.0(3) 31.0(2)
Fe1 Bi1 O1 1_5545 5_4445 30.0(7) 29.7(7) 30.3(7)
Fe1 Bi1 O1 1_5545 5_4455 125.3(9) 124.7(10) 125.9(9)
Fe1 Bi1 O1 1_5545 5_5445 31.4(7) 30.1(7) 33.7(7)
Fe1 Bi1 O1 1_5545 5_5455 130.1(11) 126.0(12) 135.6(11)
Fe1 Bi1 O2 1_5545 1_4545 30.4(10) 30.2(10) 30.6(10)
Fe1 Bi1 O2 1_5545 5_4455 128.0(11) 127.9(11) 128.1(11)
Fe1 Bi1 O2 1_5545 5_4555 128.0(11) 127.9(11) 128.1(11)
Fe1 Bi1 O3 1_5545 5_4445 75.6(9) 75.5(9) 75.7(9)
Fe1 Bi1 O3 1_5545 5_4545 75.6(9) 75.5(9) 75.7(9)
Fe1 Bi1 O3 1_5545 5_5445 77.2(9) 76.0(9) 79.2(9)
Fe1 Bi1 O3 1_5545 5_5545 77.2(9) 76.0(9) 79.2(9)
Fe1 Bi1 Fe1 1_5565 1_6555 99.0(4) 98.7(4) 99.5(4)
Fe1 Bi1 Fe1 1_5565 5_4445 127.6(4) 124.2(5) 131.7(4)
Fe1 Bi1 Fe1 1_5565 5_4455 47.1(3) 46.6(3) 48.1(3)
Fe1 Bi1 Fe1 1_5565 5_4545 127.6(4) 124.2(5) 131.7(4)
Fe1 Bi1 Fe1 1_5565 5_4555 47.1(3) 46.6(3) 48.1(3)
Fe1 Bi1 Fe1 1_5565 5_5445 126.2(4) 125.8(5) 126.3(4)
Fe1 Bi1 Fe1 1_5565 5_5455 46.9(3) 46.8(3) 47.0(3)
Fe1 Bi1 Fe1 1_5565 5_5545 126.2(4) 125.8(5) 126.3(4)
Fe1 Bi1 Fe1 1_5565 5_5555 46.9(3) 46.8(3) 47.0(3)
Fe1 Bi1 Pb1 1_5565 1_4555 91.3(6) 89.1(6) 94.4(6)
Fe1 Bi1 Pb1 1_5565 1_5455 90.0(5) 90.0(5) 90.0(5)
Fe1 Bi1 Pb1 1_5565 . 0(3000) 0(4000) 0(2000)
Fe1 Bi1 Pb1 1_5565 1_5655 90.0(5) 90.0(5) 90.0(5)
Fe1 Bi1 Pb1 1_5565 1_6555 88.2(6) 87.8(6) 88.6(6)
Fe1 Bi1 Pb1 1_5565 5_5455 57.5(5) 57.0(5) 58.4(5)
Fe1 Bi1 Pb1 1_5565 5_5555 57.5(5) 57.0(5) 58.4(5)
Fe1 Bi1 Bi1 1_5565 1_4555 91.3(6) 89.1(6) 94.4(6)
Fe1 Bi1 Bi1 1_5565 1_5455 90.0(5) 90.0(5) 90.0(5)
Fe1 Bi1 Bi1 1_5565 1_5655 90.0(5) 90.0(5) 90.0(5)
Fe1 Bi1 Bi1 1_5565 1_6555 88.2(6) 87.8(6) 88.6(6)
Fe1 Bi1 Bi1 1_5565 5_5455 57.5(5) 57.0(5) 58.4(5)
Fe1 Bi1 Bi1 1_5565 5_5555 57.5(5) 57.0(5) 58.4(5)
Fe1 Bi1 O1 1_5565 1_5465 30.3(3) 30.0(3) 31.0(2)
Fe1 Bi1 O1 1_5565 1_5565 30.3(3) 30.0(3) 31.0(2)
Fe1 Bi1 O1 1_5565 5_4445 130.1(11) 126.0(12) 135.6(11)
Fe1 Bi1 O1 1_5565 5_4455 31.4(7) 30.1(7) 33.7(7)
Fe1 Bi1 O1 1_5565 5_5445 125.3(9) 124.7(10) 125.9(9)
Fe1 Bi1 O1 1_5565 5_5455 30.0(7) 29.7(7) 30.3(7)
Fe1 Bi1 O2 1_5565 1_5565 30.4(10) 30.2(10) 30.6(10)
Fe1 Bi1 O2 1_5565 5_4445 128.0(11) 127.9(11) 128.1(11)
Fe1 Bi1 O2 1_5565 5_4545 128.0(11) 127.9(11) 128.1(11)
Fe1 Bi1 O3 1_5565 5_4445 77.2(9) 76.0(9) 79.2(9)
Fe1 Bi1 O3 1_5565 5_4545 77.2(9) 76.0(9) 79.2(9)
Fe1 Bi1 O3 1_5565 5_5445 75.6(9) 75.5(9) 75.7(9)
Fe1 Bi1 O3 1_5565 5_5545 75.6(9) 75.5(9) 75.7(9)
Fe1 Bi1 Fe1 1_6555 5_4445 114.4(4) 111.9(4) 116.5(5)
Fe1 Bi1 Fe1 1_6555 5_4455 126.8(4) 126.7(4) 127.0(4)
Fe1 Bi1 Fe1 1_6555 5_4545 114.4(4) 111.9(4) 116.5(5)
Fe1 Bi1 Fe1 1_6555 5_4555 126.8(4) 126.7(4) 127.0(4)
Fe1 Bi1 Fe1 1_6555 5_5445 47.5(3) 46.9(3) 48.0(3)
Fe1 Bi1 Fe1 1_6555 5_5545 47.5(3) 46.9(3) 48.0(3)
Fe1 Bi1 Pb1 1_6555 1_4555 168.7(6) 167.0(6) 170.0(6)
Fe1 Bi1 Pb1 1_6555 1_5455 90.0(5) 90.0(5) 90.0(5)
Fe1 Bi1 Pb1 1_6555 . 0(3000) 0(3000) 0(2000)
Fe1 Bi1 Pb1 1_6555 1_5655 90.0(5) 90.0(5) 90.0(5)
Fe1 Bi1 Pb1 1_6555 5_5455 58.2(5) 57.8(6) 58.5(5)
Fe1 Bi1 Pb1 1_6555 5_5555 58.2(5) 57.8(6) 58.5(5)
Fe1 Bi1 Bi1 1_6555 1_4555 168.7(6) 166.9(6) 170.0(6)
Fe1 Bi1 Bi1 1_6555 1_5455 90.0(5) 90.0(5) 90.0(5)
Fe1 Bi1 Bi1 1_6555 1_5655 90.0(5) 90.0(5) 90.0(5)
Fe1 Bi1 Bi1 1_6555 5_5455 58.2(5) 57.8(6) 58.5(5)
Fe1 Bi1 Bi1 1_6555 5_5555 58.2(5) 57.8(6) 58.5(5)
Fe1 Bi1 O1 1_6555 1_5465 97.3(7) 97.2(7) 97.4(7)
Fe1 Bi1 O1 1_6555 1_5565 97.3(7) 97.2(7) 97.4(7)
Fe1 Bi1 O1 1_6555 5_4445 129.1(11) 125.7(11) 131.8(11)
Fe1 Bi1 O1 1_6555 5_4455 131.0(7) 130.2(8) 132.3(7)
Fe1 Bi1 O1 1_6555 5_5445 26.6(8) 25.7(8) 27.2(8)
Fe1 Bi1 O2 1_6555 1_5565 68.7(10) 68.4(10) 68.9(10)
Fe1 Bi1 O2 1_6555 5_4445 81.5(15) 80.0(15) 82.8(16)
Fe1 Bi1 O2 1_6555 5_4545 81.5(15) 80.0(15) 82.8(16)
Fe1 Bi1 O3 1_6555 5_4445 133.4(8) 132.6(8) 134.2(8)
Fe1 Bi1 O3 1_6555 5_4545 133.4(8) 132.6(8) 134.2(8)
Fe1 Bi1 Fe1 5_4445 5_4455 74.7(4) 71.0(3) 83.7(3)
Fe1 Bi1 Fe1 5_4445 5_4545 68.7(4) 61.8(3) 72.4(6)
Fe1 Bi1 Fe1 5_4445 5_4555 111.5(6) 108.0(5) 121.1(5)
Fe1 Bi1 Fe1 5_4445 5_5445 68.8(4) 60.8(4) 73.6(4)
Fe1 Bi1 Fe1 5_4445 5_5455 111.0(2) 110.53(18) 112.8(2)
Fe1 Bi1 Fe1 5_4445 5_5545 105.9(5) 93.3(4) 114.4(8)
Fe1 Bi1 Fe1 5_4445 5_5555 172.6(6) 169.7(9) 180.0(5)
Fe1 Bi1 Pb1 5_4445 1_4555 56.2(5) 53.4(5) 58.9(6)
Fe1 Bi1 Pb1 5_4445 1_5455 55.7(5) 53.8(5) 59.1(5)
Fe1 Bi1 Pb1 5_4445 1_5545 53.6(4) 48.7(4) 57.7(5)
Fe1 Bi1 Pb1 5_4445 . 0(18000) 0 100(1600)
Fe1 Bi1 Pb1 5_4445 1_5565 126.7(5) 120.6(7) 133.4(5)
Fe1 Bi1 Pb1 5_4445 1_5655 124.3(6) 120.9(6) 126.2(8)
Fe1 Bi1 Pb1 5_4445 1_6555 123.9(5) 119.9(7) 127.6(7)
Fe1 Bi1 Pb1 5_4445 5_5455 109.0(3) 108.9(3) 109.2(3)
Fe1 Bi1 Pb1 5_4445 5_5555 172.2(7) 169.7(7) 174.0(8)
Fe1 Bi1 Bi1 5_4445 1_4555 56.2(5) 53.4(5) 58.9(6)
Fe1 Bi1 Bi1 5_4445 1_5455 55.7(5) 53.8(5) 59.1(5)
Fe1 Bi1 Bi1 5_4445 1_5545 53.6(4) 48.7(4) 57.7(5)
Fe1 Bi1 Bi1 5_4445 1_5565 126.7(5) 120.6(7) 133.4(5)
Fe1 Bi1 Bi1 5_4445 1_5655 124.3(6) 120.9(6) 126.2(8)
Fe1 Bi1 Bi1 5_4445 1_6555 123.9(5) 119.9(7) 127.6(7)
Fe1 Bi1 Bi1 5_4445 5_5455 109.0(3) 108.9(3) 109.2(3)
Fe1 Bi1 Bi1 5_4445 5_5555 172.2(7) 169.7(7) 174.0(8)
Fe1 Bi1 O1 5_4445 1_5445 30.1(7) 29.9(7) 30.3(7)
Fe1 Bi1 O1 5_4445 1_5465 104.0(5) 102.3(5) 106.0(4)
Fe1 Bi1 O1 5_4445 1_5545 69.5(5) 69.5(5) 69.5(5)
Fe1 Bi1 O1 5_4445 1_5565 145.9(8) 143.3(9) 150.0(8)
Fe1 Bi1 O1 5_4445 5_4445 34.7(2) 31.7(2) 36.8(3)
Fe1 Bi1 O1 5_4445 5_4455 93.2(8) 87.1(10) 106.8(6)
Fe1 Bi1 O1 5_4445 5_5445 88.2(8) 70.7(6) 101.9(10)
Fe1 Bi1 O1 5_4445 5_5455 143.6(4) 140.5(5) 145.74(16)
Fe1 Bi1 O2 5_4445 1_5565 143.5(3) 142.5(4) 144.69(19)
Fe1 Bi1 O2 5_4445 5_4445 35.0(14) 32.0(10) 36.8(15)
Fe1 Bi1 O2 5_4445 5_4455 92.7(10) 90.5(12) 99.4(8)
Fe1 Bi1 O2 5_4445 5_4545 88.1(11) 71.9(8) 97.0(14)
Fe1 Bi1 O2 5_4445 5_4555 143.9(14) 139.2(14) 147.9(17)
Fe1 Bi1 O3 5_4445 5_4445 37.6(9) 28.7(9) 52.5(9)
Fe1 Bi1 O3 5_4445 5_4545 90.0(9) 80.0(8) 103.3(10)
Fe1 Bi1 O3 5_4445 5_5445 90.0(8) 79.8(9) 97.6(7)
Fe1 Bi1 O3 5_4445 5_5545 143.7(10) 122.9(10) 161.2(12)
Fe1 Bi1 Fe1 5_4455 5_4545 111.5(6) 108.0(5) 121.1(5)
Fe1 Bi1 Fe1 5_4455 5_4555 67.9(4) 63.5(4) 72.6(6)
Fe1 Bi1 Fe1 5_4455 5_5445 111.9(2) 111.02(18) 113.93(19)
Fe1 Bi1 Fe1 5_4455 5_5455 68.8(4) 60.8(4) 73.6(5)
Fe1 Bi1 Fe1 5_4455 5_5545 174.3(6) 172.2(7) 180.0(5)
Fe1 Bi1 Fe1 5_4455 5_5555 105.9(5) 93.3(4) 114.4(8)
Fe1 Bi1 Pb1 5_4455 1_4555 55.6(4) 53.2(3) 63.1(4)
Fe1 Bi1 Pb1 5_4455 1_5455 56.1(5) 53.7(5) 58.2(5)
Fe1 Bi1 Pb1 5_4455 1_5545 128.0(5) 124.5(5) 134.3(3)
Fe1 Bi1 Pb1 5_4455 . 0(7000) 0 0(18000)
Fe1 Bi1 Pb1 5_4455 1_5565 52.9(4) 45.4(4) 56.8(5)
Fe1 Bi1 Pb1 5_4455 1_5655 123.9(6) 121.8(7) 126.3(8)
Fe1 Bi1 Pb1 5_4455 1_6555 125.0(5) 118.0(5) 127.1(4)
Fe1 Bi1 Pb1 5_4455 5_4445 68.8(5) 67.9(5) 69.3(5)
Fe1 Bi1 Pb1 5_4455 5_4545 105.6(6) 105.2(6) 105.9(6)
Fe1 Bi1 Pb1 5_4455 5_5455 68.6(5) 68.2(5) 69.2(6)
Fe1 Bi1 Pb1 5_4455 5_5555 104.7(6) 104.4(6) 105.0(6)
Fe1 Bi1 Bi1 5_4455 1_4555 55.6(4) 53.2(3) 63.1(4)
Fe1 Bi1 Bi1 5_4455 1_5455 56.1(5) 53.7(5) 58.2(5)
Fe1 Bi1 Bi1 5_4455 1_5545 128.0(5) 124.5(5) 134.3(3)
Fe1 Bi1 Bi1 5_4455 1_5565 52.9(4) 45.4(4) 56.8(5)
Fe1 Bi1 Bi1 5_4455 1_5655 123.9(6) 121.8(7) 126.3(8)
Fe1 Bi1 Bi1 5_4455 1_6555 125.0(5) 118.0(5) 127.1(4)
Fe1 Bi1 Bi1 5_4455 5_4445 68.8(5) 67.9(5) 69.3(5)
Fe1 Bi1 Bi1 5_4455 5_4545 105.6(6) 105.2(6) 105.9(6)
Fe1 Bi1 Bi1 5_4455 5_5455 68.6(5) 68.2(5) 69.2(6)
Fe1 Bi1 Bi1 5_4455 5_5555 104.7(6) 104.4(6) 105.0(6)
Fe1 Bi1 O1 5_4455 1_5445 102.7(5) 101.4(5) 103.3(5)
Fe1 Bi1 O1 5_4455 1_5465 31.7(7) 31.2(7) 32.8(7)
Fe1 Bi1 O1 5_4455 1_5545 141.3(8) 140.5(9) 141.7(8)
Fe1 Bi1 O1 5_4455 1_5565 71.9(5) 71.4(5) 73.1(5)
Fe1 Bi1 O1 5_4455 5_4445 93.4(8) 87.0(10) 103.1(7)
Fe1 Bi1 O1 5_4455 5_4455 34.5(2) 32.3(2) 37.3(4)
Fe1 Bi1 O1 5_4455 5_5445 143.9(3) 141.6(5) 146.25(17)
Fe1 Bi1 O1 5_4455 5_5455 87.0(8) 69.4(6) 98.7(10)
Fe1 Bi1 O2 5_4455 1_4545 102.3(8) 101.9(8) 102.5(8)
Fe1 Bi1 O2 5_4455 1_5565 70.5(8) 70.2(8) 71.2(8)
Fe1 Bi1 O2 5_4455 5_4445 93.0(11) 89.8(13) 101.5(8)
Fe1 Bi1 O2 5_4455 5_4455 34.6(14) 30.6(10) 37.0(15)
Fe1 Bi1 O2 5_4455 5_4545 145.0(15) 142.9(12) 151.7(15)
Fe1 Bi1 O2 5_4455 5_4555 87.5(11) 71.7(8) 96.7(15)
Fe1 Bi1 O3 5_4455 5_4445 37.0(9) 29.2(9) 50.6(9)
Fe1 Bi1 O3 5_4455 5_4545 89.2(9) 81.3(9) 98.6(11)
Fe1 Bi1 O3 5_4455 5_5445 90.2(8) 78.7(9) 97.5(7)
Fe1 Bi1 O3 5_4455 5_5545 143.5(10) 122.0(10) 158.6(12)
Fe1 Bi1 Fe1 5_4545 5_4555 74.7(4) 71.0(3) 83.7(3)
Fe1 Bi1 Fe1 5_4545 5_5445 105.9(5) 93.3(4) 114.4(8)
Fe1 Bi1 Fe1 5_4545 5_5455 172.6(6) 169.7(9) 180.0(5)
Fe1 Bi1 Fe1 5_4545 5_5545 68.8(4) 60.8(4) 73.6(4)
Fe1 Bi1 Fe1 5_4545 5_5555 111.0(2) 110.53(18) 112.8(2)
Fe1 Bi1 Pb1 5_4545 1_4555 56.2(5) 53.4(5) 58.9(6)
Fe1 Bi1 Pb1 5_4545 1_5455 124.3(6) 120.9(6) 126.2(8)
Fe1 Bi1 Pb1 5_4545 1_5545 53.6(4) 48.7(4) 57.7(5)
Fe1 Bi1 Pb1 5_4545 . 0(18000) 0 100(1600)
Fe1 Bi1 Pb1 5_4545 1_5565 126.7(5) 120.6(7) 133.4(5)
Fe1 Bi1 Pb1 5_4545 1_5655 55.7(5) 53.8(5) 59.1(5)
Fe1 Bi1 Pb1 5_4545 1_6555 123.9(5) 119.9(7) 127.6(7)
Fe1 Bi1 Pb1 5_4545 5_5455 172.2(7) 169.7(7) 174.0(8)
Fe1 Bi1 Pb1 5_4545 5_5555 109.0(3) 108.9(3) 109.2(3)
Fe1 Bi1 Bi1 5_4545 1_4555 56.2(5) 53.4(5) 58.9(6)
Fe1 Bi1 Bi1 5_4545 1_5455 124.3(6) 120.9(6) 126.2(8)
Fe1 Bi1 Bi1 5_4545 1_5545 53.6(4) 48.7(4) 57.7(5)
Fe1 Bi1 Bi1 5_4545 1_5565 126.7(5) 120.6(7) 133.4(5)
Fe1 Bi1 Bi1 5_4545 1_5655 55.7(5) 53.8(5) 59.1(5)
Fe1 Bi1 Bi1 5_4545 1_6555 123.9(5) 119.9(7) 127.6(7)
Fe1 Bi1 Bi1 5_4545 5_5455 172.2(7) 169.7(7) 174.0(8)
Fe1 Bi1 Bi1 5_4545 5_5555 109.0(3) 108.9(3) 109.2(3)
Fe1 Bi1 O1 5_4545 1_5445 69.5(5) 69.5(5) 69.5(5)
Fe1 Bi1 O1 5_4545 1_5465 145.9(8) 143.3(9) 150.0(8)
Fe1 Bi1 O1 5_4545 1_5545 30.1(7) 29.9(7) 30.3(7)
Fe1 Bi1 O1 5_4545 1_5565 104.0(5) 102.3(5) 106.0(4)
Fe1 Bi1 O1 5_4545 5_4445 34.7(2) 31.7(2) 36.8(3)
Fe1 Bi1 O1 5_4545 5_4455 93.2(8) 87.1(10) 106.8(6)
Fe1 Bi1 O1 5_4545 5_5445 88.2(8) 70.7(6) 101.9(10)
Fe1 Bi1 O1 5_4545 5_5455 143.6(4) 140.5(5) 145.74(16)
Fe1 Bi1 O2 5_4545 1_5565 143.5(3) 142.5(4) 144.69(19)
Fe1 Bi1 O2 5_4545 5_4445 88.1(11) 71.9(8) 97.0(14)
Fe1 Bi1 O2 5_4545 5_4455 143.9(14) 139.2(14) 147.9(17)
Fe1 Bi1 O2 5_4545 5_4545 35.0(14) 32.0(10) 36.8(15)
Fe1 Bi1 O2 5_4545 5_4555 92.7(10) 90.5(12) 99.4(8)
Fe1 Bi1 O3 5_4545 5_4445 90.0(9) 80.0(8) 103.3(10)
Fe1 Bi1 O3 5_4545 5_4545 37.6(9) 28.7(9) 52.5(9)
Fe1 Bi1 O3 5_4545 5_5445 143.7(10) 122.9(10) 161.2(12)
Fe1 Bi1 O3 5_4545 5_5545 90.0(8) 79.8(9) 97.6(7)
Fe1 Bi1 Fe1 5_4555 5_5445 174.3(6) 172.2(7) 180.0(5)
Fe1 Bi1 Fe1 5_4555 5_5455 105.9(5) 93.3(4) 114.4(8)
Fe1 Bi1 Fe1 5_4555 5_5545 111.9(2) 111.02(18) 113.93(19)
Fe1 Bi1 Fe1 5_4555 5_5555 68.8(4) 60.8(4) 73.6(5)
Fe1 Bi1 Pb1 5_4555 1_4555 55.6(4) 53.2(3) 63.1(4)
Fe1 Bi1 Pb1 5_4555 1_5455 123.9(6) 121.8(7) 126.3(8)
Fe1 Bi1 Pb1 5_4555 1_5545 128.0(5) 124.5(5) 134.3(3)
Fe1 Bi1 Pb1 5_4555 . 0(7000) 0 0(18000)
Fe1 Bi1 Pb1 5_4555 1_5565 52.9(4) 45.4(4) 56.8(5)
Fe1 Bi1 Pb1 5_4555 1_5655 56.1(5) 53.7(5) 58.2(5)
Fe1 Bi1 Pb1 5_4555 1_6555 125.0(5) 118.0(5) 127.1(4)
Fe1 Bi1 Pb1 5_4555 5_4445 105.6(6) 105.2(6) 105.9(6)
Fe1 Bi1 Pb1 5_4555 5_4545 68.8(5) 67.9(5) 69.3(5)
Fe1 Bi1 Pb1 5_4555 5_5455 104.7(6) 104.4(6) 105.0(6)
Fe1 Bi1 Pb1 5_4555 5_5555 68.6(5) 68.2(5) 69.2(6)
Fe1 Bi1 Bi1 5_4555 1_4555 55.6(4) 53.2(3) 63.1(4)
Fe1 Bi1 Bi1 5_4555 1_5455 123.9(6) 121.8(7) 126.3(8)
Fe1 Bi1 Bi1 5_4555 1_5545 128.0(5) 124.5(5) 134.3(3)
Fe1 Bi1 Bi1 5_4555 1_5565 52.9(4) 45.4(4) 56.8(5)
Fe1 Bi1 Bi1 5_4555 1_5655 56.1(5) 53.7(5) 58.2(5)
Fe1 Bi1 Bi1 5_4555 1_6555 125.0(5) 118.0(5) 127.1(4)
Fe1 Bi1 Bi1 5_4555 5_4445 105.6(6) 105.2(6) 105.9(6)
Fe1 Bi1 Bi1 5_4555 5_4545 68.8(5) 67.9(5) 69.3(5)
Fe1 Bi1 Bi1 5_4555 5_5455 104.7(6) 104.4(6) 105.0(6)
Fe1 Bi1 Bi1 5_4555 5_5555 68.6(5) 68.2(5) 69.2(6)
Fe1 Bi1 O1 5_4555 1_5445 141.3(8) 140.5(9) 141.7(8)
Fe1 Bi1 O1 5_4555 1_5465 71.9(5) 71.4(5) 73.1(5)
Fe1 Bi1 O1 5_4555 1_5545 102.7(5) 101.4(5) 103.3(5)
Fe1 Bi1 O1 5_4555 1_5565 31.7(7) 31.2(7) 32.8(7)
Fe1 Bi1 O1 5_4555 5_4445 93.4(8) 87.0(10) 103.1(7)
Fe1 Bi1 O1 5_4555 5_4455 34.5(2) 32.3(2) 37.3(4)
Fe1 Bi1 O1 5_4555 5_5445 143.9(3) 141.6(5) 146.25(17)
Fe1 Bi1 O1 5_4555 5_5455 87.0(8) 69.4(6) 98.7(10)
Fe1 Bi1 O2 5_4555 1_4545 102.3(8) 101.9(8) 102.5(8)
Fe1 Bi1 O2 5_4555 1_5565 70.5(8) 70.2(8) 71.2(8)
Fe1 Bi1 O2 5_4555 5_4445 145.0(15) 142.9(12) 151.7(15)
Fe1 Bi1 O2 5_4555 5_4455 87.5(11) 71.7(8) 96.7(15)
Fe1 Bi1 O2 5_4555 5_4545 93.0(11) 89.8(13) 101.5(8)
Fe1 Bi1 O2 5_4555 5_4555 34.6(14) 30.6(10) 37.0(15)
Fe1 Bi1 O3 5_4555 5_4445 89.2(9) 81.3(9) 98.6(11)
Fe1 Bi1 O3 5_4555 5_4545 37.0(9) 29.2(9) 50.6(9)
Fe1 Bi1 O3 5_4555 5_5445 143.5(10) 122.0(10) 158.6(12)
Fe1 Bi1 O3 5_4555 5_5545 90.2(8) 78.7(9) 97.5(7)
Fe1 Bi1 Fe1 5_5445 5_5455 74.7(4) 71.0(3) 83.7(3)
Fe1 Bi1 Fe1 5_5445 5_5545 67.9(4) 63.5(4) 72.6(6)
Fe1 Bi1 Fe1 5_5445 5_5555 111.5(6) 108.0(5) 121.1(5)
Fe1 Bi1 Pb1 5_5445 1_4555 125.0(5) 118.0(5) 127.1(4)
Fe1 Bi1 Pb1 5_5445 1_5455 56.1(5) 53.7(5) 58.2(5)
Fe1 Bi1 Pb1 5_5445 1_5545 52.9(4) 45.4(4) 56.8(5)
Fe1 Bi1 Pb1 5_5445 . 0(7000) 0 0(18000)
Fe1 Bi1 Pb1 5_5445 1_5565 128.0(5) 124.5(5) 134.3(3)
Fe1 Bi1 Pb1 5_5445 1_5655 123.9(6) 121.8(7) 126.3(8)
Fe1 Bi1 Pb1 5_5445 1_6555 55.6(4) 53.2(3) 63.1(4)
Fe1 Bi1 Pb1 5_5445 5_4445 68.6(5) 68.2(5) 69.2(6)
Fe1 Bi1 Pb1 5_5445 5_4545 104.7(6) 104.4(6) 105.0(6)
Fe1 Bi1 Pb1 5_5445 5_5455 68.8(5) 67.9(5) 69.3(5)
Fe1 Bi1 Pb1 5_5445 5_5555 105.6(6) 105.2(6) 105.9(6)
Fe1 Bi1 Bi1 5_5445 1_4555 125.0(5) 118.0(5) 127.1(4)
Fe1 Bi1 Bi1 5_5445 1_5455 56.1(5) 53.7(5) 58.2(5)
Fe1 Bi1 Bi1 5_5445 1_5545 52.9(4) 45.4(4) 56.8(5)
Fe1 Bi1 Bi1 5_5445 1_5565 128.0(5) 124.5(5) 134.3(3)
Fe1 Bi1 Bi1 5_5445 1_5655 123.9(6) 121.8(7) 126.3(8)
Fe1 Bi1 Bi1 5_5445 1_6555 55.6(4) 53.2(3) 63.1(4)
Fe1 Bi1 Bi1 5_5445 5_4445 68.6(5) 68.2(5) 69.2(6)
Fe1 Bi1 Bi1 5_5445 5_4545 104.7(6) 104.4(6) 105.0(6)
Fe1 Bi1 Bi1 5_5445 5_5455 68.8(5) 67.9(5) 69.3(5)
Fe1 Bi1 Bi1 5_5445 5_5555 105.6(6) 105.2(6) 105.9(6)
Fe1 Bi1 O1 5_5445 1_5445 31.7(7) 31.2(7) 32.8(7)
Fe1 Bi1 O1 5_5445 1_5465 102.7(5) 101.4(5) 103.3(5)
Fe1 Bi1 O1 5_5445 1_5545 71.9(5) 71.4(5) 73.1(5)
Fe1 Bi1 O1 5_5445 1_5565 141.3(8) 140.5(9) 141.7(8)
Fe1 Bi1 O1 5_5445 5_4445 87.0(8) 69.4(6) 98.7(10)
Fe1 Bi1 O1 5_5445 5_4455 143.9(3) 141.6(5) 146.25(17)
Fe1 Bi1 O1 5_5445 5_5445 34.5(2) 32.3(2) 37.3(4)
Fe1 Bi1 O1 5_5445 5_5455 93.4(8) 87.0(10) 103.1(7)
Fe1 Bi1 O2 5_5445 1_4545 70.5(8) 70.2(8) 71.2(8)
Fe1 Bi1 O2 5_5445 1_5565 102.3(8) 101.9(8) 102.5(8)
Fe1 Bi1 O2 5_5445 5_4445 34.6(14) 30.6(10) 37.0(15)
Fe1 Bi1 O2 5_5445 5_4455 93.0(11) 89.8(13) 101.5(8)
Fe1 Bi1 O2 5_5445 5_4545 87.5(11) 71.7(8) 96.7(15)
Fe1 Bi1 O2 5_5445 5_4555 145.0(15) 142.9(12) 151.7(15)
Fe1 Bi1 O3 5_5445 5_4445 90.2(8) 78.7(9) 97.5(7)
Fe1 Bi1 O3 5_5445 5_4545 143.5(10) 122.0(10) 158.6(12)
Fe1 Bi1 O3 5_5445 5_5445 37.0(9) 29.2(9) 50.6(9)
Fe1 Bi1 O3 5_5445 5_5545 89.2(9) 81.3(9) 98.6(11)
Fe1 Bi1 Fe1 5_5455 5_5545 111.5(6) 108.0(5) 121.1(5)
Fe1 Bi1 Fe1 5_5455 5_5555 68.7(4) 61.8(3) 72.4(6)
Fe1 Bi1 Pb1 5_5455 1_4555 123.9(5) 119.9(7) 127.6(7)
Fe1 Bi1 Pb1 5_5455 1_5455 55.7(5) 53.8(5) 59.1(5)
Fe1 Bi1 Pb1 5_5455 1_5545 126.7(5) 120.6(7) 133.4(5)
Fe1 Bi1 Pb1 5_5455 . 0(18000) 0 100(1600)
Fe1 Bi1 Pb1 5_5455 1_5565 53.6(4) 48.7(4) 57.7(5)
Fe1 Bi1 Pb1 5_5455 1_5655 124.3(6) 120.9(6) 126.2(8)
Fe1 Bi1 Pb1 5_5455 1_6555 56.2(5) 53.4(5) 58.9(6)
Fe1 Bi1 Pb1 5_5455 5_4445 109.0(3) 108.9(3) 109.2(3)
Fe1 Bi1 Pb1 5_5455 5_4545 172.2(7) 169.7(7) 174.0(8)
Fe1 Bi1 Bi1 5_5455 1_4555 123.9(5) 119.9(7) 127.6(7)
Fe1 Bi1 Bi1 5_5455 1_5455 55.7(5) 53.8(5) 59.1(5)
Fe1 Bi1 Bi1 5_5455 1_5545 126.7(5) 120.6(7) 133.4(5)
Fe1 Bi1 Bi1 5_5455 1_5565 53.6(4) 48.7(4) 57.7(5)
Fe1 Bi1 Bi1 5_5455 1_5655 124.3(6) 120.9(6) 126.2(8)
Fe1 Bi1 Bi1 5_5455 1_6555 56.2(5) 53.4(5) 58.9(6)
Fe1 Bi1 Bi1 5_5455 5_4445 109.0(3) 108.9(3) 109.2(3)
Fe1 Bi1 Bi1 5_5455 5_4545 172.2(7) 169.7(7) 174.0(8)
Fe1 Bi1 O1 5_5455 1_5445 104.0(5) 102.3(5) 106.0(4)
Fe1 Bi1 O1 5_5455 1_5465 30.1(7) 29.9(7) 30.3(7)
Fe1 Bi1 O1 5_5455 1_5545 145.9(8) 143.3(9) 150.0(8)
Fe1 Bi1 O1 5_5455 1_5565 69.5(5) 69.5(5) 69.5(5)
Fe1 Bi1 O1 5_5455 5_4445 143.6(4) 140.5(5) 145.74(16)
Fe1 Bi1 O1 5_5455 5_4455 88.2(8) 70.7(6) 101.9(10)
Fe1 Bi1 O1 5_5455 5_5445 93.2(8) 87.1(10) 106.8(6)
Fe1 Bi1 O1 5_5455 5_5455 34.7(2) 31.7(2) 36.8(3)
Fe1 Bi1 O2 5_5455 1_4545 143.5(3) 142.5(4) 144.69(19)
Fe1 Bi1 O2 5_5455 5_4445 92.7(10) 90.5(12) 99.4(8)
Fe1 Bi1 O2 5_5455 5_4455 35.0(14) 32.0(10) 36.8(15)
Fe1 Bi1 O2 5_5455 5_4545 143.9(14) 139.2(14) 147.9(17)
Fe1 Bi1 O2 5_5455 5_4555 88.1(11) 71.9(8) 97.0(14)
Fe1 Bi1 O3 5_5455 5_4445 90.0(8) 79.8(9) 97.6(7)
Fe1 Bi1 O3 5_5455 5_4545 143.7(10) 122.9(10) 161.2(12)
Fe1 Bi1 O3 5_5455 5_5445 37.6(9) 28.7(9) 52.5(9)
Fe1 Bi1 O3 5_5455 5_5545 90.0(9) 80.0(8) 103.3(10)
Fe1 Bi1 Fe1 5_5545 5_5555 74.7(4) 71.0(3) 83.7(3)
Fe1 Bi1 Pb1 5_5545 1_4555 125.0(5) 118.0(5) 127.1(4)
Fe1 Bi1 Pb1 5_5545 1_5455 123.9(6) 121.8(7) 126.3(8)
Fe1 Bi1 Pb1 5_5545 1_5545 52.9(4) 45.4(4) 56.8(5)
Fe1 Bi1 Pb1 5_5545 . 0(7000) 0 0(18000)
Fe1 Bi1 Pb1 5_5545 1_5565 128.0(5) 124.5(5) 134.3(3)
Fe1 Bi1 Pb1 5_5545 1_5655 56.1(5) 53.7(5) 58.2(5)
Fe1 Bi1 Pb1 5_5545 1_6555 55.6(4) 53.2(3) 63.1(4)
Fe1 Bi1 Pb1 5_5545 5_4445 104.7(6) 104.4(6) 105.0(6)
Fe1 Bi1 Pb1 5_5545 5_4545 68.6(5) 68.2(5) 69.2(6)
Fe1 Bi1 Pb1 5_5545 5_5455 105.6(6) 105.2(6) 105.9(6)
Fe1 Bi1 Pb1 5_5545 5_5555 68.8(5) 67.9(5) 69.3(5)
Fe1 Bi1 Bi1 5_5545 1_4555 125.0(5) 118.0(5) 127.1(4)
Fe1 Bi1 Bi1 5_5545 1_5455 123.9(6) 121.8(7) 126.3(8)
Fe1 Bi1 Bi1 5_5545 1_5545 52.9(4) 45.4(4) 56.8(5)
Fe1 Bi1 Bi1 5_5545 1_5565 128.0(5) 124.5(5) 134.3(3)
Fe1 Bi1 Bi1 5_5545 1_5655 56.1(5) 53.7(5) 58.2(5)
Fe1 Bi1 Bi1 5_5545 1_6555 55.6(4) 53.2(3) 63.1(4)
Fe1 Bi1 Bi1 5_5545 5_4445 104.7(6) 104.4(6) 105.0(6)
Fe1 Bi1 Bi1 5_5545 5_4545 68.6(5) 68.2(5) 69.2(6)
Fe1 Bi1 Bi1 5_5545 5_5455 105.6(6) 105.2(6) 105.9(6)
Fe1 Bi1 Bi1 5_5545 5_5555 68.8(5) 67.9(5) 69.3(5)
Fe1 Bi1 O1 5_5545 1_5445 71.9(5) 71.4(5) 73.1(5)
Fe1 Bi1 O1 5_5545 1_5465 141.3(8) 140.5(9) 141.7(8)
Fe1 Bi1 O1 5_5545 1_5545 31.7(7) 31.2(7) 32.8(7)
Fe1 Bi1 O1 5_5545 1_5565 102.7(5) 101.4(5) 103.3(5)
Fe1 Bi1 O1 5_5545 5_4445 87.0(8) 69.4(6) 98.7(10)
Fe1 Bi1 O1 5_5545 5_4455 143.9(3) 141.6(5) 146.25(17)
Fe1 Bi1 O1 5_5545 5_5445 34.5(2) 32.3(2) 37.3(4)
Fe1 Bi1 O1 5_5545 5_5455 93.4(8) 87.0(10) 103.1(7)
Fe1 Bi1 O2 5_5545 1_4545 70.5(8) 70.2(8) 71.2(8)
Fe1 Bi1 O2 5_5545 1_5565 102.3(8) 101.9(8) 102.5(8)
Fe1 Bi1 O2 5_5545 5_4445 87.5(11) 71.7(8) 96.7(15)
Fe1 Bi1 O2 5_5545 5_4455 145.0(15) 142.9(12) 151.7(15)
Fe1 Bi1 O2 5_5545 5_4545 34.6(14) 30.6(10) 37.0(15)
Fe1 Bi1 O2 5_5545 5_4555 93.0(11) 89.8(13) 101.5(8)
Fe1 Bi1 O3 5_5545 5_4445 143.5(10) 122.0(10) 158.6(12)
Fe1 Bi1 O3 5_5545 5_4545 90.2(8) 78.7(9) 97.5(7)
Fe1 Bi1 O3 5_5545 5_5445 89.2(9) 81.3(9) 98.6(11)
Fe1 Bi1 O3 5_5545 5_5545 37.0(9) 29.2(9) 50.6(9)
Fe1 Bi1 Pb1 5_5555 1_4555 123.9(5) 119.9(7) 127.6(7)
Fe1 Bi1 Pb1 5_5555 1_5455 124.3(6) 120.9(6) 126.2(8)
Fe1 Bi1 Pb1 5_5555 1_5545 126.7(5) 120.6(7) 133.4(5)
Fe1 Bi1 Pb1 5_5555 . 0(18000) 0 100(1600)
Fe1 Bi1 Pb1 5_5555 1_5565 53.6(4) 48.7(4) 57.7(5)
Fe1 Bi1 Pb1 5_5555 1_5655 55.7(5) 53.8(5) 59.1(5)
Fe1 Bi1 Pb1 5_5555 1_6555 56.2(5) 53.4(5) 58.9(6)
Fe1 Bi1 Pb1 5_5555 5_4445 172.2(7) 169.7(7) 174.0(8)
Fe1 Bi1 Pb1 5_5555 5_4545 109.0(3) 108.9(3) 109.2(3)
Fe1 Bi1 Bi1 5_5555 1_4555 123.9(5) 119.9(7) 127.6(7)
Fe1 Bi1 Bi1 5_5555 1_5455 124.3(6) 120.9(6) 126.2(8)
Fe1 Bi1 Bi1 5_5555 1_5545 126.7(5) 120.6(7) 133.4(5)
Fe1 Bi1 Bi1 5_5555 1_5565 53.6(4) 48.7(4) 57.7(5)
Fe1 Bi1 Bi1 5_5555 1_5655 55.7(5) 53.8(5) 59.1(5)
Fe1 Bi1 Bi1 5_5555 1_6555 56.2(5) 53.4(5) 58.9(6)
Fe1 Bi1 Bi1 5_5555 5_4445 172.2(7) 169.7(7) 174.0(8)
Fe1 Bi1 Bi1 5_5555 5_4545 109.0(3) 108.9(3) 109.2(3)
Fe1 Bi1 O1 5_5555 1_5445 145.9(8) 143.3(9) 150.0(8)
Fe1 Bi1 O1 5_5555 1_5465 69.5(5) 69.5(5) 69.5(5)
Fe1 Bi1 O1 5_5555 1_5545 104.0(5) 102.3(5) 106.0(4)
Fe1 Bi1 O1 5_5555 1_5565 30.1(7) 29.9(7) 30.3(7)
Fe1 Bi1 O1 5_5555 5_4445 143.6(4) 140.5(5) 145.74(16)
Fe1 Bi1 O1 5_5555 5_4455 88.2(8) 70.7(6) 101.9(10)
Fe1 Bi1 O1 5_5555 5_5445 93.2(8) 87.1(10) 106.8(6)
Fe1 Bi1 O1 5_5555 5_5455 34.7(2) 31.7(2) 36.8(3)
Fe1 Bi1 O2 5_5555 1_4545 143.5(3) 142.5(4) 144.69(19)
Fe1 Bi1 O2 5_5555 5_4445 143.9(14) 139.2(14) 147.9(17)
Fe1 Bi1 O2 5_5555 5_4455 88.1(11) 71.9(8) 97.0(14)
Fe1 Bi1 O2 5_5555 5_4545 92.7(10) 90.5(12) 99.4(8)
Fe1 Bi1 O2 5_5555 5_4555 35.0(14) 32.0(10) 36.8(15)
Fe1 Bi1 O3 5_5555 5_4445 143.7(10) 122.9(10) 161.2(12)
Fe1 Bi1 O3 5_5555 5_4545 90.0(8) 79.8(9) 97.6(7)
Fe1 Bi1 O3 5_5555 5_5445 90.0(9) 80.0(8) 103.3(10)
Fe1 Bi1 O3 5_5555 5_5545 37.6(9) 28.7(9) 52.5(9)
Pb1 Bi1 Pb1 1_4555 1_5455 90.0(5) 90.0(5) 90.0(5)
Pb1 Bi1 Pb1 1_4555 1_5545 91.2(6) 89.2(5) 91.9(8)
Pb1 Bi1 Pb1 1_4555 . 0(20000) 0 0(60000)
Pb1 Bi1 Pb1 1_4555 1_5565 88.8(6) 86.5(7) 92.3(6)
Pb1 Bi1 Pb1 1_4555 1_5655 90.0(5) 90.0(5) 90.0(5)
Pb1 Bi1 Pb1 1_4555 1_6555 178.8(7) 177.5(7) 180.0(5)
Pb1 Bi1 Pb1 1_4555 5_5455 129.7(6) 129.3(6) 130.7(6)
Pb1 Bi1 Pb1 1_4555 5_5555 129.7(6) 129.3(6) 130.7(6)
Pb1 Bi1 Bi1 1_4555 1_4555 0.0(5) 0.0(5) 0.0(5)
Pb1 Bi1 Bi1 1_4555 1_5455 90.0(5) 90.0(5) 90.0(5)
Pb1 Bi1 Bi1 1_4555 1_5545 91.2(6) 89.2(5) 91.9(8)
Pb1 Bi1 Bi1 1_4555 1_5565 88.8(6) 86.5(7) 92.3(6)
Pb1 Bi1 Bi1 1_4555 1_5655 90.0(5) 90.0(5) 90.0(5)
Pb1 Bi1 Bi1 1_4555 1_6555 178.8(7) 177.5(7) 180.0(5)
Pb1 Bi1 Bi1 1_4555 5_5455 129.7(6) 129.3(6) 130.7(6)
Pb1 Bi1 Bi1 1_4555 5_5555 129.7(6) 129.3(6) 130.7(6)
Pb1 Bi1 O1 1_4555 1_5445 86.6(8) 86.6(8) 86.7(8)
Pb1 Bi1 O1 1_4555 1_5465 92.1(8) 91.2(8) 93.8(8)
Pb1 Bi1 O1 1_4555 1_5545 86.6(8) 86.6(8) 86.7(8)
Pb1 Bi1 O1 1_4555 1_5565 92.1(8) 91.2(8) 93.8(8)
Pb1 Bi1 O1 1_4555 5_4445 47.4(9) 36.5(11) 58.4(8)
Pb1 Bi1 O1 1_4555 5_4455 46.5(8) 34.2(10) 60.7(7)
Pb1 Bi1 O1 1_4555 5_5445 135.5(10) 118.1(8) 147.6(13)
Pb1 Bi1 O1 1_4555 5_5455 131.8(10) 119.3(9) 145.6(13)
Pb1 Bi1 O2 1_4555 1_5565 122.7(10) 121.1(11) 124.7(10)
Pb1 Bi1 O2 1_4555 5_4445 90.9(14) 89.4(11) 91.9(15)
Pb1 Bi1 O2 1_4555 5_4455 89.1(14) 87.3(12) 91.0(17)
Pb1 Bi1 O2 1_4555 5_4545 90.9(14) 89.4(11) 91.9(15)
Pb1 Bi1 O2 1_4555 5_4555 89.1(14) 87.3(12) 91.0(17)
Pb1 Bi1 O3 1_4555 5_4445 45.9(8) 43.8(7) 50.2(9)
Pb1 Bi1 O3 1_4555 5_4545 45.9(8) 43.8(7) 50.2(9)
Pb1 Bi1 O3 1_4555 5_5445 134.1(8) 131.4(9) 136.1(7)
Pb1 Bi1 O3 1_4555 5_5545 134.1(8) 131.4(9) 136.1(7)
Pb1 Bi1 Pb1 1_5455 1_5545 90.0(3) 90.0(4) 90.0(2)
Pb1 Bi1 Pb1 1_5455 . 77.1(3) 0 90.00(3)
Pb1 Bi1 Pb1 1_5455 1_5565 90.0(3) 90.0(4) 90.0(2)
Pb1 Bi1 Pb1 1_5455 1_5655 180.0(5) 180.0(5) 180.0(5)
Pb1 Bi1 Pb1 1_5455 1_6555 90.0(3) 90.0(2) 90.0(4)
Pb1 Bi1 Pb1 1_5455 5_4445 55.0(4) 54.9(4) 55.0(3)
Pb1 Bi1 Pb1 1_5455 5_4545 125.0(5) 124.9(4) 125.1(5)
Pb1 Bi1 Pb1 1_5455 5_5455 55.0(4) 54.9(4) 55.0(3)
Pb1 Bi1 Pb1 1_5455 5_5555 125.0(5) 124.9(4) 125.1(5)
Pb1 Bi1 Bi1 1_5455 1_4555 90.0(3) 90.0(2) 90.0(4)
Pb1 Bi1 Bi1 1_5455 1_5455 0.0(5) 0.0(5) 0.0(5)
Pb1 Bi1 Bi1 1_5455 1_5545 90.0(3) 90.0(4) 90.0(2)
Pb1 Bi1 Bi1 1_5455 1_5565 90.0(3) 90.0(4) 90.0(2)
Pb1 Bi1 Bi1 1_5455 1_5655 180.0(5) 180.0(5) 180.0(5)
Pb1 Bi1 Bi1 1_5455 1_6555 90.0(3) 90.0(2) 90.0(4)
Pb1 Bi1 Bi1 1_5455 5_4445 55.0(4) 54.9(4) 55.0(3)
Pb1 Bi1 Bi1 1_5455 5_4545 125.0(5) 124.9(4) 125.0(5)
Pb1 Bi1 Bi1 1_5455 5_5455 55.0(4) 54.9(4) 55.0(3)
Pb1 Bi1 Bi1 1_5455 5_5555 125.0(5) 124.9(4) 125.0(5)
Pb1 Bi1 O1 1_5455 1_5445 59.7(3) 58.9(3) 60.1(3)
Pb1 Bi1 O1 1_5455 1_5465 59.7(3) 58.9(3) 60.1(3)
Pb1 Bi1 O1 1_5455 1_5545 120.3(4) 119.9(5) 121.0(4)
Pb1 Bi1 O1 1_5455 1_5565 120.3(4) 119.9(5) 121.0(4)
Pb1 Bi1 O1 1_5455 5_4445 90.0(3) 90.0(3) 90.0(2)
Pb1 Bi1 O1 1_5455 5_4455 90.0(3) 90.0(2) 90.0(2)
Pb1 Bi1 O1 1_5455 5_5445 90.0(3) 90.0(2) 90.0(2)
Pb1 Bi1 O1 1_5455 5_5455 90.0(3) 90.0(3) 90.0(2)
Pb1 Bi1 O2 1_5455 1_4545 90.0(3) 90.0(2) 90.0(3)
Pb1 Bi1 O2 1_5455 1_5565 90.0(3) 90.0(2) 90.0(3)
Pb1 Bi1 O2 1_5455 5_4445 45.9(9) 37.9(11) 58.8(6)
Pb1 Bi1 O2 1_5455 5_4455 45.9(9) 37.9(11) 58.8(6)
Pb1 Bi1 O2 1_5455 5_4545 134.1(10) 121.2(7) 142.1(12)
Pb1 Bi1 O2 1_5455 5_4555 134.1(10) 121.2(7) 142.1(12)
Pb1 Bi1 O3 1_5455 5_4445 45.8(8) 43.0(8) 47.0(8)
Pb1 Bi1 O3 1_5455 5_4545 134.2(9) 133.0(11) 137.0(9)
Pb1 Bi1 O3 1_5455 5_5445 45.8(8) 43.0(8) 47.0(8)
Pb1 Bi1 O3 1_5455 5_5545 134.2(9) 133.0(11) 137.0(9)
Pb1 Bi1 Pb1 1_5545 . 0(20000) 0 0(2000)
Pb1 Bi1 Pb1 1_5545 1_5565 178.3(7) 177.1(7) 180.0(5)
Pb1 Bi1 Pb1 1_5545 1_5655 90.0(5) 90.0(5) 90.0(5)
Pb1 Bi1 Pb1 1_5545 1_6555 88.8(6) 86.5(7) 92.3(7)
Pb1 Bi1 Pb1 1_5545 5_5455 121.1(6) 120.4(6) 121.5(6)
Pb1 Bi1 Pb1 1_5545 5_5555 121.1(6) 120.4(6) 121.5(6)
Pb1 Bi1 Bi1 1_5545 1_4555 91.2(6) 89.2(6) 91.9(7)
Pb1 Bi1 Bi1 1_5545 1_5455 90.0(5) 90.0(5) 90.0(5)
Pb1 Bi1 Bi1 1_5545 1_5545 0.0(5) 0.0(5) 0.0(5)
Pb1 Bi1 Bi1 1_5545 1_5565 178.3(7) 177.1(7) 180.0(5)
Pb1 Bi1 Bi1 1_5545 1_5655 90.0(5) 90.0(5) 90.0(5)
Pb1 Bi1 Bi1 1_5545 1_6555 88.8(6) 86.5(7) 92.3(7)
Pb1 Bi1 Bi1 1_5545 5_5455 121.1(6) 120.4(6) 121.5(6)
Pb1 Bi1 Bi1 1_5545 5_5555 121.1(6) 120.4(6) 121.5(6)
Pb1 Bi1 O1 1_5545 1_5465 149.6(3) 148.8(3) 150.0(3)
Pb1 Bi1 O1 1_5545 1_5565 149.6(3) 148.8(3) 150.0(3)
Pb1 Bi1 O1 1_5545 5_4445 44.3(9) 32.9(7) 54.3(11)
Pb1 Bi1 O1 1_5545 5_4455 138.2(10) 125.9(12) 150.0(8)
Pb1 Bi1 O1 1_5545 5_5445 45.1(9) 28.1(7) 56.8(10)
Pb1 Bi1 O1 1_5545 5_5455 137.5(10) 123.0(12) 150.4(9)
Pb1 Bi1 O2 1_5545 1_5565 147.7(11) 146.1(10) 148.9(11)
Pb1 Bi1 O2 1_5545 5_4445 44.1(9) 31.3(5) 52.1(11)
Pb1 Bi1 O2 1_5545 5_4455 137.1(8) 128.0(11) 148.8(5)
Pb1 Bi1 O2 1_5545 5_4545 44.1(9) 31.3(5) 52.1(11)
Pb1 Bi1 O2 1_5545 5_4555 137.1(8) 128.0(11) 148.8(5)
Pb1 Bi1 O3 1_5545 5_4445 91.6(10) 77.4(10) 103.8(9)
Pb1 Bi1 O3 1_5545 5_4545 91.6(10) 77.4(10) 103.8(9)
Pb1 Bi1 O3 1_5545 5_5445 91.1(10) 74.6(9) 104.7(10)
Pb1 Bi1 O3 1_5545 5_5545 91.1(10) 74.6(9) 104.7(10)
Pb1 Bi1 Pb1 . 1_5565 0(13000) 0 200(900)
Pb1 Bi1 Pb1 . 1_5655 77.1(4) 0 90.0(5)
Pb1 Bi1 Pb1 . 1_6555 0(13000) 0 0(4000)
Pb1 Bi1 Pb1 . 5_4445 100(1200) 100(900) 100(1700)
Pb1 Bi1 Pb1 . 5_4545 100(1200) 100(900) 100(1700)
Pb1 Bi1 Pb1 . 5_5455 100(1200) 100(900) 100(1700)
Pb1 Bi1 Pb1 . 5_5555 100(1200) 100(900) 100(1700)
Pb1 Bi1 Bi1 . 1_4555 0(13000) 0 0(4000)
Pb1 Bi1 Bi1 . 1_5455 77.1(4) 0 90.0(5)
Pb1 Bi1 Bi1 . 1_5545 0(13000) 0 200(900)
Pb1 Bi1 Bi1 . 1_5565 0(13000) 0 200(900)
Pb1 Bi1 Bi1 . 1_5655 77.1(4) 0 90.0(5)
Pb1 Bi1 Bi1 . 1_6555 0(13000) 0 0(4000)
Pb1 Bi1 Bi1 . 5_4445 100(1200) 100(900) 100(1700)
Pb1 Bi1 Bi1 . 5_4545 100(1200) 100(900) 100(1700)
Pb1 Bi1 Bi1 . 5_5455 100(1200) 100(900) 100(1700)
Pb1 Bi1 Bi1 . 5_5555 100(1200) 100(900) 100(1700)
Pb1 Bi1 O1 . 1_5445 0(1400) 0(1300) 0(600)
Pb1 Bi1 O1 . 1_5465 0(1400) 0(1300) 0(600)
Pb1 Bi1 O1 . 1_5545 0(1400) 0(1300) 0(600)
Pb1 Bi1 O1 . 1_5565 0(1400) 0(1300) 0(600)
Pb1 Bi1 O1 . 5_4445 0(12000) 0 0(50000)
Pb1 Bi1 O1 . 5_4455 0(12000) 0 0(30000)
Pb1 Bi1 O1 . 5_5445 0(12000) 0 0(30000)
Pb1 Bi1 O1 . 5_5455 0(12000) 0 0(50000)
Pb1 Bi1 O2 . 1_4545 100(1400) 0(2000) 100(900)
Pb1 Bi1 O2 . 1_5565 100(1400) 0(2000) 100(900)
Pb1 Bi1 O2 . 5_4445 0(6000) 0 0(20000)
Pb1 Bi1 O2 . 5_4455 0(6000) 0 0(20000)
Pb1 Bi1 O2 . 5_4545 0(6000) 0 0(20000)
Pb1 Bi1 O2 . 5_4555 0(6000) 0 0(20000)
Pb1 Bi1 O3 . 5_4445 0(8000) 0 0(30000)
Pb1 Bi1 O3 . 5_4545 0(8000) 0 0(30000)
Pb1 Bi1 O3 . 5_5445 0(8000) 0 0(30000)
Pb1 Bi1 O3 . 5_5545 0(8000) 0 0(30000)
Pb1 Bi1 Pb1 1_5565 1_5655 90.0(5) 90.0(5) 90.0(5)
Pb1 Bi1 Pb1 1_5565 1_6555 91.2(6) 89.2(6) 91.9(7)
Pb1 Bi1 Pb1 1_5565 5_4445 121.1(6) 120.4(6) 121.5(6)
Pb1 Bi1 Pb1 1_5565 5_4545 121.1(6) 120.4(6) 121.5(6)
Pb1 Bi1 Bi1 1_5565 1_4555 88.8(6) 86.5(7) 92.3(7)
Pb1 Bi1 Bi1 1_5565 1_5455 90.0(5) 90.0(5) 90.0(5)
Pb1 Bi1 Bi1 1_5565 1_5545 178.3(7) 177.1(7) 180.0(5)
Pb1 Bi1 Bi1 1_5565 1_5565 0.0(5) 0.0(5) 0.0(5)
Pb1 Bi1 Bi1 1_5565 1_5655 90.0(5) 90.0(5) 90.0(5)
Pb1 Bi1 Bi1 1_5565 1_6555 91.2(6) 89.2(6) 91.9(7)
Pb1 Bi1 Bi1 1_5565 5_4445 121.1(6) 120.4(6) 121.5(6)
Pb1 Bi1 Bi1 1_5565 5_4545 121.1(6) 120.4(6) 121.5(6)
Pb1 Bi1 O1 1_5565 1_5445 149.6(3) 148.8(3) 150.0(3)
Pb1 Bi1 O1 1_5565 1_5545 149.6(3) 148.8(3) 150.0(3)
Pb1 Bi1 O1 1_5565 5_4445 137.5(10) 123.0(12) 150.4(9)
Pb1 Bi1 O1 1_5565 5_4455 45.1(9) 28.1(7) 56.8(10)
Pb1 Bi1 O1 1_5565 5_5445 138.2(10) 125.9(12) 150.0(8)
Pb1 Bi1 O1 1_5565 5_5455 44.3(9) 32.9(7) 54.3(11)
Pb1 Bi1 O2 1_5565 1_4545 147.7(11) 146.1(10) 148.9(11)
Pb1 Bi1 O2 1_5565 5_4445 137.1(8) 128.0(11) 148.8(5)
Pb1 Bi1 O2 1_5565 5_4455 44.1(9) 31.3(5) 52.1(11)
Pb1 Bi1 O2 1_5565 5_4545 137.1(8) 128.0(11) 148.8(5)
Pb1 Bi1 O2 1_5565 5_4555 44.1(9) 31.3(5) 52.1(11)
Pb1 Bi1 O3 1_5565 5_4445 91.1(10) 74.6(9) 104.7(10)
Pb1 Bi1 O3 1_5565 5_4545 91.1(10) 74.6(9) 104.7(10)
Pb1 Bi1 O3 1_5565 5_5445 91.6(10) 77.4(10) 103.8(9)
Pb1 Bi1 O3 1_5565 5_5545 91.6(10) 77.4(10) 103.8(9)
Pb1 Bi1 Pb1 1_5655 1_6555 90.0(3) 90.0(2) 90.0(4)
Pb1 Bi1 Pb1 1_5655 5_4445 125.0(5) 124.9(4) 125.1(5)
Pb1 Bi1 Pb1 1_5655 5_4545 55.0(4) 54.9(4) 55.0(3)
Pb1 Bi1 Pb1 1_5655 5_5455 125.0(5) 124.9(4) 125.1(5)
Pb1 Bi1 Pb1 1_5655 5_5555 55.0(4) 54.9(4) 55.0(3)
Pb1 Bi1 Bi1 1_5655 1_4555 90.0(3) 90.0(2) 90.0(4)
Pb1 Bi1 Bi1 1_5655 1_5455 180.0(5) 180.0(5) 180.0(5)
Pb1 Bi1 Bi1 1_5655 1_5545 90.0(3) 90.0(4) 90.0(2)
Pb1 Bi1 Bi1 1_5655 1_5565 90.0(3) 90.0(4) 90.0(2)
Pb1 Bi1 Bi1 1_5655 1_5655 0.0(5) 0.0(5) 0.0(5)
Pb1 Bi1 Bi1 1_5655 1_6555 90.0(3) 90.0(2) 90.0(4)
Pb1 Bi1 Bi1 1_5655 5_4445 125.0(5) 124.9(4) 125.0(5)
Pb1 Bi1 Bi1 1_5655 5_4545 55.0(4) 54.9(4) 55.0(3)
Pb1 Bi1 Bi1 1_5655 5_5455 125.0(5) 124.9(4) 125.0(5)
Pb1 Bi1 Bi1 1_5655 5_5555 55.0(4) 54.9(4) 55.0(3)
Pb1 Bi1 O1 1_5655 1_5445 120.3(4) 119.9(5) 121.0(4)
Pb1 Bi1 O1 1_5655 1_5465 120.3(4) 119.9(5) 121.0(4)
Pb1 Bi1 O1 1_5655 1_5545 59.7(3) 58.9(3) 60.1(3)
Pb1 Bi1 O1 1_5655 1_5565 59.7(3) 58.9(3) 60.1(3)
Pb1 Bi1 O1 1_5655 5_4445 90.0(3) 90.0(3) 90.0(2)
Pb1 Bi1 O1 1_5655 5_4455 90.0(3) 90.0(2) 90.0(2)
Pb1 Bi1 O1 1_5655 5_5445 90.0(3) 90.0(2) 90.0(2)
Pb1 Bi1 O1 1_5655 5_5455 90.0(3) 90.0(3) 90.0(2)
Pb1 Bi1 O2 1_5655 1_4545 90.0(3) 90.0(2) 90.0(3)
Pb1 Bi1 O2 1_5655 1_5565 90.0(3) 90.0(2) 90.0(3)
Pb1 Bi1 O2 1_5655 5_4445 134.1(10) 121.2(7) 142.1(12)
Pb1 Bi1 O2 1_5655 5_4455 134.1(10) 121.2(7) 142.1(12)
Pb1 Bi1 O2 1_5655 5_4545 45.9(9) 37.9(11) 58.8(6)
Pb1 Bi1 O2 1_5655 5_4555 45.9(9) 37.9(11) 58.8(6)
Pb1 Bi1 O3 1_5655 5_4445 134.2(9) 133.0(11) 137.0(9)
Pb1 Bi1 O3 1_5655 5_4545 45.8(8) 43.0(8) 47.0(8)
Pb1 Bi1 O3 1_5655 5_5445 134.2(9) 133.0(11) 137.0(9)
Pb1 Bi1 O3 1_5655 5_5545 45.8(8) 43.0(8) 47.0(8)
Pb1 Bi1 Pb1 1_6555 5_4445 129.7(6) 129.3(6) 130.7(6)
Pb1 Bi1 Pb1 1_6555 5_4545 129.7(6) 129.3(6) 130.7(6)
Pb1 Bi1 Bi1 1_6555 1_4555 178.8(7) 177.5(7) 180.0(5)
Pb1 Bi1 Bi1 1_6555 1_5455 90.0(5) 90.0(5) 90.0(5)
Pb1 Bi1 Bi1 1_6555 1_5545 88.8(6) 86.5(7) 92.3(6)
Pb1 Bi1 Bi1 1_6555 1_5565 91.2(6) 89.2(5) 91.9(8)
Pb1 Bi1 Bi1 1_6555 1_5655 90.0(5) 90.0(5) 90.0(5)
Pb1 Bi1 Bi1 1_6555 1_6555 0.0(5) 0.0(5) 0.0(5)
Pb1 Bi1 Bi1 1_6555 5_4445 129.7(6) 129.3(6) 130.7(6)
Pb1 Bi1 Bi1 1_6555 5_4545 129.7(6) 129.3(6) 130.7(6)
Pb1 Bi1 O1 1_6555 1_5445 92.1(8) 91.2(8) 93.8(8)
Pb1 Bi1 O1 1_6555 1_5465 86.6(8) 86.6(8) 86.7(8)
Pb1 Bi1 O1 1_6555 1_5545 92.1(8) 91.2(8) 93.8(8)
Pb1 Bi1 O1 1_6555 1_5565 86.6(8) 86.6(8) 86.7(8)
Pb1 Bi1 O1 1_6555 5_4445 131.8(10) 119.3(9) 145.6(13)
Pb1 Bi1 O1 1_6555 5_4455 135.5(10) 118.1(8) 147.6(13)
Pb1 Bi1 O1 1_6555 5_5445 46.5(8) 34.2(10) 60.7(7)
Pb1 Bi1 O1 1_6555 5_5455 47.4(9) 36.5(11) 58.4(8)
Pb1 Bi1 O2 1_6555 1_4545 122.7(10) 121.1(11) 124.7(10)
Pb1 Bi1 O2 1_6555 5_4445 89.1(14) 87.3(12) 91.0(17)
Pb1 Bi1 O2 1_6555 5_4455 90.9(14) 89.4(11) 91.9(15)
Pb1 Bi1 O2 1_6555 5_4545 89.1(14) 87.3(12) 91.0(17)
Pb1 Bi1 O2 1_6555 5_4555 90.9(14) 89.4(11) 91.9(15)
Pb1 Bi1 O3 1_6555 5_4445 134.1(8) 131.4(9) 136.1(7)
Pb1 Bi1 O3 1_6555 5_4545 134.1(8) 131.4(9) 136.1(7)
Pb1 Bi1 O3 1_6555 5_5445 45.9(8) 43.8(7) 50.2(9)
Pb1 Bi1 O3 1_6555 5_5545 45.9(8) 43.8(7) 50.2(9)
Pb1 Bi1 Pb1 5_4445 5_4545 70.0(4) 69.9(4) 70.1(4)
Pb1 Bi1 Bi1 5_4445 1_5455 55.0(5) 54.9(5) 55.0(5)
Pb1 Bi1 Bi1 5_4445 1_5655 125.0(6) 125.0(5) 125.1(6)
Pb1 Bi1 Bi1 5_4445 1_6555 129.8(5) 129.3(5) 130.7(4)
Pb1 Bi1 Bi1 5_4445 5_4445 0.0(5) 0.0(5) 0.0(5)
Pb1 Bi1 Bi1 5_4445 5_4545 70.0(4) 69.9(4) 70.1(4)
Pb1 Bi1 O1 5_4445 1_5445 40.6(7) 40.3(7) 41.2(7)
Pb1 Bi1 O1 5_4445 1_5545 79.8(5) 79.5(5) 80.2(5)
Pb1 Bi1 O1 5_4445 5_4455 79.0(7) 77.8(8) 79.8(7)
Pb1 Bi1 O1 5_4445 5_5445 82.7(6) 82.2(6) 83.4(6)
Pb1 Bi1 O1 5_4445 5_5455 144.94(18) 144.8(2) 145.04(17)
Pb1 Bi1 O2 5_4445 1_4545 39.1(4) 38.9(4) 39.5(5)
Pb1 Bi1 O2 5_4445 5_4455 81.3(13) 80.6(13) 81.6(13)
Pb1 Bi1 O2 5_4445 5_4555 138.6(16) 137.4(16) 139.4(16)
Pb1 Bi1 O3 5_4445 5_5445 83.3(9) 83.0(9) 83.8(9)
Pb1 Bi1 O3 5_4445 5_5545 135.0(10) 134.5(10) 136.0(10)
Pb1 Bi1 Bi1 5_4545 1_5455 125.0(6) 125.0(5) 125.1(6)
Pb1 Bi1 Bi1 5_4545 1_5655 55.0(5) 54.9(5) 55.0(5)
Pb1 Bi1 Bi1 5_4545 1_6555 129.8(5) 129.3(5) 130.7(4)
Pb1 Bi1 Bi1 5_4545 5_4445 70.0(4) 69.9(4) 70.1(4)
Pb1 Bi1 Bi1 5_4545 5_4545 0.0(5) 0.0(5) 0.0(5)
Pb1 Bi1 O1 5_4545 1_5445 79.8(5) 79.5(5) 80.2(5)
Pb1 Bi1 O1 5_4545 1_5545 40.6(7) 40.3(7) 41.2(7)
Pb1 Bi1 O1 5_4545 5_4455 79.0(7) 77.8(8) 79.8(7)
Pb1 Bi1 O1 5_4545 5_5445 82.7(6) 82.2(6) 83.4(6)
Pb1 Bi1 O1 5_4545 5_5455 144.94(18) 144.8(2) 145.04(17)
Pb1 Bi1 O2 5_4545 1_4545 39.1(4) 38.9(4) 39.5(5)
Pb1 Bi1 O2 5_4545 5_4455 138.6(16) 137.4(16) 139.4(16)
Pb1 Bi1 O2 5_4545 5_4555 81.3(13) 80.6(13) 81.6(13)
Pb1 Bi1 O3 5_4545 5_5445 135.0(10) 134.5(10) 136.0(10)
Pb1 Bi1 O3 5_4545 5_5545 83.3(9) 83.0(9) 83.8(9)
Pb1 Bi1 Pb1 5_5455 5_5555 70.0(4) 69.9(4) 70.1(4)
Pb1 Bi1 Bi1 5_5455 1_4555 129.8(5) 129.3(5) 130.7(4)
Pb1 Bi1 Bi1 5_5455 1_5455 55.0(5) 54.9(5) 55.0(5)
Pb1 Bi1 Bi1 5_5455 1_5655 125.0(6) 125.0(5) 125.1(6)
Pb1 Bi1 Bi1 5_5455 5_5455 0.0(5) 0.0(5) 0.0(5)
Pb1 Bi1 Bi1 5_5455 5_5555 70.0(4) 69.9(4) 70.1(4)
Pb1 Bi1 O1 5_5455 1_5465 40.6(7) 40.3(7) 41.2(7)
Pb1 Bi1 O1 5_5455 1_5565 79.8(5) 79.5(5) 80.2(5)
Pb1 Bi1 O1 5_5455 5_4445 144.94(18) 144.8(2) 145.04(17)
Pb1 Bi1 O1 5_5455 5_4455 82.7(6) 82.2(6) 83.4(6)
Pb1 Bi1 O1 5_5455 5_5445 79.0(7) 77.8(8) 79.8(7)
Pb1 Bi1 O2 5_5455 1_5565 39.1(4) 38.9(4) 39.5(5)
Pb1 Bi1 O2 5_5455 5_4445 81.3(13) 80.6(13) 81.6(13)
Pb1 Bi1 O2 5_5455 5_4545 138.6(16) 137.4(16) 139.4(16)
Pb1 Bi1 O3 5_5455 5_4445 83.3(9) 83.0(9) 83.8(9)
Pb1 Bi1 O3 5_5455 5_4545 135.0(10) 134.5(10) 136.0(10)
Pb1 Bi1 Bi1 5_5555 1_4555 129.8(5) 129.3(5) 130.7(4)
Pb1 Bi1 Bi1 5_5555 1_5455 125.0(6) 125.0(5) 125.1(6)
Pb1 Bi1 Bi1 5_5555 1_5655 55.0(5) 54.9(5) 55.0(5)
Pb1 Bi1 Bi1 5_5555 5_5455 70.0(4) 69.9(4) 70.1(4)
Pb1 Bi1 Bi1 5_5555 5_5555 0.0(5) 0.0(5) 0.0(5)
Pb1 Bi1 O1 5_5555 1_5465 79.8(5) 79.5(5) 80.2(5)
Pb1 Bi1 O1 5_5555 1_5565 40.6(7) 40.3(7) 41.2(7)
Pb1 Bi1 O1 5_5555 5_4445 144.94(18) 144.8(2) 145.04(17)
Pb1 Bi1 O1 5_5555 5_4455 82.7(6) 82.2(6) 83.4(6)
Pb1 Bi1 O1 5_5555 5_5445 79.0(7) 77.8(8) 79.8(7)
Pb1 Bi1 O2 5_5555 1_5565 39.1(4) 38.9(4) 39.5(5)
Pb1 Bi1 O2 5_5555 5_4445 138.6(16) 137.4(16) 139.4(16)
Pb1 Bi1 O2 5_5555 5_4545 81.3(13) 80.6(13) 81.6(13)
Pb1 Bi1 O3 5_5555 5_4445 135.0(10) 134.5(10) 136.0(10)
Pb1 Bi1 O3 5_5555 5_4545 83.3(9) 83.0(9) 83.8(9)
Bi1 Bi1 Bi1 1_4555 1_5455 90.0(5) 90.0(5) 90.0(5)
Bi1 Bi1 Bi1 1_4555 1_5545 91.2(6) 89.2(5) 91.9(8)
Bi1 Bi1 Bi1 1_4555 1_5565 88.8(6) 86.5(7) 92.3(6)
Bi1 Bi1 Bi1 1_4555 1_5655 90.0(5) 90.0(5) 90.0(5)
Bi1 Bi1 Bi1 1_4555 1_6555 178.8(7) 177.5(7) 180.0(5)
Bi1 Bi1 Bi1 1_4555 5_5455 129.7(6) 129.3(6) 130.7(6)
Bi1 Bi1 Bi1 1_4555 5_5555 129.7(6) 129.3(6) 130.7(6)
Bi1 Bi1 O1 1_4555 1_5445 86.6(8) 86.6(8) 86.7(8)
Bi1 Bi1 O1 1_4555 1_5465 92.1(8) 91.2(8) 93.8(8)
Bi1 Bi1 O1 1_4555 1_5545 86.6(8) 86.6(8) 86.7(8)
Bi1 Bi1 O1 1_4555 1_5565 92.1(8) 91.2(8) 93.8(8)
Bi1 Bi1 O1 1_4555 5_4445 47.4(9) 36.5(11) 58.4(8)
Bi1 Bi1 O1 1_4555 5_4455 46.5(8) 34.2(10) 60.7(7)
Bi1 Bi1 O1 1_4555 5_5445 135.5(10) 118.1(8) 147.6(13)
Bi1 Bi1 O1 1_4555 5_5455 131.8(10) 119.4(9) 145.6(13)
Bi1 Bi1 O2 1_4555 1_5565 122.7(10) 121.1(11) 124.7(10)
Bi1 Bi1 O2 1_4555 5_4445 90.9(14) 89.4(11) 91.9(15)
Bi1 Bi1 O2 1_4555 5_4455 89.1(14) 87.3(12) 91.0(17)
Bi1 Bi1 O2 1_4555 5_4545 90.9(14) 89.4(11) 91.9(15)
Bi1 Bi1 O2 1_4555 5_4555 89.1(14) 87.3(12) 91.0(17)
Bi1 Bi1 O3 1_4555 5_4445 45.9(8) 43.8(7) 50.2(9)
Bi1 Bi1 O3 1_4555 5_4545 45.9(8) 43.8(7) 50.2(9)
Bi1 Bi1 O3 1_4555 5_5445 134.1(8) 131.4(9) 136.1(7)
Bi1 Bi1 O3 1_4555 5_5545 134.1(8) 131.4(9) 136.1(7)
Bi1 Bi1 Bi1 1_5455 1_5545 90.0(3) 90.0(4) 90.0(4)
Bi1 Bi1 Bi1 1_5455 1_5565 90.0(3) 90.0(2) 90.0(2)
Bi1 Bi1 Bi1 1_5455 1_5655 180.0(5) 180.0(5) 180.0(5)
Bi1 Bi1 Bi1 1_5455 1_6555 90.0(3) 90.0(2) 90.0(2)
Bi1 Bi1 Bi1 1_5455 5_4445 55.0(4) 55.0(4) 55.0(3)
Bi1 Bi1 Bi1 1_5455 5_4545 125.0(5) 125.0(4) 125.0(5)
Bi1 Bi1 Bi1 1_5455 5_5455 55.0(4) 55.0(4) 55.0(3)
Bi1 Bi1 Bi1 1_5455 5_5555 125.0(5) 125.0(4) 125.0(5)
Bi1 Bi1 O1 1_5455 1_5445 59.7(3) 59.0(3) 60.1(3)
Bi1 Bi1 O1 1_5455 1_5465 59.7(3) 59.0(3) 60.1(3)
Bi1 Bi1 O1 1_5455 1_5545 120.3(4) 119.9(5) 121.0(4)
Bi1 Bi1 O1 1_5455 1_5565 120.3(4) 119.9(5) 121.0(4)
Bi1 Bi1 O1 1_5455 5_4445 90.0(3) 90.0(3) 90.0(3)
Bi1 Bi1 O1 1_5455 5_4455 90.0(3) 90.0(2) 90.0(2)
Bi1 Bi1 O1 1_5455 5_5445 90.0(3) 90.0(2) 90.0(2)
Bi1 Bi1 O1 1_5455 5_5455 90.0(3) 90.0(2) 90.0(2)
Bi1 Bi1 O2 1_5455 1_4545 90.0(3) 90.0(2) 90.0(2)
Bi1 Bi1 O2 1_5455 1_5565 90.0(3) 90.0(3) 90.0(3)
Bi1 Bi1 O2 1_5455 5_4445 45.9(9) 37.9(11) 58.8(6)
Bi1 Bi1 O2 1_5455 5_4455 45.9(9) 37.9(11) 58.8(6)
Bi1 Bi1 O2 1_5455 5_4545 134.1(10) 121.2(7) 142.1(12)
Bi1 Bi1 O2 1_5455 5_4555 134.1(10) 121.2(7) 142.1(12)
Bi1 Bi1 O3 1_5455 5_4445 45.8(8) 43.0(8) 47.0(8)
Bi1 Bi1 O3 1_5455 5_4545 134.2(9) 133.0(11) 137.0(9)
Bi1 Bi1 O3 1_5455 5_5445 45.8(8) 43.0(8) 47.0(8)
Bi1 Bi1 O3 1_5455 5_5545 134.2(9) 133.0(11) 137.0(9)
Bi1 Bi1 Bi1 1_5545 1_5565 178.3(7) 177.1(8) 180.0(5)
Bi1 Bi1 Bi1 1_5545 1_5655 90.0(5) 90.0(5) 90.0(5)
Bi1 Bi1 Bi1 1_5545 1_6555 88.8(6) 86.5(7) 92.3(7)
Bi1 Bi1 Bi1 1_5545 5_5455 121.1(6) 120.4(6) 121.5(6)
Bi1 Bi1 Bi1 1_5545 5_5555 121.1(6) 120.4(6) 121.5(6)
Bi1 Bi1 O1 1_5545 1_5465 149.6(3) 148.8(3) 150.0(3)
Bi1 Bi1 O1 1_5545 1_5565 149.6(3) 148.8(3) 150.0(3)
Bi1 Bi1 O1 1_5545 5_4445 44.3(9) 32.9(7) 54.3(11)
Bi1 Bi1 O1 1_5545 5_4455 138.2(10) 125.9(12) 150.0(8)
Bi1 Bi1 O1 1_5545 5_5445 45.1(9) 28.1(7) 56.8(10)
Bi1 Bi1 O1 1_5545 5_5455 137.5(10) 123.0(12) 150.4(9)
Bi1 Bi1 O2 1_5545 1_5565 147.7(11) 146.1(10) 148.9(11)
Bi1 Bi1 O2 1_5545 5_4445 44.1(9) 31.2(5) 52.1(11)
Bi1 Bi1 O2 1_5545 5_4455 137.1(8) 128.0(11) 148.8(5)
Bi1 Bi1 O2 1_5545 5_4545 44.1(9) 31.2(5) 52.1(11)
Bi1 Bi1 O2 1_5545 5_4555 137.1(8) 128.0(11) 148.8(5)
Bi1 Bi1 O3 1_5545 5_4445 91.6(10) 77.4(10) 103.8(9)
Bi1 Bi1 O3 1_5545 5_4545 91.6(10) 77.4(10) 103.8(9)
Bi1 Bi1 O3 1_5545 5_5445 91.1(10) 74.6(9) 104.7(10)
Bi1 Bi1 O3 1_5545 5_5545 91.1(10) 74.6(9) 104.7(10)
Bi1 Bi1 Bi1 1_5565 1_5655 90.0(5) 90.0(5) 90.0(5)
Bi1 Bi1 Bi1 1_5565 1_6555 91.2(6) 89.2(6) 91.9(7)
Bi1 Bi1 Bi1 1_5565 5_4445 121.1(6) 120.4(6) 121.5(6)
Bi1 Bi1 Bi1 1_5565 5_4545 121.1(6) 120.4(6) 121.5(6)
Bi1 Bi1 O1 1_5565 1_5445 149.6(3) 148.8(3) 150.0(3)
Bi1 Bi1 O1 1_5565 1_5545 149.6(3) 148.8(3) 150.0(3)
Bi1 Bi1 O1 1_5565 5_4445 137.5(10) 123.0(12) 150.4(9)
Bi1 Bi1 O1 1_5565 5_4455 45.1(9) 28.1(7) 56.8(10)
Bi1 Bi1 O1 1_5565 5_5445 138.2(10) 125.9(12) 150.0(8)
Bi1 Bi1 O1 1_5565 5_5455 44.3(9) 32.9(7) 54.3(11)
Bi1 Bi1 O2 1_5565 1_4545 147.7(11) 146.1(10) 148.9(11)
Bi1 Bi1 O2 1_5565 5_4445 137.1(8) 128.0(11) 148.8(5)
Bi1 Bi1 O2 1_5565 5_4455 44.1(9) 31.3(5) 52.1(11)
Bi1 Bi1 O2 1_5565 5_4545 137.1(8) 128.0(11) 148.8(5)
Bi1 Bi1 O2 1_5565 5_4555 44.1(9) 31.3(5) 52.1(11)
Bi1 Bi1 O3 1_5565 5_4445 91.1(10) 74.6(9) 104.7(10)
Bi1 Bi1 O3 1_5565 5_4545 91.1(10) 74.6(9) 104.7(10)
Bi1 Bi1 O3 1_5565 5_5445 91.6(10) 77.4(10) 103.8(9)
Bi1 Bi1 O3 1_5565 5_5545 91.6(10) 77.4(10) 103.8(9)
Bi1 Bi1 Bi1 1_5655 1_6555 90.0(3) 90.0(2) 90.0(2)
Bi1 Bi1 Bi1 1_5655 5_4445 125.0(5) 125.0(4) 125.0(5)
Bi1 Bi1 Bi1 1_5655 5_4545 55.0(4) 55.0(4) 55.0(3)
Bi1 Bi1 Bi1 1_5655 5_5455 125.0(5) 125.0(4) 125.0(5)
Bi1 Bi1 Bi1 1_5655 5_5555 55.0(4) 55.0(4) 55.0(3)
Bi1 Bi1 O1 1_5655 1_5445 120.3(4) 119.9(5) 121.0(4)
Bi1 Bi1 O1 1_5655 1_5465 120.3(4) 119.9(5) 121.0(4)
Bi1 Bi1 O1 1_5655 1_5545 59.7(3) 59.0(3) 60.1(3)
Bi1 Bi1 O1 1_5655 1_5565 59.7(3) 59.0(3) 60.1(3)
Bi1 Bi1 O1 1_5655 5_4445 90.0(3) 90.0(3) 90.0(3)
Bi1 Bi1 O1 1_5655 5_4455 90.0(3) 90.0(2) 90.0(2)
Bi1 Bi1 O1 1_5655 5_5445 90.0(3) 90.0(2) 90.0(2)
Bi1 Bi1 O1 1_5655 5_5455 90.0(3) 90.0(2) 90.0(2)
Bi1 Bi1 O2 1_5655 1_4545 90.0(3) 90.0(2) 90.0(2)
Bi1 Bi1 O2 1_5655 1_5565 90.0(3) 90.0(3) 90.0(3)
Bi1 Bi1 O2 1_5655 5_4445 134.1(10) 121.2(7) 142.1(12)
Bi1 Bi1 O2 1_5655 5_4455 134.1(10) 121.2(7) 142.1(12)
Bi1 Bi1 O2 1_5655 5_4545 45.9(9) 37.9(11) 58.8(6)
Bi1 Bi1 O2 1_5655 5_4555 45.9(9) 37.9(11) 58.8(6)
Bi1 Bi1 O3 1_5655 5_4445 134.2(9) 133.0(11) 137.0(9)
Bi1 Bi1 O3 1_5655 5_4545 45.8(8) 43.0(8) 47.0(8)
Bi1 Bi1 O3 1_5655 5_5445 134.2(9) 133.0(11) 137.0(9)
Bi1 Bi1 O3 1_5655 5_5545 45.8(8) 43.0(8) 47.0(8)
Bi1 Bi1 Bi1 1_6555 5_4445 129.7(6) 129.3(6) 130.7(6)
Bi1 Bi1 Bi1 1_6555 5_4545 129.7(6) 129.3(6) 130.7(6)
Bi1 Bi1 O1 1_6555 1_5445 92.1(8) 91.2(8) 93.8(8)
Bi1 Bi1 O1 1_6555 1_5465 86.6(8) 86.6(8) 86.7(8)
Bi1 Bi1 O1 1_6555 1_5545 92.1(8) 91.2(8) 93.8(8)
Bi1 Bi1 O1 1_6555 1_5565 86.6(8) 86.6(8) 86.7(8)
Bi1 Bi1 O1 1_6555 5_4445 131.8(10) 119.4(9) 145.6(13)
Bi1 Bi1 O1 1_6555 5_4455 135.5(10) 118.1(8) 147.6(13)
Bi1 Bi1 O1 1_6555 5_5445 46.5(8) 34.2(10) 60.7(7)
Bi1 Bi1 O1 1_6555 5_5455 47.4(9) 36.5(11) 58.4(8)
Bi1 Bi1 O2 1_6555 1_4545 122.7(10) 121.1(11) 124.7(10)
Bi1 Bi1 O2 1_6555 5_4445 89.1(14) 87.3(12) 91.0(17)
Bi1 Bi1 O2 1_6555 5_4455 90.9(14) 89.4(11) 91.9(15)
Bi1 Bi1 O2 1_6555 5_4545 89.1(14) 87.3(12) 91.0(17)
Bi1 Bi1 O2 1_6555 5_4555 90.9(14) 89.4(11) 91.9(15)
Bi1 Bi1 O3 1_6555 5_4445 134.1(8) 131.4(9) 136.1(7)
Bi1 Bi1 O3 1_6555 5_4545 134.1(8) 131.4(9) 136.1(7)
Bi1 Bi1 O3 1_6555 5_5445 45.9(8) 43.8(7) 50.2(9)
Bi1 Bi1 O3 1_6555 5_5545 45.9(8) 43.8(7) 50.2(9)
Bi1 Bi1 Bi1 5_4445 5_4545 70.0(4) 69.9(4) 70.1(4)
Bi1 Bi1 O1 5_4445 1_5445 40.6(7) 40.3(7) 41.2(7)
Bi1 Bi1 O1 5_4445 1_5545 79.7(5) 79.5(5) 80.2(5)
Bi1 Bi1 O1 5_4445 5_4455 79.0(7) 77.8(8) 79.9(7)
Bi1 Bi1 O1 5_4445 5_5445 82.6(6) 82.2(6) 83.4(6)
Bi1 Bi1 O1 5_4445 5_5455 144.95(18) 144.8(2) 145.04(17)
Bi1 Bi1 O2 5_4445 1_4545 39.1(4) 38.8(4) 39.5(5)
Bi1 Bi1 O2 5_4445 5_4455 81.3(13) 80.6(13) 81.6(13)
Bi1 Bi1 O2 5_4445 5_4555 138.6(16) 137.4(16) 139.4(16)
Bi1 Bi1 O3 5_4445 5_5445 83.3(9) 83.0(9) 83.7(9)
Bi1 Bi1 O3 5_4445 5_5545 135.0(10) 134.5(10) 136.0(10)
Bi1 Bi1 O1 5_4545 1_5445 79.7(5) 79.5(5) 80.2(5)
Bi1 Bi1 O1 5_4545 1_5545 40.6(7) 40.3(7) 41.2(7)
Bi1 Bi1 O1 5_4545 5_4455 79.0(7) 77.8(8) 79.9(7)
Bi1 Bi1 O1 5_4545 5_5445 82.6(6) 82.2(6) 83.4(6)
Bi1 Bi1 O1 5_4545 5_5455 144.95(18) 144.8(2) 145.04(17)
Bi1 Bi1 O2 5_4545 1_4545 39.1(4) 38.8(4) 39.5(5)
Bi1 Bi1 O2 5_4545 5_4455 138.6(16) 137.4(16) 139.4(16)
Bi1 Bi1 O2 5_4545 5_4555 81.3(13) 80.6(13) 81.6(13)
Bi1 Bi1 O3 5_4545 5_5445 135.0(10) 134.5(10) 136.0(10)
Bi1 Bi1 O3 5_4545 5_5545 83.3(9) 83.0(9) 83.7(9)
Bi1 Bi1 Bi1 5_5455 5_5555 70.0(4) 69.9(4) 70.1(4)
Bi1 Bi1 O1 5_5455 1_5465 40.6(7) 40.3(7) 41.2(7)
Bi1 Bi1 O1 5_5455 1_5565 79.7(5) 79.5(5) 80.2(5)
Bi1 Bi1 O1 5_5455 5_4445 144.95(18) 144.8(2) 145.04(17)
Bi1 Bi1 O1 5_5455 5_4455 82.6(6) 82.2(6) 83.4(6)
Bi1 Bi1 O1 5_5455 5_5445 79.0(7) 77.8(8) 79.9(7)
Bi1 Bi1 O2 5_5455 1_5565 39.1(4) 38.8(4) 39.5(5)
Bi1 Bi1 O2 5_5455 5_4445 81.3(13) 80.6(13) 81.6(13)
Bi1 Bi1 O2 5_5455 5_4545 138.6(16) 137.4(16) 139.4(16)
Bi1 Bi1 O3 5_5455 5_4445 83.3(9) 83.0(9) 83.7(9)
Bi1 Bi1 O3 5_5455 5_4545 135.0(10) 134.5(10) 136.0(10)
Bi1 Bi1 O1 5_5555 1_5465 79.7(5) 79.5(5) 80.2(5)
Bi1 Bi1 O1 5_5555 1_5565 40.6(7) 40.3(7) 41.2(7)
Bi1 Bi1 O1 5_5555 5_4445 144.95(18) 144.8(2) 145.04(17)
Bi1 Bi1 O1 5_5555 5_4455 82.6(6) 82.2(6) 83.4(6)
Bi1 Bi1 O1 5_5555 5_5445 79.0(7) 77.8(8) 79.9(7)
Bi1 Bi1 O2 5_5555 1_5565 39.1(4) 38.8(4) 39.5(5)
Bi1 Bi1 O2 5_5555 5_4445 138.6(16) 137.4(16) 139.4(16)
Bi1 Bi1 O2 5_5555 5_4545 81.3(13) 80.6(13) 81.6(13)
Bi1 Bi1 O3 5_5555 5_4445 135.0(10) 134.5(10) 136.0(10)
Bi1 Bi1 O3 5_5555 5_4545 83.3(9) 83.0(9) 83.7(9)
O1 Bi1 O1 1_5445 1_5545 60.6(3) 59.9(3) 62.1(3)
O1 Bi1 O1 1_5445 5_4445 40.1(5) 40.1(5) 40.1(5)
O1 Bi1 O1 1_5445 5_4455 119.1(8) 117.6(9) 120.1(8)
O1 Bi1 O1 1_5445 5_5445 43.2(5) 42.6(5) 44.5(5)
O1 Bi1 O1 1_5445 5_5455 124.6(9) 122.6(10) 127.8(9)
O1 Bi1 O2 1_5445 1_4545 41.6(7) 41.0(7) 42.3(7)
O1 Bi1 O2 1_5445 5_4455 97.7(11) 97.1(11) 97.9(11)
O1 Bi1 O2 1_5445 5_4555 158.1(11) 157.8(11) 158.8(11)
O1 Bi1 O3 1_5445 5_4445 54.6(9) 54.4(9) 54.8(9)
O1 Bi1 O3 1_5445 5_4545 96.1(9) 96.0(9) 96.1(9)
O1 Bi1 O3 1_5445 5_5445 57.3(9) 57.0(9) 57.8(9)
O1 Bi1 O3 1_5445 5_5545 100.3(9) 99.2(9) 102.5(9)
O1 Bi1 O1 1_5465 1_5565 60.6(3) 59.9(3) 62.1(3)
O1 Bi1 O1 1_5465 5_4445 124.6(9) 122.6(10) 127.8(9)
O1 Bi1 O1 1_5465 5_4455 43.2(5) 42.6(5) 44.5(5)
O1 Bi1 O1 1_5465 5_5445 119.1(8) 117.6(9) 120.1(8)
O1 Bi1 O1 1_5465 5_5455 40.1(5) 40.1(5) 40.1(5)
O1 Bi1 O2 1_5465 1_5565 41.6(7) 41.0(7) 42.3(7)
O1 Bi1 O2 1_5465 5_4445 97.7(11) 97.1(11) 97.9(11)
O1 Bi1 O2 1_5465 5_4545 158.1(11) 157.8(11) 158.8(11)
O1 Bi1 O3 1_5465 5_4445 57.3(9) 57.0(9) 57.8(9)
O1 Bi1 O3 1_5465 5_4545 100.3(9) 99.2(9) 102.5(9)
O1 Bi1 O3 1_5465 5_5445 54.6(9) 54.4(9) 54.8(9)
O1 Bi1 O3 1_5465 5_5545 96.1(9) 96.0(9) 96.1(9)
O1 Bi1 O1 1_5545 5_4445 40.1(5) 40.1(5) 40.1(5)
O1 Bi1 O1 1_5545 5_4455 119.1(8) 117.6(9) 120.1(8)
O1 Bi1 O1 1_5545 5_5445 43.2(5) 42.6(5) 44.5(5)
O1 Bi1 O1 1_5545 5_5455 124.6(9) 122.6(10) 127.8(9)
O1 Bi1 O2 1_5545 1_4545 41.6(7) 41.0(7) 42.3(7)
O1 Bi1 O2 1_5545 5_4455 158.1(11) 157.8(11) 158.8(11)
O1 Bi1 O2 1_5545 5_4555 97.7(11) 97.1(11) 97.9(11)
O1 Bi1 O3 1_5545 5_4445 96.1(9) 96.0(9) 96.1(9)
O1 Bi1 O3 1_5545 5_4545 54.6(9) 54.4(9) 54.8(9)
O1 Bi1 O3 1_5545 5_5445 100.3(9) 99.2(9) 102.5(9)
O1 Bi1 O3 1_5545 5_5545 57.3(9) 57.0(9) 57.8(9)
O1 Bi1 O1 1_5565 5_4445 124.6(9) 122.6(10) 127.8(9)
O1 Bi1 O1 1_5565 5_4455 43.2(5) 42.6(5) 44.5(5)
O1 Bi1 O1 1_5565 5_5445 119.1(8) 117.6(9) 120.1(8)
O1 Bi1 O1 1_5565 5_5455 40.1(5) 40.1(5) 40.1(5)
O1 Bi1 O2 1_5565 1_5565 41.6(7) 41.0(7) 42.3(7)
O1 Bi1 O2 1_5565 5_4445 158.1(11) 157.8(11) 158.8(11)
O1 Bi1 O2 1_5565 5_4545 97.7(11) 97.1(11) 97.9(11)
O1 Bi1 O3 1_5565 5_4445 100.3(9) 99.2(9) 102.5(9)
O1 Bi1 O3 1_5565 5_4545 57.3(9) 57.0(9) 57.8(9)
O1 Bi1 O3 1_5565 5_5445 96.1(9) 96.0(9) 96.1(9)
O1 Bi1 O3 1_5565 5_5545 54.6(9) 54.4(9) 54.8(9)
O1 Bi1 O1 5_4445 5_4455 93.9(10) 92.0(12) 102.0(9)
O1 Bi1 O1 5_4445 5_5445 88.1(10) 59.9(7) 111.0(15)
O1 Bi1 O1 5_4445 5_5455 163.8(11) 156.0(13) 180.0(5)
O1 Bi1 O2 5_4445 1_5565 162.3(13) 159.2(14) 165.9(12)
O1 Bi1 O2 5_4445 5_4445 58.8(13) 42.8(8) 68.9(15)
O1 Bi1 O2 5_4445 5_4455 121.2(13) 117.8(13) 123.4(13)
O1 Bi1 O2 5_4445 5_4545 58.8(13) 42.8(8) 68.9(15)
O1 Bi1 O2 5_4445 5_4555 121.2(13) 117.8(13) 123.4(13)
O1 Bi1 O3 5_4445 5_4445 61.2(9) 56.1(8) 71.0(10)
O1 Bi1 O3 5_4445 5_4545 61.2(9) 56.1(8) 71.0(10)
O1 Bi1 O3 5_4445 5_5445 117.9(9) 97.1(10) 134.3(8)
O1 Bi1 O3 5_4445 5_5545 117.9(9) 97.1(10) 134.3(8)
O1 Bi1 O1 5_4455 5_5445 162.2(11) 154.7(12) 180.0(5)
O1 Bi1 O1 5_4455 5_5455 88.1(10) 59.9(8) 111.0(15)
O1 Bi1 O2 5_4455 1_4545 95.2(11) 94.6(11) 95.6(10)
O1 Bi1 O2 5_4455 1_5565 62.4(10) 61.3(10) 64.0(10)
O1 Bi1 O2 5_4455 5_4445 121.1(13) 118.7(14) 123.9(13)
O1 Bi1 O2 5_4455 5_4455 59.1(13) 42.2(9) 70.3(16)
O1 Bi1 O2 5_4455 5_4545 121.1(13) 118.7(14) 123.9(13)
O1 Bi1 O2 5_4455 5_4555 59.1(13) 42.2(9) 70.3(16)
O1 Bi1 O3 5_4455 5_4445 60.4(9) 56.5(9) 65.3(10)
O1 Bi1 O3 5_4455 5_4545 60.4(9) 56.5(9) 65.3(10)
O1 Bi1 O3 5_4455 5_5445 118.9(9) 97.4(10) 134.5(8)
O1 Bi1 O3 5_4455 5_5545 118.9(9) 97.4(10) 134.5(8)
O1 Bi1 O1 5_5445 5_5455 93.9(10) 92.0(12) 102.0(11)
O1 Bi1 O2 5_5445 1_4545 62.4(10) 61.3(10) 64.0(10)
O1 Bi1 O2 5_5445 1_5565 95.2(11) 94.6(11) 95.6(10)
O1 Bi1 O2 5_5445 5_4445 59.1(13) 42.2(9) 70.3(16)
O1 Bi1 O2 5_5445 5_4455 121.1(13) 118.7(14) 123.9(13)
O1 Bi1 O2 5_5445 5_4545 59.1(13) 42.2(9) 70.3(16)
O1 Bi1 O2 5_5445 5_4555 121.1(13) 118.7(14) 123.9(13)
O1 Bi1 O3 5_5445 5_4445 118.9(9) 97.4(10) 134.5(8)
O1 Bi1 O3 5_5445 5_4545 118.9(9) 97.4(10) 134.5(8)
O1 Bi1 O3 5_5445 5_5445 60.4(9) 56.5(9) 65.3(10)
O1 Bi1 O3 5_5445 5_5545 60.4(9) 56.5(9) 65.3(10)
O1 Bi1 O2 5_5455 1_4545 162.3(13) 159.2(14) 165.9(12)
O1 Bi1 O2 5_5455 5_4445 121.2(13) 117.8(13) 123.4(13)
O1 Bi1 O2 5_5455 5_4455 58.8(13) 42.8(8) 68.9(15)
O1 Bi1 O2 5_5455 5_4545 121.2(13) 117.8(13) 123.4(13)
O1 Bi1 O2 5_5455 5_4555 58.8(13) 42.8(8) 68.9(15)
O1 Bi1 O3 5_5455 5_4445 117.9(9) 97.1(10) 134.3(8)
O1 Bi1 O3 5_5455 5_4545 117.9(9) 97.1(10) 134.3(8)
O1 Bi1 O3 5_5455 5_5445 61.2(9) 56.1(8) 71.0(10)
O1 Bi1 O3 5_5455 5_5545 61.2(9) 56.1(8) 71.0(10)
O2 Bi1 O2 1_4545 5_4455 120.3(13) 119.4(13) 121.1(13)
O2 Bi1 O2 1_4545 5_4555 120.3(13) 119.4(13) 121.1(13)
O2 Bi1 O3 1_4545 5_5445 98.7(10) 98.0(10) 99.8(10)
O2 Bi1 O3 1_4545 5_5545 98.7(10) 98.0(10) 99.8(10)
O2 Bi1 O2 1_5565 5_4445 120.3(13) 119.4(13) 121.1(13)
O2 Bi1 O2 1_5565 5_4545 120.3(13) 119.4(13) 121.1(13)
O2 Bi1 O3 1_5565 5_4445 98.7(10) 98.0(10) 99.8(10)
O2 Bi1 O3 1_5565 5_4545 98.7(10) 98.0(10) 99.8(10)
O2 Bi1 O2 5_4445 5_4455 94.3(10) 93.1(8) 96.8(10)
O2 Bi1 O2 5_4445 5_4545 88.2(11) 62.4(6) 104.2(14)
O2 Bi1 O2 5_4445 5_4555 168.3(11) 159.2(12) 180.0(5)
O2 Bi1 O3 5_4445 5_4445 61.6(11) 55.6(11) 66.5(12)
O2 Bi1 O3 5_4445 5_4545 119.9(12) 98.7(10) 137.8(12)
O2 Bi1 O3 5_4445 5_5445 61.7(11) 55.4(11) 67.2(14)
O2 Bi1 O3 5_4445 5_5545 119.1(13) 98.6(10) 134.4(19)
O2 Bi1 O2 5_4455 5_4545 168.3(11) 159.2(11) 180.0(5)
O2 Bi1 O2 5_4455 5_4555 88.2(11) 62.4(6) 104.2(14)
O2 Bi1 O3 5_4455 5_4445 61.7(11) 55.4(11) 67.2(14)
O2 Bi1 O3 5_4455 5_4545 119.1(13) 98.6(10) 134.4(19)
O2 Bi1 O3 5_4455 5_5445 61.6(11) 55.6(11) 66.5(12)
O2 Bi1 O3 5_4455 5_5545 119.9(12) 98.7(10) 137.8(12)
O2 Bi1 O2 5_4545 5_4555 94.3(10) 93.1(8) 96.8(10)
O2 Bi1 O3 5_4545 5_4445 119.9(12) 98.7(10) 137.8(12)
O2 Bi1 O3 5_4545 5_4545 61.6(11) 55.6(11) 66.5(12)
O2 Bi1 O3 5_4545 5_5445 119.1(13) 98.6(10) 134.4(19)
O2 Bi1 O3 5_4545 5_5545 61.7(11) 55.4(11) 67.2(14)
O2 Bi1 O3 5_4555 5_4445 119.1(13) 98.6(10) 134.4(19)
O2 Bi1 O3 5_4555 5_4545 61.7(11) 55.4(11) 67.2(14)
O2 Bi1 O3 5_4555 5_5445 119.9(12) 98.7(10) 137.8(12)
O2 Bi1 O3 5_4555 5_5545 61.6(11) 55.6(11) 66.5(12)
O3 Bi1 O3 5_4445 5_4545 88.3(10) 85.9(11) 94.0(9)
O3 Bi1 O3 5_4445 5_5445 88.6(9) 85.4(9) 91.1(7)
O3 Bi1 O3 5_4445 5_5545 161.9(12) 151.6(12) 180.0(5)
O3 Bi1 O3 5_4545 5_5445 161.9(12) 151.6(12) 180.0(5)
O3 Bi1 O3 5_4545 5_5545 88.6(9) 85.4(9) 91.1(7)
O3 Bi1 O3 5_5445 5_5545 88.3(10) 85.9(11) 94.0(9)
Fe1 O1 Fe1 . 1_5655 155.7(10) 144.4(8) 180.0(5)
Fe1 O1 Fe1 . 5_4545 95.6(5) 92.7(4) 97.4(7)
Fe1 O1 Fe1 . 5_4555 99.4(5) 98.3(5) 100.6(4)
Fe1 O1 Fe1 . 5_5545 99.4(5) 98.3(5) 100.6(4)
Fe1 O1 Fe1 . 5_5555 95.6(5) 92.7(4) 97.4(7)
Fe1 O1 Pb1 . 1_5545 77.2(4) 76.6(5) 77.6(3)
Fe1 O1 Pb1 . 1_5565 77.2(4) 76.6(5) 77.6(3)
Fe1 O1 Pb1 . 1_5645 137.7(5) 136.7(4) 138.6(6)
Fe1 O1 Pb1 . 1_5665 137.7(5) 136.7(4) 138.6(6)
Fe1 O1 Pb1 . 5_4545 87.5(6) 75.0(6) 102.6(8)
Fe1 O1 Pb1 . 5_4555 87.5(6) 73.3(3) 101.4(5)
Fe1 O1 Pb1 . 5_5545 87.5(6) 73.3(3) 101.4(5)
Fe1 O1 Pb1 . 5_5555 87.5(6) 75.0(6) 102.6(8)
Fe1 O1 Bi1 . 1_5545 77.2(4) 76.6(5) 77.6(3)
Fe1 O1 Bi1 . 1_5565 77.2(4) 76.6(5) 77.6(3)
Fe1 O1 Bi1 . 1_5645 137.7(5) 136.7(4) 138.6(6)
Fe1 O1 Bi1 . 1_5665 137.7(5) 136.7(4) 138.6(6)
Fe1 O1 Bi1 . 5_4545 87.5(6) 75.0(6) 102.6(8)
Fe1 O1 Bi1 . 5_4555 87.8(6) 73.3(3) 102.3(5)
Fe1 O1 Bi1 . 5_5545 87.8(6) 73.3(3) 102.3(5)
Fe1 O1 Bi1 . 5_5555 87.5(6) 75.0(6) 102.6(8)
Fe1 O1 O1 . 1_4555 90.2(7) 87.6(12) 93.8(4)
Fe1 O1 O1 . 1_5455 12.1(6) 0.0(5) 17.8(5)
Fe1 O1 O1 . 1_5655 167.9(8) 162.2(7) 180.0(5)
Fe1 O1 O1 . 1_6555 90.2(7) 87.6(12) 93.8(4)
Fe1 O1 O1 . 5_4445 48.2(7) 45.9(7) 50.4(7)
Fe1 O1 O1 . 5_4455 48.8(8) 47.7(8) 49.8(8)
Fe1 O1 O1 . 5_4545 132.5(10) 129.8(9) 133.9(12)
Fe1 O1 O1 . 5_4555 140.2(10) 139.2(10) 141.3(9)
Fe1 O1 O1 . 5_5445 48.8(8) 47.7(8) 49.8(8)
Fe1 O1 O1 . 5_5455 48.2(7) 45.9(7) 50.4(7)
Fe1 O1 O1 . 5_5545 140.2(10) 139.2(10) 141.3(9)
Fe1 O1 O1 . 5_5555 132.5(10) 129.8(9) 133.9(12)
Fe1 O1 O2 . 1_4555 45.8(11) 44.3(12) 48.4(11)
Fe1 O1 O2 . 1_4655 132.9(15) 128.0(19) 135.8(14)
Fe1 O1 O2 . . 45.8(11) 44.3(12) 48.4(11)
Fe1 O1 O2 . 1_5655 132.9(15) 128.0(19) 135.8(14)
Fe1 O1 O2 . 5_3545 88.1(5) 87.1(5) 89.1(5)
Fe1 O1 O2 . 5_5555 88.1(5) 87.1(5) 89.1(5)
Fe1 O1 O3 . 1_5545 45.9(7) 34.1(6) 65.1(7)
Fe1 O1 O3 . . 45.9(7) 34.1(6) 65.1(7)
Fe1 O1 O3 . 1_5645 129.3(9) 110.4(7) 149.7(11)
Fe1 O1 O3 . 1_5655 129.3(9) 110.4(7) 149.7(11)
Fe1 O1 O3 . 5_4535 103.3(5) 101.0(4) 104.8(6)
Fe1 O1 O3 . 5_4555 106.0(4) 105.5(4) 106.5(4)
Fe1 O1 O3 . 5_5535 106.0(4) 105.5(4) 106.5(4)
Fe1 O1 O3 . 5_5555 103.3(5) 101.0(4) 104.8(6)
Fe1 O1 Fe1 1_5655 5_4545 95.6(5) 92.7(4) 97.4(7)
Fe1 O1 Fe1 1_5655 5_4555 99.4(5) 98.3(5) 100.6(4)
Fe1 O1 Fe1 1_5655 5_5545 99.4(5) 98.3(5) 100.6(4)
Fe1 O1 Fe1 1_5655 5_5555 95.6(5) 92.7(4) 97.4(7)
Fe1 O1 Pb1 1_5655 1_5545 137.7(5) 136.7(4) 138.6(6)
Fe1 O1 Pb1 1_5655 1_5565 137.7(5) 136.7(4) 138.6(6)
Fe1 O1 Pb1 1_5655 1_5645 77.2(4) 76.6(5) 77.6(3)
Fe1 O1 Pb1 1_5655 1_5665 77.2(4) 76.6(5) 77.6(3)
Fe1 O1 Pb1 1_5655 5_4545 87.5(6) 75.0(6) 102.6(8)
Fe1 O1 Pb1 1_5655 5_4555 87.5(6) 73.3(3) 101.4(5)
Fe1 O1 Pb1 1_5655 5_5545 87.5(6) 73.3(3) 101.4(5)
Fe1 O1 Pb1 1_5655 5_5555 87.5(6) 75.0(6) 102.6(8)
Fe1 O1 Bi1 1_5655 1_5545 137.7(5) 136.7(4) 138.6(6)
Fe1 O1 Bi1 1_5655 1_5565 137.7(5) 136.7(4) 138.6(6)
Fe1 O1 Bi1 1_5655 1_5645 77.2(4) 76.6(5) 77.6(3)
Fe1 O1 Bi1 1_5655 1_5665 77.2(4) 76.6(5) 77.6(3)
Fe1 O1 Bi1 1_5655 5_4545 87.5(6) 75.0(6) 102.6(8)
Fe1 O1 Bi1 1_5655 5_4555 87.8(6) 73.3(3) 102.3(5)
Fe1 O1 Bi1 1_5655 5_5545 87.8(6) 73.3(3) 102.3(5)
Fe1 O1 Bi1 1_5655 5_5555 87.5(6) 75.0(6) 102.6(8)
Fe1 O1 O1 1_5655 1_4555 90.2(7) 87.6(12) 93.8(4)
Fe1 O1 O1 1_5655 1_5455 167.9(8) 162.2(7) 180.0(5)
Fe1 O1 O1 1_5655 1_5655 12.1(6) 0.0(5) 17.8(5)
Fe1 O1 O1 1_5655 1_6555 90.2(7) 87.6(12) 93.8(4)
Fe1 O1 O1 1_5655 5_4445 132.5(10) 129.8(9) 133.9(12)
Fe1 O1 O1 1_5655 5_4455 140.2(10) 139.2(10) 141.3(9)
Fe1 O1 O1 1_5655 5_4545 48.2(7) 45.9(7) 50.4(7)
Fe1 O1 O1 1_5655 5_4555 48.8(8) 47.7(8) 49.8(8)
Fe1 O1 O1 1_5655 5_5445 140.2(10) 139.2(10) 141.3(9)
Fe1 O1 O1 1_5655 5_5455 132.5(10) 129.8(9) 133.9(12)
Fe1 O1 O1 1_5655 5_5545 48.8(8) 47.7(8) 49.8(8)
Fe1 O1 O1 1_5655 5_5555 48.2(7) 45.9(7) 50.4(7)
Fe1 O1 O2 1_5655 1_4555 132.9(15) 128.0(19) 135.8(14)
Fe1 O1 O2 1_5655 1_4655 45.8(11) 44.3(12) 48.4(11)
Fe1 O1 O2 1_5655 . 132.9(15) 128.0(19) 135.8(14)
Fe1 O1 O2 1_5655 1_5655 45.8(11) 44.3(12) 48.4(11)
Fe1 O1 O2 1_5655 5_3545 88.1(5) 87.1(5) 89.1(5)
Fe1 O1 O2 1_5655 5_5555 88.1(5) 87.1(5) 89.1(5)
Fe1 O1 O3 1_5655 1_5545 129.3(9) 110.4(7) 149.7(11)
Fe1 O1 O3 1_5655 . 129.3(9) 110.4(7) 149.7(11)
Fe1 O1 O3 1_5655 1_5645 45.9(7) 34.1(6) 65.1(7)
Fe1 O1 O3 1_5655 1_5655 45.9(7) 34.1(6) 65.1(7)
Fe1 O1 O3 1_5655 5_4535 103.3(5) 101.0(4) 104.8(6)
Fe1 O1 O3 1_5655 5_4555 106.0(4) 105.5(4) 106.5(4)
Fe1 O1 O3 1_5655 5_5535 106.0(4) 105.5(4) 106.5(4)
Fe1 O1 O3 1_5655 5_5555 103.3(5) 101.0(4) 104.8(6)
Fe1 O1 Fe1 5_4545 5_5545 133.3(8) 133.0(7) 133.5(8)
Fe1 O1 Pb1 5_4545 1_5545 68.0(6) 67.6(6) 68.5(6)
Fe1 O1 Pb1 5_4545 1_5645 68.0(6) 67.6(6) 68.5(6)
Fe1 O1 Pb1 5_4545 5_4555 83.4(7) 81.0(7) 84.5(7)
Fe1 O1 Pb1 5_4545 5_5545 119.4(9) 118.1(9) 120.8(10)
Fe1 O1 Pb1 5_4545 5_5555 145.3(8) 142.3(7) 146.8(9)
Fe1 O1 Bi1 5_4545 1_5545 68.0(6) 67.6(6) 68.5(6)
Fe1 O1 Bi1 5_4545 1_5645 68.0(6) 67.6(6) 68.5(6)
Fe1 O1 Bi1 5_4545 5_4555 83.4(7) 81.0(7) 84.5(7)
Fe1 O1 Bi1 5_4545 5_5545 118.8(9) 117.3(8) 120.8(10)
Fe1 O1 Bi1 5_4545 5_5555 145.3(8) 142.3(7) 146.8(9)
Fe1 O1 O1 5_4545 1_4555 23.7(6) 23.2(6) 23.9(6)
Fe1 O1 O1 5_4545 1_5455 90.0(7) 90.0(7) 90.0(7)
Fe1 O1 O1 5_4545 1_5655 90.0(7) 90.0(7) 90.0(7)
Fe1 O1 O1 5_4545 1_6555 156.1(7) 155.1(7) 158.1(7)
Fe1 O1 O1 5_4545 5_4445 47.4(7) 46.9(7) 47.8(7)
Fe1 O1 O1 5_4545 5_4545 47.4(7) 46.9(7) 47.8(7)
Fe1 O1 O1 5_4545 5_5445 125.1(8) 124.7(8) 125.6(8)
Fe1 O1 O1 5_4545 5_5545 125.1(8) 124.7(8) 125.6(8)
Fe1 O1 O2 5_4545 . 130.3(11) 129.4(11) 131.3(11)
Fe1 O1 O2 5_4545 1_5655 130.3(11) 129.4(11) 131.3(11)
Fe1 O1 O2 5_4545 5_3545 20.2(9) 18.8(9) 21.5(9)
Fe1 O1 O3 5_4545 . 108.3(10) 105.3(10) 109.8(11)
Fe1 O1 O3 5_4545 1_5655 108.3(10) 105.3(10) 109.8(11)
Fe1 O1 O3 5_4545 5_4535 30.6(9) 30.0(9) 32.1(9)
Fe1 O1 O3 5_4545 5_5535 100.8(9) 100.7(9) 101.1(9)
Fe1 O1 Fe1 5_4555 5_5555 133.3(7) 133.0(7) 133.5(7)
Fe1 O1 Pb1 5_4555 1_5565 71.9(6) 71.8(6) 72.2(6)
Fe1 O1 Pb1 5_4555 1_5665 71.9(6) 71.8(6) 72.2(6)
Fe1 O1 Pb1 5_4555 5_4545 82.7(6) 81.2(7) 84.1(6)
Fe1 O1 Pb1 5_4555 5_5545 144.1(7) 142.8(7) 145.4(7)
Fe1 O1 Bi1 5_4555 1_5565 71.9(6) 71.8(6) 72.2(6)
Fe1 O1 Bi1 5_4555 1_5665 71.9(6) 71.8(6) 72.2(6)
Fe1 O1 Bi1 5_4555 5_4545 82.7(6) 81.2(7) 84.2(6)
Fe1 O1 Bi1 5_4555 5_4555 16.0(7) 16.0(7) 16.0(7)
Fe1 O1 Bi1 5_4555 5_5545 144.1(7) 142.8(7) 145.4(7)
Fe1 O1 O1 5_4555 1_4555 23.5(5) 22.3(5) 24.6(5)
Fe1 O1 O1 5_4555 1_5455 90.0(7) 90.0(7) 90.0(7)
Fe1 O1 O1 5_4555 1_5655 90.0(7) 90.0(7) 90.0(7)
Fe1 O1 O1 5_4555 5_4455 50.6(8) 50.5(8) 50.8(8)
Fe1 O1 O1 5_4555 5_4555 50.6(8) 50.5(8) 50.8(8)
Fe1 O1 O1 5_4555 5_5455 128.1(8) 127.9(8) 128.3(7)
Fe1 O1 O1 5_4555 5_5555 128.1(8) 127.9(8) 128.3(7)
Fe1 O1 O2 5_4555 5_5555 153.5(10) 152.4(10) 154.8(10)
Fe1 O1 O3 5_4555 1_5545 109.4(10) 107.8(10) 110.9(10)
Fe1 O1 O3 5_4555 1_5645 109.4(10) 107.8(10) 110.9(10)
Fe1 O1 O3 5_4555 5_4555 32.5(9) 32.4(9) 32.6(9)
Fe1 O1 O3 5_4555 5_5555 103.3(9) 103.1(9) 103.6(9)
Fe1 O1 Pb1 5_5545 1_5545 71.9(6) 71.8(6) 72.2(6)
Fe1 O1 Pb1 5_5545 1_5645 71.9(6) 71.8(6) 72.2(6)
Fe1 O1 Pb1 5_5545 5_4555 144.1(7) 142.8(7) 145.4(7)
Fe1 O1 Pb1 5_5545 5_5555 82.7(6) 81.2(7) 84.1(6)
Fe1 O1 Bi1 5_5545 1_5545 71.9(6) 71.8(6) 72.2(6)
Fe1 O1 Bi1 5_5545 1_5645 71.9(6) 71.8(6) 72.2(6)
Fe1 O1 Bi1 5_5545 5_4555 144.1(7) 142.8(7) 145.4(7)
Fe1 O1 Bi1 5_5545 5_5545 16.0(7) 16.0(7) 16.0(7)
Fe1 O1 Bi1 5_5545 5_5555 82.7(6) 81.2(7) 84.2(6)
Fe1 O1 O1 5_5545 1_5455 90.0(7) 90.0(7) 90.0(7)
Fe1 O1 O1 5_5545 1_5655 90.0(7) 90.0(7) 90.0(7)
Fe1 O1 O1 5_5545 1_6555 23.5(5) 22.3(5) 24.6(5)
Fe1 O1 O1 5_5545 5_4445 128.1(8) 127.9(8) 128.3(7)
Fe1 O1 O1 5_5545 5_4545 128.1(8) 127.9(8) 128.3(7)
Fe1 O1 O1 5_5545 5_5445 50.6(8) 50.5(8) 50.8(8)
Fe1 O1 O1 5_5545 5_5545 50.6(8) 50.5(8) 50.8(8)
Fe1 O1 O2 5_5545 5_3545 153.5(10) 152.4(10) 154.8(10)
Fe1 O1 O3 5_5545 . 109.4(10) 107.8(10) 110.9(10)
Fe1 O1 O3 5_5545 1_5655 109.4(10) 107.8(10) 110.9(10)
Fe1 O1 O3 5_5545 5_4535 103.3(9) 103.1(9) 103.6(9)
Fe1 O1 O3 5_5545 5_5535 32.5(9) 32.4(9) 32.6(9)
Fe1 O1 Pb1 5_5555 1_5565 68.0(6) 67.6(6) 68.5(6)
Fe1 O1 Pb1 5_5555 1_5665 68.0(6) 67.6(6) 68.5(6)
Fe1 O1 Pb1 5_5555 5_4545 145.3(8) 142.3(7) 146.8(9)
Fe1 O1 Pb1 5_5555 5_4555 119.4(9) 118.1(9) 120.8(10)
Fe1 O1 Pb1 5_5555 5_5545 83.4(7) 81.0(7) 84.5(7)
Fe1 O1 Bi1 5_5555 1_5565 68.0(6) 67.6(6) 68.5(6)
Fe1 O1 Bi1 5_5555 1_5665 68.0(6) 67.6(6) 68.5(6)
Fe1 O1 Bi1 5_5555 5_4545 145.3(8) 142.3(7) 146.8(9)
Fe1 O1 Bi1 5_5555 5_4555 118.8(9) 117.3(8) 120.8(10)
Fe1 O1 Bi1 5_5555 5_5545 83.4(7) 81.0(7) 84.5(7)
Fe1 O1 O1 5_5555 1_4555 156.1(7) 155.1(7) 158.1(7)
Fe1 O1 O1 5_5555 1_5455 90.0(7) 90.0(7) 90.0(7)
Fe1 O1 O1 5_5555 1_5655 90.0(7) 90.0(7) 90.0(7)
Fe1 O1 O1 5_5555 1_6555 23.7(6) 23.2(6) 23.9(6)
Fe1 O1 O1 5_5555 5_4455 125.1(8) 124.7(8) 125.6(8)
Fe1 O1 O1 5_5555 5_4555 125.1(8) 124.7(8) 125.6(8)
Fe1 O1 O1 5_5555 5_5455 47.4(7) 46.9(7) 47.8(7)
Fe1 O1 O1 5_5555 5_5555 47.4(7) 46.9(7) 47.8(7)
Fe1 O1 O2 5_5555 1_4555 130.3(11) 129.4(11) 131.3(11)
Fe1 O1 O2 5_5555 1_4655 130.3(11) 129.4(11) 131.3(11)
Fe1 O1 O2 5_5555 5_5555 20.2(9) 18.8(9) 21.5(9)
Fe1 O1 O3 5_5555 1_5545 108.3(10) 105.3(10) 109.8(11)
Fe1 O1 O3 5_5555 1_5645 108.3(10) 105.3(10) 109.8(11)
Fe1 O1 O3 5_5555 5_4555 100.8(9) 100.7(9) 101.1(9)
Fe1 O1 O3 5_5555 5_5555 30.6(9) 30.0(9) 32.1(9)
Pb1 O1 Pb1 1_5545 1_5645 60.5(3) 59.9(3) 62.0(4)
Pb1 O1 Pb1 1_5545 5_4555 136.8(5) 135.7(5) 137.4(5)
Pb1 O1 Pb1 1_5545 5_5545 60.5(6) 59.6(6) 61.5(7)
Pb1 O1 Pb1 1_5545 5_5555 138.7(5) 137.1(6) 140.5(5)
Pb1 O1 Bi1 1_5545 1_5545 0.0(5) 0.0(5) 0.0(5)
Pb1 O1 Bi1 1_5545 1_5645 60.5(3) 59.9(3) 62.0(4)
Pb1 O1 Bi1 1_5545 5_4555 136.8(5) 135.7(5) 137.4(5)
Pb1 O1 Bi1 1_5545 5_5545 60.1(6) 58.9(6) 61.5(7)
Pb1 O1 Bi1 1_5545 5_5555 138.7(5) 137.1(6) 140.5(5)
Pb1 O1 O1 1_5545 1_4555 88.2(6) 88.1(5) 88.3(6)
Pb1 O1 O1 1_5545 1_5455 59.7(5) 59.0(5) 60.1(5)
Pb1 O1 O1 1_5545 1_5655 120.3(5) 119.9(5) 121.0(6)
Pb1 O1 O1 1_5545 1_6555 91.6(6) 90.9(6) 93.0(6)
Pb1 O1 O1 1_5545 5_4445 63.7(7) 63.6(7) 63.8(7)
Pb1 O1 O1 1_5545 5_4545 105.5(7) 104.9(7) 106.2(8)
Pb1 O1 O1 1_5545 5_5445 65.5(7) 65.2(7) 65.9(7)
Pb1 O1 O1 1_5545 5_5545 109.5(8) 109.3(8) 109.9(8)
Pb1 O1 O2 1_5545 . 70.3(12) 69.5(12) 71.1(12)
Pb1 O1 O2 1_5545 1_5655 112.5(13) 111.5(13) 113.6(13)
Pb1 O1 O2 1_5545 5_3545 85.2(8) 84.4(8) 86.0(8)
Pb1 O1 O3 1_5545 . 111.5(5) 110.7(5) 111.9(5)
Pb1 O1 O3 1_5545 1_5655 171.8(6) 170.7(7) 172.7(6)
Pb1 O1 O3 1_5545 5_4535 44.0(6) 43.7(6) 44.7(6)
Pb1 O1 O3 1_5545 5_5535 45.9(7) 45.8(7) 46.0(6)
Pb1 O1 Pb1 1_5565 1_5665 60.5(3) 59.9(3) 62.0(4)
Pb1 O1 Pb1 1_5565 5_4545 138.7(5) 137.1(6) 140.5(5)
Pb1 O1 Pb1 1_5565 5_4555 60.5(6) 59.6(6) 61.5(7)
Pb1 O1 Pb1 1_5565 5_5545 136.8(5) 135.7(5) 137.4(5)
Pb1 O1 Bi1 1_5565 1_5565 0.0(5) 0.0(5) 0.0(5)
Pb1 O1 Bi1 1_5565 1_5665 60.5(3) 59.9(3) 62.0(4)
Pb1 O1 Bi1 1_5565 5_4545 138.7(5) 137.1(6) 140.5(5)
Pb1 O1 Bi1 1_5565 5_4555 60.1(6) 58.9(6) 61.5(7)
Pb1 O1 Bi1 1_5565 5_5545 136.8(5) 135.7(5) 137.4(5)
Pb1 O1 O1 1_5565 1_4555 91.6(6) 90.9(6) 93.0(6)
Pb1 O1 O1 1_5565 1_5455 59.7(5) 59.0(5) 60.1(5)
Pb1 O1 O1 1_5565 1_5655 120.3(5) 119.9(5) 121.0(6)
Pb1 O1 O1 1_5565 1_6555 88.2(6) 88.1(5) 88.3(6)
Pb1 O1 O1 1_5565 5_4455 65.5(7) 65.2(7) 65.9(7)
Pb1 O1 O1 1_5565 5_4555 109.5(8) 109.3(8) 109.9(8)
Pb1 O1 O1 1_5565 5_5455 63.7(7) 63.6(7) 63.8(7)
Pb1 O1 O1 1_5565 5_5555 105.5(7) 104.9(7) 106.2(8)
Pb1 O1 O2 1_5565 1_4555 70.3(12) 69.5(12) 71.1(12)
Pb1 O1 O2 1_5565 1_4655 112.5(13) 111.5(13) 113.6(13)
Pb1 O1 O2 1_5565 5_5555 85.2(8) 84.4(8) 86.0(8)
Pb1 O1 O3 1_5565 1_5545 111.5(5) 110.7(5) 111.9(5)
Pb1 O1 O3 1_5565 1_5645 171.8(6) 170.7(7) 172.7(6)
Pb1 O1 O3 1_5565 5_4555 45.9(7) 45.8(7) 46.0(6)
Pb1 O1 O3 1_5565 5_5555 44.0(6) 43.7(6) 44.7(6)
Pb1 O1 Pb1 1_5645 5_4555 136.8(5) 135.7(5) 137.4(5)
Pb1 O1 Pb1 1_5645 5_5545 60.5(6) 59.6(6) 61.5(7)
Pb1 O1 Pb1 1_5645 5_5555 138.7(5) 137.1(6) 140.5(5)
Pb1 O1 Bi1 1_5645 1_5545 60.5(3) 59.9(3) 62.0(4)
Pb1 O1 Bi1 1_5645 1_5645 0.0(5) 0.0(5) 0.0(5)
Pb1 O1 Bi1 1_5645 5_4555 136.8(5) 135.7(5) 137.4(5)
Pb1 O1 Bi1 1_5645 5_5545 60.1(6) 58.9(6) 61.5(7)
Pb1 O1 Bi1 1_5645 5_5555 138.7(5) 137.1(6) 140.5(5)
Pb1 O1 O1 1_5645 1_4555 88.2(6) 88.1(5) 88.3(6)
Pb1 O1 O1 1_5645 1_5455 120.3(5) 119.9(5) 121.0(6)
Pb1 O1 O1 1_5645 1_5655 59.7(5) 59.0(5) 60.1(5)
Pb1 O1 O1 1_5645 1_6555 91.6(6) 90.9(6) 93.0(6)
Pb1 O1 O1 1_5645 5_4445 105.5(7) 104.9(7) 106.2(8)
Pb1 O1 O1 1_5645 5_4545 63.7(7) 63.6(7) 63.8(7)
Pb1 O1 O1 1_5645 5_5445 109.5(8) 109.3(8) 109.9(8)
Pb1 O1 O1 1_5645 5_5545 65.5(7) 65.2(7) 65.9(7)
Pb1 O1 O2 1_5645 . 112.5(13) 111.5(13) 113.6(13)
Pb1 O1 O2 1_5645 1_5655 70.3(12) 69.5(12) 71.1(12)
Pb1 O1 O2 1_5645 5_3545 85.2(8) 84.4(8) 86.0(8)
Pb1 O1 O3 1_5645 . 171.8(6) 170.7(7) 172.7(6)
Pb1 O1 O3 1_5645 1_5655 111.5(5) 110.7(5) 111.9(5)
Pb1 O1 O3 1_5645 5_4535 44.0(6) 43.7(6) 44.7(6)
Pb1 O1 O3 1_5645 5_5535 45.9(7) 45.8(7) 46.0(6)
Pb1 O1 Pb1 1_5665 5_4545 138.7(5) 137.1(6) 140.5(5)
Pb1 O1 Pb1 1_5665 5_4555 60.5(6) 59.6(6) 61.5(7)
Pb1 O1 Pb1 1_5665 5_5545 136.8(5) 135.7(5) 137.4(5)
Pb1 O1 Bi1 1_5665 1_5565 60.5(3) 59.9(3) 62.0(4)
Pb1 O1 Bi1 1_5665 1_5665 0.0(5) 0.0(5) 0.0(5)
Pb1 O1 Bi1 1_5665 5_4545 138.7(5) 137.1(6) 140.5(5)
Pb1 O1 Bi1 1_5665 5_4555 60.1(6) 58.9(6) 61.5(7)
Pb1 O1 Bi1 1_5665 5_5545 136.8(5) 135.7(5) 137.4(5)
Pb1 O1 O1 1_5665 1_4555 91.6(6) 90.9(6) 93.0(6)
Pb1 O1 O1 1_5665 1_5455 120.3(5) 119.9(5) 121.0(6)
Pb1 O1 O1 1_5665 1_5655 59.7(5) 59.0(5) 60.1(5)
Pb1 O1 O1 1_5665 1_6555 88.2(6) 88.1(5) 88.3(6)
Pb1 O1 O1 1_5665 5_4455 109.5(8) 109.3(8) 109.9(8)
Pb1 O1 O1 1_5665 5_4555 65.5(7) 65.2(7) 65.9(7)
Pb1 O1 O1 1_5665 5_5455 105.5(7) 104.9(7) 106.2(8)
Pb1 O1 O1 1_5665 5_5555 63.7(7) 63.6(7) 63.8(7)
Pb1 O1 O2 1_5665 1_4555 112.5(13) 111.5(13) 113.6(13)
Pb1 O1 O2 1_5665 1_4655 70.3(12) 69.5(12) 71.1(12)
Pb1 O1 O2 1_5665 5_5555 85.2(8) 84.4(8) 86.0(8)
Pb1 O1 O3 1_5665 1_5545 171.8(6) 170.7(7) 172.7(6)
Pb1 O1 O3 1_5665 1_5645 111.5(5) 110.7(5) 111.9(5)
Pb1 O1 O3 1_5665 5_4555 45.9(7) 45.8(7) 46.0(6)
Pb1 O1 O3 1_5665 5_5555 44.0(6) 43.7(6) 44.7(6)
Pb1 O1 Pb1 5_4545 5_4555 90.3(10) 86.5(11) 103.4(10)
Pb1 O1 Pb1 5_4545 5_5545 86.3(9) 61.3(6) 109.3(14)
Pb1 O1 Pb1 5_4545 5_5555 168.6(12) 163.6(16) 180.0(5)
Pb1 O1 Bi1 5_4545 1_5565 138.7(6) 137.1(7) 140.5(5)
Pb1 O1 Bi1 5_4545 1_5665 138.7(6) 137.1(7) 140.5(5)
Pb1 O1 Bi1 5_4545 5_4545 0.0(5) 0.0(5) 0.0(5)
Pb1 O1 Bi1 5_4545 5_4555 90.5(10) 86.5(11) 103.4(10)
Pb1 O1 Bi1 5_4545 5_5545 86.3(9) 61.3(6) 109.3(14)
Pb1 O1 Bi1 5_4545 5_5555 168.6(12) 163.6(16) 180.0(5)
Pb1 O1 O1 5_4545 1_4555 45.6(7) 35.2(9) 59.6(6)
Pb1 O1 O1 5_4545 1_5455 90.0(6) 90.0(6) 90.0(6)
Pb1 O1 O1 5_4545 1_5655 90.0(6) 90.0(6) 90.0(6)
Pb1 O1 O1 5_4545 1_6555 135.4(8) 122.6(7) 144.4(12)
Pb1 O1 O1 5_4545 5_4455 74.2(7) 73.7(8) 74.6(7)
Pb1 O1 O1 5_4545 5_4555 74.2(7) 73.7(8) 74.6(7)
Pb1 O1 O1 5_4545 5_5455 115.8(7) 114.6(7) 116.7(8)
Pb1 O1 O1 5_4545 5_5555 115.8(7) 114.6(7) 116.7(8)
Pb1 O1 O2 5_4545 1_4555 59.9(12) 58.0(11) 68.7(12)
Pb1 O1 O2 5_4545 1_4655 59.9(12) 58.0(11) 68.7(12)
Pb1 O1 O2 5_4545 . 120.5(12) 111.2(14) 128.9(12)
Pb1 O1 O2 5_4545 1_5655 120.5(12) 111.2(14) 128.9(12)
Pb1 O1 O2 5_4545 5_5555 123.8(10) 123.5(9) 124.1(10)
Pb1 O1 O3 5_4545 1_5545 57.4(10) 47.8(8) 67.2(12)
Pb1 O1 O3 5_4545 . 121.1(11) 118.5(12) 127.0(10)
Pb1 O1 O3 5_4545 1_5645 57.4(10) 47.8(8) 67.2(12)
Pb1 O1 O3 5_4545 1_5655 121.1(11) 118.5(12) 127.0(10)
Pb1 O1 O3 5_4545 5_4555 115.2(10) 113.8(10) 116.6(10)
Pb1 O1 O3 5_4545 5_5555 176.0(11) 172.3(10) 178.7(12)
Pb1 O1 Pb1 5_4555 5_5545 162.7(11) 154.7(13) 180.0(5)
Pb1 O1 Pb1 5_4555 5_5555 86.3(9) 61.3(6) 109.3(14)
Pb1 O1 Bi1 5_4555 1_5545 136.8(6) 135.7(5) 137.4(6)
Pb1 O1 Bi1 5_4555 1_5565 60.5(6) 59.6(5) 61.5(6)
Pb1 O1 Bi1 5_4555 1_5645 136.8(6) 135.7(5) 137.4(6)
Pb1 O1 Bi1 5_4555 1_5665 60.5(6) 59.6(5) 61.5(6)
Pb1 O1 Bi1 5_4555 5_4545 90.3(10) 86.5(12) 103.4(12)
Pb1 O1 Bi1 5_4555 5_4555 0.0(5) 0.0(5) 0.0(5)
Pb1 O1 Bi1 5_4555 5_5545 162.6(11) 154.7(13) 180.0(5)
Pb1 O1 Bi1 5_4555 5_5555 86.3(9) 61.3(6) 109.3(14)
Pb1 O1 O1 5_4555 1_4555 46.6(7) 33.5(8) 60.6(6)
Pb1 O1 O1 5_4555 1_5455 90.0(7) 90.0(6) 90.0(6)
Pb1 O1 O1 5_4555 1_5655 90.0(7) 90.0(6) 90.0(6)
Pb1 O1 O1 5_4555 1_6555 132.6(8) 120.4(6) 145.8(11)
Pb1 O1 O1 5_4555 5_4445 73.2(8) 72.0(7) 73.8(8)
Pb1 O1 O1 5_4555 5_4545 73.2(8) 72.0(7) 73.8(8)
Pb1 O1 O1 5_4555 5_5445 113.6(7) 113.2(7) 113.9(7)
Pb1 O1 O1 5_4555 5_5455 121.4(8) 120.4(8) 122.4(8)
Pb1 O1 O1 5_4555 5_5545 113.6(7) 113.2(7) 113.9(7)
Pb1 O1 O1 5_4555 5_5555 121.4(8) 120.4(8) 122.4(8)
Pb1 O1 O2 5_4555 1_4555 60.2(13) 55.7(12) 71.0(14)
Pb1 O1 O2 5_4555 1_4655 60.2(13) 55.7(12) 71.0(14)
Pb1 O1 O2 5_4555 . 118.1(12) 108.5(13) 127.2(13)
Pb1 O1 O2 5_4555 1_5655 118.1(12) 108.5(13) 127.2(13)
Pb1 O1 O2 5_4555 5_3545 62.4(9) 62.2(9) 62.5(9)
Pb1 O1 O3 5_4555 1_5545 120.9(11) 113.1(15) 130.7(10)
Pb1 O1 O3 5_4555 . 56.7(10) 46.2(7) 64.4(12)
Pb1 O1 O3 5_4555 1_5645 120.9(11) 113.1(15) 130.7(10)
Pb1 O1 O3 5_4555 1_5655 56.7(10) 46.2(7) 64.4(12)
Pb1 O1 O3 5_4555 5_4535 114.0(10) 111.0(9) 115.7(11)
Pb1 O1 O3 5_4555 5_5535 176.6(10) 175.4(10) 177.9(10)
Pb1 O1 O3 5_4555 5_5555 88.1(10) 87.5(9) 88.7(10)
Pb1 O1 Pb1 5_5545 5_5555 90.3(10) 86.5(12) 103.4(12)
Pb1 O1 Bi1 5_5545 1_5545 60.5(6) 59.6(5) 61.5(6)
Pb1 O1 Bi1 5_5545 1_5565 136.8(6) 135.7(5) 137.4(6)
Pb1 O1 Bi1 5_5545 1_5645 60.5(6) 59.6(5) 61.5(6)
Pb1 O1 Bi1 5_5545 1_5665 136.8(6) 135.7(5) 137.4(6)
Pb1 O1 Bi1 5_5545 5_4545 86.3(9) 61.3(6) 109.3(14)
Pb1 O1 Bi1 5_5545 5_4555 162.6(11) 154.7(13) 180.0(5)
Pb1 O1 Bi1 5_5545 5_5545 0.0(5) 0.0(5) 0.0(5)
Pb1 O1 Bi1 5_5545 5_5555 90.3(10) 86.5(12) 103.4(12)
Pb1 O1 O1 5_5545 1_4555 132.6(8) 120.4(6) 145.8(11)
Pb1 O1 O1 5_5545 1_5455 90.0(7) 90.0(6) 90.0(6)
Pb1 O1 O1 5_5545 1_5655 90.0(7) 90.0(6) 90.0(6)
Pb1 O1 O1 5_5545 1_6555 46.6(7) 33.5(8) 60.6(6)
Pb1 O1 O1 5_5545 5_4445 121.4(8) 120.4(8) 122.4(8)
Pb1 O1 O1 5_5545 5_4455 113.6(7) 113.2(7) 113.9(7)
Pb1 O1 O1 5_5545 5_4545 121.4(8) 120.4(8) 122.4(8)
Pb1 O1 O1 5_5545 5_4555 113.6(7) 113.2(7) 113.9(7)
Pb1 O1 O1 5_5545 5_5455 73.2(8) 72.0(7) 73.8(8)
Pb1 O1 O1 5_5545 5_5555 73.2(8) 72.0(7) 73.8(8)
Pb1 O1 O2 5_5545 1_4555 118.1(12) 108.5(13) 127.2(13)
Pb1 O1 O2 5_5545 1_4655 118.1(12) 108.5(13) 127.2(13)
Pb1 O1 O2 5_5545 . 60.2(13) 55.7(12) 71.0(14)
Pb1 O1 O2 5_5545 1_5655 60.2(13) 55.7(12) 71.0(14)
Pb1 O1 O2 5_5545 5_5555 62.4(9) 62.2(9) 62.5(9)
Pb1 O1 O3 5_5545 1_5545 56.7(10) 46.2(7) 64.4(12)
Pb1 O1 O3 5_5545 . 120.9(11) 113.1(15) 130.7(10)
Pb1 O1 O3 5_5545 1_5645 56.7(10) 46.2(7) 64.4(12)
Pb1 O1 O3 5_5545 1_5655 120.9(11) 113.1(15) 130.7(10)
Pb1 O1 O3 5_5545 5_4535 88.1(10) 87.5(9) 88.7(10)
Pb1 O1 O3 5_5545 5_4555 176.6(10) 175.4(10) 177.9(10)
Pb1 O1 O3 5_5545 5_5555 114.0(10) 111.0(9) 115.7(11)
Pb1 O1 Bi1 5_5555 1_5545 138.7(6) 137.1(7) 140.5(5)
Pb1 O1 Bi1 5_5555 1_5645 138.7(6) 137.1(7) 140.5(5)
Pb1 O1 Bi1 5_5555 5_4545 168.6(12) 163.6(16) 180.0(5)
Pb1 O1 Bi1 5_5555 5_4555 86.3(9) 61.3(6) 109.3(14)
Pb1 O1 Bi1 5_5555 5_5545 90.5(10) 86.5(11) 103.4(10)
Pb1 O1 Bi1 5_5555 5_5555 0.0(5) 0.0(5) 0.0(5)
Pb1 O1 O1 5_5555 1_4555 135.4(8) 122.6(7) 144.4(12)
Pb1 O1 O1 5_5555 1_5455 90.0(6) 90.0(6) 90.0(6)
Pb1 O1 O1 5_5555 1_5655 90.0(6) 90.0(6) 90.0(6)
Pb1 O1 O1 5_5555 1_6555 45.6(7) 35.2(9) 59.6(6)
Pb1 O1 O1 5_5555 5_4445 115.8(7) 114.6(7) 116.7(8)
Pb1 O1 O1 5_5555 5_4545 115.8(7) 114.6(7) 116.7(8)
Pb1 O1 O1 5_5555 5_5445 74.2(7) 73.7(8) 74.6(7)
Pb1 O1 O1 5_5555 5_5545 74.2(7) 73.7(8) 74.6(7)
Pb1 O1 O2 5_5555 1_4555 120.5(12) 111.2(14) 128.9(12)
Pb1 O1 O2 5_5555 1_4655 120.5(12) 111.2(14) 128.9(12)
Pb1 O1 O2 5_5555 . 59.9(12) 58.0(11) 68.7(12)
Pb1 O1 O2 5_5555 1_5655 59.9(12) 58.0(11) 68.7(12)
Pb1 O1 O2 5_5555 5_3545 123.8(10) 123.5(9) 124.1(10)
Pb1 O1 O3 5_5555 1_5545 121.1(11) 118.5(12) 127.0(10)
Pb1 O1 O3 5_5555 . 57.4(10) 47.8(8) 67.2(12)
Pb1 O1 O3 5_5555 1_5645 121.1(11) 118.5(12) 127.0(10)
Pb1 O1 O3 5_5555 1_5655 57.4(10) 47.8(8) 67.2(12)
Pb1 O1 O3 5_5555 5_4535 176.0(11) 172.3(10) 178.7(12)
Pb1 O1 O3 5_5555 5_5535 115.2(10) 113.8(10) 116.6(10)
Bi1 O1 Bi1 1_5545 1_5645 60.5(3) 59.9(3) 62.0(4)
Bi1 O1 Bi1 1_5545 5_4555 136.8(5) 135.7(5) 137.4(5)
Bi1 O1 Bi1 1_5545 5_5545 60.1(6) 58.9(6) 61.5(7)
Bi1 O1 Bi1 1_5545 5_5555 138.7(5) 137.1(6) 140.5(5)
Bi1 O1 O1 1_5545 1_4555 88.2(6) 88.1(5) 88.3(6)
Bi1 O1 O1 1_5545 1_5455 59.7(5) 59.0(5) 60.1(5)
Bi1 O1 O1 1_5545 1_5655 120.3(5) 119.9(5) 121.0(6)
Bi1 O1 O1 1_5545 1_6555 91.6(6) 90.9(6) 93.0(6)
Bi1 O1 O1 1_5545 5_4445 63.7(7) 63.6(7) 63.8(7)
Bi1 O1 O1 1_5545 5_4545 105.5(7) 104.9(7) 106.2(8)
Bi1 O1 O1 1_5545 5_5445 65.5(7) 65.2(7) 65.9(7)
Bi1 O1 O1 1_5545 5_5545 109.5(8) 109.3(8) 109.9(8)
Bi1 O1 O2 1_5545 . 70.3(12) 69.5(12) 71.1(12)
Bi1 O1 O2 1_5545 1_5655 112.5(13) 111.5(13) 113.6(13)
Bi1 O1 O2 1_5545 5_3545 85.2(8) 84.4(8) 86.0(8)
Bi1 O1 O3 1_5545 . 111.6(5) 110.8(5) 111.9(5)
Bi1 O1 O3 1_5545 1_5655 171.8(6) 170.7(7) 172.7(6)
Bi1 O1 O3 1_5545 5_4535 44.0(6) 43.7(6) 44.7(6)
Bi1 O1 O3 1_5545 5_5535 45.9(7) 45.8(7) 46.0(6)
Bi1 O1 Bi1 1_5565 1_5665 60.5(3) 59.9(3) 62.0(4)
Bi1 O1 Bi1 1_5565 5_4545 138.7(5) 137.1(6) 140.5(5)
Bi1 O1 Bi1 1_5565 5_4555 60.1(6) 58.9(6) 61.5(7)
Bi1 O1 Bi1 1_5565 5_5545 136.8(5) 135.7(5) 137.4(5)
Bi1 O1 O1 1_5565 1_4555 91.6(6) 90.9(6) 93.0(6)
Bi1 O1 O1 1_5565 1_5455 59.7(5) 59.0(5) 60.1(5)
Bi1 O1 O1 1_5565 1_5655 120.3(5) 119.9(5) 121.0(6)
Bi1 O1 O1 1_5565 1_6555 88.2(6) 88.1(5) 88.3(6)
Bi1 O1 O1 1_5565 5_4455 65.5(7) 65.2(7) 65.9(7)
Bi1 O1 O1 1_5565 5_4555 109.5(8) 109.3(8) 109.9(8)
Bi1 O1 O1 1_5565 5_5455 63.7(7) 63.6(7) 63.8(7)
Bi1 O1 O1 1_5565 5_5555 105.5(7) 104.9(7) 106.2(8)
Bi1 O1 O2 1_5565 1_4555 70.3(12) 69.5(12) 71.1(12)
Bi1 O1 O2 1_5565 1_4655 112.5(13) 111.5(13) 113.6(13)
Bi1 O1 O2 1_5565 5_5555 85.2(8) 84.4(8) 86.0(8)
Bi1 O1 O3 1_5565 1_5545 111.6(5) 110.8(5) 111.9(5)
Bi1 O1 O3 1_5565 1_5645 171.8(6) 170.7(7) 172.7(6)
Bi1 O1 O3 1_5565 5_4555 45.9(7) 45.8(7) 46.0(6)
Bi1 O1 O3 1_5565 5_5555 44.0(6) 43.7(6) 44.7(6)
Bi1 O1 Bi1 1_5645 5_4555 136.8(5) 135.7(5) 137.4(5)
Bi1 O1 Bi1 1_5645 5_5545 60.1(6) 58.9(6) 61.5(7)
Bi1 O1 Bi1 1_5645 5_5555 138.7(5) 137.1(6) 140.5(5)
Bi1 O1 O1 1_5645 1_4555 88.2(6) 88.1(5) 88.3(6)
Bi1 O1 O1 1_5645 1_5455 120.3(5) 119.9(5) 121.0(6)
Bi1 O1 O1 1_5645 1_5655 59.7(5) 59.0(5) 60.1(5)
Bi1 O1 O1 1_5645 1_6555 91.6(6) 90.9(6) 93.0(6)
Bi1 O1 O1 1_5645 5_4445 105.5(7) 104.9(7) 106.2(8)
Bi1 O1 O1 1_5645 5_4545 63.7(7) 63.6(7) 63.8(7)
Bi1 O1 O1 1_5645 5_5445 109.5(8) 109.3(8) 109.9(8)
Bi1 O1 O1 1_5645 5_5545 65.5(7) 65.2(7) 65.9(7)
Bi1 O1 O2 1_5645 . 112.5(13) 111.5(13) 113.6(13)
Bi1 O1 O2 1_5645 1_5655 70.3(12) 69.5(12) 71.1(12)
Bi1 O1 O2 1_5645 5_3545 85.2(8) 84.4(8) 86.0(8)
Bi1 O1 O3 1_5645 . 171.8(6) 170.7(7) 172.7(6)
Bi1 O1 O3 1_5645 1_5655 111.6(5) 110.8(5) 111.9(5)
Bi1 O1 O3 1_5645 5_4535 44.0(6) 43.7(6) 44.7(6)
Bi1 O1 O3 1_5645 5_5535 45.9(7) 45.8(7) 46.0(6)
Bi1 O1 Bi1 1_5665 5_4545 138.7(5) 137.1(6) 140.5(5)
Bi1 O1 Bi1 1_5665 5_4555 60.1(6) 58.9(6) 61.5(7)
Bi1 O1 Bi1 1_5665 5_5545 136.8(5) 135.7(5) 137.4(5)
Bi1 O1 O1 1_5665 1_4555 91.6(6) 90.9(6) 93.0(6)
Bi1 O1 O1 1_5665 1_5455 120.3(5) 119.9(5) 121.0(6)
Bi1 O1 O1 1_5665 1_5655 59.7(5) 59.0(5) 60.1(5)
Bi1 O1 O1 1_5665 1_6555 88.2(6) 88.1(5) 88.3(6)
Bi1 O1 O1 1_5665 5_4455 109.5(8) 109.3(8) 109.9(8)
Bi1 O1 O1 1_5665 5_4555 65.5(7) 65.2(7) 65.9(7)
Bi1 O1 O1 1_5665 5_5455 105.5(7) 104.9(7) 106.2(8)
Bi1 O1 O1 1_5665 5_5555 63.7(7) 63.6(7) 63.8(7)
Bi1 O1 O2 1_5665 1_4555 112.5(13) 111.5(13) 113.6(13)
Bi1 O1 O2 1_5665 1_4655 70.3(12) 69.5(12) 71.1(12)
Bi1 O1 O2 1_5665 5_5555 85.2(8) 84.4(8) 86.0(8)
Bi1 O1 O3 1_5665 1_5545 171.8(6) 170.7(7) 172.7(6)
Bi1 O1 O3 1_5665 1_5645 111.6(5) 110.8(5) 111.9(5)
Bi1 O1 O3 1_5665 5_4555 45.9(7) 45.8(7) 46.0(6)
Bi1 O1 O3 1_5665 5_5555 44.0(6) 43.7(6) 44.7(6)
Bi1 O1 Bi1 5_4545 5_4555 90.5(10) 86.5(11) 103.4(10)
Bi1 O1 Bi1 5_4545 5_5545 86.3(9) 61.3(6) 109.3(14)
Bi1 O1 Bi1 5_4545 5_5555 168.5(12) 163.6(16) 180.0(5)
Bi1 O1 O1 5_4545 1_4555 45.6(7) 35.2(9) 59.6(6)
Bi1 O1 O1 5_4545 1_5455 90.0(6) 90.0(6) 90.0(6)
Bi1 O1 O1 5_4545 1_5655 90.0(6) 90.0(6) 90.0(6)
Bi1 O1 O1 5_4545 1_6555 135.4(8) 122.6(7) 144.4(12)
Bi1 O1 O1 5_4545 5_4455 74.2(7) 73.7(8) 74.6(7)
Bi1 O1 O1 5_4545 5_4555 74.2(7) 73.7(8) 74.6(7)
Bi1 O1 O1 5_4545 5_5455 115.8(7) 114.6(7) 116.7(8)
Bi1 O1 O1 5_4545 5_5555 115.8(7) 114.6(7) 116.7(8)
Bi1 O1 O2 5_4545 1_4555 59.9(12) 58.0(11) 68.7(12)
Bi1 O1 O2 5_4545 1_4655 59.9(12) 58.0(11) 68.7(12)
Bi1 O1 O2 5_4545 . 120.5(12) 111.2(14) 128.9(12)
Bi1 O1 O2 5_4545 1_5655 120.5(12) 111.2(14) 128.9(12)
Bi1 O1 O2 5_4545 5_5555 123.8(10) 123.5(9) 124.1(10)
Bi1 O1 O3 5_4545 1_5545 57.4(10) 47.8(8) 67.2(12)
Bi1 O1 O3 5_4545 . 121.1(11) 118.5(12) 127.0(10)
Bi1 O1 O3 5_4545 1_5645 57.4(10) 47.8(8) 67.2(12)
Bi1 O1 O3 5_4545 1_5655 121.1(11) 118.5(12) 127.0(10)
Bi1 O1 O3 5_4545 5_4555 115.2(10) 113.8(10) 116.6(10)
Bi1 O1 O3 5_4545 5_5555 176.0(11) 172.3(10) 178.7(12)
Bi1 O1 Bi1 5_4555 5_5545 162.5(11) 154.7(13) 180.0(5)
Bi1 O1 Bi1 5_4555 5_5555 86.3(9) 61.3(6) 109.3(14)
Bi1 O1 O1 5_4555 1_4555 46.4(7) 33.5(8) 60.6(6)
Bi1 O1 O1 5_4555 1_5455 90.0(7) 90.0(6) 90.0(6)
Bi1 O1 O1 5_4555 1_5655 90.0(7) 90.0(6) 90.0(6)
Bi1 O1 O1 5_4555 1_6555 132.6(8) 120.4(6) 145.8(11)
Bi1 O1 O1 5_4555 5_4445 73.2(8) 72.0(7) 73.8(8)
Bi1 O1 O1 5_4555 5_4455 56.0(8) 56.0(8) 56.0(8)
Bi1 O1 O1 5_4555 5_4545 73.2(8) 72.0(7) 73.8(8)
Bi1 O1 O1 5_4555 5_4555 56.0(8) 56.0(8) 56.0(8)
Bi1 O1 O1 5_4555 5_5445 113.6(7) 113.2(7) 113.9(7)
Bi1 O1 O1 5_4555 5_5455 121.0(8) 119.8(8) 122.4(8)
Bi1 O1 O1 5_4555 5_5545 113.6(7) 113.2(7) 113.9(7)
Bi1 O1 O1 5_4555 5_5555 121.0(8) 119.8(8) 122.4(8)
Bi1 O1 O2 5_4555 1_4555 60.2(13) 55.7(12) 71.0(14)
Bi1 O1 O2 5_4555 1_4655 60.2(13) 55.7(12) 71.0(14)
Bi1 O1 O2 5_4555 . 118.1(12) 108.5(13) 127.2(13)
Bi1 O1 O2 5_4555 1_5655 118.1(12) 108.5(13) 127.2(13)
Bi1 O1 O2 5_4555 5_3545 62.4(9) 62.2(9) 62.5(9)
Bi1 O1 O2 5_4555 5_5555 138.8(10) 138.8(10) 138.8(10)
Bi1 O1 O3 5_4555 1_5545 120.8(11) 113.1(15) 130.7(10)
Bi1 O1 O3 5_4555 . 56.7(10) 46.2(7) 64.4(12)
Bi1 O1 O3 5_4555 1_5645 120.8(11) 113.1(15) 130.7(10)
Bi1 O1 O3 5_4555 1_5655 56.7(10) 46.2(7) 64.4(12)
Bi1 O1 O3 5_4555 5_4535 114.0(10) 111.0(9) 115.7(11)
Bi1 O1 O3 5_4555 5_4555 16.6(9) 16.6(9) 16.6(9)
Bi1 O1 O3 5_4555 5_5535 176.6(10) 175.4(10) 177.9(10)
Bi1 O1 O3 5_4555 5_5555 87.9(10) 87.2(9) 88.7(10)
Bi1 O1 Bi1 5_5545 5_5555 90.5(10) 86.5(12) 103.4(12)
Bi1 O1 O1 5_5545 1_4555 132.6(8) 120.4(6) 145.8(11)
Bi1 O1 O1 5_5545 1_5455 90.0(7) 90.0(6) 90.0(6)
Bi1 O1 O1 5_5545 1_5655 90.0(7) 90.0(6) 90.0(6)
Bi1 O1 O1 5_5545 1_6555 46.4(7) 33.5(8) 60.6(6)
Bi1 O1 O1 5_5545 5_4445 121.0(8) 119.8(8) 122.4(8)
Bi1 O1 O1 5_5545 5_4455 113.6(7) 113.2(7) 113.9(7)
Bi1 O1 O1 5_5545 5_4545 121.0(8) 119.8(8) 122.4(8)
Bi1 O1 O1 5_5545 5_4555 113.6(7) 113.2(7) 113.9(7)
Bi1 O1 O1 5_5545 5_5445 56.0(8) 56.0(8) 56.0(8)
Bi1 O1 O1 5_5545 5_5455 73.2(8) 72.0(7) 73.8(8)
Bi1 O1 O1 5_5545 5_5545 56.0(8) 56.0(8) 56.0(8)
Bi1 O1 O1 5_5545 5_5555 73.2(8) 72.0(7) 73.8(8)
Bi1 O1 O2 5_5545 1_4555 118.1(12) 108.5(13) 127.2(13)
Bi1 O1 O2 5_5545 1_4655 118.1(12) 108.5(13) 127.2(13)
Bi1 O1 O2 5_5545 . 60.2(13) 55.7(12) 71.0(14)
Bi1 O1 O2 5_5545 1_5655 60.2(13) 55.7(12) 71.0(14)
Bi1 O1 O2 5_5545 5_3545 138.8(10) 138.8(10) 138.8(10)
Bi1 O1 O2 5_5545 5_5555 62.4(9) 62.2(9) 62.5(9)
Bi1 O1 O3 5_5545 1_5545 56.7(10) 46.2(7) 64.4(12)
Bi1 O1 O3 5_5545 . 120.8(11) 113.1(15) 130.7(10)
Bi1 O1 O3 5_5545 1_5645 56.7(10) 46.2(7) 64.4(12)
Bi1 O1 O3 5_5545 1_5655 120.8(11) 113.1(15) 130.7(10)
Bi1 O1 O3 5_5545 5_4535 87.9(10) 87.2(9) 88.7(10)
Bi1 O1 O3 5_5545 5_4555 176.6(10) 175.4(10) 177.9(10)
Bi1 O1 O3 5_5545 5_5535 16.6(9) 16.6(9) 16.6(9)
Bi1 O1 O3 5_5545 5_5555 114.0(10) 111.0(9) 115.7(11)
Bi1 O1 O1 5_5555 1_4555 135.4(8) 122.6(7) 144.4(12)
Bi1 O1 O1 5_5555 1_5455 90.0(6) 90.0(6) 90.0(6)
Bi1 O1 O1 5_5555 1_5655 90.0(6) 90.0(6) 90.0(6)
Bi1 O1 O1 5_5555 1_6555 45.6(7) 35.2(9) 59.6(6)
Bi1 O1 O1 5_5555 5_4445 115.8(7) 114.6(7) 116.7(8)
Bi1 O1 O1 5_5555 5_4545 115.8(7) 114.6(7) 116.7(8)
Bi1 O1 O1 5_5555 5_5445 74.2(7) 73.7(8) 74.6(7)
Bi1 O1 O1 5_5555 5_5545 74.2(7) 73.7(8) 74.6(7)
Bi1 O1 O2 5_5555 1_4555 120.5(12) 111.2(14) 128.9(12)
Bi1 O1 O2 5_5555 1_4655 120.5(12) 111.2(14) 128.9(12)
Bi1 O1 O2 5_5555 . 59.9(12) 58.0(11) 68.7(12)
Bi1 O1 O2 5_5555 1_5655 59.9(12) 58.0(11) 68.7(12)
Bi1 O1 O2 5_5555 5_3545 123.8(10) 123.5(9) 124.1(10)
Bi1 O1 O3 5_5555 1_5545 121.1(11) 118.5(12) 127.0(10)
Bi1 O1 O3 5_5555 . 57.4(10) 47.8(8) 67.2(12)
Bi1 O1 O3 5_5555 1_5645 121.1(11) 118.5(12) 127.0(10)
Bi1 O1 O3 5_5555 1_5655 57.4(10) 47.8(8) 67.2(12)
Bi1 O1 O3 5_5555 5_4535 176.0(11) 172.3(10) 178.7(12)
Bi1 O1 O3 5_5555 5_5535 115.2(10) 113.8(10) 116.6(10)
O1 O1 O1 1_4555 1_5455 90.0(8) 90.0(7) 90.0(7)
O1 O1 O1 1_4555 1_5655 90.0(8) 90.0(7) 90.0(7)
O1 O1 O1 1_4555 1_6555 179.5(7) 179.0(7) 180.0(5)
O1 O1 O1 1_4555 5_4445 45.0(7) 44.6(7) 45.4(7)
O1 O1 O1 1_4555 5_4455 48.8(8) 48.7(8) 48.9(8)
O1 O1 O1 1_4555 5_4545 45.0(7) 44.6(7) 45.4(7)
O1 O1 O1 1_4555 5_4555 48.8(8) 48.7(8) 48.9(8)
O1 O1 O1 1_4555 5_5455 134.8(7) 134.5(7) 135.3(8)
O1 O1 O1 1_4555 5_5555 134.8(7) 134.5(7) 135.3(8)
O1 O1 O2 1_4555 1_4555 44.9(10) 43.6(10) 47.0(11)
O1 O1 O2 1_4555 1_4655 44.9(10) 43.6(10) 47.0(11)
O1 O1 O2 1_4555 . 135.1(10) 133.0(11) 136.4(10)
O1 O1 O2 1_4555 1_5655 135.1(10) 133.0(11) 136.4(10)
O1 O1 O2 1_4555 5_5555 177.0(9) 176.9(9) 177.1(10)
O1 O1 O3 1_4555 1_5545 89.5(12) 87.3(12) 91.9(14)
O1 O1 O3 1_4555 . 90.7(12) 87.7(14) 93.1(13)
O1 O1 O3 1_4555 1_5645 89.5(12) 87.3(12) 91.9(14)
O1 O1 O3 1_4555 1_5655 90.7(12) 87.7(14) 93.1(13)
O1 O1 O3 1_4555 5_4535 54.9(9) 54.4(9) 55.3(9)
O1 O1 O3 1_4555 5_4555 56.0(9) 54.9(9) 57.0(9)
O1 O1 O3 1_4555 5_5555 125.4(10) 123.8(11) 128.2(9)
O1 O1 O1 1_5455 1_5655 180.0(5) 180.0(5) 180.0(5)
O1 O1 O1 1_5455 1_6555 90.0(5) 90 90
O1 O1 O1 1_5455 5_4445 45.2(7) 44.9(7) 45.7(7)
O1 O1 O1 1_5455 5_4455 41.5(8) 41.4(8) 41.6(8)
O1 O1 O1 1_5455 5_4545 134.8(9) 134.3(10) 135.1(8)
O1 O1 O1 1_5455 5_4555 138.5(9) 138.4(9) 138.6(9)
O1 O1 O1 1_5455 5_5445 41.5(8) 41.4(8) 41.6(8)
O1 O1 O1 1_5455 5_5455 45.2(7) 44.9(7) 45.7(7)
O1 O1 O1 1_5455 5_5545 138.5(9) 138.4(9) 138.6(9)
O1 O1 O1 1_5455 5_5555 134.8(9) 134.3(10) 135.1(8)
O1 O1 O2 1_5455 1_4555 45.2(10) 43.0(11) 46.6(11)
O1 O1 O2 1_5455 1_4655 134.8(13) 133.4(15) 137.0(14)
O1 O1 O2 1_5455 . 45.2(10) 43.0(11) 46.6(11)
O1 O1 O2 1_5455 1_5655 134.8(13) 133.4(15) 137.0(14)
O1 O1 O2 1_5455 5_3545 90.0(3) 90.0(3) 90.0(3)
O1 O1 O2 1_5455 5_5555 90.0(3) 90.0(3) 90.0(3)
O1 O1 O3 1_5455 1_5545 48.3(6) 45.3(7) 51.9(5)
O1 O1 O3 1_5455 . 48.3(6) 45.3(7) 51.9(5)
O1 O1 O3 1_5455 1_5645 131.7(8) 128.1(6) 134.7(9)
O1 O1 O3 1_5455 1_5655 131.7(8) 128.1(6) 134.7(9)
O1 O1 O3 1_5455 5_4535 90.0(3) 90.0(2) 90.0(2)
O1 O1 O3 1_5455 5_4555 90.0(2) 90.0(3) 90.0(3)
O1 O1 O3 1_5455 5_5535 90.0(2) 90.0(2) 90.0(2)
O1 O1 O3 1_5455 5_5555 90.0(3) 90.0(4) 90.0(4)
O1 O1 O1 1_5655 1_6555 90.0(5) 90 90
O1 O1 O1 1_5655 5_4445 134.8(9) 134.3(10) 135.1(8)
O1 O1 O1 1_5655 5_4455 138.5(9) 138.4(9) 138.6(9)
O1 O1 O1 1_5655 5_4545 45.2(7) 44.9(7) 45.7(7)
O1 O1 O1 1_5655 5_4555 41.5(8) 41.4(8) 41.6(8)
O1 O1 O1 1_5655 5_5445 138.5(9) 138.4(9) 138.6(9)
O1 O1 O1 1_5655 5_5455 134.8(9) 134.3(10) 135.1(8)
O1 O1 O1 1_5655 5_5545 41.5(8) 41.4(8) 41.6(8)
O1 O1 O1 1_5655 5_5555 45.2(7) 44.9(7) 45.7(7)
O1 O1 O2 1_5655 1_4555 134.8(13) 133.4(15) 137.0(14)
O1 O1 O2 1_5655 1_4655 45.2(10) 43.0(11) 46.6(11)
O1 O1 O2 1_5655 . 134.8(13) 133.4(15) 137.0(14)
O1 O1 O2 1_5655 1_5655 45.2(10) 43.0(11) 46.6(11)
O1 O1 O2 1_5655 5_3545 90.0(3) 90.0(3) 90.0(3)
O1 O1 O2 1_5655 5_5555 90.0(3) 90.0(3) 90.0(3)
O1 O1 O3 1_5655 1_5545 131.7(8) 128.1(6) 134.7(9)
O1 O1 O3 1_5655 . 131.7(8) 128.1(6) 134.7(9)
O1 O1 O3 1_5655 1_5645 48.3(6) 45.3(7) 51.9(5)
O1 O1 O3 1_5655 1_5655 48.3(6) 45.3(7) 51.9(5)
O1 O1 O3 1_5655 5_4535 90.0(3) 90.0(2) 90.0(2)
O1 O1 O3 1_5655 5_4555 90.0(2) 90.0(3) 90.0(3)
O1 O1 O3 1_5655 5_5535 90.0(2) 90.0(2) 90.0(2)
O1 O1 O3 1_5655 5_5555 90.0(3) 90.0(4) 90.0(4)
O1 O1 O1 1_6555 5_4445 134.8(7) 134.5(7) 135.3(8)
O1 O1 O1 1_6555 5_4545 134.8(7) 134.5(7) 135.3(8)
O1 O1 O1 1_6555 5_5445 48.8(8) 48.7(8) 48.9(8)
O1 O1 O1 1_6555 5_5455 45.0(7) 44.6(7) 45.4(7)
O1 O1 O1 1_6555 5_5545 48.8(8) 48.7(8) 48.9(8)
O1 O1 O1 1_6555 5_5555 45.0(7) 44.6(7) 45.4(7)
O1 O1 O2 1_6555 1_4555 135.1(10) 133.0(11) 136.4(10)
O1 O1 O2 1_6555 1_4655 135.1(10) 133.0(11) 136.4(10)
O1 O1 O2 1_6555 . 44.9(10) 43.6(10) 47.0(11)
O1 O1 O2 1_6555 1_5655 44.9(10) 43.6(10) 47.0(11)
O1 O1 O2 1_6555 5_3545 177.0(9) 176.9(9) 177.1(10)
O1 O1 O3 1_6555 1_5545 90.7(12) 87.7(14) 93.1(13)
O1 O1 O3 1_6555 . 89.5(12) 87.3(12) 91.9(14)
O1 O1 O3 1_6555 1_5645 90.7(12) 87.7(14) 93.1(13)
O1 O1 O3 1_6555 1_5655 89.5(12) 87.3(12) 91.9(14)
O1 O1 O3 1_6555 5_4535 125.4(10) 123.8(11) 128.2(9)
O1 O1 O3 1_6555 5_5535 56.0(9) 54.9(9) 57.0(9)
O1 O1 O3 1_6555 5_5555 54.9(9) 54.4(9) 55.3(9)
O1 O1 O1 5_4445 5_4545 89.6(9) 88.6(9) 90.2(8)
O1 O1 O1 5_4445 5_5445 86.0(8) 85.6(8) 86.5(8)
O1 O1 O1 5_4445 5_5545 170.6(8) 170.5(8) 170.8(8)
O1 O1 O2 5_4445 . 90.1(10) 89.3(10) 90.9(10)
O1 O1 O2 5_4445 1_5655 175.9(14) 174.7(13) 177.1(14)
O1 O1 O2 5_4445 5_3545 44.9(3) 44.5(4) 45.3(3)
O1 O1 O3 5_4445 . 67.9(8) 66.2(8) 69.1(8)
O1 O1 O3 5_4445 1_5655 119.6(10) 117.4(10) 120.7(10)
O1 O1 O3 5_4445 5_4535 61.7(6) 60.6(6) 62.5(7)
O1 O1 O3 5_4445 5_5535 109.4(7) 109.3(7) 109.5(7)
O1 O1 O1 5_4455 5_4555 96.9(9) 96.7(9) 97.3(9)
O1 O1 O1 5_4455 5_5455 86.0(7) 85.6(7) 86.5(7)
O1 O1 O1 5_4455 5_5555 170.6(8) 170.5(8) 170.8(8)
O1 O1 O2 5_4455 5_5555 130.8(3) 130.7(3) 130.9(3)
O1 O1 O3 5_4455 1_5545 67.1(8) 66.3(8) 67.8(8)
O1 O1 O3 5_4455 1_5645 122.3(9) 121.5(9) 123.0(9)
O1 O1 O3 5_4455 5_4555 64.5(6) 64.2(6) 64.8(6)
O1 O1 O3 5_4455 5_5555 109.5(6) 108.9(6) 110.2(6)
O1 O1 O1 5_4545 5_5445 170.6(8) 170.5(8) 170.8(8)
O1 O1 O1 5_4545 5_5545 86.0(8) 85.6(8) 86.5(8)
O1 O1 O2 5_4545 . 175.9(14) 174.7(13) 177.1(14)
O1 O1 O2 5_4545 1_5655 90.1(10) 89.3(10) 90.9(10)
O1 O1 O2 5_4545 5_3545 44.9(3) 44.5(4) 45.3(3)
O1 O1 O3 5_4545 . 119.6(10) 117.4(10) 120.7(10)
O1 O1 O3 5_4545 1_5655 67.9(8) 66.2(8) 69.1(8)
O1 O1 O3 5_4545 5_4535 61.7(6) 60.6(6) 62.5(7)
O1 O1 O3 5_4545 5_5535 109.4(7) 109.3(7) 109.5(7)
O1 O1 O1 5_4555 5_5455 170.6(8) 170.5(8) 170.8(8)
O1 O1 O1 5_4555 5_5555 86.0(7) 85.6(7) 86.5(7)
O1 O1 O2 5_4555 5_5555 130.8(3) 130.7(3) 130.9(3)
O1 O1 O3 5_4555 1_5545 122.3(9) 121.5(9) 123.0(9)
O1 O1 O3 5_4555 1_5645 67.1(8) 66.3(8) 67.8(8)
O1 O1 O3 5_4555 5_4555 64.5(6) 64.2(6) 64.8(6)
O1 O1 O3 5_4555 5_5555 109.5(6) 108.9(6) 110.2(6)
O1 O1 O1 5_5445 5_5545 96.9(9) 96.7(9) 97.3(9)
O1 O1 O2 5_5445 5_3545 130.8(3) 130.7(3) 130.9(3)
O1 O1 O3 5_5445 . 67.1(8) 66.3(8) 67.8(8)
O1 O1 O3 5_5445 1_5655 122.3(9) 121.5(9) 123.0(9)
O1 O1 O3 5_5445 5_4535 109.5(6) 108.9(6) 110.2(6)
O1 O1 O3 5_5445 5_5535 64.5(6) 64.2(6) 64.8(6)
O1 O1 O1 5_5455 5_5555 89.6(9) 88.6(9) 90.2(8)
O1 O1 O2 5_5455 1_4555 90.1(10) 89.3(10) 90.9(10)
O1 O1 O2 5_5455 1_4655 175.9(14) 174.7(13) 177.1(14)
O1 O1 O2 5_5455 5_5555 44.9(3) 44.5(4) 45.3(3)
O1 O1 O3 5_5455 1_5545 67.9(8) 66.2(8) 69.1(8)
O1 O1 O3 5_5455 1_5645 119.6(10) 117.4(10) 120.7(10)
O1 O1 O3 5_5455 5_4555 109.4(7) 109.3(7) 109.5(7)
O1 O1 O3 5_5455 5_5555 61.7(6) 60.6(6) 62.5(7)
O1 O1 O2 5_5545 5_3545 130.8(3) 130.7(3) 130.9(3)
O1 O1 O3 5_5545 . 122.3(9) 121.5(9) 123.0(9)
O1 O1 O3 5_5545 1_5655 67.1(8) 66.3(8) 67.8(8)
O1 O1 O3 5_5545 5_4535 109.5(6) 108.9(6) 110.2(6)
O1 O1 O3 5_5545 5_5535 64.5(6) 64.2(6) 64.8(6)
O1 O1 O2 5_5555 1_4555 175.9(14) 174.7(13) 177.1(14)
O1 O1 O2 5_5555 1_4655 90.1(10) 89.3(10) 90.9(10)
O1 O1 O2 5_5555 5_5555 44.9(3) 44.5(4) 45.3(3)
O1 O1 O3 5_5555 1_5545 119.6(10) 117.4(10) 120.7(10)
O1 O1 O3 5_5555 1_5645 67.9(8) 66.2(8) 69.1(8)
O1 O1 O3 5_5555 5_4555 109.4(7) 109.3(7) 109.5(7)
O1 O1 O3 5_5555 5_5555 61.7(6) 60.6(6) 62.5(7)
O2 O1 O2 1_4555 1_4655 89.6(13) 86.8(15) 93.9(14)
O2 O1 O2 1_4555 . 90.2(11) 88.6(12) 91.3(9)
O2 O1 O2 1_4555 1_5655 174.4(15) 171.5(18) 180.0(5)
O2 O1 O3 1_4555 1_5545 61.3(11) 58.1(12) 64.4(14)
O2 O1 O3 1_4555 . 62.1(11) 60.8(12) 65.3(10)
O2 O1 O3 1_4555 1_5645 117.7(13) 110.2(16) 125.4(18)
O2 O1 O3 1_4555 1_5655 118.5(14) 116.2(17) 120.5(16)
O2 O1 O3 1_4555 5_5555 114.0(9) 113.2(8) 114.8(10)
O2 O1 O2 1_4655 . 174.4(15) 171.5(18) 180.0(5)
O2 O1 O2 1_4655 1_5655 90.2(11) 88.6(12) 91.3(9)
O2 O1 O3 1_4655 1_5545 117.7(13) 110.2(16) 125.4(18)
O2 O1 O3 1_4655 . 118.5(14) 116.2(17) 120.5(16)
O2 O1 O3 1_4655 1_5645 61.3(11) 58.1(12) 64.4(14)
O2 O1 O3 1_4655 1_5655 62.1(11) 60.8(12) 65.3(10)
O2 O1 O3 1_4655 5_5555 114.0(9) 113.2(8) 114.8(10)
O2 O1 O2 . 1_5655 89.6(13) 86.8(15) 93.9(14)
O2 O1 O3 . 1_5545 62.1(11) 60.8(12) 65.3(10)
O2 O1 O3 . . 61.3(11) 58.1(12) 64.4(14)
O2 O1 O3 . 1_5645 118.5(14) 116.2(17) 120.5(16)
O2 O1 O3 . 1_5655 117.7(13) 110.2(16) 125.4(18)
O2 O1 O3 . 5_4535 114.0(9) 113.2(8) 114.8(10)
O2 O1 O3 1_5655 1_5545 118.5(14) 116.2(17) 120.5(16)
O2 O1 O3 1_5655 . 117.7(13) 110.2(16) 125.4(18)
O2 O1 O3 1_5655 1_5645 62.1(11) 60.8(12) 65.3(10)
O2 O1 O3 1_5655 1_5655 61.3(11) 58.1(12) 64.4(14)
O2 O1 O3 1_5655 5_4535 114.0(9) 113.2(8) 114.8(10)
O2 O1 O3 5_3545 . 91.2(10) 90.6(10) 91.8(10)
O2 O1 O3 5_3545 1_5655 91.2(10) 90.6(10) 91.8(10)
O2 O1 O3 5_3545 5_4535 50.2(10) 48.8(10) 51.6(9)
O2 O1 O3 5_3545 5_5535 121.0(10) 119.9(10) 122.1(10)
O2 O1 O3 5_5555 1_5545 91.2(10) 90.6(10) 91.8(10)
O2 O1 O3 5_5555 1_5645 91.2(10) 90.6(10) 91.8(10)
O2 O1 O3 5_5555 5_4555 121.0(10) 119.9(10) 122.1(10)
O2 O1 O3 5_5555 5_5555 50.2(10) 48.8(10) 51.6(9)
O3 O1 O3 1_5545 . 95.4(6) 93.5(6) 99.3(7)
O3 O1 O3 1_5545 1_5645 83.5(8) 76.1(6) 89.4(10)
O3 O1 O3 1_5545 1_5655 175.2(12) 173.1(15) 180.0(5)
O3 O1 O3 1_5545 5_4555 131.5(6) 130.5(7) 132.6(6)
O3 O1 O3 1_5545 5_5555 129.6(7) 126.8(7) 131.5(9)
O3 O1 O3 . 1_5645 175.2(12) 173.1(15) 180.0(5)
O3 O1 O3 . 1_5655 83.5(8) 76.1(6) 89.4(10)
O3 O1 O3 . 5_4535 129.6(7) 126.8(7) 131.5(9)
O3 O1 O3 . 5_5535 131.5(6) 130.5(7) 132.6(6)
O3 O1 O3 1_5645 1_5655 95.4(6) 93.5(6) 99.3(7)
O3 O1 O3 1_5645 5_4555 131.5(6) 130.5(7) 132.6(6)
O3 O1 O3 1_5645 5_5555 129.6(7) 126.8(7) 131.5(9)
O3 O1 O3 1_5655 5_4535 129.6(7) 126.8(7) 131.5(9)
O3 O1 O3 1_5655 5_5535 131.5(6) 130.5(7) 132.6(6)
O3 O1 O3 5_4535 5_5535 70.8(10) 70.5(10) 71.1(11)
O3 O1 O3 5_4555 5_5555 70.8(9) 70.5(9) 71.1(9)
Fe1 O2 Fe1 . 1_6555 165.6(19) 142.0(15) 179.7(5)
Fe1 O2 Pb1 . 1_5545 75.6(11) 73.9(12) 77.2(10)
Fe1 O2 Pb1 . 1_6565 138.3(14) 136.7(16) 140.2(13)
Fe1 O2 Pb1 . 5_5445 89.6(12) 73.4(8) 104.0(12)
Fe1 O2 Pb1 . 5_5455 89.0(12) 74.8(9) 98.6(12)
Fe1 O2 Pb1 . 5_5545 89.6(12) 73.4(8) 104.0(12)
Fe1 O2 Pb1 . 5_5555 89.0(12) 74.8(9) 98.6(12)
Fe1 O2 Bi1 . 1_5545 75.6(11) 73.9(12) 77.3(10)
Fe1 O2 Bi1 . 1_6565 138.3(14) 136.6(16) 140.2(13)
Fe1 O2 Bi1 . 5_5445 89.6(12) 73.4(8) 104.0(12)
Fe1 O2 Bi1 . 5_5455 89.0(12) 74.8(9) 98.6(12)
Fe1 O2 Bi1 . 5_5545 89.6(12) 73.4(8) 104.0(12)
Fe1 O2 Bi1 . 5_5555 89.0(12) 74.8(9) 98.6(12)
Fe1 O2 O1 . 1_5455 46.1(9) 44.1(7) 49.5(9)
Fe1 O2 O1 . . 46.1(9) 44.1(7) 49.5(9)
Fe1 O2 O1 . 1_6455 134.8(9) 130.3(9) 136.6(9)
Fe1 O2 O1 . 1_6555 134.8(9) 130.3(9) 136.6(9)
Fe1 O2 O1 . 5_4445 20.6(7) 19.8(8) 21.4(6)
Fe1 O2 O1 . 5_6455 166.3(14) 163.7(12) 168.8(16)
Fe1 O2 O2 . 1_4555 6.8(10) 0.0(5) 17.3(10)
Fe1 O2 O2 . 1_5455 90.0(11) 90.0(10) 90.0(10)
Fe1 O2 O2 . 1_5655 90.0(11) 90.0(10) 90.0(10)
Fe1 O2 O2 . 1_6555 173.9(17) 160.1(14) 179.8(8)
Fe1 O2 O3 . 1_5545 47.1(12) 33.0(10) 64.2(15)
Fe1 O2 O3 . . 47.2(12) 34.4(10) 67.5(13)
Fe1 O2 O3 . 1_6545 132.7(18) 107.9(13) 149.9(16)
Fe1 O2 O3 . 1_6555 130.4(18) 110.1(14) 144(2)
Fe1 O2 Pb1 1_6555 1_5545 137.6(15) 136.2(17) 139.3(13)
Fe1 O2 Pb1 1_6555 1_6565 76.3(10) 74.7(12) 77.8(9)
Fe1 O2 Pb1 1_6555 5_5445 88.7(12) 74.3(8) 98.4(12)
Fe1 O2 Pb1 1_6555 5_5455 89.9(12) 74.2(9) 104.6(11)
Fe1 O2 Pb1 1_6555 5_5545 88.7(12) 74.3(8) 98.4(12)
Fe1 O2 Pb1 1_6555 5_5555 89.9(12) 74.2(9) 104.6(11)
Fe1 O2 Bi1 1_6555 1_5545 137.6(15) 136.2(17) 139.3(13)
Fe1 O2 Bi1 1_6555 1_6565 76.3(10) 74.7(12) 77.8(9)
Fe1 O2 Bi1 1_6555 5_5445 88.7(12) 74.3(8) 98.4(12)
Fe1 O2 Bi1 1_6555 5_5455 89.9(12) 74.2(9) 104.6(11)
Fe1 O2 Bi1 1_6555 5_5545 88.7(12) 74.3(8) 98.4(12)
Fe1 O2 Bi1 1_6555 5_5555 89.9(12) 74.2(9) 104.6(11)
Fe1 O2 O1 1_6555 1_5455 134.8(9) 129.9(9) 136.6(10)
Fe1 O2 O1 1_6555 . 134.8(9) 129.9(9) 136.6(10)
Fe1 O2 O1 1_6555 1_6455 46.1(9) 44.1(7) 49.5(9)
Fe1 O2 O1 1_6555 1_6555 46.1(9) 44.1(7) 49.5(9)
Fe1 O2 O1 1_6555 5_4445 167.4(15) 164.9(13) 169.7(17)
Fe1 O2 O1 1_6555 5_6455 21.0(7) 20.2(7) 21.7(6)
Fe1 O2 O2 1_6555 1_4555 173.7(17) 159.4(14) 180.0(5)
Fe1 O2 O2 1_6555 1_5455 90.0(11) 90.0(10) 90.0(10)
Fe1 O2 O2 1_6555 1_5655 90.0(11) 90.0(10) 90.0(10)
Fe1 O2 O2 1_6555 1_6555 6.9(10) 0.2(8) 17.6(11)
Fe1 O2 O3 1_6555 1_5545 130.0(18) 109.0(13) 143(2)
Fe1 O2 O3 1_6555 . 133.2(18) 109.0(14) 150.5(15)
Fe1 O2 O3 1_6555 1_6545 46.8(12) 34.1(10) 66.6(13)
Fe1 O2 O3 1_6555 1_6555 47.5(12) 33.4(11) 64.8(15)
Pb1 O2 Pb1 1_5545 5_5445 59.6(9) 59.5(10) 59.8(8)
Pb1 O2 Pb1 1_5545 5_5455 136.4(8) 135.7(9) 137.1(7)
Pb1 O2 Pb1 1_5545 5_5545 59.6(9) 59.5(10) 59.8(8)
Pb1 O2 Pb1 1_5545 5_5555 136.4(8) 135.7(9) 137.1(7)
Pb1 O2 Bi1 1_5545 1_5545 0.0(5) 0.0(5) 0.0(5)
Pb1 O2 Bi1 1_5545 5_5445 59.6(9) 59.5(10) 59.8(8)
Pb1 O2 Bi1 1_5545 5_5455 136.4(8) 135.7(9) 137.1(7)
Pb1 O2 Bi1 1_5545 5_5545 59.6(9) 59.5(10) 59.8(8)
Pb1 O2 Bi1 1_5545 5_5555 136.4(8) 135.7(9) 137.1(7)
Pb1 O2 O1 1_5545 1_5455 67.9(9) 66.7(10) 69.2(9)
Pb1 O2 O1 1_5545 . 67.9(9) 66.7(10) 69.2(9)
Pb1 O2 O1 1_5545 1_6455 110.0(10) 109.3(11) 110.8(9)
Pb1 O2 O1 1_5545 1_6555 110.0(10) 109.3(11) 110.8(9)
Pb1 O2 O1 1_5545 5_4445 55.0(7) 54.1(7) 55.8(6)
Pb1 O2 O2 1_5545 1_5455 90.0(10) 90.0(10) 90.0(10)
Pb1 O2 O2 1_5545 1_5655 90.0(10) 90.0(10) 90.0(10)
Pb1 O2 O2 1_5545 1_6555 122.5(12) 122.4(12) 122.6(12)
Pb1 O2 O3 1_5545 . 110.8(13) 109.8(14) 111.7(12)
Pb1 O2 O3 1_5545 1_6545 72.8(12) 72.6(11) 73.2(12)
Pb1 O2 O3 1_5545 1_6555 172.0(15) 171.5(16) 172.7(14)
Pb1 O2 Pb1 1_6565 5_5445 136.7(8) 136.1(9) 137.2(7)
Pb1 O2 Pb1 1_6565 5_5455 59.7(9) 59.5(9) 59.9(8)
Pb1 O2 Pb1 1_6565 5_5545 136.7(8) 136.1(9) 137.2(7)
Pb1 O2 Pb1 1_6565 5_5555 59.7(9) 59.5(9) 59.9(8)
Pb1 O2 Bi1 1_6565 1_6565 0.0(5) 0.0(5) 0.0(5)
Pb1 O2 Bi1 1_6565 5_5445 136.7(8) 136.1(9) 137.2(7)
Pb1 O2 Bi1 1_6565 5_5455 59.7(9) 59.5(9) 59.9(8)
Pb1 O2 Bi1 1_6565 5_5545 136.7(8) 136.1(9) 137.2(7)
Pb1 O2 Bi1 1_6565 5_5555 59.7(9) 59.5(9) 59.9(8)
Pb1 O2 O1 1_6565 1_5455 110.3(10) 109.5(11) 111.3(9)
Pb1 O2 O1 1_6565 . 110.3(10) 109.5(11) 111.3(9)
Pb1 O2 O1 1_6565 1_6455 68.5(9) 67.2(9) 69.7(8)
Pb1 O2 O1 1_6565 1_6555 68.5(9) 67.2(9) 69.7(8)
Pb1 O2 O1 1_6565 5_6455 55.3(7) 54.5(7) 56.1(6)
Pb1 O2 O2 1_6565 1_4555 122.6(12) 122.4(12) 122.8(11)
Pb1 O2 O2 1_6565 1_5455 90.0(10) 90.0(10) 90.0(10)
Pb1 O2 O2 1_6565 1_5655 90.0(10) 90.0(10) 90.0(10)
Pb1 O2 O3 1_6565 1_5545 172.3(14) 171.6(16) 173.2(13)
Pb1 O2 O3 1_6565 . 72.8(11) 72.6(11) 72.9(12)
Pb1 O2 O3 1_6565 1_6545 111.2(13) 110.4(14) 111.9(12)
Pb1 O2 Pb1 5_5445 5_5455 91.5(6) 89.0(5) 96.9(6)
Pb1 O2 Pb1 5_5445 5_5545 88.2(10) 62.8(5) 104.1(16)
Pb1 O2 Pb1 5_5445 5_5555 168.3(11) 159.4(9) 179.6(5)
Pb1 O2 Bi1 5_5445 1_5545 59.6(7) 59.5(8) 59.8(6)
Pb1 O2 Bi1 5_5445 1_6565 136.7(8) 136.1(9) 137.2(7)
Pb1 O2 Bi1 5_5445 5_5445 0.0(5) 0.0(5) 0.0(5)
Pb1 O2 Bi1 5_5445 5_5455 91.5(6) 89.0(5) 96.8(6)
Pb1 O2 Bi1 5_5445 5_5545 88.2(10) 62.8(5) 104.1(16)
Pb1 O2 Bi1 5_5445 5_5555 168.3(11) 159.4(9) 179.6(5)
Pb1 O2 O1 5_5445 1_5455 60.6(9) 53.5(11) 68.8(10)
Pb1 O2 O1 5_5445 . 118.9(14) 111.5(11) 126.8(13)
Pb1 O2 O1 5_5445 1_6455 61.2(8) 51.9(9) 69.7(10)
Pb1 O2 O1 5_5445 1_6555 119.8(14) 111.2(11) 122.8(14)
Pb1 O2 O1 5_5445 5_4445 90.0(10) 89.1(11) 90.9(8)
Pb1 O2 O1 5_5445 5_6455 93.2(9) 92.7(8) 93.6(10)
Pb1 O2 O2 5_5445 1_4555 89.3(11) 88.1(10) 90.3(12)
Pb1 O2 O2 5_5445 1_5455 45.9(9) 37.9(9) 58.6(9)
Pb1 O2 O2 5_5445 1_5655 134.1(13) 121.4(10) 142.1(16)
Pb1 O2 O2 5_5445 1_6555 90.5(11) 88.1(10) 92.5(12)
Pb1 O2 O3 5_5445 1_5545 57.5(9) 47.4(8) 62.8(10)
Pb1 O2 O3 5_5445 . 121.8(11) 117.2(14) 129.3(10)
Pb1 O2 O3 5_5445 1_6545 58.0(9) 47.3(7) 62.9(13)
Pb1 O2 O3 5_5445 1_6555 121.5(11) 116.7(13) 129.9(13)
Pb1 O2 Pb1 5_5455 5_5545 168.3(11) 159.4(7) 179.6(5)
Pb1 O2 Pb1 5_5455 5_5555 88.7(10) 63.3(5) 104.1(17)
Pb1 O2 Bi1 5_5455 1_5545 136.4(8) 135.7(9) 137.1(7)
Pb1 O2 Bi1 5_5455 1_6565 59.7(7) 59.5(8) 59.9(6)
Pb1 O2 Bi1 5_5455 5_5445 91.5(6) 89.0(5) 96.9(4)
Pb1 O2 Bi1 5_5455 5_5455 0.0(5) 0.0(5) 0.0(5)
Pb1 O2 Bi1 5_5455 5_5545 168.3(11) 159.4(7) 179.6(5)
Pb1 O2 Bi1 5_5455 5_5555 88.7(10) 63.3(5) 104.2(17)
Pb1 O2 O1 5_5455 1_5455 61.0(8) 51.9(9) 69.7(10)
Pb1 O2 O1 5_5455 . 120.0(14) 111.8(11) 122.9(13)
Pb1 O2 O1 5_5455 1_6455 60.5(9) 53.5(11) 68.8(10)
Pb1 O2 O1 5_5455 1_6555 119.1(14) 112.2(11) 127.5(13)
Pb1 O2 O1 5_5455 5_4445 93.4(9) 93.0(8) 93.7(10)
Pb1 O2 O1 5_5455 5_6455 90.4(9) 89.4(10) 91.4(8)
Pb1 O2 O2 5_5455 1_4555 90.5(11) 87.9(9) 92.3(13)
Pb1 O2 O2 5_5455 1_5455 45.7(9) 37.9(9) 58.3(9)
Pb1 O2 O2 5_5455 1_5655 134.3(13) 121.7(11) 142.1(17)
Pb1 O2 O2 5_5455 1_6555 89.3(11) 88.3(10) 90.3(13)
Pb1 O2 O3 5_5455 1_5545 121.3(11) 116.7(13) 129.7(14)
Pb1 O2 O3 5_5455 . 58.2(9) 47.6(8) 62.9(12)
Pb1 O2 O3 5_5455 1_6545 121.7(11) 117.2(14) 129.2(11)
Pb1 O2 O3 5_5455 1_6555 57.7(9) 47.8(8) 63.0(10)
Pb1 O2 Pb1 5_5545 5_5555 91.5(6) 89.0(5) 96.9(6)
Pb1 O2 Bi1 5_5545 1_5545 59.6(7) 59.5(8) 59.8(6)
Pb1 O2 Bi1 5_5545 1_6565 136.7(8) 136.1(9) 137.2(7)
Pb1 O2 Bi1 5_5545 5_5445 88.2(10) 62.8(5) 104.1(16)
Pb1 O2 Bi1 5_5545 5_5455 168.3(11) 159.4(9) 179.6(5)
Pb1 O2 Bi1 5_5545 5_5545 0.0(5) 0.0(5) 0.0(5)
Pb1 O2 Bi1 5_5545 5_5555 91.5(6) 89.0(5) 96.8(6)
Pb1 O2 O1 5_5545 1_5455 118.9(14) 111.5(11) 126.8(13)
Pb1 O2 O1 5_5545 . 60.6(9) 53.5(11) 68.8(10)
Pb1 O2 O1 5_5545 1_6455 119.8(14) 111.2(11) 122.8(14)
Pb1 O2 O1 5_5545 1_6555 61.2(8) 51.9(9) 69.7(10)
Pb1 O2 O1 5_5545 5_4445 90.0(10) 89.1(11) 90.9(8)
Pb1 O2 O1 5_5545 5_6455 93.2(9) 92.7(8) 93.6(10)
Pb1 O2 O2 5_5545 1_4555 89.3(11) 88.1(10) 90.3(12)
Pb1 O2 O2 5_5545 1_5455 134.1(13) 121.4(10) 142.1(16)
Pb1 O2 O2 5_5545 1_5655 45.9(9) 37.9(9) 58.6(9)
Pb1 O2 O2 5_5545 1_6555 90.5(11) 88.1(10) 92.5(12)
Pb1 O2 O3 5_5545 1_5545 57.5(9) 47.4(8) 62.8(10)
Pb1 O2 O3 5_5545 . 121.8(11) 117.2(14) 129.3(10)
Pb1 O2 O3 5_5545 1_6545 58.0(9) 47.3(7) 62.9(13)
Pb1 O2 O3 5_5545 1_6555 121.5(11) 116.7(13) 129.9(13)
Pb1 O2 Bi1 5_5555 1_5545 136.4(8) 135.7(9) 137.1(7)
Pb1 O2 Bi1 5_5555 1_6565 59.7(7) 59.5(8) 59.9(6)
Pb1 O2 Bi1 5_5555 5_5445 168.3(11) 159.4(7) 179.6(5)
Pb1 O2 Bi1 5_5555 5_5455 88.7(10) 63.3(5) 104.2(17)
Pb1 O2 Bi1 5_5555 5_5545 91.5(6) 89.0(5) 96.9(4)
Pb1 O2 Bi1 5_5555 5_5555 0.0(5) 0.0(5) 0.0(5)
Pb1 O2 O1 5_5555 1_5455 120.0(14) 111.8(11) 122.9(13)
Pb1 O2 O1 5_5555 . 61.0(8) 51.9(9) 69.7(10)
Pb1 O2 O1 5_5555 1_6455 119.1(14) 112.2(11) 127.5(13)
Pb1 O2 O1 5_5555 1_6555 60.5(9) 53.5(11) 68.8(10)
Pb1 O2 O1 5_5555 5_4445 93.4(9) 93.0(8) 93.7(10)
Pb1 O2 O1 5_5555 5_6455 90.4(9) 89.4(10) 91.4(8)
Pb1 O2 O2 5_5555 1_4555 90.5(11) 87.9(9) 92.3(13)
Pb1 O2 O2 5_5555 1_5455 134.3(13) 121.7(11) 142.1(17)
Pb1 O2 O2 5_5555 1_5655 45.7(9) 37.9(9) 58.3(9)
Pb1 O2 O2 5_5555 1_6555 89.3(11) 88.3(10) 90.3(13)
Pb1 O2 O3 5_5555 1_5545 121.3(11) 116.7(13) 129.7(14)
Pb1 O2 O3 5_5555 . 58.2(9) 47.6(8) 62.9(12)
Pb1 O2 O3 5_5555 1_6545 121.7(11) 117.2(14) 129.2(11)
Pb1 O2 O3 5_5555 1_6555 57.7(9) 47.8(8) 63.0(10)
Bi1 O2 Bi1 1_5545 5_5445 59.6(9) 59.5(10) 59.8(8)
Bi1 O2 Bi1 1_5545 5_5455 136.4(8) 135.7(9) 137.1(7)
Bi1 O2 Bi1 1_5545 5_5545 59.6(9) 59.5(10) 59.8(8)
Bi1 O2 Bi1 1_5545 5_5555 136.4(8) 135.7(9) 137.1(7)
Bi1 O2 O1 1_5545 1_5455 68.0(9) 66.7(10) 69.2(9)
Bi1 O2 O1 1_5545 . 68.0(9) 66.7(10) 69.2(9)
Bi1 O2 O1 1_5545 1_6455 110.0(10) 109.3(11) 110.8(9)
Bi1 O2 O1 1_5545 1_6555 110.0(10) 109.3(11) 110.8(9)
Bi1 O2 O1 1_5545 5_4445 55.0(7) 54.1(7) 55.8(6)
Bi1 O2 O2 1_5545 1_5455 90.0(10) 90.0(10) 90.0(10)
Bi1 O2 O2 1_5545 1_5655 90.0(10) 90.0(10) 90.0(10)
Bi1 O2 O2 1_5545 1_6555 122.5(12) 122.4(12) 122.6(12)
Bi1 O2 O3 1_5545 . 110.8(13) 109.9(14) 111.7(12)
Bi1 O2 O3 1_5545 1_6545 72.8(12) 72.6(11) 73.2(12)
Bi1 O2 O3 1_5545 1_6555 172.0(15) 171.5(16) 172.7(14)
Bi1 O2 Bi1 1_6565 5_5445 136.7(8) 136.1(9) 137.2(7)
Bi1 O2 Bi1 1_6565 5_5455 59.7(9) 59.5(9) 59.9(8)
Bi1 O2 Bi1 1_6565 5_5545 136.7(8) 136.1(9) 137.2(7)
Bi1 O2 Bi1 1_6565 5_5555 59.7(9) 59.5(9) 59.9(8)
Bi1 O2 O1 1_6565 1_5455 110.3(10) 109.5(11) 111.3(9)
Bi1 O2 O1 1_6565 . 110.3(10) 109.5(11) 111.3(9)
Bi1 O2 O1 1_6565 1_6455 68.5(9) 67.2(9) 69.7(8)
Bi1 O2 O1 1_6565 1_6555 68.5(9) 67.2(9) 69.7(8)
Bi1 O2 O1 1_6565 5_6455 55.3(7) 54.5(7) 56.1(6)
Bi1 O2 O2 1_6565 1_4555 122.6(12) 122.4(12) 122.8(11)
Bi1 O2 O2 1_6565 1_5455 90.0(10) 90.0(10) 90.0(10)
Bi1 O2 O2 1_6565 1_5655 90.0(10) 90.0(10) 90.0(10)
Bi1 O2 O3 1_6565 1_5545 172.3(14) 171.6(16) 173.2(13)
Bi1 O2 O3 1_6565 . 72.8(11) 72.6(11) 72.9(12)
Bi1 O2 O3 1_6565 1_6545 111.2(13) 110.4(14) 111.9(12)
Bi1 O2 Bi1 5_5445 5_5455 91.5(6) 89.0(5) 96.8(6)
Bi1 O2 Bi1 5_5445 5_5545 88.2(10) 62.8(5) 104.2(16)
Bi1 O2 Bi1 5_5445 5_5555 168.3(11) 159.4(9) 179.6(5)
Bi1 O2 O1 5_5445 1_5455 60.6(9) 53.5(11) 68.8(10)
Bi1 O2 O1 5_5445 . 118.9(14) 111.5(11) 126.8(13)
Bi1 O2 O1 5_5445 1_6455 61.2(8) 51.9(9) 69.7(10)
Bi1 O2 O1 5_5445 1_6555 119.8(14) 111.2(11) 122.8(14)
Bi1 O2 O1 5_5445 5_4445 90.0(10) 89.1(11) 90.9(8)
Bi1 O2 O1 5_5445 5_6455 93.2(9) 92.7(8) 93.6(10)
Bi1 O2 O2 5_5445 1_4555 89.3(11) 88.1(10) 90.3(12)
Bi1 O2 O2 5_5445 1_5455 45.9(9) 37.9(9) 58.6(9)
Bi1 O2 O2 5_5445 1_5655 134.1(13) 121.4(10) 142.1(16)
Bi1 O2 O2 5_5445 1_6555 90.5(11) 88.1(10) 92.5(12)
Bi1 O2 O3 5_5445 1_5545 57.5(9) 47.4(8) 62.8(10)
Bi1 O2 O3 5_5445 . 121.8(11) 117.2(14) 129.3(10)
Bi1 O2 O3 5_5445 1_6545 58.0(9) 47.3(7) 62.9(13)
Bi1 O2 O3 5_5445 1_6555 121.5(11) 116.7(13) 129.9(13)
Bi1 O2 Bi1 5_5455 5_5545 168.3(11) 159.4(7) 179.6(5)
Bi1 O2 Bi1 5_5455 5_5555 88.7(10) 63.3(5) 104.2(17)
Bi1 O2 O1 5_5455 1_5455 61.0(8) 51.9(9) 69.7(10)
Bi1 O2 O1 5_5455 . 120.0(14) 111.8(11) 122.9(13)
Bi1 O2 O1 5_5455 1_6455 60.5(9) 53.5(11) 68.8(10)
Bi1 O2 O1 5_5455 1_6555 119.1(14) 112.2(11) 127.5(13)
Bi1 O2 O1 5_5455 5_4445 93.4(9) 93.0(8) 93.7(10)
Bi1 O2 O1 5_5455 5_6455 90.4(9) 89.4(10) 91.4(8)
Bi1 O2 O2 5_5455 1_4555 90.5(11) 87.9(9) 92.3(13)
Bi1 O2 O2 5_5455 1_5455 45.6(9) 37.9(9) 58.3(9)
Bi1 O2 O2 5_5455 1_5655 134.4(13) 121.7(11) 142.1(17)
Bi1 O2 O2 5_5455 1_6555 89.3(11) 88.3(10) 90.3(13)
Bi1 O2 O3 5_5455 1_5545 121.3(11) 116.7(13) 129.7(14)
Bi1 O2 O3 5_5455 . 58.2(9) 47.6(8) 62.9(12)
Bi1 O2 O3 5_5455 1_6545 121.7(11) 117.2(14) 129.2(11)
Bi1 O2 O3 5_5455 1_6555 57.7(9) 47.8(8) 63.0(10)
Bi1 O2 Bi1 5_5545 5_5555 91.5(6) 89.0(5) 96.8(6)
Bi1 O2 O1 5_5545 1_5455 118.9(14) 111.5(11) 126.8(13)
Bi1 O2 O1 5_5545 . 60.6(9) 53.5(11) 68.8(10)
Bi1 O2 O1 5_5545 1_6455 119.8(14) 111.2(11) 122.8(14)
Bi1 O2 O1 5_5545 1_6555 61.2(8) 51.9(9) 69.7(10)
Bi1 O2 O1 5_5545 5_4445 90.0(10) 89.1(11) 90.9(8)
Bi1 O2 O1 5_5545 5_6455 93.2(9) 92.7(8) 93.6(10)
Bi1 O2 O2 5_5545 1_4555 89.3(11) 88.1(10) 90.3(12)
Bi1 O2 O2 5_5545 1_5455 134.1(13) 121.4(10) 142.1(16)
Bi1 O2 O2 5_5545 1_5655 45.9(9) 37.9(9) 58.6(9)
Bi1 O2 O2 5_5545 1_6555 90.5(11) 88.1(10) 92.5(12)
Bi1 O2 O3 5_5545 1_5545 57.5(9) 47.4(8) 62.8(10)
Bi1 O2 O3 5_5545 . 121.8(11) 117.2(14) 129.3(10)
Bi1 O2 O3 5_5545 1_6545 58.0(9) 47.3(7) 62.9(13)
Bi1 O2 O3 5_5545 1_6555 121.5(11) 116.7(13) 129.9(13)
Bi1 O2 O1 5_5555 1_5455 120.0(14) 111.8(11) 122.9(13)
Bi1 O2 O1 5_5555 . 61.0(8) 51.9(9) 69.7(10)
Bi1 O2 O1 5_5555 1_6455 119.1(14) 112.2(11) 127.5(13)
Bi1 O2 O1 5_5555 1_6555 60.5(9) 53.5(11) 68.8(10)
Bi1 O2 O1 5_5555 5_4445 93.4(9) 93.0(8) 93.7(10)
Bi1 O2 O1 5_5555 5_6455 90.4(9) 89.4(10) 91.4(8)
Bi1 O2 O2 5_5555 1_4555 90.5(11) 87.9(9) 92.3(13)
Bi1 O2 O2 5_5555 1_5455 134.4(13) 121.7(11) 142.1(17)
Bi1 O2 O2 5_5555 1_5655 45.6(9) 37.9(9) 58.3(9)
Bi1 O2 O2 5_5555 1_6555 89.3(11) 88.3(10) 90.3(13)
Bi1 O2 O3 5_5555 1_5545 121.3(11) 116.7(13) 129.7(14)
Bi1 O2 O3 5_5555 . 58.2(9) 47.6(8) 62.9(12)
Bi1 O2 O3 5_5555 1_6545 121.7(11) 117.2(14) 129.2(11)
Bi1 O2 O3 5_5555 1_6555 57.7(9) 47.8(8) 63.0(10)
O1 O2 O1 1_5455 . 89.6(13) 86.8(15) 93.9(12)
O1 O2 O1 1_5455 1_6455 90.1(8) 87.4(8) 91.7(7)
O1 O2 O1 1_5455 1_6555 174.3(15) 171(2) 179.7(6)
O1 O2 O1 1_5455 5_4445 45.1(6) 44.7(7) 45.5(5)
O1 O2 O1 1_5455 5_6455 132.9(7) 132.8(8) 133.0(6)
O1 O2 O2 1_5455 1_4555 44.9(6) 43.7(8) 47.0(7)
O1 O2 O2 1_5455 1_5455 45.2(10) 43.0(11) 46.6(11)
O1 O2 O2 1_5455 1_5655 134.8(15) 133.4(17) 137.0(14)
O1 O2 O2 1_5455 1_6555 135.2(6) 132.9(9) 136.2(7)
O1 O2 O3 1_5455 1_5545 61.2(9) 57.5(10) 65.6(12)
O1 O2 O3 1_5455 . 61.9(10) 58.6(11) 65.5(13)
O1 O2 O3 1_5455 1_6545 118.1(11) 113.6(9) 121.3(11)
O1 O2 O3 1_5455 1_6555 118.9(11) 113.2(16) 124.2(12)
O1 O2 O1 . 1_6455 174.3(15) 171(2) 179.7(6)
O1 O2 O1 . 1_6555 90.1(8) 87.4(8) 91.7(7)
O1 O2 O1 . 5_4445 45.1(6) 44.7(7) 45.5(5)
O1 O2 O1 . 5_6455 132.9(7) 132.8(8) 133.0(6)
O1 O2 O2 . 1_4555 44.9(6) 43.7(8) 47.0(7)
O1 O2 O2 . 1_5455 134.8(15) 133.4(17) 137.0(14)
O1 O2 O2 . 1_5655 45.2(10) 43.0(11) 46.6(11)
O1 O2 O2 . 1_6555 135.2(6) 132.9(9) 136.2(7)
O1 O2 O3 . 1_5545 61.2(9) 57.5(10) 65.6(12)
O1 O2 O3 . . 61.9(10) 58.6(11) 65.5(13)
O1 O2 O3 . 1_6545 118.1(11) 113.6(9) 121.3(11)
O1 O2 O3 . 1_6555 118.9(11) 113.2(16) 124.2(12)
O1 O2 O1 1_6455 1_6555 89.5(13) 86.8(16) 93.9(13)
O1 O2 O1 1_6455 5_4445 132.9(8) 132.7(9) 133.0(7)
O1 O2 O1 1_6455 5_6455 45.3(6) 44.9(7) 45.7(5)
O1 O2 O2 1_6455 1_4555 135.2(6) 132.9(9) 136.2(7)
O1 O2 O2 1_6455 1_5455 45.2(10) 43.0(11) 46.6(11)
O1 O2 O2 1_6455 1_5655 134.8(15) 133.4(18) 137.0(14)
O1 O2 O2 1_6455 1_6555 44.9(6) 43.7(8) 47.0(8)
O1 O2 O3 1_6455 1_5545 119.0(11) 113.2(15) 124.2(13)
O1 O2 O3 1_6455 . 118.1(11) 114.3(10) 121.3(12)
O1 O2 O3 1_6455 1_6545 62.0(10) 58.6(11) 65.5(13)
O1 O2 O3 1_6455 1_6555 61.1(10) 57.5(10) 65.6(13)
O1 O2 O1 1_6555 5_4445 132.9(8) 132.7(9) 133.0(7)
O1 O2 O1 1_6555 5_6455 45.3(6) 44.9(7) 45.7(5)
O1 O2 O2 1_6555 1_4555 135.2(6) 132.9(9) 136.2(7)
O1 O2 O2 1_6555 1_5455 134.8(15) 133.4(18) 137.0(14)
O1 O2 O2 1_6555 1_5655 45.2(10) 43.0(11) 46.6(11)
O1 O2 O2 1_6555 1_6555 44.9(6) 43.7(8) 47.0(8)
O1 O2 O3 1_6555 1_5545 119.0(11) 113.2(15) 124.2(13)
O1 O2 O3 1_6555 . 118.1(11) 114.3(10) 121.3(12)
O1 O2 O3 1_6555 1_6545 62.0(10) 58.6(11) 65.5(13)
O1 O2 O3 1_6555 1_6555 61.1(10) 57.5(10) 65.6(13)
O1 O2 O2 5_4445 1_5455 90.0(11) 90.0(11) 90.0(11)
O1 O2 O2 5_4445 1_5655 90.0(11) 90.0(11) 90.0(11)
O1 O2 O2 5_4445 1_6555 177.5(13) 176.7(14) 178.4(12)
O1 O2 O3 5_4445 . 55.9(11) 55.7(11) 55.9(11)
O1 O2 O3 5_4445 1_6545 127.8(14) 127.3(15) 128.5(13)
O1 O2 O3 5_4445 1_6555 133.0(14) 131.5(12) 134.4(15)
O1 O2 O2 5_6455 1_4555 177.9(13) 177.0(13) 179.0(12)
O1 O2 O2 5_6455 1_5455 90.0(11) 90.0(11) 90.0(11)
O1 O2 O2 5_6455 1_5655 90.0(11) 90.0(11) 90.0(11)
O1 O2 O3 5_6455 1_5545 132.4(13) 130.7(12) 133.9(14)
O1 O2 O3 5_6455 . 128.1(13) 127.4(14) 128.9(13)
O1 O2 O3 5_6455 1_6545 55.9(10) 55.8(10) 55.9(10)
O2 O2 O2 1_4555 1_5455 90.0(11) 90.0(10) 90.0(10)
O2 O2 O2 1_4555 1_5655 90.0(11) 90.0(10) 90.0(10)
O2 O2 O2 1_4555 1_6555 179.0(14) 178.0(16) 180.0(5)
O2 O2 O3 1_4555 1_5545 47.1(12) 45.7(10) 50.3(12)
O2 O2 O3 1_4555 . 48.1(12) 46.1(9) 53.6(12)
O2 O2 O3 1_4555 1_6545 131.6(15) 125.3(13) 133.9(9)
O2 O2 O3 1_4555 1_6555 133.1(15) 131(2) 135.2(18)
O2 O2 O2 1_5455 1_5655 180.0(5) 180.0(5) 180.0(5)
O2 O2 O2 1_5455 1_6555 90.0(7) 90.00(5) 90.00(5)
O2 O2 O3 1_5455 1_5545 90.0(7) 90.00(5) 90.00(5)
O2 O2 O3 1_5455 . 90.0(7) 90.00(5) 90.00(5)
O2 O2 O3 1_5455 1_6545 90.0(7) 90.00(5) 90.00(5)
O2 O2 O3 1_5455 1_6555 90.0(7) 90.00(5) 90.00(5)
O2 O2 O2 1_5655 1_6555 90.0(7) 90.00(5) 90.00(5)
O2 O2 O3 1_5655 1_5545 90.0(7) 90.00(5) 90.00(5)
O2 O2 O3 1_5655 . 90.0(7) 90.00(5) 90.00(5)
O2 O2 O3 1_5655 1_6545 90.0(7) 90.00(5) 90.00(5)
O2 O2 O3 1_5655 1_6555 90.0(7) 90.00(5) 90.00(5)
O2 O2 O3 1_6555 1_5545 133.1(15) 131(2) 135.2(19)
O2 O2 O3 1_6555 . 131.6(15) 125.7(13) 133.9(9)
O2 O2 O3 1_6555 1_6545 48.1(12) 46.1(9) 54.0(12)
O2 O2 O3 1_6555 1_6555 47.1(12) 45.7(10) 50.1(12)
O3 O2 O3 1_5545 . 95.2(15) 92.0(10) 100.9(17)
O3 O2 O3 1_5545 1_6545 84.5(14) 74.9(12) 88.1(10)
O3 O2 O3 1_5545 1_6555 178.0(18) 177(2) 179.9(10)
O3 O2 O3 . 1_6545 179.0(16) 175.4(14) 180.0(5)
O3 O2 O3 . 1_6555 84.6(14) 75.6(12) 88.1(10)
O3 O2 O3 1_6545 1_6555 95.2(15) 92.0(11) 101.2(18)
Fe1 O3 Fe1 . 1_5565 179.3(16) 179(2) 180.0(5)
Fe1 O3 Pb1 . 5_4455 90.4(10) 75.9(8) 102.9(12)
Fe1 O3 Pb1 . 5_4555 90.4(10) 75.9(8) 102.9(12)
Fe1 O3 Pb1 . 5_5455 89.4(10) 76.5(10) 104.7(9)
Fe1 O3 Pb1 . 5_5555 89.4(10) 76.5(10) 104.7(9)
Fe1 O3 Bi1 . 5_4455 90.4(10) 75.9(8) 102.9(12)
Fe1 O3 Bi1 . 5_4555 90.4(10) 75.9(8) 102.9(12)
Fe1 O3 Bi1 . 5_5455 89.4(10) 76.5(10) 104.7(9)
Fe1 O3 Bi1 . 5_5555 89.4(10) 76.5(10) 104.7(9)
Fe1 O3 O1 . 1_5455 41.8(5) 38.1(4) 44.8(7)
Fe1 O3 O1 . 1_5465 138.3(5) 135.2(7) 141.9(4)
Fe1 O3 O1 . . 41.8(5) 38.1(4) 44.8(7)
Fe1 O3 O1 . 1_5565 138.3(5) 135.2(7) 141.9(4)
Fe1 O3 O1 . 5_4445 34.3(9) 33.7(9) 35.7(11)
Fe1 O3 O1 . 5_4465 146.2(11) 145.7(10) 146.6(12)
Fe1 O3 O1 . 5_5445 34.7(8) 34.2(9) 35.1(8)
Fe1 O3 O1 . 5_5465 144.8(13) 143.4(16) 145.4(11)
Fe1 O3 O2 . 1_4555 41.9(14) 35.4(14) 43.9(13)
Fe1 O3 O2 . 1_4565 137.3(18) 135.7(12) 142.2(16)
Fe1 O3 O2 . . 42.7(14) 38.8(13) 44.3(13)
Fe1 O3 O2 . 1_5565 138.2(18) 136.2(13) 144(2)
Fe1 O3 O3 . 1_4555 89.3(11) 87.7(12) 90.2(13)
Fe1 O3 O3 . 1_5455 90.0(7) 90.0(6) 90.0(6)
Fe1 O3 O3 . 1_5655 90.0(7) 90.0(6) 90.0(6)
Fe1 O3 O3 . 1_6555 90.7(11) 90.6(8) 91.4(10)
Fe1 O3 Pb1 1_5565 5_4455 89.6(10) 76.5(10) 104.7(9)
Fe1 O3 Pb1 1_5565 5_4555 89.6(10) 76.5(10) 104.7(9)
Fe1 O3 Pb1 1_5565 5_5455 90.6(10) 75.9(7) 102.9(12)
Fe1 O3 Pb1 1_5565 5_5555 90.6(10) 75.9(7) 102.9(12)
Fe1 O3 Bi1 1_5565 5_4455 89.6(10) 76.5(10) 104.7(9)
Fe1 O3 Bi1 1_5565 5_4555 89.6(10) 76.5(10) 104.7(9)
Fe1 O3 Bi1 1_5565 5_5455 90.6(10) 75.9(7) 102.9(12)
Fe1 O3 Bi1 1_5565 5_5555 90.6(10) 75.9(7) 102.9(12)
Fe1 O3 O1 1_5565 1_5455 138.2(5) 135.2(7) 141.9(4)
Fe1 O3 O1 1_5565 1_5465 41.7(5) 38.1(4) 44.8(7)
Fe1 O3 O1 1_5565 . 138.2(5) 135.2(7) 141.9(4)
Fe1 O3 O1 1_5565 1_5565 41.7(5) 38.1(4) 44.8(7)
Fe1 O3 O1 1_5565 5_4445 144.8(13) 143.3(16) 145.4(11)
Fe1 O3 O1 1_5565 5_4465 34.7(8) 34.3(9) 35.1(8)
Fe1 O3 O1 1_5565 5_5445 146.2(11) 145.7(10) 146.7(12)
Fe1 O3 O1 1_5565 5_5465 34.3(9) 33.7(9) 35.6(10)
Fe1 O3 O2 1_5565 1_4555 138.2(18) 136.2(13) 144(2)
Fe1 O3 O2 1_5565 1_4565 42.7(14) 38.7(13) 44.3(13)
Fe1 O3 O2 1_5565 . 137.3(18) 135.7(12) 142.2(16)
Fe1 O3 O2 1_5565 1_5565 41.9(14) 35.3(14) 43.9(13)
Fe1 O3 O3 1_5565 1_4555 90.7(11) 90.6(8) 91.3(10)
Fe1 O3 O3 1_5565 1_5455 90.0(7) 90.0(6) 90.0(6)
Fe1 O3 O3 1_5565 1_5655 90.0(7) 90.0(6) 90.0(6)
Fe1 O3 O3 1_5565 1_6555 89.3(11) 87.7(11) 90.2(13)
Pb1 O3 Pb1 5_4455 5_4555 88.3(9) 85.9(12) 93.5(8)
Pb1 O3 Pb1 5_4455 5_5455 88.3(6) 84.0(6) 91.6(5)
Pb1 O3 Pb1 5_4455 5_5555 162.0(12) 152.6(10) 179.9(6)
Pb1 O3 Bi1 5_4455 5_4455 0.0(5) 0.0(5) 0.0(5)
Pb1 O3 Bi1 5_4455 5_4555 88.3(9) 85.9(12) 93.5(8)
Pb1 O3 Bi1 5_4455 5_5455 88.3(6) 84.0(6) 91.6(5)
Pb1 O3 Bi1 5_4455 5_5555 162.0(12) 152.6(11) 179.9(6)
Pb1 O3 O1 5_4455 1_5455 62.9(9) 50.9(10) 75.6(7)
Pb1 O3 O1 5_4455 1_5465 61.7(9) 47.7(9) 76.0(8)
Pb1 O3 O1 5_4455 . 118.6(12) 106.8(9) 130.0(9)
Pb1 O3 O1 5_4455 1_5565 117.6(12) 107.2(14) 128.1(15)
Pb1 O3 O1 5_4455 5_4445 78.6(8) 77.3(10) 79.2(7)
Pb1 O3 O1 5_4455 5_4465 79.6(8) 79.3(7) 80.0(9)
Pb1 O3 O1 5_4455 5_5445 123.5(6) 123.1(5) 123.8(6)
Pb1 O3 O1 5_4455 5_5465 126.1(7) 125.9(8) 126.4(6)
Pb1 O3 O2 5_4455 1_4555 60.7(9) 50.4(7) 77.2(13)
Pb1 O3 O2 5_4455 1_4565 60.3(9) 51.1(10) 76.8(11)
Pb1 O3 O2 5_4455 . 118.3(10) 105.6(10) 128.3(11)
Pb1 O3 O2 5_4455 1_5565 116.0(10) 105.3(10) 125.5(11)
Pb1 O3 O3 5_4455 1_4555 45.7(5) 44.11(15) 48.4(6)
Pb1 O3 O3 5_4455 1_5455 45.9(8) 43.3(8) 47.0(8)
Pb1 O3 O3 5_4455 1_5655 134.1(11) 133.0(14) 136.7(9)
Pb1 O3 O3 5_4455 1_6555 134.3(5) 130.5(4) 135.91(15)
Pb1 O3 Pb1 5_4555 5_5455 162.0(12) 152.6(10) 179.9(6)
Pb1 O3 Pb1 5_4555 5_5555 88.3(6) 84.0(6) 91.6(5)
Pb1 O3 Bi1 5_4555 5_4455 88.3(9) 85.9(12) 93.5(8)
Pb1 O3 Bi1 5_4555 5_4555 0.0(5) 0.0(5) 0.0(5)
Pb1 O3 Bi1 5_4555 5_5455 162.0(12) 152.6(11) 179.9(6)
Pb1 O3 Bi1 5_4555 5_5555 88.3(6) 84.0(6) 91.6(5)
Pb1 O3 O1 5_4555 1_5455 118.6(12) 106.8(9) 130.0(9)
Pb1 O3 O1 5_4555 1_5465 117.6(12) 107.2(14) 128.1(15)
Pb1 O3 O1 5_4555 . 62.9(9) 50.9(10) 75.6(7)
Pb1 O3 O1 5_4555 1_5565 61.7(9) 47.7(9) 76.0(8)
Pb1 O3 O1 5_4555 5_4445 78.6(8) 77.3(10) 79.2(7)
Pb1 O3 O1 5_4555 5_4465 79.6(8) 79.3(7) 80.0(9)
Pb1 O3 O1 5_4555 5_5445 123.5(6) 123.1(5) 123.8(6)
Pb1 O3 O1 5_4555 5_5465 126.1(7) 125.9(8) 126.4(6)
Pb1 O3 O2 5_4555 1_4555 60.7(9) 50.4(7) 77.2(13)
Pb1 O3 O2 5_4555 1_4565 60.3(9) 51.1(10) 76.8(11)
Pb1 O3 O2 5_4555 . 118.3(10) 105.6(10) 128.3(11)
Pb1 O3 O2 5_4555 1_5565 116.0(10) 105.3(10) 125.5(11)
Pb1 O3 O3 5_4555 1_4555 45.7(5) 44.11(15) 48.4(6)
Pb1 O3 O3 5_4555 1_5455 134.1(11) 133.0(14) 136.7(9)
Pb1 O3 O3 5_4555 1_5655 45.9(8) 43.3(8) 47.0(8)
Pb1 O3 O3 5_4555 1_6555 134.3(5) 130.5(4) 135.91(15)
Pb1 O3 Pb1 5_5455 5_5555 88.3(9) 85.9(12) 93.6(8)
Pb1 O3 Bi1 5_5455 5_4455 88.3(6) 84.0(5) 91.6(5)
Pb1 O3 Bi1 5_5455 5_4555 162.0(12) 152.6(11) 179.9(6)
Pb1 O3 Bi1 5_5455 5_5455 0.0(5) 0.0(5) 0.0(5)
Pb1 O3 Bi1 5_5455 5_5555 88.3(9) 85.9(12) 93.6(8)
Pb1 O3 O1 5_5455 1_5455 61.5(9) 47.7(10) 76.0(8)
Pb1 O3 O1 5_5455 1_5465 63.0(9) 50.9(10) 75.6(7)
Pb1 O3 O1 5_5455 . 117.4(12) 107.2(14) 128.1(15)
Pb1 O3 O1 5_5455 1_5565 118.7(12) 106.9(9) 130.1(9)
Pb1 O3 O1 5_5455 5_4445 126.1(7) 125.9(8) 126.4(6)
Pb1 O3 O1 5_5455 5_4465 123.5(6) 123.0(5) 123.8(6)
Pb1 O3 O1 5_5455 5_5445 79.7(8) 79.3(7) 80.0(9)
Pb1 O3 O1 5_5455 5_5465 78.6(8) 77.4(10) 79.2(8)
Pb1 O3 O2 5_5455 1_4555 115.8(10) 105.3(10) 125.5(11)
Pb1 O3 O2 5_5455 1_4565 118.4(10) 105.6(10) 128.3(11)
Pb1 O3 O2 5_5455 . 60.2(9) 51.1(10) 76.7(11)
Pb1 O3 O2 5_5455 1_5565 60.8(9) 50.4(7) 77.3(13)
Pb1 O3 O3 5_5455 1_4555 134.3(5) 130.4(4) 135.91(16)
Pb1 O3 O3 5_5455 1_5455 45.9(8) 43.2(8) 47.0(8)
Pb1 O3 O3 5_5455 1_5655 134.1(11) 133.0(14) 136.8(9)
Pb1 O3 O3 5_5455 1_6555 45.7(5) 44.11(16) 48.4(6)
Pb1 O3 Bi1 5_5555 5_4455 162.0(12) 152.6(11) 179.9(6)
Pb1 O3 Bi1 5_5555 5_4555 88.3(6) 84.0(5) 91.6(5)
Pb1 O3 Bi1 5_5555 5_5455 88.3(9) 85.9(12) 93.6(8)
Pb1 O3 Bi1 5_5555 5_5555 0.0(5) 0.0(5) 0.0(5)
Pb1 O3 O1 5_5555 1_5455 117.4(12) 107.2(14) 128.1(15)
Pb1 O3 O1 5_5555 1_5465 118.7(12) 106.9(9) 130.1(9)
Pb1 O3 O1 5_5555 . 61.5(9) 47.7(10) 76.0(8)
Pb1 O3 O1 5_5555 1_5565 63.0(9) 50.9(10) 75.6(7)
Pb1 O3 O1 5_5555 5_4445 126.1(7) 125.9(8) 126.4(6)
Pb1 O3 O1 5_5555 5_4465 123.5(6) 123.0(5) 123.8(6)
Pb1 O3 O1 5_5555 5_5445 79.7(8) 79.3(7) 80.0(9)
Pb1 O3 O1 5_5555 5_5465 78.6(8) 77.4(10) 79.2(8)
Pb1 O3 O2 5_5555 1_4555 115.8(10) 105.3(10) 125.5(11)
Pb1 O3 O2 5_5555 1_4565 118.4(10) 105.6(10) 128.3(11)
Pb1 O3 O2 5_5555 . 60.2(9) 51.1(10) 76.7(11)
Pb1 O3 O2 5_5555 1_5565 60.8(9) 50.4(7) 77.3(13)
Pb1 O3 O3 5_5555 1_4555 134.3(5) 130.4(4) 135.91(16)
Pb1 O3 O3 5_5555 1_5455 134.1(11) 133.0(14) 136.8(9)
Pb1 O3 O3 5_5555 1_5655 45.9(8) 43.2(8) 47.0(8)
Pb1 O3 O3 5_5555 1_6555 45.7(5) 44.11(16) 48.4(6)
Bi1 O3 Bi1 5_4455 5_4555 88.3(9) 85.9(12) 93.5(8)
Bi1 O3 Bi1 5_4455 5_5455 88.3(6) 84.0(6) 91.6(5)
Bi1 O3 Bi1 5_4455 5_5555 162.0(12) 152.6(10) 179.9(6)
Bi1 O3 O1 5_4455 1_5455 62.9(9) 50.9(10) 75.6(7)
Bi1 O3 O1 5_4455 1_5465 61.7(9) 47.7(9) 76.0(8)
Bi1 O3 O1 5_4455 . 118.6(12) 106.8(9) 130.1(9)
Bi1 O3 O1 5_4455 1_5565 117.6(12) 107.2(14) 128.1(15)
Bi1 O3 O1 5_4455 5_4445 78.6(8) 77.3(10) 79.2(7)
Bi1 O3 O1 5_4455 5_4465 79.7(8) 79.3(7) 80.0(9)
Bi1 O3 O1 5_4455 5_5445 123.5(6) 123.1(5) 123.8(6)
Bi1 O3 O1 5_4455 5_5465 126.1(7) 125.9(8) 126.4(6)
Bi1 O3 O2 5_4455 1_4555 60.7(9) 50.4(7) 77.2(13)
Bi1 O3 O2 5_4455 1_4565 60.3(9) 51.1(10) 76.8(11)
Bi1 O3 O2 5_4455 . 118.3(10) 105.6(10) 128.3(11)
Bi1 O3 O2 5_4455 1_5565 116.0(10) 105.3(10) 125.5(11)
Bi1 O3 O3 5_4455 1_4555 45.7(5) 44.11(15) 48.4(6)
Bi1 O3 O3 5_4455 1_5455 45.9(8) 43.3(8) 47.0(8)
Bi1 O3 O3 5_4455 1_5655 134.1(11) 133.0(14) 136.7(9)
Bi1 O3 O3 5_4455 1_6555 134.3(5) 130.5(4) 135.91(15)
Bi1 O3 Bi1 5_4555 5_5455 162.0(12) 152.6(10) 179.9(6)
Bi1 O3 Bi1 5_4555 5_5555 88.3(6) 84.0(6) 91.6(5)
Bi1 O3 O1 5_4555 1_5455 118.6(12) 106.8(9) 130.1(9)
Bi1 O3 O1 5_4555 1_5465 117.6(12) 107.2(14) 128.1(15)
Bi1 O3 O1 5_4555 . 62.9(9) 50.9(10) 75.6(7)
Bi1 O3 O1 5_4555 1_5565 61.7(9) 47.7(9) 76.0(8)
Bi1 O3 O1 5_4555 5_4445 78.6(8) 77.3(10) 79.2(7)
Bi1 O3 O1 5_4555 5_4465 79.7(8) 79.3(7) 80.0(9)
Bi1 O3 O1 5_4555 5_5445 123.5(6) 123.1(5) 123.8(6)
Bi1 O3 O1 5_4555 5_5465 126.1(7) 125.9(8) 126.4(6)
Bi1 O3 O2 5_4555 1_4555 60.7(9) 50.4(7) 77.2(13)
Bi1 O3 O2 5_4555 1_4565 60.3(9) 51.1(10) 76.8(11)
Bi1 O3 O2 5_4555 . 118.3(10) 105.6(10) 128.3(11)
Bi1 O3 O2 5_4555 1_5565 116.0(10) 105.3(10) 125.5(11)
Bi1 O3 O3 5_4555 1_4555 45.7(5) 44.11(15) 48.4(6)
Bi1 O3 O3 5_4555 1_5455 134.1(11) 133.0(14) 136.7(9)
Bi1 O3 O3 5_4555 1_5655 45.9(8) 43.3(8) 47.0(8)
Bi1 O3 O3 5_4555 1_6555 134.3(5) 130.5(4) 135.91(15)
Bi1 O3 Bi1 5_5455 5_5555 88.3(9) 85.9(12) 93.6(8)
Bi1 O3 O1 5_5455 1_5455 61.5(9) 47.7(10) 76.0(8)
Bi1 O3 O1 5_5455 1_5465 63.0(9) 50.9(10) 75.6(7)
Bi1 O3 O1 5_5455 . 117.4(12) 107.2(14) 128.1(15)
Bi1 O3 O1 5_5455 1_5565 118.7(12) 106.9(9) 130.1(9)
Bi1 O3 O1 5_5455 5_4445 126.1(7) 125.9(8) 126.4(6)
Bi1 O3 O1 5_5455 5_4465 123.5(6) 123.1(5) 123.8(6)
Bi1 O3 O1 5_5455 5_5445 79.7(8) 79.3(7) 80.1(9)
Bi1 O3 O1 5_5455 5_5465 78.6(8) 77.4(10) 79.2(8)
Bi1 O3 O2 5_5455 1_4555 115.8(10) 105.3(10) 125.5(11)
Bi1 O3 O2 5_5455 1_4565 118.4(10) 105.6(10) 128.3(11)
Bi1 O3 O2 5_5455 . 60.2(9) 51.1(10) 76.7(11)
Bi1 O3 O2 5_5455 1_5565 60.8(9) 50.4(7) 77.3(13)
Bi1 O3 O3 5_5455 1_4555 134.3(5) 130.4(4) 135.91(16)
Bi1 O3 O3 5_5455 1_5455 45.9(8) 43.2(8) 47.0(8)
Bi1 O3 O3 5_5455 1_5655 134.1(11) 133.0(14) 136.8(9)
Bi1 O3 O3 5_5455 1_6555 45.7(5) 44.11(16) 48.4(6)
Bi1 O3 O1 5_5555 1_5455 117.4(12) 107.2(14) 128.1(15)
Bi1 O3 O1 5_5555 1_5465 118.7(12) 106.9(9) 130.1(9)
Bi1 O3 O1 5_5555 . 61.5(9) 47.7(10) 76.0(8)
Bi1 O3 O1 5_5555 1_5565 63.0(9) 50.9(10) 75.6(7)
Bi1 O3 O1 5_5555 5_4445 126.1(7) 125.9(8) 126.4(6)
Bi1 O3 O1 5_5555 5_4465 123.5(6) 123.1(5) 123.8(6)
Bi1 O3 O1 5_5555 5_5445 79.7(8) 79.3(7) 80.1(9)
Bi1 O3 O1 5_5555 5_5465 78.6(8) 77.4(10) 79.2(8)
Bi1 O3 O2 5_5555 1_4555 115.8(10) 105.3(10) 125.5(11)
Bi1 O3 O2 5_5555 1_4565 118.4(10) 105.6(10) 128.3(11)
Bi1 O3 O2 5_5555 . 60.2(9) 51.1(10) 76.7(11)
Bi1 O3 O2 5_5555 1_5565 60.8(9) 50.4(7) 77.3(13)
Bi1 O3 O3 5_5555 1_4555 134.3(5) 130.4(4) 135.91(16)
Bi1 O3 O3 5_5555 1_5455 134.1(11) 133.0(14) 136.8(9)
Bi1 O3 O3 5_5555 1_5655 45.9(8) 43.2(8) 47.0(8)
Bi1 O3 O3 5_5555 1_6555 45.7(5) 44.11(16) 48.4(6)
O1 O3 O1 1_5455 1_5465 96.5(5) 95.3(4) 99.6(4)
O1 O3 O1 1_5455 . 83.5(7) 76.1(5) 89.4(12)
O1 O3 O1 1_5455 1_5565 175.2(9) 173.1(13) 180.0(5)
O1 O3 O1 1_5455 5_4445 50.4(6) 50.0(6) 51.3(5)
O1 O3 O1 1_5455 5_4465 128.4(7) 128.3(7) 128.5(8)
O1 O3 O1 1_5455 5_5445 48.2(5) 47.9(5) 48.3(6)
O1 O3 O1 1_5455 5_5465 125.4(9) 123.8(11) 126.7(7)
O1 O3 O2 1_5455 1_4555 56.7(10) 50.1(9) 59.8(11)
O1 O3 O2 1_5455 1_4565 123.4(11) 121.5(8) 127.9(9)
O1 O3 O2 1_5455 . 56.7(10) 51.4(8) 58.5(8)
O1 O3 O2 1_5455 1_5565 123.8(11) 121.2(11) 126.5(14)
O1 O3 O3 1_5455 1_4555 89.7(9) 87.6(12) 92.0(13)
O1 O3 O3 1_5455 1_5455 48.3(7) 45.3(7) 51.9(6)
O1 O3 O3 1_5455 1_5655 131.7(9) 128.1(8) 134.7(13)
O1 O3 O3 1_5455 1_6555 90.3(9) 88.1(7) 91.8(11)
O1 O3 O1 1_5465 . 175.2(10) 173.1(13) 180.0(5)
O1 O3 O1 1_5465 1_5565 83.4(7) 76.1(5) 89.4(12)
O1 O3 O1 1_5465 5_4445 125.4(9) 123.8(11) 126.7(7)
O1 O3 O1 1_5465 5_4465 48.1(5) 47.9(5) 48.3(5)
O1 O3 O1 1_5465 5_5445 128.4(7) 128.3(7) 128.5(8)
O1 O3 O1 1_5465 5_5465 50.5(6) 50.0(6) 51.4(5)
O1 O3 O2 1_5465 1_4555 123.9(11) 121.2(11) 126.5(14)
O1 O3 O2 1_5465 1_4565 56.7(10) 51.4(8) 58.5(8)
O1 O3 O2 1_5465 . 123.4(11) 121.5(8) 127.9(9)
O1 O3 O2 1_5465 1_5565 56.7(10) 50.0(9) 59.8(11)
O1 O3 O3 1_5465 1_4555 90.3(9) 88.1(6) 91.8(11)
O1 O3 O3 1_5465 1_5455 48.3(7) 45.3(7) 51.9(6)
O1 O3 O3 1_5465 1_5655 131.7(9) 128.1(8) 134.7(13)
O1 O3 O3 1_5465 1_6555 89.6(9) 87.6(12) 92.0(13)
O1 O3 O1 . 1_5565 96.5(5) 95.3(4) 99.6(4)
O1 O3 O1 . 5_4445 50.4(6) 50.0(6) 51.3(5)
O1 O3 O1 . 5_4465 128.4(7) 128.3(7) 128.5(8)
O1 O3 O1 . 5_5445 48.2(5) 47.9(5) 48.3(6)
O1 O3 O1 . 5_5465 125.4(9) 123.8(11) 126.7(7)
O1 O3 O2 . 1_4555 56.7(10) 50.1(9) 59.8(11)
O1 O3 O2 . 1_4565 123.4(11) 121.5(8) 127.9(9)
O1 O3 O2 . . 56.7(10) 51.4(8) 58.5(8)
O1 O3 O2 . 1_5565 123.8(11) 121.2(11) 126.5(14)
O1 O3 O3 . 1_4555 89.7(9) 87.6(12) 92.0(13)
O1 O3 O3 . 1_5455 131.7(9) 128.1(8) 134.7(13)
O1 O3 O3 . 1_5655 48.3(7) 45.3(7) 51.9(6)
O1 O3 O3 . 1_6555 90.3(9) 88.1(7) 91.8(11)
O1 O3 O1 1_5565 5_4445 125.4(9) 123.8(11) 126.7(7)
O1 O3 O1 1_5565 5_4465 48.1(5) 47.9(5) 48.3(5)
O1 O3 O1 1_5565 5_5445 128.4(7) 128.3(7) 128.5(8)
O1 O3 O1 1_5565 5_5465 50.5(6) 50.0(6) 51.4(5)
O1 O3 O2 1_5565 1_4555 123.9(11) 121.2(11) 126.5(14)
O1 O3 O2 1_5565 1_4565 56.7(10) 51.4(8) 58.5(8)
O1 O3 O2 1_5565 . 123.4(11) 121.5(8) 127.9(9)
O1 O3 O2 1_5565 1_5565 56.7(10) 50.0(9) 59.8(11)
O1 O3 O3 1_5565 1_4555 90.3(9) 88.1(6) 91.8(11)
O1 O3 O3 1_5565 1_5455 131.7(9) 128.1(8) 134.7(13)
O1 O3 O3 1_5565 1_5655 48.3(7) 45.3(7) 51.9(6)
O1 O3 O3 1_5565 1_6555 89.6(9) 87.6(12) 92.0(13)
O1 O3 O1 5_4445 5_5445 68.5(9) 67.9(9) 69.1(8)
O1 O3 O2 5_4445 1_4565 103.4(15) 101.7(16) 104.1(14)
O1 O3 O2 5_4445 . 74.3(13) 72.8(13) 75.8(14)
O1 O3 O2 5_4445 1_5565 173.7(16) 173.2(15) 174.9(18)
O1 O3 O3 5_4445 1_4555 53.0(8) 52.2(8) 53.7(8)
O1 O3 O3 5_4445 1_5455 90.0(7) 90.0(7) 90.0(7)
O1 O3 O3 5_4445 1_5655 90.0(7) 90.0(7) 90.0(7)
O1 O3 O3 5_4445 1_6555 125.2(10) 124.6(9) 126.5(11)
O1 O3 O1 5_4465 5_5465 68.5(8) 68.0(9) 69.2(8)
O1 O3 O2 5_4465 1_4555 104.8(14) 104.4(14) 105.2(14)
O1 O3 O2 5_4465 . 172.5(14) 172.0(15) 173.0(14)
O1 O3 O3 5_4465 1_4555 56.3(7) 55.9(7) 56.6(8)
O1 O3 O3 5_4465 1_5455 90.0(7) 90.0(7) 90.0(7)
O1 O3 O3 5_4465 1_5655 90.0(7) 90.0(7) 90.0(7)
O1 O3 O2 5_5445 1_4565 172.5(15) 172.0(15) 172.9(14)
O1 O3 O2 5_5445 1_5565 104.9(14) 104.5(14) 105.3(15)
O1 O3 O3 5_5445 1_5455 90.0(7) 90.0(7) 90.0(7)
O1 O3 O3 5_5445 1_5655 90.0(7) 90.0(7) 90.0(7)
O1 O3 O3 5_5445 1_6555 56.3(7) 55.9(7) 56.7(8)
O1 O3 O2 5_5465 1_4555 173.7(16) 173.2(15) 174.8(18)
O1 O3 O2 5_5465 1_4565 74.1(13) 72.7(12) 75.6(13)
O1 O3 O2 5_5465 . 103.4(15) 101.8(16) 104.1(14)
O1 O3 O3 5_5465 1_4555 125.2(10) 124.6(9) 126.4(11)
O1 O3 O3 5_5465 1_5455 90.0(7) 90.0(8) 90.0(8)
O1 O3 O3 5_5465 1_5655 90.0(7) 90.0(8) 90.0(8)
O1 O3 O3 5_5465 1_6555 53.1(8) 52.3(8) 53.7(8)
O2 O3 O2 1_4555 1_4565 95.3(17) 91.9(13) 101.9(18)
O2 O3 O2 1_4555 . 84.8(16) 76.1(15) 88.1(13)
O2 O3 O2 1_4555 1_5565 178.2(17) 174(2) 180.0(5)
O2 O3 O3 1_4555 1_4555 47.5(10) 45.6(7) 52.7(10)
O2 O3 O3 1_4555 1_5455 90.0(8) 90.0(7) 90.0(7)
O2 O3 O3 1_4555 1_5655 90.0(8) 90.0(7) 90.0(7)
O2 O3 O3 1_4555 1_6555 132.7(12) 126.2(13) 134.5(6)
O2 O3 O2 1_4565 . 179.1(15) 176.4(17) 180.0(5)
O2 O3 O2 1_4565 1_5565 84.8(16) 75.9(16) 88.1(12)
O2 O3 O3 1_4565 1_4555 48.0(10) 46.3(6) 52.2(9)
O2 O3 O3 1_4565 1_5455 90.0(8) 90.0(7) 90.0(7)
O2 O3 O3 1_4565 1_5655 90.0(8) 90.0(7) 90.0(7)
O2 O3 O3 1_4565 1_6555 132.0(12) 126.4(11) 133.7(6)
O2 O3 O2 . 1_5565 95.3(17) 91.9(13) 102(2)
O2 O3 O3 . 1_4555 132.0(12) 126.5(11) 133.7(6)
O2 O3 O3 . 1_5455 90.0(8) 90.0(7) 90.0(7)
O2 O3 O3 . 1_5655 90.0(8) 90.0(7) 90.0(7)
O2 O3 O3 . 1_6555 48.0(10) 46.3(6) 52.1(9)
O2 O3 O3 1_5565 1_4555 132.6(12) 126.1(13) 134.5(6)
O2 O3 O3 1_5565 1_5455 90.0(8) 90.0(7) 90.0(7)
O2 O3 O3 1_5565 1_5655 90.0(8) 90.0(7) 90.0(7)
O2 O3 O3 1_5565 1_6555 47.5(10) 45.6(7) 52.8(10)
O3 O3 O3 1_4555 1_5455 90.0(9) 90.0(8) 90.0(8)
O3 O3 O3 1_4555 1_5655 90.0(9) 90.0(8) 90.0(8)
O3 O3 O3 1_4555 1_6555 179.3(10) 178.6(11) 180.0(5)
O3 O3 O3 1_5455 1_5655 180.0(5) 180.0(5) 180.0(5)
O3 O3 O3 1_5455 1_6555 90.0(6) 90.00(12) 90.00(12)
O3 O3 O3 1_5655 1_6555 90.0(6) 90.00(12) 90.00(12)
loop_
_geom_bond_atom_site_label_1
_geom_bond_atom_site_label_2
_geom_bond_site_ssg_symmetry_2
_geom_bond_distance_av
_geom_bond_distance_min
_geom_bond_distance_max
Fe1 Fe1 1_4555 3.918(15) 3.78(2) 3.99(2)
Fe1 Fe1 1_5455 3.9059 3.9058 3.9058
Fe1 Fe1 1_5655 3.9059 3.9058 3.9058
Fe1 Fe1 1_6555 3.918(15) 3.78(2) 3.99(2)
Fe1 Fe1 5_4445 3.050(8) 3.042(9) 3.055(9)
Fe1 Fe1 5_4455 3.099(7) 3.091(7) 3.104(7)
Fe1 Fe1 5_4545 3.050(8) 3.042(9) 3.055(9)
Fe1 Fe1 5_4555 3.099(7) 3.091(7) 3.104(7)
Fe1 Fe1 5_5445 3.099(7) 3.091(7) 3.104(7)
Fe1 Fe1 5_5455 3.050(8) 3.042(9) 3.055(9)
Fe1 Fe1 5_5545 3.099(7) 3.091(7) 3.104(7)
Fe1 Fe1 5_5555 3.050(8) 3.042(9) 3.055(9)
Fe1 Pb1 1_4555 3.952(14) 3.928(16) 3.982(16)
Fe1 Pb1 1_5545 3.963(16) 3.871(19) 4.006(19)
Fe1 Pb1 1_5565 3.963(16) 3.871(19) 4.006(19)
Fe1 Pb1 1_6555 3.952(14) 3.928(16) 3.982(16)
Fe1 Pb1 5_4445 3.470(16) 3.31(2) 3.81(2)
Fe1 Pb1 5_4455 3.502(15) 3.30(3) 3.71(3)
Fe1 Pb1 5_4545 3.470(16) 3.31(2) 3.81(2)
Fe1 Pb1 5_4555 3.502(15) 3.30(3) 3.71(3)
Fe1 Pb1 5_5445 3.502(15) 3.30(3) 3.71(3)
Fe1 Pb1 5_5455 3.470(16) 3.31(2) 3.81(2)
Fe1 Pb1 5_5545 3.502(15) 3.30(3) 3.71(3)
Fe1 Pb1 5_5555 3.470(16) 3.31(2) 3.81(2)
Fe1 Bi1 1_4555 3.952(14) 3.927(16) 3.982(16)
Fe1 Bi1 1_5545 3.964(16) 3.872(19) 4.007(19)
Fe1 Bi1 1_5565 3.964(16) 3.872(19) 4.007(19)
Fe1 Bi1 1_6555 3.952(14) 3.927(16) 3.982(16)
Fe1 Bi1 5_4445 3.470(16) 3.31(2) 3.81(2)
Fe1 Bi1 5_4455 3.505(15) 3.30(3) 3.71(3)
Fe1 Bi1 5_4545 3.470(16) 3.31(2) 3.81(2)
Fe1 Bi1 5_4555 3.505(15) 3.30(3) 3.71(3)
Fe1 Bi1 5_5445 3.505(15) 3.30(3) 3.71(3)
Fe1 Bi1 5_5455 3.470(16) 3.31(2) 3.81(2)
Fe1 Bi1 5_5545 3.505(15) 3.30(3) 3.71(3)
Fe1 Bi1 5_5555 3.470(16) 3.31(2) 3.81(2)
Fe1 O1 1_5455 2.008(4) 1.953(8) 2.051(8)
Fe1 O1 . 2.008(4) 1.953(8) 2.051(8)
Fe1 O1 5_4445 2.076(17) 2.00(2) 2.17(2)
Fe1 O1 5_4455 1.991(14) 1.949(15) 2.026(15)
Fe1 O1 5_5445 1.991(14) 1.949(15) 2.026(15)
Fe1 O1 5_5455 2.076(17) 2.00(2) 2.17(2)
Fe1 O2 1_4555 1.99(4) 1.96(6) 2.06(6)
Fe1 O2 . 1.99(4) 1.96(6) 2.06(6)
Fe1 O3 1_5545 2.12(2) 1.85(4) 2.76(4)
Fe1 O3 . 2.12(2) 1.85(4) 2.76(4)
Pb1 Pb1 1_4555 3.91(2) 3.70(4) 4.02(4)
Pb1 Pb1 1_5455 3.9059 3.9058 3.9058
Pb1 Pb1 1_5545 4.16(2) 3.84(3) 4.77(3)
Pb1 Pb1 1_5565 4.16(2) 3.84(3) 4.77(3)
Pb1 Pb1 1_5655 3.9059 3.9058 3.9058
Pb1 Pb1 1_6555 3.91(2) 3.70(4) 4.02(4)
Pb1 Pb1 5_4445 3.405(14) 3.400(15) 3.409(15)
Pb1 Pb1 5_4545 3.405(14) 3.400(15) 3.409(15)
Pb1 Pb1 5_5455 3.405(14) 3.400(15) 3.409(15)
Pb1 Pb1 5_5555 3.405(14) 3.400(15) 3.409(15)
Pb1 Bi1 1_4555 3.91(2) 3.70(4) 4.02(4)
Pb1 Bi1 1_5455 3.9058521(12) 3.905850(4) 3.905850(4)
Pb1 Bi1 1_5545 4.16(2) 3.84(3) 4.77(3)
Pb1 Bi1 . 0.00(2) 0.00(4) 0.00(4)
Pb1 Bi1 1_5565 4.16(2) 3.84(3) 4.77(3)
Pb1 Bi1 1_5655 3.9058521(12) 3.905850(4) 3.905850(4)
Pb1 Bi1 1_6555 3.91(2) 3.70(4) 4.02(4)
Pb1 Bi1 5_4445 3.405(14) 3.400(15) 3.409(15)
Pb1 Bi1 5_4545 3.405(14) 3.400(15) 3.409(15)
Pb1 Bi1 5_5455 3.405(14) 3.400(15) 3.409(15)
Pb1 Bi1 5_5555 3.405(14) 3.400(15) 3.409(15)
Pb1 O1 1_5445 3.873(16) 3.786(18) 3.913(18)
Pb1 O1 1_5465 3.873(16) 3.786(18) 3.913(18)
Pb1 O1 1_5545 3.873(16) 3.786(18) 3.913(18)
Pb1 O1 1_5565 3.873(16) 3.786(18) 3.913(18)
Pb1 O1 5_4445 2.94(3) 2.26(4) 3.70(4)
Pb1 O1 5_4455 2.98(3) 2.42(5) 3.65(5)
Pb1 O1 5_5445 2.98(3) 2.42(5) 3.65(5)
Pb1 O1 5_5455 2.94(3) 2.26(4) 3.70(4)
Pb1 O2 1_4545 3.90(3) 3.87(4) 3.91(4)
Pb1 O2 1_5565 3.90(3) 3.87(4) 3.91(4)
Pb1 O2 5_4445 2.88(3) 2.48(5) 3.77(5)
Pb1 O2 5_4455 2.88(3) 2.48(5) 3.77(5)
Pb1 O2 5_4545 2.88(3) 2.48(5) 3.77(5)
Pb1 O2 5_4555 2.88(3) 2.48(5) 3.77(5)
Pb1 O3 5_4445 2.80(2) 2.67(4) 2.87(4)
Pb1 O3 5_4545 2.80(2) 2.67(4) 2.87(4)
Pb1 O3 5_5445 2.80(2) 2.67(4) 2.87(4)
Pb1 O3 5_5545 2.80(2) 2.67(4) 2.87(4)
Bi1 Bi1 1_4555 3.91(2) 3.70(4) 4.02(4)
Bi1 Bi1 1_5455 3.9059 3.9058 3.9058
Bi1 Bi1 1_5545 4.16(2) 3.84(3) 4.77(3)
Bi1 Bi1 1_5565 4.16(2) 3.84(3) 4.77(3)
Bi1 Bi1 1_5655 3.9059 3.9058 3.9058
Bi1 Bi1 1_6555 3.91(2) 3.70(4) 4.02(4)
Bi1 Bi1 5_4445 3.405(14) 3.401(15) 3.409(15)
Bi1 Bi1 5_4545 3.405(14) 3.401(15) 3.409(15)
Bi1 Bi1 5_5455 3.405(14) 3.401(15) 3.409(15)
Bi1 Bi1 5_5555 3.405(14) 3.401(15) 3.409(15)
Bi1 O1 1_5445 3.873(16) 3.787(18) 3.913(18)
Bi1 O1 1_5465 3.873(16) 3.787(18) 3.913(18)
Bi1 O1 1_5545 3.873(16) 3.787(18) 3.913(18)
Bi1 O1 1_5565 3.873(16) 3.787(18) 3.913(18)
Bi1 O1 5_4445 2.94(3) 2.26(4) 3.70(4)
Bi1 O1 5_4455 2.98(3) 2.42(5) 3.65(5)
Bi1 O1 5_5445 2.98(3) 2.42(5) 3.65(5)
Bi1 O1 5_5455 2.94(3) 2.26(4) 3.70(4)
Bi1 O2 1_4545 3.90(3) 3.87(4) 3.91(4)
Bi1 O2 1_5565 3.90(3) 3.87(4) 3.91(4)
Bi1 O2 5_4445 2.88(3) 2.48(5) 3.77(5)
Bi1 O2 5_4455 2.88(3) 2.48(5) 3.77(5)
Bi1 O2 5_4545 2.88(3) 2.48(5) 3.77(5)
Bi1 O2 5_4555 2.88(3) 2.48(5) 3.77(5)
Bi1 O3 5_4445 2.80(2) 2.67(4) 2.87(4)
Bi1 O3 5_4545 2.80(2) 2.67(4) 2.87(4)
Bi1 O3 5_5445 2.80(2) 2.67(4) 2.87(4)
Bi1 O3 5_5545 2.80(2) 2.67(4) 2.87(4)
O1 O1 1_4555 3.90(3) 3.65(5) 4.03(5)
O1 O1 1_5455 3.9059 3.9058 3.9058
O1 O1 1_5655 3.9059 3.9058 3.9058
O1 O1 1_6555 3.90(3) 3.65(5) 4.03(5)
O1 O1 5_4445 2.772(17) 2.756(19) 2.795(19)
O1 O1 5_4455 2.609(12) 2.602(13) 2.613(13)
O1 O1 5_4545 2.772(17) 2.756(19) 2.795(19)
O1 O1 5_4555 2.609(12) 2.602(13) 2.613(13)
O1 O1 5_5445 2.609(12) 2.602(13) 2.613(13)
O1 O1 5_5455 2.772(17) 2.756(19) 2.795(19)
O1 O1 5_5545 2.609(12) 2.602(13) 2.613(13)
O1 O1 5_5555 2.772(17) 2.756(19) 2.795(19)
O1 O2 1_4555 2.77(3) 2.67(5) 2.84(5)
O1 O2 1_4655 2.77(3) 2.67(5) 2.84(5)
O1 O2 . 2.77(3) 2.67(5) 2.84(5)
O1 O2 1_5655 2.77(3) 2.67(5) 2.84(5)
O1 O2 5_3545 3.90(4) 3.85(4) 3.95(4)
O1 O2 5_5555 3.90(4) 3.85(4) 3.95(4)
O1 O3 1_5545 2.94(2) 2.78(3) 3.17(3)
O1 O3 . 2.94(2) 2.78(3) 3.17(3)
O1 O3 1_5645 2.94(2) 2.78(3) 3.17(3)
O1 O3 1_5655 2.94(2) 2.78(3) 3.17(3)
O1 O3 5_4535 3.33(3) 3.26(3) 3.38(3)
O1 O3 5_4555 3.24(2) 3.22(2) 3.26(2)
O1 O3 5_5535 3.24(2) 3.22(2) 3.26(2)
O1 O3 5_5555 3.33(3) 3.26(3) 3.38(3)
O2 O2 1_4555 3.93(5) 3.82(8) 3.99(8)
O2 O2 1_5455 3.9059 3.9058 3.9058
O2 O2 1_5655 3.9059 3.9058 3.9058
O2 O2 1_6555 3.93(5) 3.81(8) 3.99(8)
O2 O3 1_5545 2.94(4) 2.88(6) 3.17(6)
O2 O3 . 2.91(4) 2.83(7) 3.16(7)
O2 O3 1_6545 2.91(4) 2.84(7) 3.18(7)
O2 O3 1_6555 2.94(4) 2.88(6) 3.15(6)
O3 O3 1_4555 3.93(4) 3.82(6) 3.98(6)
O3 O3 1_5455 3.9059 3.9058 3.9058
O3 O3 1_5655 3.9059 3.9058 3.9058
O3 O3 1_6555 3.93(4) 3.81(6) 3.98(6)
loop_
_pd_proc_point_id
_pd_proc_2theta_corrected
_pd_proc_intensity_net
_pd_calc_intensity_net
_pd_proc_ls_weight
1 6.1500 1230.00 1229.40 34.50
2 6.2000 1202.00 1228.98 34.10
3 6.2500 1205.00 1228.58 34.20
4 6.3000 1218.00 1228.20 34.40
5 6.3500 1202.00 1227.83 34.00
6 6.4000 1187.00 1227.49 34.00
7 6.4500 1250.00 1227.16 34.70
8 6.5000 1247.00 1226.85 34.60
9 6.5500 1233.00 1226.55 34.50
10 6.6000 1266.00 1226.27 34.90
11 6.6500 1165.00 1226.00 33.20
12 6.7000 1231.00 1225.74 34.50
13 6.7500 1191.00 1225.50 33.60
14 6.8000 1172.00 1225.27 33.30
15 6.8500 1203.00 1225.04 34.00
16 6.9000 1224.00 1224.83 34.10
17 6.9500 1227.00 1224.62 34.10
18 7.0000 1247.00 1224.42 34.60
19 7.0500 1210.00 1224.22 34.00
20 7.1000 1104.00 1224.02 32.40
21 7.1500 1206.00 1223.83 33.90
22 7.2000 1181.00 1223.64 33.50
23 7.2500 1199.00 1223.44 33.70
24 7.3000 1245.00 1223.24 34.50
25 7.3500 1273.00 1223.04 34.80
26 7.4000 1319.00 1222.84 35.30
27 7.4500 1217.00 1222.63 34.30
28 7.5000 1245.00 1222.41 34.40
29 7.5500 1165.00 1222.19 33.40
30 7.6000 1203.00 1221.96 34.10
31 7.6500 1223.00 1221.72 34.30
32 7.7000 1187.00 1221.48 33.70
33 7.7500 1241.00 1221.24 34.70
34 7.8000 1125.00 1221.00 32.90
35 7.8500 1189.00 1220.75 33.80
36 7.9000 1240.00 1220.51 34.60
37 7.9500 1196.00 1220.27 34.10
38 8.0000 1168.00 1220.03 33.50
39 8.0500 1216.00 1219.79 34.40
40 8.1000 1197.00 1219.56 34.10
41 8.1500 1199.00 1219.33 33.80
42 8.2000 1197.00 1219.10 34.20
43 8.2500 1185.00 1218.88 33.90
44 8.3000 1176.00 1218.67 33.50
45 8.3500 1180.00 1218.46 34.00
46 8.4000 1170.00 1218.26 33.70
47 8.4500 1202.00 1218.06 34.10
48 8.5000 1194.00 1217.87 34.20
49 8.5500 1234.00 1217.69 34.70
50 8.6000 1215.00 1217.51 34.20
51 8.6500 1173.00 1217.33 33.70
52 8.7000 1172.00 1217.16 33.80
53 8.7500 1133.00 1217.00 32.90
54 8.8000 1187.00 1216.84 33.90
55 8.8500 1198.00 1216.69 34.00
56 8.9000 1230.00 1216.54 34.30
57 8.9500 1209.00 1216.39 34.20
58 9.0000 1166.00 1216.25 33.60
59 9.0500 1168.00 1216.11 33.50
60 9.1000 1219.00 1215.97 34.30
61 9.1500 1227.00 1215.84 34.30
62 9.2000 1173.00 1215.71 33.60
63 9.2500 1131.00 1215.58 32.90
64 9.3000 1191.00 1215.45 33.80
65 9.3500 1186.00 1215.33 33.90
66 9.4000 1217.00 1215.21 34.10
67 9.4500 1146.00 1215.09 33.20
68 9.5000 1156.00 1214.97 33.40
69 9.5500 1186.00 1214.86 33.60
70 9.6000 1196.00 1214.75 33.90
71 9.6500 1195.00 1214.63 33.80
72 9.7000 1209.00 1214.52 34.00
73 9.7500 1117.00 1214.42 32.80
74 9.8000 1190.00 1214.31 33.80
75 9.8500 1200.00 1214.21 34.00
76 9.9000 1157.00 1214.10 33.40
77 9.9500 1177.00 1214.00 33.90
78 10.0000 1198.00 1213.90 33.90
79 10.0500 1143.00 1213.80 33.40
80 10.1000 1213.00 1213.70 34.40
81 10.1500 1213.00 1213.61 34.40
82 10.2000 1201.00 1213.51 34.20
83 10.2500 1118.00 1213.42 33.30
84 10.3000 1230.00 1213.33 34.70
85 10.3500 1209.00 1213.24 34.70
86 10.4000 1179.00 1213.15 34.20
87 10.4500 1158.00 1213.06 34.10
88 10.5000 1215.00 1212.98 34.80
89 10.5500 1219.00 1212.89 35.20
90 10.6000 1236.00 1212.81 35.20
91 10.6500 1203.00 1212.72 35.10
92 10.7000 1237.00 1212.64 35.50
93 10.7500 1192.00 1212.56 35.00
94 10.8000 1226.00 1212.53 35.40
95 10.8500 1211.00 1212.45 35.50
96 10.9000 1138.00 1212.38 34.20
97 10.9500 1203.00 1212.30 35.40
98 11.0000 1158.00 1212.23 34.70
99 11.0500 1152.00 1212.16 34.80
100 11.1000 1224.00 1212.09 35.70
101 11.1500 1161.00 1212.02 34.90
102 11.2000 1148.00 1211.95 34.70
103 11.2500 1206.00 1211.89 35.60
104 11.3000 1183.00 1211.82 35.30
105 11.3500 1220.00 1211.76 35.90
106 11.4000 1249.00 1211.69 36.20
107 11.4500 1171.00 1211.63 35.00
108 11.5000 1121.00 1211.57 34.40
109 11.5500 1189.00 1211.51 35.20
110 11.6000 1155.00 1211.45 34.70
111 11.6500 1135.00 1211.40 34.30
112 11.7000 1206.00 1211.34 35.40
113 11.7500 1230.00 1211.29 35.50
114 11.8000 1238.00 1211.23 35.80
115 11.8500 1186.00 1211.18 34.70
116 11.9000 1190.00 1211.13 34.90
117 11.9500 1194.00 1211.08 34.80
118 12.0000 1200.00 1211.03 34.90
119 12.0500 1147.00 1210.98 34.00
120 12.1000 1157.00 1210.94 34.20
121 12.1500 1153.00 1210.89 33.70
122 12.2000 1155.00 1210.85 34.10
123 12.2500 1157.00 1210.81 33.80
124 12.3000 1171.00 1210.76 34.00
125 12.3500 1180.00 1210.72 33.90
126 12.4000 1205.00 1210.68 34.50
127 12.4500 1156.00 1210.65 33.50
128 12.5000 1162.00 1210.61 33.70
129 12.5500 1193.00 1210.57 33.90
130 12.6000 1153.00 1210.54 33.40
131 12.6500 1170.00 1210.51 33.50
132 12.7000 1243.00 1210.47 34.60
133 12.7500 1170.00 1210.44 33.30
134 12.8000 1189.00 1210.41 33.70
135 12.8500 1234.00 1210.38 34.30
136 12.9000 1218.00 1210.36 34.00
137 12.9500 1181.00 1210.33 33.60
138 13.0000 1224.00 1210.30 34.20
139 13.0500 1176.00 1210.28 33.40
140 13.1000 1178.00 1210.26 33.50
141 13.1500 1183.00 1210.23 33.40
142 13.2000 1206.00 1210.21 33.80
143 13.2500 1206.00 1210.19 33.70
144 13.3000 1240.00 1210.17 34.20
145 13.3500 1205.00 1210.16 33.70
146 13.4000 1203.00 1210.14 33.60
147 13.4500 1211.00 1210.13 33.80
148 13.5000 1126.00 1210.11 32.60
149 13.5500 1230.00 1210.10 34.10
150 13.6000 1159.00 1210.09 33.10
151 13.6500 1206.00 1210.08 33.80
152 13.7000 1226.00 1210.07 34.00
153 13.7500 1156.00 1210.06 33.00
154 13.8000 1233.00 1210.05 34.20
155 13.8500 1242.00 1210.04 34.30
156 13.9000 1174.00 1210.04 33.20
157 13.9500 1133.00 1210.04 32.80
158 14.0000 1195.00 1210.03 33.60
159 14.0500 1196.00 1210.03 33.60
160 14.1000 1227.00 1210.03 34.20
161 14.1500 1210.00 1210.03 33.80
162 14.2000 1185.00 1210.03 33.40
163 14.2500 1189.00 1210.04 33.50
164 14.3000 1196.00 1210.04 33.60
165 14.3500 1211.00 1210.04 33.90
166 14.4000 1254.00 1209.64 34.40
167 14.4500 1216.00 1209.65 34.00
168 14.5000 1221.00 1209.67 34.00
169 14.5500 1218.00 1209.68 33.90
170 14.6000 1242.00 1209.69 34.30
171 14.6500 1183.00 1209.71 33.40
172 14.7000 1222.00 1209.73 33.90
173 14.7500 1219.00 1209.74 33.90
174 14.8000 1249.00 1209.76 34.30
175 14.8500 1248.00 1209.78 34.30
176 14.9000 1243.00 1209.80 34.20
177 14.9500 1213.00 1209.82 34.10
178 15.0000 1245.00 1209.85 34.20
179 15.0500 1175.00 1209.87 33.40
180 15.1000 1252.00 1209.90 34.60
181 15.1500 1251.00 1209.92 34.40
182 15.2000 1190.00 1209.95 33.60
183 15.2500 1251.00 1209.98 34.60
184 15.3000 1172.00 1210.01 33.30
185 15.3500 1277.00 1210.04 34.90
186 15.4000 1297.00 1210.07 35.20
187 15.4500 1236.00 1210.11 34.30
188 15.5000 1264.00 1210.14 34.70
189 15.5500 1216.00 1210.17 34.20
190 15.6000 1198.00 1210.21 33.80
191 15.6500 1266.00 1210.25 34.70
192 15.7000 1221.00 1210.29 34.30
193 15.7500 1199.00 1210.33 33.90
194 15.8000 1188.00 1210.37 33.60
195 15.8500 1237.00 1210.41 34.50
196 15.9000 1257.00 1210.45 34.70
197 15.9500 1285.00 1210.50 35.00
198 16.0000 1271.00 1210.54 35.00
199 16.0500 1265.00 1210.59 34.90
200 16.1000 1222.00 1210.64 34.20
201 16.1500 1170.00 1210.68 33.60
202 16.2000 1226.00 1210.73 34.40
203 16.2500 1290.00 1210.79 35.20
204 16.3000 1179.00 1210.84 33.70
205 16.3500 1235.00 1210.89 34.80
206 16.4000 1220.00 1210.95 34.30
207 16.4500 1254.00 1211.00 35.10
208 16.5000 1237.00 1211.06 34.90
209 16.5500 1253.00 1211.12 34.90
210 16.6000 1255.00 1211.18 35.10
211 16.6500 1263.00 1211.24 35.50
212 16.7000 1207.00 1211.30 34.30
213 16.7500 1208.00 1211.36 34.80
214 16.8000 1199.00 1211.42 34.60
215 16.8500 1314.00 1211.49 36.40
216 16.9000 1238.00 1211.56 35.20
217 16.9500 1295.00 1211.62 36.40
218 17.0000 1235.00 1211.69 35.30
219 17.0500 1228.00 1211.76 35.60
220 17.1000 1221.00 1211.83 35.30
221 17.1500 1200.00 1211.91 35.20
222 17.2000 1317.00 1211.98 36.80
223 17.2500 1246.00 1212.05 36.10
224 17.3000 1243.00 1212.13 35.80
225 17.3500 1326.00 1212.21 37.30
226 17.4000 1310.00 1212.29 37.00
227 17.4500 1263.00 1212.37 36.50
228 17.5000 1223.00 1212.45 35.80
229 17.5500 1286.00 1213.65 36.80
230 17.6000 1288.00 1213.75 36.80
231 17.6500 1273.00 1213.86 36.70
232 17.7000 1356.00 1213.96 37.80
233 17.7500 1265.00 1214.07 36.60
234 17.8000 1257.00 1214.17 36.50
235 17.8500 1388.00 1214.28 38.30
236 17.9000 1403.00 1214.39 38.50
237 17.9500 1383.00 1214.51 38.20
238 18.0000 1365.00 1214.62 37.90
239 18.0500 1397.00 1214.74 38.20
240 18.1000 1367.00 1214.86 38.00
241 18.1500 1385.00 1214.98 38.10
242 18.2000 1415.00 1215.10 38.40
243 18.2500 1335.00 1215.23 37.20
244 18.3000 1345.00 1215.36 37.50
245 18.3500 1304.00 1215.49 36.50
246 18.4000 1247.00 1215.63 35.90
247 18.4500 1338.00 1215.77 37.00
248 18.5000 1279.00 1215.91 36.10
249 18.5500 1378.00 1216.05 37.40
250 18.6000 1384.00 1216.19 37.60
251 18.6500 1296.00 1216.33 35.90
252 18.7000 1365.00 1216.48 37.30
253 18.7500 1307.00 1216.63 36.10
254 18.8000 1335.00 1216.79 36.40
255 18.8500 1288.00 1216.95 35.90
256 18.9000 1372.00 1217.11 37.00
257 18.9500 1288.00 1217.27 35.60
258 19.0000 1290.00 1217.44 35.90
259 19.0500 1356.00 1217.61 36.50
260 19.1000 1313.00 1217.78 35.90
261 19.1500 1310.00 1217.96 35.90
262 19.2000 1295.00 1218.15 35.60
263 19.2500 1295.00 1218.34 35.40
264 19.3000 1330.00 1218.53 36.10
265 19.3500 1284.00 1218.73 35.30
266 19.4000 1278.00 1218.93 35.20
267 19.4500 1261.00 1219.14 35.10
268 19.5000 1313.00 1219.36 35.70
269 19.5500 1307.00 1219.58 35.50
270 19.6000 1378.00 1219.81 36.60
271 19.6500 1313.00 1220.05 35.50
272 19.7000 1303.00 1220.29 35.50
273 19.7500 1288.00 1220.55 35.20
274 19.8000 1308.00 1220.81 35.40
275 19.8500 1328.00 1221.09 35.90
276 19.9000 1254.00 1221.38 34.70
277 19.9500 1274.00 1221.69 35.10
278 20.0000 1241.00 1222.02 34.70
279 20.0500 1225.00 1222.37 34.30
280 20.1000 1189.00 1222.75 33.90
281 20.1500 1306.00 1223.51 35.40
282 20.2000 1253.00 1223.99 34.70
283 20.2500 1237.00 1224.54 34.60
284 20.3000 1256.00 1225.18 34.70
285 20.3500 1262.00 1225.94 34.90
286 20.4000 1237.00 1226.86 34.60
287 20.4500 1281.00 1227.97 35.10
288 20.5000 1295.00 1229.33 35.30
289 20.5500 1306.00 1231.00 35.50
290 20.6000 1295.00 1233.03 35.30
291 20.6500 1215.00 1235.50 34.20
292 20.7000 1286.00 1238.46 35.20
293 20.7500 1300.00 1241.99 35.30
294 20.8000 1244.00 1246.13 34.60
295 20.8500 1333.00 1250.91 35.90
296 20.9000 1311.00 1256.33 35.50
297 20.9500 1354.00 1262.35 36.20
298 21.0000 1321.00 1268.93 35.80
299 21.0500 1413.00 1275.93 36.80
300 21.1000 1376.00 1283.21 36.50
301 21.1500 1328.00 1290.56 35.70
302 21.2000 1371.00 1297.72 36.30
303 21.2500 1434.00 1304.40 37.00
304 21.3000 1407.00 1310.27 36.70
305 21.3500 1418.00 1314.99 37.00
306 21.4000 1401.00 1318.56 36.60
307 21.4500 1416.00 1320.13 36.80
308 21.5000 1440.00 1319.90 37.30
309 21.5500 1396.00 1317.93 36.50
310 21.6000 1432.00 1314.40 37.00
311 21.6500 1408.00 1309.61 36.80
312 21.7000 1344.00 1303.89 35.90
313 21.7500 1379.00 1297.58 36.30
314 21.8000 1387.00 1291.00 36.50
315 21.8500 1392.00 1284.40 36.50
316 21.9000 1346.00 1278.02 35.90
317 21.9500 1374.00 1272.04 36.60
318 22.0000 1251.00 1266.58 34.60
319 22.0500 1337.00 1261.72 35.90
320 22.1000 1397.00 1257.51 36.90
321 22.1500 1321.00 1253.97 35.80
322 22.2000 1331.00 1251.07 35.80
323 22.2500 1289.00 1248.77 35.50
324 22.3000 1304.00 1247.02 35.60
325 22.3500 1297.00 1245.75 35.50
326 22.4000 1260.00 1244.91 35.10
327 22.4500 1259.00 1244.42 35.30
328 22.5000 1259.00 1244.24 35.00
329 22.5500 1305.00 1244.32 35.90
330 22.6000 1354.00 1244.61 36.60
331 22.6500 1262.00 1245.08 35.10
332 22.7000 1264.00 1245.71 35.40
333 22.7500 1174.00 1246.55 34.30
334 22.8000 1232.00 1247.45 34.70
335 22.8500 1267.00 1248.48 35.70
336 22.9000 1321.00 1249.62 36.40
337 22.9500 1337.00 1250.89 36.40
338 23.0000 1297.00 1252.30 36.10
339 23.0500 1291.00 1253.85 36.30
340 23.1000 1290.00 1255.56 35.80
341 23.1500 1368.00 1257.44 37.30
342 23.2000 1281.00 1259.52 36.20
343 23.2500 1302.00 1261.83 36.20
344 23.3000 1322.00 1264.39 36.60
345 23.3500 1301.00 1267.25 36.70
346 23.4000 1299.00 1270.48 36.20
347 23.4500 1352.00 1274.16 37.30
348 23.5000 1266.00 1278.45 36.20
349 23.5500 1304.00 1283.58 36.60
350 23.6000 1294.00 1289.98 36.50
351 23.6500 1369.00 1298.41 37.80
352 23.7000 1355.00 1310.10 37.30
353 23.7500 1376.00 1327.10 37.80
354 23.8000 1390.00 1352.59 38.10
355 23.8500 1491.00 1391.26 39.50
356 23.9000 1627.00 1449.64 41.10
357 23.9500 1650.00 1536.17 41.50
358 24.0000 1779.00 1660.89 43.10
359 24.0500 1923.00 1834.49 44.70
360 24.1000 2146.00 2066.65 47.30
361 24.1500 2613.00 2363.76 52.30
362 24.2000 2936.00 2726.23 55.20
363 24.2500 3278.00 3146.01 58.30
364 24.3000 3683.00 3604.80 62.00
365 24.3500 4248.00 4073.67 66.30
366 24.4000 4545.00 4514.21 68.60
367 24.4500 4745.00 4881.46 70.10
368 24.5000 4828.00 5130.02 70.60
369 24.5500 5069.00 5223.97 72.00
370 24.6000 5037.00 5148.46 72.20
371 24.6500 4675.00 4915.75 68.90
372 24.7000 4345.00 4560.21 66.70
373 24.7500 3846.00 4126.96 62.40
374 24.8000 3317.00 3661.41 58.00
375 24.8500 2951.00 3203.08 54.40
376 24.9000 2522.00 2782.08 50.50
377 24.9500 2147.00 2417.86 46.20
378 25.0000 1897.00 2119.56 43.60
379 25.0500 1833.00 1887.43 42.60
380 25.1000 1658.00 1715.35 40.60
381 25.1500 1579.00 1593.50 39.40
382 25.2000 1520.00 1510.66 38.80
383 25.2500 1457.00 1456.07 37.60
384 25.3000 1349.00 1420.43 36.40
385 25.3500 1408.00 1396.48 37.10
386 25.4000 1368.00 1379.06 36.40
387 25.4500 1453.00 1364.95 37.50
388 25.5000 1404.00 1352.46 37.00
389 25.5500 1328.00 1340.91 35.60
390 25.6000 1294.00 1330.17 35.30
391 25.6500 1316.00 1320.37 35.40
392 25.7000 1264.00 1311.73 34.80
393 25.7500 1244.00 1304.38 34.40
394 25.8000 1262.00 1298.41 34.70
395 25.8500 1329.00 1293.79 35.40
396 25.9000 1312.00 1290.43 35.30
397 25.9500 1347.00 1288.23 35.70
398 26.0000 1311.00 1287.08 35.20
399 26.0500 1287.00 1286.98 34.80
400 26.1000 1253.00 1288.07 34.40
401 26.1500 1301.00 1290.70 34.90
402 26.2000 1257.00 1295.56 34.40
403 26.2500 1335.00 1303.80 35.40
404 26.3000 1377.00 1317.17 35.90
405 26.3500 1353.00 1338.06 35.80
406 26.4000 1412.00 1369.55 36.40
407 26.4500 1397.00 1415.13 36.30
408 26.5000 1517.00 1478.34 37.90
409 26.5500 1657.00 1562.01 39.30
410 26.6000 1704.00 1667.35 40.10
411 26.6500 1766.00 1793.02 40.80
412 26.7000 1935.00 1934.37 42.50
413 26.7500 2058.00 2083.03 43.90
414 26.8000 2183.00 2227.16 45.30
415 26.8500 2264.00 2352.27 46.10
416 26.9000 2263.00 2443.00 46.10
417 26.9500 2382.00 2486.17 47.50
418 27.0000 2328.00 2474.88 46.70
419 27.0500 2318.00 2411.28 46.70
420 27.1000 2245.00 2305.71 46.10
421 27.1500 2074.00 2173.06 44.00
422 27.2000 1999.00 2029.02 43.40
423 27.2500 1704.00 1887.79 40.10
424 27.3000 1653.00 1760.88 39.30
425 27.3500 1682.00 1656.74 39.80
426 27.4000 1660.00 1580.93 39.60
427 27.4500 1597.00 1536.73 38.70
428 27.5000 1595.00 1525.85 38.80
429 27.5500 1612.00 1548.92 38.80
430 27.6000 1724.00 1605.55 40.20
431 27.6500 1699.00 1693.93 39.80
432 27.7000 1843.00 1810.05 41.50
433 27.7500 2033.00 1946.84 43.70
434 27.8000 2045.00 2093.83 43.60
435 27.8500 2195.00 2237.20 45.40
436 27.9000 2275.00 2360.81 46.20
437 27.9500 2320.00 2448.18 46.70
438 28.0000 2406.00 2485.85 47.50
439 28.0500 2395.00 2467.68 47.40
440 28.1000 2365.00 2397.27 47.10
441 28.1500 2194.00 2286.42 45.30
442 28.2000 2083.00 2150.90 44.20
443 28.2500 1898.00 2006.67 42.20
444 28.3000 1812.00 1867.35 41.10
445 28.3500 1619.00 1742.98 39.00
446 28.4000 1582.00 1639.61 38.50
447 28.4500 1556.00 1559.62 38.30
448 28.5000 1434.00 1502.55 36.70
449 28.5500 1449.00 1466.21 36.90
450 28.6000 1392.00 1447.63 36.30
451 28.6500 1441.00 1443.61 36.80
452 28.7000 1393.00 1450.86 36.20
453 28.7500 1427.00 1465.89 36.70
454 28.8000 1442.00 1485.40 36.80
455 28.8500 1431.00 1504.29 36.80
456 28.9000 1375.00 1518.91 36.10
457 28.9500 1466.00 1525.58 37.20
458 29.0000 1387.00 1521.87 36.30
459 29.0500 1439.00 1507.29 37.10
460 29.1000 1417.00 1483.39 36.60
461 29.1500 1334.00 1453.16 35.60
462 29.2000 1322.00 1420.13 35.60
463 29.2500 1297.00 1387.59 35.20
464 29.3000 1228.00 1358.12 34.20
465 29.3500 1263.00 1333.30 34.90
466 29.4000 1265.00 1313.73 34.80
467 29.4500 1232.00 1299.23 34.70
468 29.5000 1256.00 1289.07 34.80
469 29.5500 1285.00 1282.31 35.50
470 29.6000 1240.00 1278.03 34.80
471 29.6500 1227.00 1275.41 34.70
472 29.7000 1220.00 1273.86 34.60
473 29.7500 1280.00 1272.97 35.70
474 29.8000 1207.00 1272.45 34.40
475 29.8500 1158.00 1272.16 34.10
476 29.9000 1192.00 1272.01 34.40
477 29.9500 1255.00 1271.95 35.50
478 30.0000 1207.00 1271.95 34.80
479 30.0500 1148.00 1272.02 34.10
480 30.1000 1219.00 1272.13 35.00
481 30.1500 1151.00 1272.31 34.10
482 30.2000 1213.00 1272.54 35.10
483 30.2500 1156.00 1272.83 34.10
484 30.3000 1144.00 1273.20 34.00
485 30.3500 1166.00 1273.67 34.50
486 30.4000 1175.00 1274.24 34.30
487 30.4500 1161.00 1274.95 34.30
488 30.5000 1182.00 1275.83 34.80
489 30.5500 1177.00 1276.92 34.60
490 30.6000 1266.00 1278.26 35.90
491 30.6500 1214.00 1279.90 35.20
492 30.7000 1203.00 1281.89 35.00
493 30.7500 1198.00 1284.26 34.80
494 30.8000 1280.00 1287.05 36.10
495 30.8500 1280.00 1290.28 35.90
496 30.9000 1184.00 1293.92 34.60
497 30.9500 1302.00 1297.95 36.30
498 31.0000 1178.00 1302.27 34.40
499 31.0500 1218.00 1306.78 34.80
500 31.1000 1240.00 1311.32 35.50
501 31.1500 1240.00 1315.69 34.90
502 31.2000 1226.00 1319.65 34.90
503 31.2500 1216.00 1322.97 34.80
504 31.3000 1247.00 1325.42 35.00
505 31.3500 1229.00 1326.79 34.80
506 31.4000 1279.00 1327.02 35.70
507 31.4500 1256.00 1326.16 35.10
508 31.5000 1302.00 1324.35 35.80
509 31.5500 1179.00 1322.00 34.00
510 31.6000 1263.00 1317.84 35.20
511 31.6500 1195.00 1314.51 34.00
512 31.7000 1180.00 1311.07 34.00
513 31.7500 1332.00 1307.66 35.70
514 31.8000 1247.00 1304.42 34.70
515 31.8500 1258.00 1301.42 34.90
516 31.9000 1214.00 1298.72 34.10
517 31.9500 1195.00 1296.34 33.70
518 32.0000 1278.00 1294.29 35.10
519 32.0500 1247.00 1292.55 34.40
520 32.1000 1204.00 1291.76 33.90
521 32.1500 1164.00 1290.52 33.30
522 32.2000 1248.00 1289.53 34.40
523 32.2500 1219.00 1288.73 33.90
524 32.3000 1170.00 1288.08 33.40
525 32.3500 1225.00 1287.56 34.00
526 32.4000 1258.00 1287.14 34.40
527 32.4500 1236.00 1286.83 34.20
528 32.5000 1251.00 1288.33 34.30
529 32.5500 1271.00 1288.20 34.60
530 32.6000 1173.00 1288.14 33.30
531 32.6500 1206.00 1288.13 33.50
532 32.7000 1206.00 1288.19 33.60
533 32.7500 1297.00 1288.29 34.90
534 32.8000 1255.00 1289.65 34.20
535 32.8500 1248.00 1290.04 34.20
536 32.9000 1226.00 1290.30 33.90
537 32.9500 1206.00 1290.60 33.40
538 33.0000 1255.00 1290.93 34.30
539 33.0500 1188.00 1291.28 33.30
540 33.1000 1226.00 1291.67 33.70
541 33.1500 1140.00 1292.09 32.50
542 33.2000 1239.00 1292.53 34.00
543 33.2500 1283.00 1292.99 34.20
544 33.3000 1243.00 1293.47 34.00
545 33.3500 1249.00 1293.98 34.00
546 33.4000 1256.00 1294.52 33.80
547 33.4500 1330.00 1295.08 35.10
548 33.5000 1333.00 1295.67 35.10
549 33.5500 1345.00 1296.29 35.00
550 33.6000 1326.00 1296.95 35.10
551 33.6500 1402.00 1297.66 35.90
552 33.7000 1366.00 1298.43 35.20
553 33.7500 1366.00 1299.26 35.40
554 33.8000 1415.00 1299.84 36.10
555 33.8500 1337.00 1300.84 34.80
556 33.9000 1383.00 1301.94 35.70
557 33.9500 1416.00 1305.07 36.10
558 34.0000 1343.00 1306.42 34.90
559 34.0500 1409.00 1307.89 36.00
560 34.1000 1296.00 1309.49 34.50
561 34.1500 1250.00 1311.20 33.60
562 34.2000 1338.00 1313.02 35.10
563 34.2500 1301.00 1314.93 34.40
564 34.3000 1296.00 1316.90 34.20
565 34.3500 1324.00 1318.91 34.80
566 34.4000 1264.00 1320.92 34.00
567 34.4500 1354.00 1322.89 35.10
568 34.5000 1312.00 1324.80 34.60
569 34.5500 1311.00 1326.62 34.50
570 34.6000 1284.00 1328.59 34.20
571 34.6500 1304.00 1329.94 34.40
572 34.7000 1364.00 1331.54 35.20
573 34.7500 1347.00 1333.17 34.90
574 34.8000 1387.00 1334.91 35.50
575 34.8500 1330.00 1336.83 34.80
576 34.9000 1339.00 1338.98 34.80
577 34.9500 1385.00 1341.40 35.60
578 35.0000 1390.00 1344.09 35.60
579 35.0500 1482.00 1347.02 36.80
580 35.1000 1446.00 1350.13 36.40
581 35.1500 1469.00 1353.32 36.70
582 35.2000 1497.00 1356.48 37.00
583 35.2500 1455.00 1359.44 36.60
584 35.3000 1506.00 1362.16 37.10
585 35.3500 1500.00 1364.56 37.30
586 35.4000 1564.00 1366.67 38.00
587 35.4500 1563.00 1368.67 38.40
588 35.5000 1542.00 1370.87 37.80
589 35.5500 1444.00 1373.72 36.90
590 35.6000 1469.00 1377.83 37.20
591 35.6500 1551.00 1384.01 38.30
592 35.7000 1449.00 1393.37 37.00
593 35.7500 1458.00 1407.31 37.50
594 35.8000 1417.00 1427.60 36.50
595 35.8500 1410.00 1456.31 37.00
596 35.9000 1468.00 1495.73 37.60
597 35.9500 1555.00 1548.10 39.10
598 36.0000 1569.00 1615.31 39.10
599 36.0500 1668.00 1698.45 40.70
600 36.1000 1593.00 1797.33 39.50
601 36.1500 1876.00 1910.08 43.20
602 36.2000 1952.00 2032.82 44.00
603 36.2500 2064.00 2159.48 45.70
604 36.3000 2185.00 2281.78 46.60
605 36.3500 2359.00 2389.58 49.20
606 36.4000 2523.00 2471.74 50.50
607 36.4500 2604.00 2518.02 51.70
608 36.5000 2627.00 2521.99 51.90
609 36.5500 2623.00 2483.47 52.30
610 36.6000 2564.00 2408.63 51.30
611 36.6500 2481.00 2307.69 50.90
612 36.7000 2211.00 2192.09 48.00
613 36.7500 2038.00 2072.52 46.20
614 36.8000 1990.00 1958.10 45.50
615 36.8500 1848.00 1856.21 44.20
616 36.9000 1747.00 1772.54 42.70
617 36.9500 1696.00 1711.44 42.20
618 37.0000 1710.00 1676.26 42.50
619 37.0500 1700.00 1669.78 42.20
620 37.1000 1758.00 1694.25 43.00
621 37.1500 1815.00 1751.16 43.60
622 37.2000 2013.00 1840.48 45.90
623 37.2500 2021.00 1959.51 45.80
624 37.3000 2211.00 2101.81 48.20
625 37.3500 2344.00 2256.69 49.40
626 37.4000 2513.00 2409.76 51.10
627 37.4500 2599.00 2544.44 51.80
628 37.5000 2790.00 2644.62 53.90
629 37.5500 2755.00 2699.05 52.90
630 37.6000 2891.00 2707.10 54.70
631 37.6500 2759.00 2682.34 52.70
632 37.7000 2833.00 2650.65 53.70
633 37.7500 2752.00 2643.96 52.50
634 37.8000 2771.00 2693.06 52.80
635 37.8500 2892.00 2821.18 53.50
636 37.9000 3090.00 3038.85 55.60
637 37.9500 3412.00 3341.14 57.80
638 38.0000 3623.00 3708.07 59.90
639 38.0500 3976.00 4108.72 62.40
640 38.1000 4293.00 4508.96 64.80
641 38.1500 4688.00 4881.32 67.30
642 38.2000 5120.00 5217.65 70.90
643 38.2500 5613.00 5538.07 73.10
644 38.3000 5995.00 5885.91 76.10
645 38.3500 6497.00 6308.29 79.10
646 38.4000 6721.00 6833.62 80.00
647 38.4500 7601.00 7456.06 85.10
648 38.5000 8044.00 8130.10 87.90
649 38.5500 8686.00 8775.28 90.20
650 38.6000 9159.00 9292.00 93.40
651 38.6500 9542.00 9590.81 94.80
652 38.7000 9612.00 9629.96 94.90
653 38.7500 9705.00 9436.90 95.20
654 38.8000 9359.00 9092.77 93.80
655 38.8500 8938.00 8693.40 91.10
656 38.9000 8359.00 8315.58 88.40
657 38.9500 7868.00 7998.32 86.10
658 39.0000 7456.00 7736.62 83.20
659 39.0500 7274.00 7487.78 82.20
660 39.1000 7201.00 7191.20 82.30
661 39.1500 6774.00 6798.58 78.90
662 39.2000 6306.00 6297.98 76.50
663 39.2500 5682.00 5717.27 72.50
664 39.3000 5014.00 5111.45 67.90
665 39.3500 4435.00 4547.37 63.90
666 39.4000 3987.00 4093.52 60.70
667 39.4500 3661.00 3812.34 57.90
668 39.5000 3741.00 3753.81 58.60
669 39.5500 3937.00 3948.83 60.30
670 39.6000 4405.00 4402.01 63.50
671 39.6500 5080.00 5085.06 68.20
672 39.7000 5739.00 5932.33 72.70
673 39.7500 6518.00 6842.08 77.00
674 39.8000 7313.00 7684.55 81.80
675 39.8500 7934.00 8319.73 85.80
676 39.9000 8250.00 8624.85 86.70
677 39.9500 8433.00 8531.99 88.60
678 40.0000 8165.00 8054.63 87.10
679 40.0500 7254.00 7279.87 81.50
680 40.1000 6378.00 6332.59 77.10
681 40.1500 5058.00 5339.68 68.40
682 40.2000 4072.00 4406.76 61.00
683 40.2500 3399.00 3605.34 56.20
684 40.3000 2886.00 2969.85 51.70
685 40.3500 2438.00 2502.71 47.60
686 40.4000 2261.00 2184.29 45.80
687 40.4500 2160.00 1984.08 45.10
688 40.5000 1984.00 1870.00 42.90
689 40.5500 1906.00 1814.32 42.50
690 40.6000 1886.00 1796.23 42.20
691 40.6500 1779.00 1801.71 40.90
692 40.7000 1769.00 1822.08 40.90
693 40.7500 1911.00 1852.02 42.60
694 40.8000 1878.00 1888.00 42.00
695 40.8500 1868.00 1928.68 42.10
696 40.9000 1948.00 1968.20 43.00
697 40.9500 1930.00 2004.86 43.00
698 41.0000 1979.00 2035.17 43.40
699 41.0500 1905.00 2055.70 42.70
700 41.1000 1899.00 2063.71 42.60
701 41.1500 1957.00 2057.88 43.10
702 41.2000 1921.00 2038.66 42.90
703 41.2500 1831.00 2008.04 42.20
704 41.3000 1833.00 1968.84 41.70
705 41.3500 1753.00 1923.98 41.20
706 41.4000 1709.00 1875.93 40.70
707 41.4500 1588.00 1826.54 39.20
708 41.5000 1622.00 1777.02 39.60
709 41.5500 1589.00 1728.37 39.50
710 41.6000 1564.00 1680.98 38.90
711 41.6500 1512.00 1635.94 38.20
712 41.7000 1486.00 1594.22 38.20
713 41.7500 1566.00 1556.66 39.00
714 41.8000 1446.00 1523.78 37.40
715 41.8500 1436.00 1495.78 37.70
716 41.9000 1391.00 1473.10 36.70
717 41.9500 1400.00 1454.32 37.10
718 42.0000 1378.00 1439.48 37.00
719 42.0500 1347.00 1428.00 36.30
720 42.1000 1335.00 1419.70 36.20
721 42.1500 1345.00 1413.13 36.30
722 42.2000 1340.00 1408.24 36.20
723 42.2500 1354.00 1404.66 36.60
724 42.3000 1354.00 1401.85 36.50
725 42.3500 1343.00 1399.68 36.60
726 42.4000 1314.00 1397.98 36.10
727 42.4500 1330.00 1396.63 36.40
728 42.5000 1336.00 1395.66 36.50
729 42.5500 1308.00 1394.80 36.20
730 42.6000 1358.00 1394.12 36.80
731 42.6500 1373.00 1393.60 37.20
732 42.7000 1382.00 1393.23 37.20
733 42.7500 1344.00 1393.00 36.60
734 42.8000 1397.00 1392.89 37.60
735 42.8500 1506.00 1392.91 39.10
736 42.9000 1391.00 1393.05 37.30
737 42.9500 1387.00 1393.30 37.70
738 43.0000 1378.00 1393.67 37.40
739 43.0500 1384.00 1394.13 37.30
740 43.1000 1476.00 1394.70 38.90
741 43.1500 1346.00 1395.36 37.00
742 43.2000 1431.00 1396.10 37.90
743 43.2500 1475.00 1396.93 39.20
744 43.3000 1432.00 1397.82 38.20
745 43.3500 1401.00 1398.77 37.90
746 43.4000 1445.00 1399.75 38.80
747 43.4500 1465.00 1400.76 38.70
748 43.5000 1480.00 1401.78 39.00
749 43.5500 1490.00 1402.77 39.10
750 43.6000 1466.00 1403.53 38.70
751 43.6500 1515.00 1404.42 39.00
752 43.7000 1499.00 1405.22 39.30
753 43.7500 1482.00 1405.91 38.80
754 43.8000 1508.00 1406.46 38.90
755 43.8500 1535.00 1406.89 39.40
756 43.9000 1497.00 1407.18 39.00
757 43.9500 1539.00 1407.33 39.00
758 44.0000 1568.00 1407.37 39.90
759 44.0500 1483.00 1407.30 38.40
760 44.1000 1413.00 1407.15 37.40
761 44.1500 1487.00 1406.92 38.50
762 44.2000 1597.00 1406.14 39.90
763 44.2500 1485.00 1405.83 38.10
764 44.3000 1483.00 1404.95 38.40
765 44.3500 1480.00 1404.67 38.20
766 44.4000 1449.00 1404.43 37.70
767 44.4500 1518.00 1404.25 38.60
768 44.5000 1525.00 1404.14 38.80
769 44.5500 1474.00 1404.13 37.70
770 44.6000 1418.00 1404.23 37.30
771 44.6500 1419.00 1404.43 37.00
772 44.7000 1427.00 1404.75 37.10
773 44.7500 1457.00 1405.20 37.60
774 44.8000 1457.00 1405.77 37.50
775 44.8500 1417.00 1404.75 36.90
776 44.9000 1449.00 1405.60 37.50
777 44.9500 1361.00 1406.58 36.20
778 45.0000 1438.00 1407.70 37.20
779 45.0500 1413.00 1408.96 36.80
780 45.1000 1448.00 1410.35 37.30
781 45.1500 1433.00 1411.88 37.00
782 45.2000 1375.00 1413.56 36.30
783 45.2500 1452.00 1415.41 37.30
784 45.3000 1429.00 1417.45 37.00
785 45.3500 1399.00 1419.70 36.70
786 45.4000 1412.00 1422.18 36.80
787 45.4500 1424.00 1424.93 36.90
788 45.5000 1458.00 1426.84 37.40
789 45.5500 1384.00 1430.12 36.50
790 45.6000 1387.00 1434.02 36.40
791 45.6500 1487.00 1438.44 37.80
792 45.7000 1406.00 1443.45 36.70
793 45.7500 1453.00 1449.09 37.40
794 45.8000 1441.00 1455.62 37.20
795 45.8500 1431.00 1463.10 37.20
796 45.9000 1452.00 1470.32 37.30
797 45.9500 1454.00 1480.12 37.50
798 46.0000 1492.00 1491.30 38.00
799 46.0500 1469.00 1504.02 37.60
800 46.1000 1531.00 1518.44 38.50
801 46.1500 1520.00 1534.74 38.40
802 46.2000 1605.00 1553.15 39.30
803 46.2500 1621.00 1573.96 39.70
804 46.3000 1599.00 1597.65 39.40
805 46.3500 1683.00 1625.05 40.40
806 46.4000 1682.00 1657.62 40.40
807 46.4500 1682.00 1697.90 40.60
808 46.5000 1781.00 1750.10 41.60
809 46.5500 1757.00 1820.69 41.40
810 46.6000 1970.00 1918.99 44.00
811 46.6500 1943.00 2057.30 43.50
812 46.7000 2157.00 2250.14 45.90
813 46.7500 2485.00 2512.63 49.10
814 46.8000 2841.00 2857.18 52.60
815 46.8500 3364.00 3289.60 57.30
816 46.9000 3850.00 3804.81 61.10
817 46.9500 4468.00 4383.06 66.00
818 47.0000 5074.00 4987.99 70.30
819 47.0500 5559.00 5566.71 73.50
820 47.1000 6228.00 6054.65 78.00
821 47.1500 6482.00 6387.93 79.10
822 47.2000 6765.00 6525.92 81.10
823 47.2500 6779.00 6470.47 81.00
824 47.3000 6649.00 6264.03 80.10
825 47.3500 6212.00 5970.10 77.70
826 47.4000 5697.00 5655.46 74.30
827 47.4500 5264.00 5366.25 71.40
828 47.5000 5170.00 5130.81 70.90
829 47.5500 4980.00 4946.49 69.10
830 47.6000 4767.00 4785.50 68.00
831 47.6500 4560.00 4606.69 66.30
832 47.7000 4511.00 4374.71 65.80
833 47.7500 4198.00 4078.56 63.30
834 47.8000 3976.00 3735.45 61.90
835 47.8500 3483.00 3379.59 57.50
836 47.9000 3102.00 3049.06 54.40
837 47.9500 2808.00 2776.43 52.20
838 48.0000 2654.00 2583.13 50.20
839 48.0500 2436.00 2476.68 48.30
840 48.1000 2489.00 2451.84 49.10
841 48.1500 2616.00 2488.71 49.70
842 48.2000 2766.00 2562.74 51.50
843 48.2500 2829.00 2644.11 52.20
844 48.3000 2867.00 2702.83 52.00
845 48.3500 2854.00 2714.63 52.60
846 48.4000 2861.00 2667.88 52.50
847 48.4500 2825.00 2566.83 52.00
848 48.5000 2559.00 2427.16 49.80
849 48.5500 2406.00 2268.32 48.10
850 48.6000 2125.00 2108.22 45.20
851 48.6500 1935.00 1960.48 43.50
852 48.7000 1796.00 1833.89 41.60
853 48.7500 1678.00 1732.44 40.50
854 48.8000 1499.00 1656.20 38.30
855 48.8500 1591.00 1602.49 39.50
856 48.9000 1513.00 1567.31 38.50
857 48.9500 1490.00 1546.31 38.70
858 49.0000 1478.00 1535.56 38.00
859 49.0500 1449.00 1531.84 38.00
860 49.1000 1526.00 1532.60 39.20
861 49.1500 1465.00 1535.87 38.20
862 49.2000 1477.00 1540.06 38.40
863 49.2500 1415.00 1543.81 37.90
864 49.3000 1367.00 1546.00 36.80
865 49.3500 1439.00 1545.88 38.20
866 49.4000 1396.00 1543.33 37.70
867 49.4500 1420.00 1538.88 37.80
868 49.5000 1422.00 1533.52 38.00
869 49.5500 1416.00 1528.46 38.00
870 49.6000 1451.00 1524.93 38.20
871 49.6500 1446.00 1524.08 38.30
872 49.7000 1421.00 1527.02 38.00
873 49.7500 1449.00 1534.70 38.20
874 49.8000 1472.00 1547.90 38.70
875 49.8500 1413.00 1567.20 37.90
876 49.9000 1520.00 1592.81 39.20
877 49.9500 1578.00 1624.57 40.00
878 50.0000 1597.00 1661.76 40.20
879 50.0500 1641.00 1703.10 40.40
880 50.1000 1667.00 1746.60 41.00
881 50.1500 1801.00 1789.58 42.40
882 50.2000 1859.00 1828.68 43.00
883 50.2500 2011.00 1860.05 44.70
884 50.3000 1955.00 1879.87 44.10
885 50.3500 1939.00 1884.99 43.50
886 50.4000 1910.00 1875.18 43.60
887 50.4500 1862.00 1851.56 42.70
888 50.5000 1889.00 1817.29 43.00
889 50.5500 1763.00 1776.23 41.40
890 50.6000 1711.00 1732.11 41.00
891 50.6500 1584.00 1688.02 38.80
892 50.7000 1645.00 1646.33 39.90
893 50.7500 1551.00 1608.68 38.40
894 50.8000 1481.00 1576.04 37.60
895 50.8500 1512.00 1548.76 37.90
896 50.9000 1449.00 1526.75 37.10
897 50.9500 1475.00 1509.54 37.20
898 51.0000 1392.00 1496.48 36.40
899 51.0500 1382.00 1486.86 36.00
900 51.1000 1416.00 1479.93 36.50
901 51.1500 1429.00 1475.07 36.50
902 51.2000 1367.00 1471.73 35.80
903 51.2500 1432.00 1469.48 36.40
904 51.3000 1430.00 1468.02 36.50
905 51.3500 1394.00 1467.12 35.90
906 51.4000 1382.00 1466.61 35.80
907 51.4500 1447.00 1466.40 36.60
908 51.5000 1470.00 1466.42 36.90
909 51.5500 1474.00 1466.62 36.90
910 51.6000 1521.00 1466.99 37.50
911 51.6500 1507.00 1467.50 37.20
912 51.7000 1467.00 1468.15 36.80
913 51.7500 1468.00 1468.93 36.80
914 51.8000 1506.00 1469.83 37.20
915 51.8500 1554.00 1470.87 37.90
916 51.9000 1510.00 1472.03 37.40
917 51.9500 1428.00 1473.34 36.30
918 52.0000 1529.00 1474.78 37.60
919 52.0500 1496.00 1476.38 37.10
920 52.1000 1407.00 1478.14 36.10
921 52.1500 1551.00 1482.66 37.80
922 52.2000 1452.00 1488.74 36.60
923 52.2500 1495.00 1491.19 37.10
924 52.3000 1463.00 1493.86 36.70
925 52.3500 1473.00 1496.85 36.90
926 52.4000 1487.00 1500.07 37.00
927 52.4500 1473.00 1503.61 37.00
928 52.5000 1440.00 1507.52 36.40
929 52.5500 1480.00 1511.84 37.00
930 52.6000 1495.00 1516.64 37.30
931 52.6500 1501.00 1521.99 37.20
932 52.7000 1428.00 1527.99 36.30
933 52.7500 1541.00 1534.75 37.90
934 52.8000 1450.00 1542.44 36.50
935 52.8500 1516.00 1551.29 37.40
936 52.9000 1449.00 1561.64 36.70
937 52.9500 1554.00 1574.05 37.80
938 53.0000 1542.00 1589.46 37.70
939 53.0500 1525.00 1609.44 37.60
940 53.1000 1568.00 1636.63 38.00
941 53.1500 1679.00 1675.09 39.20
942 53.2000 1690.00 1731.69 39.50
943 53.2500 1782.00 1815.57 40.40
944 53.3000 1928.00 1939.14 42.00
945 53.3500 2141.00 2117.45 44.50
946 53.4000 2354.00 2366.60 46.40
947 53.4500 2671.00 2700.87 49.30
948 53.5000 3196.00 3128.08 54.40
949 53.5500 3648.00 3645.73 57.70
950 53.6000 4314.00 4239.38 62.70
951 53.6500 4784.00 4872.92 66.30
952 53.7000 5480.00 5493.03 70.70
953 53.7500 5881.00 6029.07 73.00
954 53.8000 6304.00 6400.87 76.10
955 53.8500 6660.00 6539.15 77.90
956 53.9000 6367.00 6414.50 75.90
957 53.9500 6105.00 6053.57 74.60
958 54.0000 5814.00 5524.47 72.80
959 54.0500 5020.00 4907.67 67.50
960 54.1000 4523.00 4274.80 64.20
961 54.1500 3692.00 3680.22 58.00
962 54.2000 3192.00 3159.52 53.80
963 54.2500 2654.00 2730.35 49.40
964 54.3000 2367.00 2395.52 46.50
965 54.3500 2152.00 2146.92 44.50
966 54.4000 1965.00 1970.40 42.50
967 54.4500 1805.00 1849.83 40.90
968 54.5000 1790.00 1770.31 40.60
969 54.5500 1693.00 1719.78 39.50
970 54.6000 1590.00 1687.03 38.40
971 54.6500 1511.00 1666.30 37.60
972 54.7000 1493.00 1654.53 37.10
973 54.7500 1519.00 1649.88 37.80
974 54.8000 1543.00 1650.33 38.00
975 54.8500 1503.00 1656.86 37.50
976 54.9000 1530.00 1670.60 37.90
977 54.9500 1573.00 1693.29 38.80
978 55.0000 1555.00 1727.11 38.20
979 55.0500 1548.00 1774.43 38.50
980 55.1000 1663.00 1837.43 39.90
981 55.1500 1679.00 1917.67 40.20
982 55.2000 1723.00 2015.56 40.70
983 55.2500 1849.00 2129.82 42.60
984 55.3000 2026.00 2257.00 44.20
985 55.3500 2182.00 2391.33 46.50
986 55.4000 2373.00 2523.92 48.20
987 55.4500 2382.00 2643.62 48.50
988 55.5000 2653.00 2737.22 51.20
989 55.5500 2690.00 2791.78 51.90
990 55.6000 2692.00 2798.56 51.60
991 55.6500 2751.00 2756.64 52.50
992 55.7000 2610.00 2673.33 51.10
993 55.7500 2489.00 2561.03 50.20
994 55.8000 2276.00 2433.17 47.80
995 55.8500 2281.00 2301.57 48.20
996 55.9000 2068.00 2175.44 45.70
997 55.9500 1951.00 2061.31 44.50
998 56.0000 1849.00 1963.17 43.40
999 56.0500 1687.00 1882.81 41.60
1000 56.1000 1647.00 1820.25 40.90
1001 56.1500 1638.00 1774.25 41.00
1002 56.2000 1639.00 1742.84 41.00
1003 56.2500 1573.00 1723.77 40.00
1004 56.3000 1577.00 1714.90 40.20
1005 56.3500 1599.00 1714.37 40.40
1006 56.4000 1621.00 1720.72 40.60
1007 56.4500 1620.00 1732.90 40.70
1008 56.5000 1621.00 1750.17 40.70
1009 56.5500 1737.00 1772.16 41.90
1010 56.6000 1695.00 1798.57 41.60
1011 56.6500 1707.00 1829.25 41.30
1012 56.7000 1779.00 1864.09 42.40
1013 56.7500 1798.00 1903.03 42.50
1014 56.8000 1920.00 1946.02 43.90
1015 56.8500 2006.00 1993.26 44.70
1016 56.9000 1947.00 2045.44 44.20
1017 56.9500 1948.00 2104.62 43.80
1018 57.0000 2109.00 2175.77 45.90
1019 57.0500 2189.00 2269.41 46.50
1020 57.1000 2400.00 2405.78 48.60
1021 57.1500 2560.00 2620.39 50.20
1022 57.2000 3013.00 2969.72 54.50
1023 57.2500 3590.00 3534.79 59.20
1024 57.3000 4437.00 4417.69 66.10
1025 57.3500 5936.00 5727.29 76.20
1026 57.4000 7867.00 7550.30 87.60
1027 57.4500 10145.00 9909.64 99.60
1028 57.5000 12683.00 12725.90 111.40
1029 57.5500 15449.00 15785.10 122.50
1030 57.6000 18505.00 18738.60 134.60
1031 57.6500 21056.00 21131.70 143.00
1032 57.7000 22397.00 22495.20 147.50
1033 57.7500 22891.00 22508.70 148.80
1034 57.8000 22075.00 21166.40 146.40
1035 57.8500 19493.00 18780.70 137.50
1036 57.9000 16136.00 15819.90 124.90
1037 57.9500 12530.00 12740.30 110.00
1038 58.0000 9094.00 9891.38 93.90
1039 58.0500 6790.00 7491.52 80.70
1040 58.1000 5231.00 5625.90 71.10
1041 58.1500 4163.00 4274.94 63.40
1042 58.2000 3551.00 3355.73 58.40
1043 58.2500 2998.00 2761.79 53.70
1044 58.3000 2561.00 2392.16 49.70
1045 58.3500 2261.00 2165.81 46.60
1046 58.4000 2026.00 2025.83 44.20
1047 58.4500 1895.00 1935.81 42.70
1048 58.5000 1732.00 1874.51 40.70
1049 58.5500 1701.00 1829.93 40.20
1050 58.6000 1737.00 1795.67 40.80
1051 58.6500 1621.00 1768.82 39.20
1052 58.7000 1634.00 1746.44 39.40
1053 58.7500 1694.00 1728.04 40.00
1054 58.8000 1632.00 1712.66 39.30
1055 58.8500 1549.00 1699.93 38.00
1056 58.9000 1594.00 1689.49 38.80
1057 58.9500 1627.00 1681.08 39.10
1058 59.0000 1686.00 1674.51 39.60
1059 59.0500 1604.00 1669.67 38.70
1060 59.1000 1519.00 1666.50 37.80
1061 59.1500 1526.00 1665.00 37.50
1062 59.2000 1534.00 1665.29 37.90
1063 59.2500 1649.00 1667.67 39.20
1064 59.3000 1651.00 1672.79 39.00
1065 59.3500 1637.00 1681.97 38.90
1066 59.4000 1679.00 1697.67 39.60
1067 59.4500 1683.00 1725.69 39.30
1068 59.5000 1756.00 1770.31 40.30
1069 59.5500 1884.00 1843.57 41.70
1070 59.6000 1940.00 1959.88 42.20
1071 59.6500 2144.00 2136.42 44.30
1072 59.7000 2441.00 2390.38 47.50
1073 59.7500 2844.00 2734.84 51.00
1074 59.8000 3272.00 3172.90 54.80
1075 59.8500 3671.00 3692.49 58.20
1076 59.9000 4192.00 4262.14 61.90
1077 59.9500 4774.00 4829.62 66.30
1078 60.0000 5207.00 5327.41 69.40
1079 60.0500 5707.00 5686.18 72.30
1080 60.1000 6026.00 5854.11 74.50
1081 60.1500 5803.00 5809.46 73.00
1082 60.2000 5698.00 5562.23 72.20
1083 60.2500 5219.00 5148.22 69.20
1084 60.3000 4658.00 4624.02 65.40
1085 60.3500 4092.00 4053.80 61.60
1086 60.4000 3604.00 3502.97 57.50
1087 60.4500 3093.00 3013.05 53.50
1088 60.5000 2653.00 2608.06 49.60
1089 60.5500 2398.00 2294.44 47.00
1090 60.6000 2104.00 2065.70 44.10
1091 60.6500 1937.00 1907.83 42.30
1092 60.7000 1838.00 1803.97 41.20
1093 60.7500 1742.00 1738.18 40.00
1094 60.8000 1675.00 1697.39 39.30
1095 60.8500 1692.00 1672.07 39.80
1096 60.9000 1610.00 1655.91 38.50
1097 60.9500 1599.00 1645.04 38.60
1098 61.0000 1611.00 1637.24 38.80
1099 61.0500 1606.00 1632.44 38.50
1100 61.1000 1517.00 1627.73 37.60
1101 61.1500 1534.00 1623.85 38.00
1102 61.2000 1594.00 1620.59 38.40
1103 61.2500 1543.00 1617.81 38.20
1104 61.3000 1549.00 1615.42 38.20
1105 61.3500 1520.00 1613.38 37.60
1106 61.4000 1574.00 1611.68 38.50
1107 61.4500 1554.00 1610.35 38.70
1108 61.5000 1553.00 1609.45 38.10
1109 61.5500 1509.00 1609.12 37.90
1110 61.6000 1534.00 1609.53 38.40
1111 61.6500 1578.00 1610.91 38.60
1112 61.7000 1575.00 1613.52 38.70
1113 61.7500 1619.00 1617.67 39.80
1114 61.8000 1504.00 1623.61 37.70
1115 61.8500 1574.00 1631.56 39.20
1116 61.9000 1563.00 1641.62 39.10
1117 61.9500 1723.00 1653.68 40.80
1118 62.0000 1635.00 1667.44 39.90
1119 62.0500 1619.00 1682.30 40.00
1120 62.1000 1626.00 1697.40 39.70
1121 62.1500 1785.00 1711.57 42.00
1122 62.2000 1692.00 1723.51 40.90
1123 62.2500 1669.00 1732.08 40.60
1124 62.3000 1672.00 1736.64 40.70
1125 62.3500 1756.00 1737.25 42.10
1126 62.4000 1636.00 1734.55 40.20
1127 62.4500 1638.00 1729.62 40.40
1128 62.5000 1679.00 1723.75 41.10
1129 62.5500 1700.00 1718.40 41.20
1130 62.6000 1656.00 1715.27 40.70
1131 62.6500 1623.00 1716.42 40.40
1132 62.7000 1614.00 1724.99 40.20
1133 62.7500 1692.00 1743.01 41.00
1134 62.8000 1672.00 1774.65 41.00
1135 62.8500 1781.00 1823.60 42.10
1136 62.9000 1816.00 1892.81 42.50
1137 62.9500 1953.00 1983.65 44.10
1138 63.0000 2025.00 2094.99 44.90
1139 63.0500 2179.00 2222.63 46.00
1140 63.1000 2363.00 2358.62 48.40
1141 63.1500 2488.00 2494.43 49.20
1142 63.2000 2589.00 2618.81 50.10
1143 63.2500 2685.00 2725.64 50.90
1144 63.3000 2844.00 2816.09 52.60
1145 63.3500 2850.00 2906.15 51.90
1146 63.4000 2891.00 3011.93 52.80
1147 63.4500 2964.00 3138.12 53.00
1148 63.5000 3169.00 3280.37 54.80
1149 63.5500 3261.00 3421.99 55.20
1150 63.6000 3360.00 3536.18 56.50
1151 63.6500 3450.00 3591.97 56.30
1152 63.7000 3516.00 3566.87 57.30
1153 63.7500 3528.00 3460.79 57.00
1154 63.8000 3235.00 3297.38 54.60
1155 63.8500 3070.00 3110.71 52.90
1156 63.9000 2858.00 2931.40 51.30
1157 63.9500 2751.00 2779.99 49.70
1158 64.0000 2751.00 2665.65 50.10
1159 64.0500 2700.00 2587.63 49.40
1160 64.1000 2679.00 2539.02 49.10
1161 64.1500 2781.00 2510.88 49.80
1162 64.2000 2778.00 2493.92 50.10
1163 64.2500 2804.00 2478.82 50.00
1164 64.3000 2719.00 2458.63 49.30
1165 64.3500 2736.00 2432.50 49.50
1166 64.4000 2652.00 2407.12 48.60
1167 64.4500 2558.00 2393.18 47.60
1168 64.5000 2548.00 2400.35 47.70
1169 64.5500 2329.00 2433.79 45.50
1170 64.6000 2544.00 2492.48 47.50
1171 64.6500 2508.00 2568.59 47.20
1172 64.7000 2627.00 2647.75 48.30
1173 64.7500 2666.00 2711.10 48.60
1174 64.8000 2849.00 2739.52 50.30
1175 64.8500 2824.00 2720.09 50.10
1176 64.9000 2744.00 2652.23 49.30
1177 64.9500 2681.00 2548.57 49.00
1178 65.0000 2579.00 2428.64 47.80
1179 65.0500 2390.00 2311.67 46.10
1180 65.1000 2241.00 2212.64 44.80
1181 65.1500 2133.00 2141.39 43.60
1182 65.2000 2083.00 2102.72 43.10
1183 65.2500 2017.00 2097.15 42.60
1184 65.3000 2005.00 2122.02 42.30
1185 65.3500 2075.00 2173.91 43.10
1186 65.4000 2118.00 2244.34 43.70
1187 65.4500 2267.00 2327.90 45.30
1188 65.5000 2331.00 2417.23 45.70
1189 65.5500 2561.00 2503.71 48.20
1190 65.6000 2526.00 2578.50 47.80
1191 65.6500 2621.00 2633.17 48.60
1192 65.7000 2731.00 2660.92 49.80
1193 65.7500 2733.00 2658.31 49.90
1194 65.8000 2726.00 2628.72 49.60
1195 65.8500 2615.00 2575.74 49.10
1196 65.9000 2559.00 2507.38 48.30
1197 65.9500 2411.00 2434.98 46.80
1198 66.0000 2420.00 2373.91 47.30
1199 66.0500 2388.00 2342.60 46.80
1200 66.1000 2366.00 2355.61 46.40
1201 66.1500 2449.00 2425.90 47.50
1202 66.2000 2469.00 2560.13 47.60
1203 66.2500 2749.00 2753.06 50.20
1204 66.3000 2880.00 2987.43 51.50
1205 66.3500 3132.00 3232.95 53.80
1206 66.4000 3354.00 3447.96 55.40
1207 66.4500 3626.00 3584.09 57.90
1208 66.5000 3670.00 3603.36 58.20
1209 66.5500 3650.00 3496.91 57.90
1210 66.6000 3387.00 3291.00 55.90
1211 66.6500 3118.00 3030.10 53.60
1212 66.7000 2856.00 2756.99 51.20
1213 66.7500 2577.00 2505.12 48.80
1214 66.8000 2362.00 2290.36 46.70
1215 66.8500 2259.00 2121.56 45.80
1216 66.9000 2003.00 1996.99 43.00
1217 66.9500 1944.00 1909.34 42.40
1218 67.0000 1877.00 1849.24 41.70
1219 67.0500 1807.00 1809.16 40.70
1220 67.1000 1764.00 1779.49 40.40
1221 67.1500 1783.00 1756.74 40.60
1222 67.2000 1696.00 1737.75 39.40
1223 67.2500 1664.00 1721.91 39.30
1224 67.3000 1758.00 1706.59 40.40
1225 67.3500 1746.00 1692.71 40.30
1226 67.4000 1643.00 1680.41 39.10
1227 67.4500 1667.00 1669.86 39.60
1228 67.5000 1649.00 1661.15 39.20
1229 67.5500 1644.00 1654.33 39.50
1230 67.6000 1651.00 1649.40 39.40
1231 67.6500 1626.00 1646.35 39.30
1232 67.7000 1649.00 1645.26 39.60
1233 67.7500 1670.00 1646.39 39.80
1234 67.8000 1670.00 1650.29 39.80
1235 67.8500 1672.00 1658.07 40.10
1236 67.9000 1704.00 1671.61 40.20
1237 67.9500 1693.00 1693.74 40.60
1238 68.0000 1829.00 1728.35 41.90
1239 68.0500 1811.00 1780.05 42.00
1240 68.1000 1905.00 1853.49 43.10
1241 68.1500 1994.00 1951.94 44.30
1242 68.2000 2068.00 2075.73 44.90
1243 68.2500 2235.00 2220.67 47.40
1244 68.3000 2303.00 2376.61 47.60
1245 68.3500 2404.00 2526.92 49.10
1246 68.4000 2473.00 2648.79 49.80
1247 68.4500 2623.00 2717.41 51.30
1248 68.5000 2707.00 2715.89 52.10
1249 68.5500 2590.00 2645.76 51.40
1250 68.6000 2560.00 2525.89 50.60
1251 68.6500 2384.00 2381.39 49.10
1252 68.7000 2279.00 2234.39 48.20
1253 68.7500 2129.00 2100.66 46.30
1254 68.8000 1965.00 1989.72 44.60
1255 68.8500 2023.00 1905.51 45.70
1256 68.9000 1844.00 1847.93 43.10
1257 68.9500 1903.00 1814.63 44.10
1258 69.0000 1936.00 1802.91 44.70
1259 69.0500 1885.00 1811.30 43.60
1260 69.1000 1900.00 1840.18 44.10
1261 69.1500 1975.00 1893.62 44.90
1262 69.2000 2002.00 1977.20 44.90
1263 69.2500 2217.00 2098.36 47.40
1264 69.3000 2272.00 2264.56 48.10
1265 69.3500 2433.00 2481.25 49.30
1266 69.4000 2731.00 2749.10 52.60
1267 69.4500 3065.00 3061.32 55.20
1268 69.5000 3302.00 3402.36 57.40
1269 69.5500 3678.00 3745.14 60.40
1270 69.6000 4120.00 4050.18 64.00
1271 69.6500 4164.00 4271.58 63.60
1272 69.7000 4511.00 4364.38 66.90
1273 69.7500 4382.00 4307.83 65.20
1274 69.8000 4187.00 4117.18 63.70
1275 69.8500 4094.00 3834.81 63.10
1276 69.9000 3652.00 3509.43 59.50
1277 69.9500 3235.00 3182.74 55.50
1278 70.0000 2951.00 2884.93 53.60
1279 70.0500 2614.00 2635.75 49.60
1280 70.1000 2581.00 2445.62 49.50
1281 70.1500 2331.00 2318.06 47.00
1282 70.2000 2404.00 2251.75 47.50
1283 70.2500 2424.00 2242.54 47.50
1284 70.3000 2395.00 2284.92 47.70
1285 70.3500 2525.00 2372.39 48.40
1286 70.4000 2615.00 2497.42 49.40
1287 70.4500 2862.00 2651.10 51.80
1288 70.5000 2974.00 2822.97 52.50
1289 70.5500 3136.00 3000.93 53.80
1290 70.6000 3503.00 3172.96 57.20
1291 70.6500 3549.00 3331.33 57.30
1292 70.7000 3613.00 3474.72 57.70
1293 70.7500 3898.00 3609.08 60.00
1294 70.8000 3897.00 3742.57 60.00
1295 70.8500 4031.00 3877.37 60.90
1296 70.9000 4184.00 4005.11 62.20
1297 70.9500 4399.00 4110.81 63.80
1298 71.0000 4614.00 4181.24 65.20
1299 71.0500 4474.00 4219.53 64.00
1300 71.1000 4468.00 4248.50 64.30
1301 71.1500 4486.00 4297.01 64.00
1302 71.2000 4595.00 4379.42 64.90
1303 71.2500 4556.00 4483.96 64.80
1304 71.3000 4747.00 4573.28 65.80
1305 71.3500 4805.00 4601.76 66.50
1306 71.4000 4705.00 4547.43 65.90
1307 71.4500 4745.00 4431.03 65.90
1308 71.5000 4520.00 4298.71 64.50
1309 71.5500 4344.00 4195.63 63.20
1310 71.6000 4361.00 4155.16 63.20
1311 71.6500 4293.00 4202.59 62.70
1312 71.7000 4451.00 4360.27 64.00
1313 71.7500 4856.00 4638.10 66.50
1314 71.8000 5105.00 5023.26 68.30
1315 71.8500 5622.00 5471.40 72.10
1316 71.9000 6251.00 5909.37 75.50
1317 71.9500 6610.00 6253.85 77.90
1318 72.0000 6893.00 6452.12 79.80
1319 72.0500 7012.00 6508.45 79.80
1320 72.1000 6920.00 6456.93 79.70
1321 72.1500 6728.00 6314.23 78.60
1322 72.2000 6399.00 6066.31 76.20
1323 72.2500 5951.00 5685.69 73.90
1324 72.3000 5487.00 5178.97 71.00
1325 72.3500 4988.00 4598.20 67.40
1326 72.4000 4398.00 4010.62 63.50
1327 72.4500 3794.00 3470.15 59.10
1328 72.5000 3102.00 3009.60 53.10
1329 72.5500 2759.00 2643.76 50.10
1330 72.6000 2491.00 2371.72 47.90
1331 72.6500 2253.00 2181.58 45.20
1332 72.7000 2276.00 2055.72 45.50
1333 72.7500 2098.00 1975.94 44.10
1334 72.8000 2150.00 1926.93 44.20
1335 72.8500 2065.00 1896.81 43.50
1336 72.9000 2091.00 1877.74 44.00
1337 72.9500 2026.00 1864.65 43.10
1338 73.0000 2022.00 1854.47 43.00
1339 73.0500 2040.00 1845.50 43.40
1340 73.1000 2017.00 1836.82 43.00
1341 73.1500 2055.00 1828.04 43.30
1342 73.2000 2053.00 1819.01 43.50
1343 73.2500 2008.00 1809.81 43.20
1344 73.3000 1904.00 1800.56 41.70
1345 73.3500 1966.00 1791.46 42.70
1346 73.4000 1923.00 1782.66 42.30
1347 73.4500 1853.00 1774.33 41.40
1348 73.5000 1966.00 1766.54 42.70
1349 73.5500 1957.00 1759.34 42.80
1350 73.6000 1926.00 1752.71 42.20
1351 73.6500 1983.00 1746.00 42.80
1352 73.7000 1995.00 1740.28 43.20
1353 73.7500 1894.00 1734.83 42.10
1354 73.8000 1944.00 1729.52 42.40
1355 73.8500 1972.00 1724.23 43.20
1356 73.9000 1905.00 1718.88 42.20
1357 73.9500 1912.00 1713.41 42.30
1358 74.0000 1865.00 1707.82 42.00
1359 74.0500 1901.00 1702.14 42.10
1360 74.1000 1828.00 1696.42 41.40
1361 74.1500 1881.00 1690.73 42.20
1362 74.2000 1868.00 1685.15 41.80
1363 74.2500 1815.00 1679.73 41.60
1364 74.3000 1761.00 1673.96 40.80
1365 74.3500 1857.00 1669.01 42.20
1366 74.4000 1815.00 1664.33 41.60
1367 74.4500 1749.00 1659.91 41.10
1368 74.5000 1744.00 1655.73 40.90
1369 74.5500 1835.00 1651.79 42.30
1370 74.6000 1773.00 1648.06 41.40
1371 74.6500 1797.00 1644.49 41.80
1372 74.7000 1772.00 1641.05 41.50
1373 74.7500 1835.00 1637.75 42.30
1374 74.8000 1765.00 1634.55 41.40
1375 74.8500 1760.00 1631.39 41.80
1376 74.9000 1831.00 1628.37 42.30
1377 74.9500 1871.00 1625.44 42.90
1378 75.0000 1841.00 1622.60 42.80
1379 75.0500 1809.00 1619.87 42.20
1380 75.1000 1750.00 1617.23 41.40
1381 75.1500 1785.00 1614.76 42.20
1382 75.2000 1772.00 1612.40 41.80
1383 75.2500 1714.00 1610.17 41.20
1384 75.3000 1888.00 1608.09 43.50
1385 75.3500 1800.00 1606.15 42.30
1386 75.4000 1788.00 1604.36 42.10
1387 75.4500 1812.00 1602.71 42.50
1388 75.5000 1852.00 1601.22 42.90
1389 75.5500 1814.00 1599.88 42.20
1390 75.6000 1807.00 1598.69 42.40
1391 75.6500 1861.00 1597.65 42.80
1392 75.7000 1683.00 1596.76 40.70
1393 75.7500 1773.00 1596.02 41.80
1394 75.8000 1778.00 1595.53 41.80
1395 75.8500 1743.00 1595.00 41.10
1396 75.9000 1780.00 1594.71 41.80
1397 75.9500 1652.00 1594.58 40.10
1398 76.0000 1765.00 1594.60 41.40
1399 76.0500 1679.00 1594.78 40.30
1400 76.1000 1758.00 1593.56 41.40
1401 76.1500 1779.00 1594.17 41.20
1402 76.2000 1682.00 1594.79 40.30
1403 76.2500 1717.00 1595.90 40.60
1404 76.3000 1747.00 1596.90 40.80
1405 76.3500 1674.00 1598.70 39.80
1406 76.4000 1811.00 1600.92 41.70
1407 76.4500 1634.00 1603.65 39.30
1408 76.5000 1710.00 1607.84 40.30
1409 76.5500 1760.00 1612.27 40.80
1410 76.6000 1737.00 1617.05 40.50
1411 76.6500 1698.00 1622.70 39.80
1412 76.7000 1714.00 1628.34 40.30
1413 76.7500 1725.00 1635.98 40.10
1414 76.8000 1785.00 1644.70 40.90
1415 76.8500 1793.00 1654.17 41.10
1416 76.9000 1730.00 1665.11 40.20
1417 76.9500 1802.00 1676.73 40.90
1418 77.0000 1754.00 1689.66 40.60
1419 77.0500 1700.00 1703.36 39.80
1420 77.1000 1725.00 1717.60 40.00
1421 77.1500 1799.00 1732.08 40.90
1422 77.2000 1875.00 1745.07 41.70
1423 77.2500 1936.00 1761.62 42.40
1424 77.3000 1892.00 1774.26 42.00
1425 77.3500 1991.00 1785.14 43.20
1426 77.4000 1956.00 1793.69 42.60
1427 77.4500 2001.00 1799.38 43.20
1428 77.5000 1955.00 1800.64 42.80
1429 77.5500 2078.00 1799.84 44.00
1430 77.6000 1971.00 1795.90 42.80
1431 77.6500 1983.00 1789.19 43.10
1432 77.7000 1896.00 1780.22 42.10
1433 77.7500 1952.00 1769.67 42.60
1434 77.8000 1828.00 1760.87 41.40
1435 77.8500 1826.00 1748.85 41.40
1436 77.9000 1770.00 1736.80 40.50
1437 77.9500 1799.00 1725.10 41.10
1438 78.0000 1661.00 1714.06 39.50
1439 78.0500 1677.00 1703.91 39.40
1440 78.1000 1788.00 1694.82 41.00
1441 78.1500 1697.00 1686.93 39.80
1442 78.2000 1674.00 1680.32 39.40
1443 78.2500 1717.00 1675.07 40.20
1444 78.3000 1696.00 1671.25 39.80
1445 78.3500 1727.00 1668.97 40.10
1446 78.4000 1756.00 1668.39 40.70
1447 78.4500 1699.00 1669.78 39.90
1448 78.5000 1729.00 1673.55 40.10
1449 78.5500 1659.00 1680.30 39.30
1450 78.6000 1741.00 1690.88 40.40
1451 78.6500 1744.00 1706.33 40.20
1452 78.7000 1754.00 1727.91 40.40
1453 78.7500 1738.00 1756.99 40.30
1454 78.8000 1732.00 1794.68 40.00
1455 78.8500 1788.00 1842.42 40.80
1456 78.9000 1900.00 1900.54 42.20
1457 78.9500 1897.00 1968.71 42.00
1458 79.0000 2017.00 2045.58 43.30
1459 79.0500 2153.00 2128.07 44.80
1460 79.1000 2264.00 2212.35 45.80
1461 79.1500 2323.00 2291.85 46.60
1462 79.2000 2435.00 2358.52 47.60
1463 79.2500 2479.00 2403.57 47.90
1464 79.3000 2564.00 2419.83 49.00
1465 79.3500 2530.00 2404.75 48.70
1466 79.4000 2446.00 2361.69 47.60
1467 79.4500 2354.00 2298.43 47.10
1468 79.5000 2408.00 2224.18 47.50
1469 79.5500 2299.00 2147.33 46.20
1470 79.6000 2264.00 2074.44 46.20
1471 79.6500 2121.00 2010.20 44.50
1472 79.7000 2143.00 1957.61 44.60
1473 79.7500 2171.00 1918.08 45.40
1474 79.8000 2204.00 1891.79 45.40
1475 79.8500 2124.00 1877.67 44.60
1476 79.9000 2194.00 1873.58 45.60
1477 79.9500 2129.00 1876.39 44.70
1478 80.0000 2103.00 1882.08 44.30
1479 80.0500 2100.00 1886.23 44.80
1480 80.1000 2065.00 1884.79 44.00
1481 80.1500 2049.00 1875.27 43.90
1482 80.2000 2014.00 1857.62 43.80
1483 80.2500 1892.00 1834.28 42.30
1484 80.3000 1833.00 1808.94 41.50
1485 80.3500 1929.00 1785.29 43.10
1486 80.4000 1895.00 1766.49 42.40
1487 80.4500 1846.00 1755.10 42.00
1488 80.5000 1830.00 1752.91 42.00
1489 80.5500 1803.00 1760.65 41.50
1490 80.6000 1747.00 1777.57 40.90
1491 80.6500 1776.00 1801.15 41.60
1492 80.7000 1865.00 1826.86 42.20
1493 80.7500 1900.00 1848.29 43.10
1494 80.8000 1848.00 1858.48 42.40
1495 80.8500 1893.00 1853.49 43.20
1496 80.9000 1817.00 1835.34 42.10
1497 80.9500 1844.00 1810.26 42.80
1498 81.0000 1808.00 1784.75 42.20
1499 81.0500 1801.00 1763.87 42.40
1500 81.1000 1773.00 1751.27 41.90
1501 81.1500 1904.00 1749.76 43.60
1502 81.2000 1734.00 1766.72 41.60
1503 81.2500 1788.00 1797.51 42.40
1504 81.3000 1879.00 1852.11 43.30
1505 81.3500 2016.00 1937.35 45.20
1506 81.4000 2069.00 2059.28 45.60
1507 81.4500 2315.00 2220.25 48.40
1508 81.5000 2450.00 2415.55 49.80
1509 81.5500 2595.00 2630.09 51.20
1510 81.6000 2899.00 2836.28 54.10
1511 81.6500 3026.00 2994.06 55.30
1512 81.7000 3224.00 3060.69 57.10
1513 81.7500 3135.00 3015.42 56.50
1514 81.8000 3014.00 2876.38 55.20
1515 81.8500 2826.00 2685.74 53.40
1516 81.9000 2600.00 2484.64 51.40
1517 81.9500 2347.00 2302.12 48.30
1518 82.0000 2214.00 2154.31 47.30
1519 82.0500 2051.00 2047.20 45.20
1520 82.1000 2043.00 1979.29 45.10
1521 82.1500 2017.00 1945.51 44.60
1522 82.2000 1986.00 1940.53 44.50
1523 82.2500 1996.00 1961.42 44.10
1524 82.3000 2063.00 2009.68 45.10
1525 82.3500 2161.00 2090.93 46.00
1526 82.4000 2213.00 2216.76 46.40
1527 82.4500 2369.00 2402.73 47.80
1528 82.5000 2696.00 2666.51 51.40
1529 82.5500 2951.00 3023.60 52.90
1530 82.6000 3454.00 3482.08 57.80
1531 82.6500 3939.00 4035.39 61.30
1532 82.7000 4344.00 4655.86 64.30
1533 82.7500 5054.00 5288.89 69.00
1534 82.8000 5624.00 5848.66 73.30
1535 82.8500 5957.00 6226.22 74.70
1536 82.9000 6387.00 6324.43 77.60
1537 82.9500 6216.00 6116.26 76.40
1538 83.0000 5730.00 5667.13 73.30
1539 83.0500 5080.00 5090.98 68.60
1540 83.1000 4434.00 4494.96 64.50
1541 83.1500 4024.00 3949.83 61.00
1542 83.2000 3391.00 3499.60 56.10
1543 83.2500 3059.00 3157.31 53.30
1544 83.3000 2752.00 2915.84 50.50
1545 83.3500 2738.00 2754.62 50.30
1546 83.4000 2626.00 2647.71 49.40
1547 83.4500 2557.00 2570.73 48.50
1548 83.5000 2472.00 2515.96 47.80
1549 83.5500 2342.00 2482.50 46.50
1550 83.6000 2509.00 2478.34 48.00
1551 83.6500 2466.00 2510.45 47.60
1552 83.7000 2614.00 2583.64 49.20
1553 83.7500 2715.00 2699.22 50.00
1554 83.8000 2852.00 2853.78 51.20
1555 83.8500 3033.00 3038.33 52.90
1556 83.9000 3084.00 3237.12 53.30
1557 83.9500 3363.00 3427.68 55.80
1558 84.0000 3585.00 3584.27 57.50
1559 84.0500 3684.00 3686.21 58.10
1560 84.1000 3695.00 3726.54 58.50
1561 84.1500 3756.00 3711.11 58.60
1562 84.2000 3584.00 3649.83 57.30
1563 84.2500 3423.00 3549.90 56.20
1564 84.3000 3313.00 3416.05 55.00
1565 84.3500 3027.00 3254.20 52.70
1566 84.4000 3103.00 3073.96 53.50
1567 84.4500 2709.00 2887.66 49.70
1568 84.5000 2611.00 2706.98 49.00
1569 84.5500 2347.00 2540.74 46.40
1570 84.6000 2258.00 2394.04 45.30
1571 84.6500 2074.00 2269.09 43.50
1572 84.7000 2015.00 2166.01 43.00
1573 84.7500 1955.00 2083.56 42.10
1574 84.8000 1972.00 2019.77 42.40
1575 84.8500 1907.00 1972.13 41.70
1576 84.9000 1897.00 1938.06 41.50
1577 84.9500 1865.00 1915.08 41.10
1578 85.0000 1902.00 1900.96 41.60
1579 85.0500 1935.00 1893.91 41.90
1580 85.1000 1880.00 1892.66 41.30
1581 85.1500 1831.00 1896.42 40.70
1582 85.2000 1872.00 1904.82 41.20
1583 85.2500 1854.00 1917.95 41.10
1584 85.3000 1879.00 1936.13 41.30
1585 85.3500 1920.00 1960.04 41.80
1586 85.4000 1969.00 1990.93 42.40
1587 85.4500 1992.00 2031.14 42.60
1588 85.5000 2048.00 2085.23 43.10
1589 85.5500 2151.00 2162.02 44.10
1590 85.6000 2251.00 2277.54 45.20
1591 85.6500 2378.00 2458.17 46.40
1592 85.7000 2651.00 2742.03 49.00
1593 85.7500 3055.00 3177.66 52.60
1594 85.8000 3646.00 3807.35 57.40
1595 85.8500 4506.00 4657.02 64.10
1596 85.9000 5444.00 5707.58 70.30
1597 85.9500 6599.00 6874.10 77.50
1598 86.0000 7888.00 7990.52 84.80
1599 86.0500 8687.00 8809.28 88.90
1600 86.1000 9257.00 9072.99 91.80
1601 86.1500 8988.00 8680.56 90.80
1602 86.2000 8091.00 7778.87 85.70
1603 86.2500 6761.00 6634.48 78.70
1604 86.3000 5505.00 5479.65 71.10
1605 86.3500 4292.00 4461.81 62.80
1606 86.4000 3479.00 3650.16 56.40
1607 86.4500 2959.00 3054.15 52.20
1608 86.5000 2560.00 2644.76 48.50
1609 86.5500 2386.00 2376.93 46.90
1610 86.6000 2212.00 2206.01 45.10
1611 86.6500 2134.00 2097.07 44.40
1612 86.7000 2104.00 2026.94 44.00
1613 86.7500 2040.00 1982.28 43.70
1614 86.8000 2019.00 1956.62 43.20
1615 86.8500 2023.00 1950.14 43.60
1616 86.9000 2038.00 1956.25 43.70
1617 86.9500 2035.00 1975.13 43.90
1618 87.0000 2064.00 2006.88 44.10
1619 87.0500 2219.00 2044.94 45.80
1620 87.1000 2091.00 2081.17 44.50
1621 87.1500 2148.00 2105.31 45.40
1622 87.2000 2194.00 2109.72 45.60
1623 87.2500 2115.00 2095.88 45.20
1624 87.3000 2274.00 2073.57 46.70
1625 87.3500 2179.00 2054.28 45.80
1626 87.4000 2203.00 2047.46 46.20
1627 87.4500 2234.00 2060.09 46.70
1628 87.5000 2219.00 2098.23 46.30
1629 87.5500 2413.00 2168.34 48.60
1630 87.6000 2531.00 2275.90 49.70
1631 87.6500 2664.00 2431.21 50.90
1632 87.7000 2775.00 2645.89 52.10
1633 87.7500 3353.00 2932.10 57.40
1634 87.8000 3766.00 3298.51 60.60
1635 87.8500 4211.00 3745.23 64.70
1636 87.9000 5061.00 4257.01 70.50
1637 87.9500 5363.00 4800.88 72.50
1638 88.0000 5909.00 5328.82 76.70
1639 88.0500 6326.00 5779.77 78.80
1640 88.1000 6468.00 6093.98 79.70
1641 88.1500 6611.00 6240.38 80.70
1642 88.2000 6434.00 6219.58 79.50
1643 88.2500 6386.00 6032.30 79.00
1644 88.3000 6012.00 5672.97 77.00
1645 88.3500 5601.00 5163.42 73.80
1646 88.4000 5018.00 4566.90 70.00
1647 88.4500 4278.00 3964.76 64.50
1648 88.5000 3749.00 3424.47 60.40
1649 88.5500 3278.00 2984.55 56.10
1650 88.6000 2810.00 2653.26 52.30
1651 88.6500 2574.00 2428.51 49.50
1652 88.7000 2394.00 2289.01 47.90
1653 88.7500 2263.00 2212.16 46.40
1654 88.8000 2285.00 2175.83 46.60
1655 88.8500 2328.00 2160.32 46.80
1656 88.9000 2268.00 2149.16 46.40
1657 88.9500 2217.00 2130.31 45.60
1658 89.0000 2204.00 2098.41 45.60
1659 89.0500 2115.00 2054.95 44.30
1660 89.1000 2038.00 2004.94 43.70
1661 89.1500 1915.00 1954.46 42.00
1662 89.2000 1813.00 1906.85 41.00
1663 89.2500 1857.00 1865.40 41.30
1664 89.3000 1782.00 1830.87 40.50
1665 89.3500 1796.00 1803.33 40.60
1666 89.4000 1815.00 1782.65 40.90
1667 89.4500 1731.00 1768.63 39.80
1668 89.5000 1847.00 1759.15 41.20
1669 89.5500 1780.00 1754.13 40.20
1670 89.6000 1842.00 1753.03 41.00
1671 89.6500 1776.00 1755.43 40.20
1672 89.7000 1834.00 1760.99 40.80
1673 89.7500 1878.00 1769.30 41.40
1674 89.8000 1885.00 1779.79 41.40
1675 89.8500 1936.00 1791.63 41.80
1676 89.9000 2005.00 1803.56 42.70
1677 89.9500 1970.00 1813.96 42.10
1678 90.0000 1982.00 1821.20 42.30
1679 90.0500 1955.00 1824.25 42.10
1680 90.1000 2001.00 1823.29 42.50
1681 90.1500 1969.00 1819.56 42.00
1682 90.2000 2065.00 1814.73 43.30
1683 90.2500 1990.00 1810.51 42.30
1684 90.3000 2009.00 1808.70 42.40
1685 90.3500 2010.00 1811.45 42.60
1686 90.4000 2000.00 1821.66 42.40
1687 90.4500 1950.00 1843.34 41.80
1688 90.5000 1984.00 1881.74 42.30
1689 90.5500 2144.00 1942.05 43.80
1690 90.6000 2104.00 2031.93 43.40
1691 90.6500 2217.00 2153.93 44.60
1692 90.7000 2385.00 2306.76 46.20
1693 90.7500 2492.00 2482.24 47.10
1694 90.8000 2695.00 2661.68 49.20
1695 90.8500 2762.00 2816.12 49.80
1696 90.9000 2970.00 2907.40 51.50
1697 90.9500 2951.00 2917.23 51.30
1698 91.0000 2996.00 2858.94 51.90
1699 91.0500 2793.00 2761.99 49.80
1700 91.1000 2568.00 2664.82 47.90
1701 91.1500 2505.00 2579.77 47.50
1702 91.2000 2330.00 2511.85 45.50
1703 91.2500 2258.00 2459.90 44.80
1704 91.3000 2152.00 2421.38 44.00
1705 91.3500 2254.00 2394.21 44.80
1706 91.4000 2165.00 2377.61 43.90
1707 91.4500 2223.00 2372.18 44.70
1708 91.5000 2221.00 2378.34 44.50
1709 91.5500 2167.00 2393.56 43.80
1710 91.6000 2331.00 2410.67 45.80
1711 91.6500 2320.00 2419.93 45.30
1712 91.7000 2265.00 2416.61 44.70
1713 91.7500 2351.00 2405.39 45.80
1714 91.8000 2274.00 2397.87 44.90
1715 91.8500 2382.00 2401.53 45.80
1716 91.9000 2366.00 2420.45 45.90
1717 91.9500 2310.00 2455.01 45.20
1718 92.0000 2265.00 2502.76 44.70
1719 92.0500 2362.00 2559.01 45.60
1720 92.1000 2404.00 2617.24 46.10
1721 92.1500 2420.00 2669.74 46.10
1722 92.2000 2463.00 2707.13 46.60
1723 92.2500 2441.00 2720.12 46.40
1724 92.3000 2499.00 2701.46 46.90
1725 92.3500 2457.00 2648.92 46.70
1726 92.4000 2276.00 2568.40 44.80
1727 92.4500 2212.00 2472.62 44.40
1728 92.5000 2188.00 2375.31 44.10
1729 92.5500 2067.00 2286.04 42.80
1730 92.6000 1940.00 2211.26 41.60
1731 92.6500 1913.00 2153.80 41.20
1732 92.7000 1873.00 2113.64 40.80
1733 92.7500 1865.00 2088.82 40.90
1734 92.8000 1971.00 2075.67 41.80
1735 92.8500 1948.00 2070.02 41.80
1736 92.9000 1913.00 2069.22 41.40
1737 92.9500 1996.00 2070.66 42.40
1738 93.0000 1954.00 2074.05 41.80
1739 93.0500 1994.00 2076.77 42.50
1740 93.1000 1977.00 2076.00 42.30
1741 93.1500 1962.00 2068.21 42.20
1742 93.2000 2006.00 2053.67 42.70
1743 93.2500 2001.00 2030.37 43.00
1744 93.3000 1892.00 2000.42 41.50
1745 93.3500 1891.00 1965.28 42.00
1746 93.4000 1845.00 1927.47 41.30
1747 93.4500 1836.00 1889.36 41.40
1748 93.5000 1816.00 1852.89 41.20
1749 93.5500 1733.00 1819.47 40.40
1750 93.6000 1688.00 1790.03 39.70
1751 93.6500 1626.00 1765.10 39.20
1752 93.7000 1667.00 1744.96 39.60
1753 93.7500 1624.00 1729.59 39.50
1754 93.8000 1579.00 1718.87 38.60
1755 93.8500 1660.00 1713.25 40.10
1756 93.9000 1669.00 1710.90 40.00
1757 93.9500 1634.00 1712.06 39.60
1758 94.0000 1657.00 1716.13 40.00
1759 94.0500 1677.00 1722.35 40.50
1760 94.1000 1680.00 1729.74 40.20
1761 94.1500 1731.00 1737.06 41.10
1762 94.2000 1767.00 1742.91 41.60
1763 94.2500 1800.00 1746.11 41.90
1764 94.3000 1791.00 1746.21 41.80
1765 94.3500 1763.00 1743.61 41.90
1766 94.4000 1714.00 1739.36 40.80
1767 94.4500 1702.00 1734.58 40.80
1768 94.5000 1669.00 1730.21 40.80
1769 94.5500 1828.00 1726.86 42.10
1770 94.6000 1734.00 1725.09 41.20
1771 94.6500 1707.00 1724.59 41.10
1772 94.7000 1623.00 1725.39 39.70
1773 94.7500 1647.00 1728.25 40.00
1774 94.8000 1613.00 1733.03 40.00
1775 94.8500 1702.00 1737.19 40.50
1776 94.9000 1659.00 1742.00 40.20
1777 94.9500 1665.00 1747.34 40.30
1778 95.0000 1708.00 1753.17 40.50
1779 95.0500 1639.00 1759.46 39.60
1780 95.1000 1664.00 1765.88 40.30
1781 95.1500 1622.00 1772.76 39.20
1782 95.2000 1635.00 1779.44 39.50
1783 95.2500 1707.00 1785.30 40.40
1784 95.3000 1641.00 1789.59 39.40
1785 95.3500 1651.00 1791.51 39.40
1786 95.4000 1703.00 1790.35 40.40
1787 95.4500 1658.00 1785.71 39.40
1788 95.5000 1618.00 1777.82 39.00
1789 95.5500 1573.00 1767.65 38.20
1790 95.6000 1674.00 1756.56 39.60
1791 95.6500 1637.00 1745.97 38.90
1792 95.7000 1572.00 1737.05 38.20
1793 95.7500 1625.00 1730.12 38.60
1794 95.8000 1567.00 1726.99 38.10
1795 95.8500 1629.00 1727.58 38.60
1796 95.9000 1635.00 1732.33 38.80
1797 95.9500 1633.00 1741.62 38.50
1798 96.0000 1628.00 1755.77 38.60
1799 96.0500 1549.00 1775.06 37.50
1800 96.1000 1667.00 1799.61 38.90
1801 96.1500 1675.00 1828.49 38.80
1802 96.2000 1725.00 1862.77 39.50
1803 96.2500 1716.00 1900.57 39.30
1804 96.3000 1790.00 1940.00 40.10
1805 96.3500 1757.00 1978.34 39.70
1806 96.4000 1803.00 2013.07 40.20
1807 96.4500 1848.00 2039.85 40.50
1808 96.5000 1850.00 2057.83 40.70
1809 96.5500 1767.00 2067.29 39.70
1810 96.6000 1854.00 2068.72 40.50
1811 96.6500 1843.00 2063.05 40.30
1812 96.7000 1799.00 2051.27 40.00
1813 96.7500 1809.00 2034.52 39.90
1814 96.8000 1775.00 2014.51 39.50
1815 96.8500 1828.00 1993.10 40.20
1816 96.9000 1775.00 1972.29 39.60
1817 96.9500 1740.00 1953.70 39.00
1818 97.0000 1727.00 1938.98 39.10
1819 97.0500 1715.00 1928.67 38.70
1820 97.1000 1732.00 1922.83 39.00
1821 97.1500 1731.00 1920.69 39.10
1822 97.2000 1812.00 1921.20 39.80
1823 97.2500 1691.00 1922.28 38.50
1824 97.3000 1793.00 1922.31 39.70
1825 97.3500 1798.00 1919.25 39.60
1826 97.4000 1805.00 1912.33 39.70
1827 97.4500 1792.00 1902.62 39.70
1828 97.5000 1837.00 1892.65 40.00
1829 97.5500 1775.00 1885.16 39.40
1830 97.6000 1727.00 1881.72 39.00
1831 97.6500 1724.00 1881.91 38.80
1832 97.7000 1712.00 1882.68 38.70
1833 97.7500 1717.00 1879.27 38.90
1834 97.8000 1688.00 1867.37 38.40
1835 97.8500 1735.00 1846.63 39.20
1836 97.9000 1712.00 1822.19 38.90
1837 97.9500 1768.00 1799.22 39.40
1838 98.0000 1674.00 1780.96 38.50
1839 98.0500 1662.00 1768.96 38.30
1840 98.1000 1659.00 1763.72 38.20
1841 98.1500 1700.00 1765.34 38.80
1842 98.2000 1712.00 1774.29 38.90
1843 98.2500 1723.00 1792.07 39.10
1844 98.3000 1758.00 1821.70 39.50
1845 98.3500 1830.00 1867.78 40.30
1846 98.4000 1838.00 1935.65 40.30
1847 98.4500 1935.00 2029.70 41.50
1848 98.5000 2159.00 2151.11 43.80
1849 98.5500 2240.00 2294.51 44.70
1850 98.6000 2324.00 2444.90 45.50
1851 98.6500 2343.00 2574.14 45.70
1852 98.7000 2512.00 2644.37 47.30
1853 98.7500 2594.00 2629.82 48.20
1854 98.8000 2449.00 2541.43 46.70
1855 98.8500 2473.00 2417.05 47.20
1856 98.9000 2292.00 2293.90 45.30
1857 98.9500 2189.00 2197.47 44.40
1858 99.0000 2159.00 2143.58 44.10
1859 99.0500 2031.00 2142.56 42.70
1860 99.1000 2125.00 2201.95 43.70
1861 99.1500 2183.00 2327.85 44.50
1862 99.2000 2229.00 2523.30 44.70
1863 99.2500 2496.00 2783.67 47.50
1864 99.3000 2695.00 3091.78 49.40
1865 99.3500 2968.00 3419.27 51.90
1866 99.4000 3154.00 3720.36 53.40
1867 99.4500 3406.00 3929.17 56.10
1868 99.5000 3462.00 3970.47 56.00
1869 99.5500 3388.00 3813.74 55.60
1870 99.6000 3244.00 3505.85 54.70
1871 99.6500 2991.00 3135.94 52.10
1872 99.7000 2600.00 2779.67 48.70
1873 99.7500 2305.00 2479.22 46.30
1874 99.8000 2154.00 2249.63 44.20
1875 99.8500 2017.00 2087.98 43.40
1876 99.9000 1848.00 1981.90 41.40
1877 99.9500 1805.00 1916.04 41.00
1878 100.0000 1780.00 1876.52 40.80
1879 100.0500 1730.00 1852.92 40.50
1880 100.1000 1771.00 1838.28 40.60
1881 100.1500 1710.00 1828.27 40.40
1882 100.2000 1660.00 1820.21 39.70
1883 100.2500 1602.00 1812.36 39.10
1884 100.3000 1654.00 1804.17 39.70
1885 100.3500 1631.00 1793.99 39.80
1886 100.4000 1565.00 1782.38 38.60
1887 100.4500 1613.00 1769.82 39.80
1888 100.5000 1694.00 1756.91 40.60
1889 100.5500 1631.00 1744.27 39.90
1890 100.6000 1639.00 1734.18 40.10
1891 100.6500 1629.00 1723.77 39.90
1892 100.7000 1602.00 1715.41 39.50
1893 100.7500 1642.00 1709.81 40.40
1894 100.8000 1563.00 1707.62 39.10
1895 100.8500 1608.00 1709.23 40.00
1896 100.9000 1595.00 1714.48 39.80
1897 100.9500 1625.00 1722.42 40.10
1898 101.0000 1571.00 1730.96 39.50
1899 101.0500 1606.00 1736.74 39.80
1900 101.1000 1567.00 1736.33 39.40
1901 101.1500 1607.00 1728.94 39.60
1902 101.2000 1684.00 1716.99 40.70
1903 101.2500 1600.00 1704.07 39.60
1904 101.3000 1557.00 1692.29 39.00
1905 101.3500 1606.00 1682.85 39.40
1906 101.4000 1587.00 1675.94 39.40
1907 101.4500 1605.00 1671.28 39.20
1908 101.5000 1617.00 1668.32 39.60
1909 101.5500 1564.00 1666.54 38.60
1910 101.6000 1589.00 1665.44 39.00
1911 101.6500 1679.00 1664.55 39.70
1912 101.7000 1638.00 1664.02 39.50
1913 101.7500 1606.00 1663.59 38.70
1914 101.8000 1641.00 1663.25 39.30
1915 101.8500 1664.00 1663.07 39.30
1916 101.9000 1580.00 1663.21 38.40
1917 101.9500 1597.00 1663.91 38.30
1918 102.0000 1672.00 1665.76 39.40
1919 102.0500 1548.00 1669.55 37.50
1920 102.1000 1674.00 1676.45 39.20
1921 102.1500 1604.00 1687.96 38.20
1922 102.2000 1713.00 1705.52 39.40
1923 102.2500 1551.00 1729.99 37.40
1924 102.3000 1691.00 1760.99 39.20
1925 102.3500 1614.00 1795.61 38.10
1926 102.4000 1687.00 1828.06 39.00
1927 102.4500 1722.00 1848.83 39.40
1928 102.5000 1635.00 1849.04 38.40
1929 102.5500 1601.00 1828.26 37.70
1930 102.6000 1678.00 1795.07 38.90
1931 102.6500 1578.00 1758.88 37.40
1932 102.7000 1632.00 1725.64 38.00
1933 102.7500 1640.00 1698.22 38.20
1934 102.8000 1610.00 1677.25 37.80
1935 102.8500 1620.00 1662.05 37.90
1936 102.9000 1559.00 1651.40 37.20
1937 102.9500 1613.00 1644.00 37.70
1938 103.0000 1556.00 1638.83 37.10
1939 103.0500 1666.00 1635.20 38.30
1940 103.1000 1558.00 1632.91 37.10
1941 103.1500 1616.00 1631.32 37.70
1942 103.2000 1584.00 1630.56 37.40
1943 103.2500 1607.00 1630.59 37.50
1944 103.3000 1647.00 1631.43 38.00
1945 103.3500 1566.00 1633.08 37.00
1946 103.4000 1630.00 1635.58 37.80
1947 103.4500 1602.00 1638.99 37.40
1948 103.5000 1597.00 1643.35 37.40
1949 103.5500 1630.00 1648.71 37.60
1950 103.6000 1581.00 1654.42 37.10
1951 103.6500 1668.00 1662.04 37.90
1952 103.7000 1668.00 1673.13 38.10
1953 103.7500 1704.00 1683.76 38.50
1954 103.8000 1712.00 1696.38 38.30
1955 103.8500 1754.00 1711.50 39.00
1956 103.9000 1809.00 1729.66 39.70
1957 103.9500 1796.00 1751.35 39.30
1958 104.0000 1815.00 1776.90 39.70
1959 104.0500 1833.00 1805.38 39.80
1960 104.1000 1755.00 1834.98 38.80
1961 104.1500 1818.00 1861.24 39.50
1962 104.2000 1792.00 1879.33 39.40
1963 104.2500 1773.00 1891.60 39.00
1964 104.3000 1773.00 1906.11 39.00
1965 104.3500 1934.00 1929.66 41.00
1966 104.4000 1953.00 1966.43 40.90
1967 104.4500 1910.00 2016.41 40.60
1968 104.5000 1921.00 2075.44 40.90
1969 104.5500 1979.00 2133.83 41.30
1970 104.6000 1904.00 2178.17 40.50
1971 104.6500 1922.00 2197.46 40.80
1972 104.7000 1992.00 2191.63 41.50
1973 104.7500 1985.00 2171.73 41.30
1974 104.8000 1928.00 2151.36 40.90
1975 104.8500 1984.00 2139.36 41.50
1976 104.9000 1996.00 2137.08 41.40
1977 104.9500 1950.00 2139.27 41.10
1978 105.0000 1958.00 2128.32 41.30
1979 105.0500 1949.00 2095.51 40.90
1980 105.1000 1876.00 2044.28 40.30
1981 105.1500 1851.00 1989.11 40.00
1982 105.2000 1835.00 1938.19 39.60
1983 105.2500 1777.00 1898.09 39.20
1984 105.3000 1739.00 1869.02 38.80
1985 105.3500 1677.00 1848.44 38.00
1986 105.4000 1830.00 1833.72 39.80
1987 105.4500 1756.00 1823.98 39.10
1988 105.5000 1781.00 1818.51 39.20
1989 105.5500 1712.00 1816.91 38.60
1990 105.6000 1750.00 1819.56 39.00
1991 105.6500 1720.00 1827.72 38.60
1992 105.7000 1669.00 1843.08 38.10
1993 105.7500 1691.00 1867.19 38.30
1994 105.8000 1803.00 1901.22 39.50
1995 105.8500 1738.00 1945.82 39.10
1996 105.9000 1780.00 2001.20 39.30
1997 105.9500 1911.00 2066.65 40.90
1998 106.0000 1999.00 2140.52 41.90
1999 106.0500 1994.00 2219.81 41.70
2000 106.1000 2143.00 2299.89 43.40
2001 106.1500 2256.00 2374.12 44.60
2002 106.2000 2258.00 2434.12 44.40
2003 106.2500 2434.00 2471.11 46.60
2004 106.3000 2451.00 2478.54 46.50
2005 106.3500 2434.00 2454.83 46.70
2006 106.4000 2468.00 2404.11 47.00
2007 106.4500 2331.00 2334.33 45.90
2008 106.5000 2277.00 2254.31 45.10
2009 106.5500 2176.00 2172.93 44.40
2010 106.6000 2138.00 2093.67 44.00
2011 106.6500 2040.00 2021.83 43.10
2012 106.7000 1989.00 1960.21 42.50
2013 106.7500 2049.00 1910.54 43.40
2014 106.8000 2015.00 1873.65 42.80
2015 106.8500 1985.00 1849.38 42.80
2016 106.9000 2058.00 1836.46 43.60
2017 106.9500 2024.00 1832.15 43.30
2018 107.0000 1985.00 1831.91 42.80
2019 107.0500 1996.00 1830.84 43.20
2020 107.1000 1992.00 1826.19 43.00
2021 107.1500 2010.00 1818.38 43.10
2022 107.2000 1975.00 1808.74 42.90
2023 107.2500 1913.00 1799.37 42.30
2024 107.3000 1895.00 1791.29 41.90
2025 107.3500 1887.00 1783.84 42.40
2026 107.4000 1888.00 1775.58 42.00
2027 107.4500 1834.00 1767.24 41.30
2028 107.5000 1782.00 1762.26 41.20
2029 107.5500 1755.00 1764.38 40.30
2030 107.6000 1825.00 1775.93 41.20
2031 107.6500 1838.00 1797.38 41.50
2032 107.7000 1794.00 1826.86 40.80
2033 107.7500 1867.00 1859.33 41.40
2034 107.8000 1839.00 1885.93 41.50
2035 107.8500 1828.00 1896.27 40.90
2036 107.9000 1977.00 1886.33 42.60
2037 107.9500 1872.00 1862.43 41.50
2038 108.0000 1851.00 1834.70 41.20
2039 108.0500 1900.00 1810.65 41.40
2040 108.1000 1805.00 1794.32 40.80
2041 108.1500 1745.00 1787.54 39.60
2042 108.2000 1749.00 1791.24 39.70
2043 108.2500 1829.00 1806.54 40.60
2044 108.3000 1876.00 1835.73 41.00
2045 108.3500 1831.00 1883.00 40.30
2046 108.4000 1966.00 1954.45 42.10
2047 108.4500 2073.00 2057.22 42.80
2048 108.5000 2214.00 2197.61 44.40
2049 108.5500 2327.00 2378.60 45.20
2050 108.6000 2609.00 2594.02 48.00
2051 108.6500 2771.00 2826.16 49.20
2052 108.7000 2995.00 3036.83 51.30
2053 108.7500 3166.00 3168.05 52.50
2054 108.8000 3223.00 3169.57 53.10
2055 108.8500 3149.00 3041.98 52.40
2056 108.9000 2930.00 2836.36 50.50
2057 108.9500 2798.00 2610.52 49.40
2058 109.0000 2474.00 2402.16 46.40
2059 109.0500 2290.00 2229.14 44.50
2060 109.1000 2166.00 2096.65 43.50
2061 109.1500 2008.00 2002.16 41.60
2062 109.2000 1899.00 1939.50 40.60
2063 109.2500 1880.00 1901.58 40.30
2064 109.3000 1794.00 1882.37 39.30
2065 109.3500 1908.00 1877.64 40.60
2066 109.4000 1894.00 1884.95 40.50
2067 109.4500 1923.00 1903.20 40.70
2068 109.5000 1862.00 1931.87 40.10
2069 109.5500 1949.00 1970.31 40.90
2070 109.6000 2032.00 2016.98 41.80
2071 109.6500 2097.00 2068.75 42.50
2072 109.7000 2073.00 2120.79 42.20
2073 109.7500 2106.00 2168.22 42.50
2074 109.8000 2196.00 2209.37 43.50
2075 109.8500 2255.00 2242.93 44.10
2076 109.9000 2268.00 2266.62 44.10
2077 109.9500 2259.00 2277.19 44.10
2078 110.0000 2274.00 2272.80 44.20
2079 110.0500 2131.00 2255.02 42.70
2080 110.1000 2185.00 2228.83 43.40
2081 110.1500 2254.00 2201.23 43.80
2082 110.2000 2001.00 2178.73 41.40
2083 110.2500 2073.00 2167.89 42.20
2084 110.3000 2097.00 2172.20 42.20
2085 110.3500 2095.00 2193.90 42.50
2086 110.4000 2178.00 2230.36 43.30
2087 110.4500 2251.00 2276.73 43.70
2088 110.5000 2167.00 2322.30 43.20
2089 110.5500 2256.00 2352.73 44.00
2090 110.6000 2281.00 2355.89 44.00
2091 110.6500 2291.00 2333.72 44.30
2092 110.7000 2211.00 2301.67 43.50
2093 110.7500 2267.00 2276.78 44.00
2094 110.8000 2296.00 2274.92 44.30
2095 110.8500 2368.00 2306.52 45.10
2096 110.9000 2451.00 2377.74 45.80
2097 110.9500 2583.00 2490.80 47.10
2098 111.0000 2698.00 2643.89 48.10
2099 111.0500 2926.00 2827.81 49.80
2100 111.1000 3076.00 3025.71 51.40
2101 111.1500 3209.00 3208.65 52.50
2102 111.2000 3264.00 3338.84 52.60
2103 111.2500 3329.00 3384.34 53.30
2104 111.3000 3315.00 3336.61 53.30
2105 111.3500 3263.00 3210.17 52.80
2106 111.4000 3020.00 3028.97 50.70
2107 111.4500 2744.00 2819.96 48.50
2108 111.5000 2672.00 2610.17 47.80
2109 111.5500 2477.00 2419.57 45.80
2110 111.6000 2317.00 2258.45 44.60
2111 111.6500 2071.00 2129.53 42.10
2112 111.7000 2016.00 2030.77 41.40
2113 111.7500 1908.00 1957.67 40.50
2114 111.8000 1891.00 1904.82 40.20
2115 111.8500 1801.00 1867.50 39.20
2116 111.9000 1839.00 1841.55 39.70
2117 111.9500 1800.00 1823.95 39.30
2118 112.0000 1801.00 1812.67 39.20
2119 112.0500 1813.00 1806.19 39.50
2120 112.1000 1762.00 1803.33 38.90
2121 112.1500 1810.00 1803.48 39.50
2122 112.2000 1813.00 1804.69 39.50
2123 112.2500 1782.00 1806.17 39.50
2124 112.3000 1750.00 1806.73 38.80
2125 112.3500 1756.00 1805.41 39.20
2126 112.4000 1826.00 1801.74 40.00
2127 112.4500 1812.00 1795.89 39.90
2128 112.5000 1826.00 1788.60 40.00
2129 112.5500 1838.00 1780.50 40.50
2130 112.6000 1813.00 1772.16 39.90
2131 112.6500 1765.00 1763.76 39.70
2132 112.7000 1761.00 1755.85 39.60
2133 112.7500 1764.00 1748.26 40.00
2134 112.8000 1742.00 1740.96 39.40
2135 112.8500 1771.00 1733.96 40.40
2136 112.9000 1827.00 1727.40 40.70
2137 112.9500 1789.00 1722.69 40.60
2138 113.0000 1734.00 1718.15 39.90
2139 113.0500 1804.00 1715.55 40.90
2140 113.1000 1776.00 1715.65 40.40
2141 113.1500 1786.00 1719.11 40.80
2142 113.2000 1752.00 1726.28 40.30
2143 113.2500 1738.00 1736.86 40.40
2144 113.3000 1820.00 1749.41 41.20
2145 113.3500 1838.00 1760.77 41.80
2146 113.4000 1800.00 1766.10 41.10
2147 113.4500 1824.00 1761.47 41.60
2148 113.5000 1796.00 1747.55 41.40
2149 113.5500 1800.00 1728.86 41.40
2150 113.6000 1813.00 1709.89 41.50
2151 113.6500 1685.00 1693.29 40.20
2152 113.7000 1745.00 1680.14 40.70
2153 113.7500 1689.00 1670.54 40.20
2154 113.8000 1644.00 1664.07 39.70
2155 113.8500 1695.00 1660.09 40.20
2156 113.9000 1727.00 1656.49 40.60
2157 113.9500 1806.00 1655.63 41.40
2158 114.0000 1707.00 1655.65 40.30
2159 114.0500 1700.00 1656.28 40.00
2160 114.1000 1678.00 1657.38 39.90
2161 114.1500 1630.00 1658.85 39.10
2162 114.2000 1727.00 1660.66 40.30
2163 114.2500 1670.00 1662.79 39.60
2164 114.3000 1666.00 1665.27 39.50
2165 114.3500 1775.00 1668.12 40.70
2166 114.4000 1709.00 1671.41 40.00
2167 114.4500 1691.00 1674.45 39.40
2168 114.5000 1767.00 1678.93 40.60
2169 114.5500 1748.00 1684.17 39.80
2170 114.6000 1645.00 1690.54 38.80
2171 114.6500 1777.00 1698.29 40.10
2172 114.7000 1762.00 1707.80 40.00
2173 114.7500 1716.00 1719.57 39.20
2174 114.8000 1688.00 1734.20 39.10
2175 114.8500 1831.00 1752.38 40.20
2176 114.9000 1768.00 1774.86 39.80
2177 114.9500 1875.00 1802.43 40.70
2178 115.0000 1772.00 1835.84 39.50
2179 115.0500 1842.00 1875.71 40.20
2180 115.1000 1930.00 1922.42 41.30
2181 115.1500 1942.00 1975.89 41.10
2182 115.2000 2078.00 2035.39 42.70
2183 115.2500 2161.00 2099.20 43.50
2184 115.3000 2317.00 2164.80 44.80
2185 115.3500 2373.00 2230.27 45.50
2186 115.4000 2554.00 2296.16 47.30
2187 115.4500 2491.00 2365.33 46.40
2188 115.5000 2646.00 2440.04 48.00
2189 115.5500 2785.00 2519.67 49.30
2190 115.6000 2765.00 2599.55 49.00
2191 115.6500 2806.00 2667.78 49.20
2192 115.7000 2857.00 2704.09 49.90
2193 115.7500 2898.00 2691.15 50.20
2194 115.8000 2781.00 2632.74 49.00
2195 115.8500 2622.00 2551.06 47.90
2196 115.9000 2478.00 2466.26 46.40
2197 115.9500 2461.00 2383.79 46.00
2198 116.0000 2272.00 2297.10 44.60
2199 116.0500 2243.00 2200.43 44.20
2200 116.1000 2137.00 2098.51 42.90
2201 116.1500 1993.00 2001.91 41.60
2202 116.2000 2003.00 1918.22 41.70
2203 116.2500 1844.00 1849.86 39.80
2204 116.3000 1823.00 1796.42 39.80
2205 116.3500 1888.00 1756.65 40.60
2206 116.4000 1706.00 1727.42 38.30
2207 116.4500 1788.00 1706.11 39.50
2208 116.5000 1796.00 1690.41 39.60
2209 116.5500 1701.00 1678.58 38.20
2210 116.6000 1694.00 1669.35 38.40
2211 116.6500 1707.00 1665.03 38.50
2212 116.7000 1737.00 1658.92 38.50
2213 116.7500 1734.00 1653.76 38.80
2214 116.8000 1754.00 1649.35 39.10
2215 116.8500 1734.00 1645.55 38.80
2216 116.9000 1791.00 1642.27 39.40
2217 116.9500 1781.00 1639.43 39.50
2218 117.0000 1754.00 1636.98 39.10
2219 117.0500 1793.00 1634.88 39.60
2220 117.1000 1772.00 1633.12 39.30
2221 117.1500 1783.00 1631.60 39.30
2222 117.2000 1739.00 1630.35 39.00
2223 117.2500 1817.00 1629.33 40.00
2224 117.3000 1739.00 1628.54 38.80
2225 117.3500 1810.00 1626.51 46.10
2226 117.4000 1812.00 1626.23 39.90
2227 117.4500 1731.00 1626.95 38.90
2228 117.5000 1819.00 1627.01 46.30
2229 117.5500 1749.00 1627.28 39.20
2230 117.6000 1778.00 1627.75 39.40
2231 117.6500 1779.00 1628.44 45.40
2232 117.7000 1732.00 1629.38 38.90
2233 117.7500 1756.00 1630.58 39.30
2234 117.8000 1746.00 1634.63 45.00
2235 117.8500 1673.00 1636.52 38.30
2236 117.9000 1760.00 1638.81 39.30
2237 117.9500 1722.00 1641.04 44.90
2238 118.0000 1774.00 1644.27 39.50
2239 118.0500 1788.00 1647.97 39.60
2240 118.1000 1821.00 1652.22 46.20
2241 118.1500 1710.00 1656.94 38.70
2242 118.2000 1779.00 1661.98 39.50
2243 118.2500 1775.00 1667.14 45.60
2244 118.3000 1732.00 1672.09 38.90
2245 118.3500 1829.00 1676.50 40.20
2246 118.4000 1834.00 1680.61 46.40
2247 118.4500 1809.00 1684.67 39.90
2248 118.5000 1827.00 1689.26 40.20
2249 118.5500 1782.00 1694.98 39.60
2250 118.6000 1805.00 1702.39 39.80
2251 118.6500 1752.00 1712.07 39.40
2252 118.7000 1745.00 1724.47 39.20
2253 118.7500 1762.00 1740.16 39.70
2254 118.8000 1723.00 1759.59 39.10
2255 118.8500 1831.00 1783.18 40.60
2256 118.9000 1809.00 1811.19 40.20
2257 118.9500 1867.00 1843.68 40.80
2258 119.0000 1868.00 1880.46 41.00
2259 119.0500 1875.00 1921.91 41.20
2260 119.1000 1972.00 1965.04 42.00
2261 119.1500 1979.00 2008.67 42.40
2262 119.2000 1928.00 2049.17 41.80
2263 119.2500 2077.00 2081.43 43.40
2264 119.3000 1995.00 2099.82 42.60
2265 119.3500 2134.00 2100.62 44.40
2266 119.4000 1933.00 2084.21 41.90
2267 119.4500 2015.00 2055.09 43.20
2268 119.5000 1911.00 2019.57 42.00
2269 119.5500 2084.00 1983.47 43.90
2270 119.6000 1997.00 1950.88 43.10
2271 119.6500 1952.00 1924.15 42.60
2272 119.7000 1904.00 1904.16 41.90
2273 119.7500 1991.00 1890.46 43.40
2274 119.8000 1960.00 1881.50 42.70
2275 119.8500 1947.00 1874.87 42.70
2276 119.9000 2015.00 1867.95 43.70
2277 119.9500 1913.00 1859.02 42.40
2278 120.0000 1934.00 1847.95 42.50
2279 120.0500 1908.00 1835.84 42.40
2280 120.1000 2004.00 1824.15 43.40
2281 120.1500 2012.00 1814.02 43.40
2282 120.2000 1958.00 1806.05 42.90
2283 120.2500 1935.00 1800.47 42.40
2284 120.3000 1894.00 1797.38 42.00
2285 120.3500 1933.00 1796.42 42.40
2286 120.4000 1839.00 1797.69 41.40
2287 120.4500 1891.00 1801.18 41.70
2288 120.5000 1913.00 1807.07 42.20
2289 120.5500 1928.00 1815.60 41.90
2290 120.6000 1891.00 1827.36 41.60
2291 120.6500 1947.00 1842.74 42.00
2292 120.7000 1940.00 1862.13 42.00
2293 120.7500 1985.00 1885.61 42.10
2294 120.8000 1987.00 1914.45 42.50
2295 120.8500 1938.00 1948.31 41.80
2296 120.9000 2022.00 1989.83 42.50
2297 120.9500 1999.00 2033.42 42.00
2298 121.0000 2031.00 2081.11 42.80
2299 121.0500 2093.00 2131.48 42.60
2300 121.1000 2143.00 2183.66 43.50
2301 121.1500 2300.00 2235.13 44.80
2302 121.2000 2323.00 2283.03 44.90
2303 121.2500 2391.00 2325.91 45.60
2304 121.3000 2370.00 2357.02 45.50
2305 121.3500 2447.00 2375.75 45.80
2306 121.4000 2413.00 2381.43 45.80
2307 121.4500 2389.00 2375.45 45.60
2308 121.5000 2361.00 2361.06 45.00
2309 121.5500 2354.00 2342.54 44.90
2310 121.6000 2329.00 2324.39 45.00
2311 121.6500 2291.00 2310.60 44.20
2312 121.7000 2260.00 2305.08 44.00
2313 121.7500 2218.00 2310.53 43.80
2314 121.8000 2214.00 2329.01 43.50
2315 121.8500 2301.00 2362.72 44.40
2316 121.9000 2323.00 2410.90 44.80
2317 121.9500 2358.00 2473.39 44.80
2318 122.0000 2460.00 2547.97 45.90
2319 122.0500 2460.00 2630.34 46.00
2320 122.1000 2702.00 2713.61 47.90
2321 122.1500 2752.00 2788.32 48.50
2322 122.2000 2766.00 2844.01 48.80
2323 122.2500 2856.00 2872.21 49.30
2324 122.3000 2873.00 2869.72 49.50
2325 122.3500 2809.00 2839.74 49.20
2326 122.4000 2836.00 2789.68 49.10
2327 122.4500 2686.00 2728.03 47.70
2328 122.5000 2593.00 2663.78 47.30
2329 122.5500 2587.00 2601.30 46.70
2330 122.6000 2481.00 2547.26 45.90
2331 122.6500 2454.00 2506.02 45.80
2332 122.7000 2455.00 2481.43 45.50
2333 122.7500 2482.00 2476.91 45.90
2334 122.8000 2471.00 2490.34 46.00
2335 122.8500 2576.00 2521.37 46.50
2336 122.9000 2539.00 2564.74 46.50
2337 122.9500 2713.00 2610.60 48.20
2338 123.0000 2619.00 2644.89 46.90
2339 123.0500 2743.00 2654.17 48.10
2340 123.1000 2826.00 2634.53 49.20
2341 123.1500 2679.00 2594.20 47.30
2342 123.2000 2651.00 2546.72 47.30
2343 123.2500 2584.00 2503.02 46.80
2344 123.3000 2525.00 2467.68 46.00
2345 123.3500 2605.00 2439.81 46.80
2346 123.4000 2489.00 2415.07 46.00
2347 123.4500 2468.00 2389.58 45.50
2348 123.5000 2421.00 2363.09 45.10
2349 123.5500 2387.00 2337.81 44.80
2350 123.6000 2303.00 2314.87 43.90
2351 123.6500 2256.00 2293.05 43.40
2352 123.7000 2240.00 2270.17 43.40
2353 123.7500 2332.00 2245.26 44.20
2354 123.8000 2236.00 2219.60 43.20
2355 123.8500 2206.00 2195.53 42.90
2356 123.9000 2084.00 2175.13 41.80
2357 123.9500 2239.00 2159.74 43.30
2358 124.0000 2130.00 2150.01 42.20
2359 124.0500 2118.00 2146.27 42.00
2360 124.1000 2162.00 2148.66 42.60
2361 124.1500 2096.00 2156.91 41.70
2362 124.2000 2177.00 2170.42 42.50
2363 124.2500 2208.00 2187.50 43.10
2364 124.3000 2220.00 2205.15 42.90
2365 124.3500 2279.00 2218.73 43.70
2366 124.4000 2287.00 2223.71 43.80
2367 124.4500 2257.00 2214.09 43.40
2368 124.5000 2243.00 2190.67 43.30
2369 124.5500 2174.00 2157.39 42.90
2370 124.6000 2161.00 2119.84 42.50
2371 124.6500 2185.00 2082.93 42.70
2372 124.7000 2076.00 2049.86 41.90
2373 124.7500 2022.00 2022.39 41.10
2374 124.8000 2077.00 2001.26 41.60
2375 124.8500 2034.00 1986.60 41.60
2376 124.9000 2059.00 1978.52 41.50
2377 124.9500 1979.00 1975.77 40.90
2378 125.0000 1958.00 1978.17 40.80
2379 125.0500 1958.00 1985.19 40.80
2380 125.1000 1978.00 1996.44 40.90
2381 125.1500 1935.00 2011.69 40.60
2382 125.2000 1997.00 2030.94 41.20
2383 125.2500 2069.00 2054.44 42.10
2384 125.3000 2122.00 2082.82 42.50
2385 125.3500 2136.00 2116.99 43.00
2386 125.4000 2154.00 2158.15 43.00
2387 125.4500 2181.00 2207.74 43.60
2388 125.5000 2329.00 2267.06 44.90
2389 125.5500 2414.00 2336.71 46.00
2390 125.6000 2563.00 2415.91 47.20
2391 125.6500 2528.00 2501.34 47.10
2392 125.7000 2625.00 2585.82 48.00
2393 125.7500 2785.00 2657.42 49.70
2394 125.8000 2701.00 2700.91 48.70
2395 125.8500 2713.00 2703.78 49.40
2396 125.9000 2710.00 2663.62 49.00
2397 125.9500 2724.00 2590.06 49.70
2398 126.0000 2571.00 2498.73 48.10
2399 126.0500 2518.00 2404.23 47.90
2400 126.1000 2472.00 2316.63 47.30
2401 126.1500 2319.00 2241.69 46.20
2402 126.2000 2214.00 2182.18 44.90
2403 126.2500 2204.00 2138.89 45.10
2404 126.3000 2230.00 2111.47 45.20
2405 126.3500 2148.00 2099.00 44.70
2406 126.4000 2178.00 2100.50 44.80
2407 126.4500 2113.00 2115.33 44.50
2408 126.5000 2198.00 2143.43 45.20
2409 126.5500 2220.00 2184.92 45.50
2410 126.6000 2350.00 2241.25 46.90
2411 126.6500 2380.00 2313.01 47.10
2412 126.7000 2443.00 2400.82 47.70
2413 126.7500 2659.00 2504.68 49.70
2414 126.8000 2714.00 2623.35 50.20
2415 126.8500 2813.00 2753.65 51.10
2416 126.9000 2940.00 2890.49 52.30
2417 126.9500 3050.00 3024.52 53.20
2418 127.0000 3210.00 3148.12 54.60
2419 127.0500 3439.00 3255.00 56.10
2420 127.1000 3467.00 3339.50 56.70
2421 127.1500 3401.00 3395.03 55.70
2422 127.2000 3446.00 3415.08 56.20
2423 127.2500 3355.00 3396.36 55.10
2424 127.3000 3394.00 3340.39 55.60
2425 127.3500 3359.00 3251.96 54.90
2426 127.4000 3292.00 3138.02 54.60
2427 127.4500 3006.00 3008.09 51.90
2428 127.5000 2877.00 2873.66 50.80
2429 127.5500 2773.00 2745.26 49.60
2430 127.6000 2718.00 2630.27 49.40
2431 127.6500 2475.00 2532.86 46.50
2432 127.7000 2465.00 2454.73 46.70
2433 127.7500 2428.00 2395.90 46.10
2434 127.8000 2385.00 2355.22 45.60
2435 127.8500 2303.00 2330.64 44.70
2436 127.9000 2310.00 2319.22 45.00
2437 127.9500 2346.00 2316.99 44.90
2438 128.0000 2294.00 2318.72 44.70
2439 128.0500 2286.00 2318.19 44.30
2440 128.1000 2278.00 2310.00 44.30
2441 128.1500 2303.00 2292.61 44.30
2442 128.2000 2260.00 2269.45 44.10
2443 128.2500 2297.00 2246.88 44.20
2444 128.3000 2268.00 2231.43 44.00
2445 128.3500 2285.00 2228.64 44.20
2446 128.4000 2355.00 2243.05 44.80
2447 128.4500 2282.00 2278.36 44.00
2448 128.5000 2425.00 2337.54 45.50
2449 128.5500 2505.00 2422.28 46.00
2450 128.6000 2635.00 2532.41 47.30
2451 128.6500 2713.00 2664.61 47.70
2452 128.7000 2839.00 2812.07 48.90
2453 128.7500 2973.00 2960.25 50.00
2454 128.8000 3038.00 3088.75 50.50
2455 128.8500 3353.00 3176.27 53.10
2456 128.9000 3288.00 3211.92 52.60
2457 128.9500 3258.00 3201.33 52.30
2458 129.0000 3241.00 3160.35 52.20
2459 129.0500 3076.00 3102.25 50.60
2460 129.1000 3010.00 3031.14 50.30
2461 129.1500 2961.00 2942.74 49.80
2462 129.2000 2872.00 2833.69 48.90
2463 129.2500 2754.00 2708.30 48.10
2464 129.3000 2585.00 2577.57 46.50
2465 129.3500 2473.00 2452.33 45.30
2466 129.4000 2436.00 2341.18 45.20
2467 129.4500 2299.00 2246.86 43.70
2468 129.5000 2181.00 2169.75 42.60
2469 129.5500 2134.00 2108.54 42.20
2470 129.6000 2101.00 2061.08 41.80
2471 129.6500 2008.00 2024.86 40.80
2472 129.7000 2035.00 1997.30 41.20
2473 129.7500 2036.00 1976.08 41.10
2474 129.8000 1977.00 1959.20 40.50
2475 129.8500 1988.00 1945.15 40.60
2476 129.9000 1958.00 1932.86 40.30
2477 129.9500 1909.00 1921.63 39.70
2478 130.0000 2007.00 1911.07 40.80
2479 130.0500 1918.00 1900.99 39.70
2480 130.1000 1919.00 1891.35 39.80
2481 130.1500 1953.00 1882.18 40.10
2482 130.2000 1923.00 1873.52 39.80
2483 130.2500 1894.00 1865.44 39.60
2484 130.3000 1908.00 1857.82 39.70
2485 130.3500 1856.00 1851.07 39.10
2486 130.4000 1959.00 1845.06 40.30
2487 130.4500 1885.00 1839.85 39.40
2488 130.5000 1827.00 1835.49 38.80
2489 130.5500 1837.00 1832.06 38.90
2490 130.6000 1932.00 1829.65 39.90
2491 130.6500 1870.00 1828.36 39.30
2492 130.7000 1896.00 1828.30 39.50
2493 130.7500 1950.00 1829.40 40.10
2494 130.8000 1899.00 1832.11 39.60
2495 130.8500 1975.00 1837.39 40.40
2496 130.9000 1925.00 1842.90 39.90
2497 130.9500 1887.00 1849.60 39.50
2498 131.0000 1842.00 1856.97 39.10
2499 131.0500 1898.00 1864.23 39.50
2500 131.1000 1846.00 1870.22 39.00
2501 131.1500 1871.00 1873.32 39.50
2502 131.2000 1879.00 1872.76 39.40
2503 131.2500 1890.00 1868.84 39.70
2504 131.3000 1787.00 1862.11 38.60
2505 131.3500 1903.00 1853.84 39.80
2506 131.4000 1868.00 1845.17 39.50
2507 131.4500 1826.00 1836.84 39.20
2508 131.5000 1908.00 1829.28 39.80
2509 131.5500 1882.00 1822.67 39.70
2510 131.6000 1783.00 1817.01 38.80
2511 131.6500 1822.00 1812.22 39.20
2512 131.7000 1855.00 1808.17 39.50
2513 131.7500 1840.00 1804.68 39.70
2514 131.8000 1843.00 1801.60 39.40
2515 131.8500 1853.00 1798.78 40.00
2516 131.9000 1813.00 1796.10 39.40
2517 131.9500 1826.00 1793.49 39.60
2518 132.0000 1770.00 1790.89 39.10
2519 132.0500 1840.00 1788.26 40.10
2520 132.1000 1818.00 1785.59 39.60
2521 132.1500 1813.00 1782.88 40.10
2522 132.2000 1734.00 1780.14 38.90
2523 132.2500 1821.00 1777.37 40.30
2524 132.3000 1795.00 1774.59 39.80
2525 132.3500 1798.00 1771.82 40.10
2526 132.4000 1799.00 1769.08 40.10
2527 132.4500 1787.00 1766.37 40.30
2528 132.5000 1819.00 1763.72 40.40
2529 132.5500 1745.00 1761.14 39.90
2530 132.6000 1709.00 1758.64 39.40
2531 132.6500 1797.00 1755.32 40.40
2532 132.7000 1795.00 1752.89 40.50
2533 132.7500 1875.00 1750.75 41.60
2534 132.8000 1863.00 1748.76 41.10
2535 132.8500 1837.00 1746.92 41.30
2536 132.9000 1770.00 1745.26 40.50
2537 132.9500 1737.00 1743.66 40.00
2538 133.0000 1847.00 1742.41 41.40
2539 133.0500 1811.00 1741.40 40.90
2540 133.1000 1824.00 1741.05 41.00
2541 133.1500 1788.00 1740.62 40.60
2542 133.2000 1765.00 1740.52 40.30
2543 133.2500 1783.00 1740.23 40.30
2544 133.3000 1834.00 1740.92 41.10
2545 133.3500 1741.00 1742.04 39.90
2546 133.4000 1794.00 1743.64 40.50
2547 133.4500 1828.00 1745.75 40.70
2548 133.5000 1809.00 1748.37 40.60
2549 133.5500 1767.00 1751.25 39.60
2550 133.6000 1885.00 1754.93 41.30
2551 133.6500 1871.00 1759.10 40.70
2552 133.7000 1858.00 1763.70 40.60
2553 133.7500 1785.00 1768.63 39.60
2554 133.8000 1874.00 1773.77 40.70
2555 133.8500 1907.00 1778.92 40.70
2556 133.9000 1867.00 1783.88 40.50
2557 133.9500 1851.00 1788.44 39.90
2558 134.0000 1978.00 1792.46 41.50
2559 134.0500 1812.00 1795.94 39.30
2560 134.1000 1830.00 1799.03 39.70
2561 134.1500 1865.00 1802.02 39.70
2562 134.2000 1899.00 1805.28 40.20
2563 134.2500 1879.00 1809.20 39.70
2564 134.3000 1885.00 1814.16 39.90
2565 134.3500 1961.00 1820.43 40.30
2566 134.4000 1892.00 1828.01 39.80
2567 134.4500 1892.00 1837.52 39.50
2568 134.5000 1948.00 1848.73 40.20
2569 134.5500 1912.00 1861.66 39.50
2570 134.6000 1981.00 1876.79 40.50
2571 134.6500 1957.00 1892.47 39.80
2572 134.7000 1995.00 1908.93 40.40
2573 134.7500 2014.00 1925.47 40.50
2574 134.8000 2048.00 1941.20 40.70
2575 134.8500 2058.00 1955.07 41.00
2576 134.9000 2000.00 1965.91 40.30
2577 134.9500 2075.00 1972.79 40.80
2578 135.0000 2085.00 1975.15 41.20
2579 135.0500 2068.00 1973.06 40.60
2580 135.1000 2071.00 1967.07 40.80
2581 135.1500 2020.00 1958.43 40.30
2582 135.2000 1999.00 1947.10 39.90
2583 135.2500 1984.00 1935.61 40.00
2584 135.3000 2140.00 1924.99 41.50
2585 135.3500 1954.00 1915.88 39.50
2586 135.4000 1951.00 1908.45 39.60
2587 135.4500 1974.00 1903.05 39.90
2588 135.5000 1987.00 1899.89 39.90
2589 135.5500 1979.00 1899.01 39.90
2590 135.6000 1980.00 1899.65 39.90
2591 135.6500 2005.00 1902.89 40.20
2592 135.7000 1952.00 1907.59 39.60
2593 135.7500 1964.00 1913.06 39.90
2594 135.8000 1947.00 1918.39 39.60
2595 135.8500 2007.00 1922.55 40.40
2596 135.9000 1952.00 1924.55 39.80
2597 135.9500 1986.00 1923.74 40.20
2598 136.0000 1939.00 1920.01 39.70
2599 136.0500 1956.00 1913.80 39.90
2600 136.1000 1952.00 1905.87 39.80
2601 136.1500 1957.00 1898.39 40.10
2602 136.2000 1970.00 1889.41 40.00
2603 136.2500 1955.00 1880.77 40.20
2604 136.3000 1930.00 1872.74 39.80
2605 136.3500 1996.00 1865.43 40.60
2606 136.4000 1948.00 1859.17 40.10
2607 136.4500 1893.00 1853.80 39.70
2608 136.5000 1873.00 1849.25 39.30
2609 136.5500 1934.00 1845.43 40.20
2610 136.6000 1871.00 1842.21 39.50
2611 136.6500 1861.00 1839.51 39.30
2612 136.7000 1885.00 1837.20 39.70
2613 136.7500 1775.00 1835.20 38.70
2614 136.8000 1776.00 1833.43 38.40
2615 136.8500 1828.00 1831.87 39.30
2616 136.9000 1855.00 1830.55 39.50
2617 136.9500 1818.00 1829.19 39.00
2618 137.0000 1852.00 1827.91 39.60
2619 137.0500 1839.00 1826.71 39.60
2620 137.1000 1845.00 1825.57 39.30
2621 137.1500 1789.00 1824.49 39.00
2622 137.2000 1835.00 1823.74 39.60
2623 137.2500 1846.00 1822.97 39.40
2624 137.3000 1843.00 1822.57 39.60
2625 137.3500 1833.00 1821.75 39.60
2626 137.4000 1800.00 1825.88 38.90
2627 137.4500 1839.00 1825.12 39.40
2628 137.5000 1819.00 1824.38 39.40
2629 137.5500 1823.00 1823.66 39.20
2630 137.6000 1813.00 1822.96 39.10
2631 137.6500 1844.00 1822.25 39.70
2632 137.7000 1873.00 1821.52 39.70
2633 137.7500 1893.00 1820.82 40.10
2634 137.8000 1750.00 1820.10 38.60
2635 137.8500 1814.00 1819.37 39.50
2636 137.9000 1823.00 1818.63 39.30
2637 137.9500 1842.00 1817.88 40.00
2638 138.0000 1794.00 1817.04 39.30
2639 138.0500 1779.00 1816.26 38.90
2640 138.1000 1764.00 1815.49 39.20
2641 138.1500 1817.00 1814.71 39.70
2642 138.2000 1764.00 1813.93 38.70
2643 138.2500 1779.00 1813.17 39.60
2644 138.3000 1834.00 1812.41 39.90
2645 138.3500 1824.00 1811.68 39.90
2646 138.4000 1834.00 1810.99 40.30
2647 138.4500 1822.00 1810.34 40.30
2648 138.5000 1747.00 1809.73 39.00
2649 138.5500 1762.00 1809.19 39.90
2650 138.6000 1836.00 1808.73 40.40
2651 138.6500 1777.00 1808.36 39.80
2652 138.7000 1829.00 1808.09 40.60
2653 138.7500 1856.00 1807.95 41.00
2654 138.8000 1817.00 1807.97 40.30
2655 138.8500 1766.00 1808.18 40.40
2656 138.9000 1762.00 1808.61 39.90
2657 138.9500 1806.00 1809.31 40.50
2658 139.0000 1855.00 1810.34 41.40
2659 139.0500 1804.00 1811.77 40.40
2660 139.1000 1852.00 1813.59 41.00
2661 139.1500 1781.00 1816.07 40.70
2662 139.2000 1779.00 1819.23 40.20
2663 139.2500 1851.00 1823.16 41.30
2664 139.3000 1805.00 1827.98 40.90
2665 139.3500 1825.00 1833.78 40.90
2666 139.4000 1892.00 1840.66 41.80
2667 139.4500 1843.00 1848.66 41.30
2668 139.5000 1868.00 1857.81 41.40
2669 139.5500 1865.00 1867.98 41.30
2670 139.6000 1899.00 1879.23 41.90
2671 139.6500 1879.00 1891.28 41.20
2672 139.7000 1844.00 1903.81 41.00
2673 139.7500 1964.00 1916.37 42.30
2674 139.8000 1976.00 1928.41 42.30
2675 139.8500 1941.00 1939.38 41.90
2676 139.9000 1937.00 1948.85 42.00
2677 139.9500 1901.00 1956.66 41.20
2678 140.0000 1938.00 1962.97 41.80
2679 140.0500 2027.00 1968.12 42.40
2680 140.1000 2026.00 1972.52 42.50
2681 140.1500 1999.00 1976.48 42.00
2682 140.2000 1996.00 1980.15 42.10
2683 140.2500 2107.00 1983.56 43.00
2684 140.3000 1928.00 1986.63 41.30
2685 140.3500 2028.00 1989.26 42.00
2686 140.4000 2048.00 1991.31 42.30
2687 140.4500 2027.00 1992.73 41.90
2688 140.5000 2004.00 1993.52 41.70
2689 140.5500 2008.00 1993.72 41.40
2690 140.6000 1976.00 1993.47 41.40
2691 140.6500 1981.00 1992.87 41.00
2692 140.7000 1930.00 1992.03 40.60
2693 140.7500 2007.00 1991.00 41.30
2694 140.8000 2042.00 1989.76 41.70
2695 140.8500 2046.00 1988.24 41.60
2696 140.9000 1997.00 1986.34 41.20
2697 140.9500 1986.00 1983.90 40.90
2698 141.0000 1998.00 1980.79 41.10
2699 141.0500 1961.00 1976.91 40.70
2700 141.1000 1942.00 1972.26 40.50
2701 141.1500 1933.00 1966.89 40.20
2702 141.2000 1933.00 1960.96 40.40
2703 141.2500 2015.00 1954.67 41.10
2704 141.3000 1914.00 1948.23 40.10
2705 141.3500 1891.00 1941.87 39.90
2706 141.4000 1912.00 1935.79 40.10
2707 141.4500 1929.00 1930.14 40.20
2708 141.5000 1892.00 1925.07 39.90
2709 141.5500 1806.00 1920.68 38.90
2710 141.6000 1870.00 1917.04 39.60
2711 141.6500 1832.00 1914.21 39.10
2712 141.7000 1878.00 1912.23 39.70
2713 141.7500 1824.00 1911.11 39.20
2714 141.8000 1784.00 1910.88 38.60
2715 141.8500 1846.00 1911.52 39.40
2716 141.9000 1933.00 1913.03 40.30
2717 141.9500 1885.00 1915.39 39.70
2718 142.0000 1848.00 1918.57 39.40
2719 142.0500 1852.00 1922.53 39.40
2720 142.1000 1836.00 1927.27 39.20
2721 142.1500 1876.00 1932.72 39.60
2722 142.2000 1857.00 1938.85 39.40
2723 142.2500 1879.00 1945.60 39.60
2724 142.3000 1904.00 1952.93 39.90
2725 142.3500 1981.00 1960.78 40.80
2726 142.4000 1994.00 1969.09 40.80
2727 142.4500 1944.00 1977.79 40.40
2728 142.5000 2006.00 1986.81 41.10
2729 142.5500 1943.00 1996.03 40.20
2730 142.6000 1996.00 2005.46 40.90
2731 142.6500 2043.00 2014.96 41.40
2732 142.7000 2013.00 2024.44 40.90
2733 142.7500 2068.00 2033.78 41.50
2734 142.8000 2127.00 2042.88 42.20
2735 142.8500 2056.00 2051.64 41.40
2736 142.9000 2108.00 2059.95 41.90
2737 142.9500 2058.00 2067.73 41.60
2738 143.0000 2107.00 2074.88 41.90
2739 143.0500 2137.00 2081.34 42.10
2740 143.1000 2145.00 2087.05 42.50
2741 143.1500 2163.00 2091.91 42.50
2742 143.2000 2102.00 2095.84 41.70
2743 143.2500 2228.00 2098.68 43.30
2744 143.3000 2114.00 2100.26 42.00
2745 143.3500 2139.00 2100.33 42.30
2746 143.4000 2209.00 2098.69 43.10
2747 143.4500 2128.00 2095.08 42.20
2748 143.5000 2047.00 2089.64 41.40
2749 143.5500 2106.00 2082.46 42.00
2750 143.6000 2060.00 2073.82 41.60
2751 143.6500 2048.00 2064.12 41.30
2752 143.7000 2045.00 2053.77 41.40
2753 143.7500 1948.00 2043.15 40.60
2754 143.8000 1957.00 2032.54 40.40
2755 143.8500 1967.00 2022.17 40.70
2756 143.9000 1968.00 2012.23 40.80
2757 143.9500 1976.00 2002.81 40.70
2758 144.0000 1859.00 1993.99 39.50
2759 144.0500 1941.00 1985.69 40.50
2760 144.1000 1917.00 1978.18 40.10
2761 144.1500 1873.00 1971.33 39.70
2762 144.2000 1950.00 1965.12 40.60
2763 144.2500 1928.00 1959.48 40.50
2764 144.3000 1867.00 1954.47 39.60
2765 144.3500 1904.00 1949.99 40.50
2766 144.4000 1873.00 1946.03 39.90
2767 144.4500 1932.00 1942.53 40.70
2768 144.5000 1935.00 1939.48 40.80
2769 144.5500 1865.00 1936.84 40.00
2770 144.6000 1920.00 1934.59 40.50
2771 144.6500 1930.00 1932.72 41.00
2772 144.7000 1853.00 1931.22 39.90
2773 144.7500 1878.00 1930.08 40.60
2774 144.8000 1853.00 1929.31 40.20
2775 144.8500 1903.00 1928.92 41.00
2776 144.9000 2001.00 1928.94 41.90
2777 144.9500 1898.00 1929.39 41.20
2778 145.0000 1826.00 1930.19 40.20
2779 145.0500 1927.00 1931.65 41.60
2780 145.1000 1843.00 1933.51 40.60
2781 145.1500 1887.00 1936.24 41.20
2782 145.2000 1872.00 1939.76 41.00
2783 145.2500 1945.00 1944.14 42.20
2784 145.3000 1879.00 1949.52 41.10
2785 145.3500 1908.00 1956.00 41.80
2786 145.4000 1925.00 1963.69 42.00
2787 145.4500 1898.00 1972.68 41.60
2788 145.5000 1953.00 1983.05 42.30
2789 145.5500 1888.00 1994.86 41.80
2790 145.6000 1937.00 2008.09 42.00
2791 145.6500 2038.00 2022.71 43.30
2792 145.7000 1983.00 2038.60 42.80
2793 145.7500 2059.00 2055.54 43.50
2794 145.8000 2026.00 2073.26 43.20
2795 145.8500 2056.00 2091.31 43.60
2796 145.9000 2088.00 2109.14 43.90
2797 145.9500 2087.00 2126.03 43.70
2798 146.0000 2127.00 2141.11 44.40
2799 146.0500 2060.00 2153.46 43.20
2800 146.1000 2108.00 2162.17 43.90
2801 146.1500 2211.00 2166.54 44.90
2802 146.2000 2056.00 2166.21 43.20
2803 146.2500 2044.00 2161.27 43.00
2804 146.3000 2038.00 2152.23 43.10
2805 146.3500 2086.00 2139.91 43.20
2806 146.4000 1990.00 2125.27 42.40
2807 146.4500 2097.00 2109.25 43.40
2808 146.5000 2074.00 2092.71 43.10
2809 146.5500 2004.00 2076.34 42.20
2810 146.6000 1987.00 2060.69 42.20
2811 146.6500 1975.00 2046.16 41.70
2812 146.7000 1978.00 2033.03 41.90
2813 146.7500 1964.00 2021.51 41.60
2814 146.8000 1954.00 2011.69 41.50
2815 146.8500 1955.00 2003.61 41.40
2816 146.9000 1904.00 1997.25 41.00
2817 146.9500 1927.00 1992.56 40.90
2818 147.0000 1922.00 1989.43 41.10
2819 147.0500 1938.00 1987.74 41.00
2820 147.1000 1906.00 1987.36 40.70
2821 147.1500 1930.00 1988.13 40.90
2822 147.2000 1943.00 1989.91 41.00
2823 147.2500 1909.00 1992.54 40.60
2824 147.3000 1935.00 1995.87 40.90
2825 147.3500 1931.00 1999.75 40.80
2826 147.4000 1946.00 2004.04 41.00
2827 147.4500 1957.00 2008.60 41.00
2828 147.5000 1964.00 2013.29 41.20
2829 147.5500 1932.00 2017.97 40.60
2830 147.6000 1972.00 2022.53 41.20
2831 147.6500 1933.00 2026.85 40.70
2832 147.7000 1955.00 2030.82 40.80
2833 147.7500 1930.00 2034.38 40.50
2834 147.8000 1869.00 2037.49 40.00
2835 147.8500 1877.00 2040.12 40.00
2836 147.9000 1936.00 2042.30 40.60
2837 147.9500 1947.00 2044.10 40.80
2838 148.0000 1925.00 2045.60 40.50
2839 148.0500 1845.00 2046.92 39.40
2840 148.1000 1917.00 2048.21 40.50
2841 148.1500 1932.00 2049.63 40.30
2842 148.2000 1919.00 2051.36 40.10
2843 148.2500 1950.00 2053.60 40.60
2844 148.3000 1970.00 2056.55 40.60
2845 148.3500 1966.00 2060.44 40.40
2846 148.4000 1988.00 2065.54 41.00
2847 148.4500 1925.00 2072.10 40.00
2848 148.5000 1948.00 2080.43 40.30
2849 148.5500 2005.00 2090.86 41.00
2850 148.6000 1967.00 2103.75 40.50
2851 148.6500 1978.00 2119.50 40.30
2852 148.7000 2011.00 2138.50 41.00
2853 148.7500 2077.00 2161.18 41.50
2854 148.8000 2073.00 2187.97 41.30
2855 148.8500 2094.00 2219.28 41.80
2856 148.9000 2092.00 2255.48 41.70
2857 148.9500 2205.00 2296.86 42.60
2858 149.0000 2240.00 2343.81 43.20
2859 149.0500 2287.00 2396.44 43.50
2860 149.1000 2436.00 2454.80 44.80
2861 149.1500 2456.00 2518.76 45.00
2862 149.2000 2515.00 2588.06 45.60
2863 149.2500 2627.00 2662.13 46.50
2864 149.3000 2771.00 2740.29 47.80
2865 149.3500 2886.00 2821.49 48.90
2866 149.4000 3033.00 2904.35 50.00
2867 149.4500 3025.00 2987.22 50.00
2868 149.5000 3108.00 3068.02 50.80
2869 149.5500 3125.00 3144.50 50.90
2870 149.6000 3255.00 3214.08 51.90
2871 149.6500 3167.00 3274.03 51.10
2872 149.7000 3295.00 3321.68 52.20
2873 149.7500 3347.00 3354.60 52.40
2874 149.8000 3331.00 3370.93 52.40
2875 149.8500 3407.00 3369.56 53.10
2876 149.9000 3229.00 3350.44 51.50
2877 149.9500 3228.00 3314.55 51.70
2878 150.0000 3136.00 3263.86 51.00
2879 150.0500 3046.00 3200.91 50.00
2880 150.1000 3115.00 3128.70 50.70
2881 150.1500 2973.00 3050.10 49.80
2882 150.2000 2871.00 2967.93 48.50
2883 150.2500 2830.00 2884.54 48.50
2884 150.3000 2652.00 2801.85 47.10
2885 150.3500 2676.00 2721.52 47.10
2886 150.4000 2502.00 2644.73 45.60
2887 150.4500 2502.00 2572.46 46.00
2888 150.5000 2342.00 2505.33 44.10
2889 150.5500 2216.00 2443.71 43.10
2890 150.6000 2243.00 2387.88 43.60
2891 150.6500 2240.00 2337.85 43.40
2892 150.7000 2191.00 2293.60 42.80
2893 150.7500 2285.00 2254.90 44.20
2894 150.8000 2143.00 2221.49 42.50
2895 150.8500 2094.00 2193.04 42.20
2896 150.9000 2077.00 2169.15 42.10
2897 150.9500 2015.00 2149.49 41.30
2898 151.0000 2140.00 2133.63 42.60
2899 151.0500 2169.00 2121.18 43.30
2900 151.1000 2106.00 2111.76 42.30
2901 151.1500 1998.00 2105.02 41.40
2902 151.2000 2056.00 2100.63 42.20
2903 151.2500 2121.00 2098.29 42.90
2904 151.3000 2048.00 2097.73 42.00
2905 151.3500 2152.00 2098.69 43.60
2906 151.4000 2110.00 2100.94 42.80
2907 151.4500 2029.00 2104.27 42.20
2908 151.5000 2103.00 2108.46 43.10
2909 151.5500 2110.00 2113.32 43.10
2910 151.6000 2071.00 2118.67 42.70
2911 151.6500 2194.00 2124.32 44.20
2912 151.7000 2051.00 2130.12 42.50
2913 151.7500 2154.00 2135.91 43.90
2914 151.8000 2143.00 2141.58 43.60
2915 151.8500 2010.00 2147.05 42.30
2916 151.9000 2096.00 2152.25 43.30
2917 151.9500 2161.00 2157.18 44.10
2918 152.0000 2101.00 2161.86 43.20
2919 152.0500 2209.00 2166.37 44.70
2920 152.1000 2175.00 2170.80 44.20
2921 152.1500 2174.00 2175.30 44.40
2922 152.2000 2117.00 2180.00 43.70
2923 152.2500 2155.00 2185.04 44.10
2924 152.3000 2231.00 2190.65 44.90
2925 152.3500 2163.00 2196.94 44.30
2926 152.4000 2104.00 2204.03 43.60
2927 152.4500 2184.00 2212.04 44.20
2928 152.5000 2252.00 2221.05 45.20
2929 152.5500 2244.00 2231.13 44.60
2930 152.6000 2214.00 2242.34 44.50
2931 152.6500 2203.00 2254.69 44.30
2932 152.7000 2285.00 2268.19 45.00
2933 152.7500 2208.00 2282.83 44.10
2934 152.8000 2268.00 2298.58 44.90
2935 152.8500 2279.00 2315.38 44.60
2936 152.9000 2278.00 2333.16 44.80
2937 152.9500 2332.00 2351.83 45.20
2938 153.0000 2353.00 2371.28 45.30
2939 153.0500 2452.00 2391.36 46.10
2940 153.1000 2391.00 2412.00 45.70
2941 153.1500 2441.00 2433.01 45.70
2942 153.2000 2500.00 2454.23 46.60
2943 153.2500 2394.00 2475.52 45.30
2944 153.3000 2535.00 2496.71 46.60
2945 153.3500 2472.00 2517.65 45.90
2946 153.4000 2598.00 2538.18 47.20
2947 153.4500 2612.00 2558.18 46.80
2948 153.5000 2483.00 2577.49 46.00
2949 153.5500 2567.00 2596.01 46.50
2950 153.6000 2667.00 2613.63 47.30
2951 153.6500 2594.00 2630.28 46.70
2952 153.7000 2627.00 2645.88 47.00
2953 153.7500 2664.00 2660.43 47.10
2954 153.8000 2660.00 2673.92 47.30
2955 153.8500 2775.00 2686.33 48.20
2956 153.9000 2664.00 2697.84 47.10
2957 153.9500 2675.00 2708.44 47.10
2958 154.0000 2740.00 2718.20 47.90
2959 154.0500 2752.00 2727.17 47.40
2960 154.1000 2806.00 2735.37 48.20
2961 154.1500 2765.00 2742.68 47.70
2962 154.2000 2757.00 2749.22 47.50
2963 154.2500 2682.00 2754.77 46.90
2964 154.3000 2749.00 2759.18 47.60
2965 154.3500 2823.00 2762.24 47.90
2966 154.4000 2732.00 2763.56 47.30
2967 154.4500 2800.00 2763.12 48.00
2968 154.5000 2734.00 2760.48 47.10
2969 154.5500 2662.00 2755.35 46.60
2970 154.6000 2660.00 2747.45 46.70
2971 154.6500 2605.00 2736.58 45.80
2972 154.7000 2633.00 2722.61 46.40
2973 154.7500 2591.00 2705.57 45.90
2974 154.8000 2528.00 2685.54 45.10
2975 154.8500 2552.00 2662.77 45.60
2976 154.9000 2600.00 2637.61 46.00
2977 154.9500 2468.00 2610.48 44.50
2978 155.0000 2482.00 2581.86 45.00
2979 155.0500 2475.00 2552.20 44.80
2980 155.1000 2404.00 2521.99 43.90
2981 155.1500 2411.00 2491.67 44.30
2982 155.2000 2302.00 2461.64 43.20
2983 155.2500 2302.00 2432.22 43.20
2984 155.3000 2306.00 2403.70 43.40
2985 155.3500 2177.00 2376.32 42.20
2986 155.4000 2185.00 2350.24 42.10
2987 155.4500 2168.00 2325.59 42.10
2988 155.5000 2130.00 2302.48 41.70
2989 155.5500 2138.00 2280.92 41.70
2990 155.6000 2098.00 2260.96 41.40
2991 155.6500 2032.00 2242.56 40.80
2992 155.7000 2049.00 2225.72 40.80
2993 155.7500 1997.00 2210.35 40.50
2994 155.8000 2055.00 2196.39 41.00
2995 155.8500 2078.00 2183.74 41.40
2996 155.9000 2087.00 2172.32 41.40
2997 155.9500 2044.00 2162.04 41.30
2998 156.0000 2019.00 2152.78 40.80
2999 156.0500 2058.00 2144.45 41.10
3000 156.1000 2067.00 2136.98 41.50
3001 156.1500 1947.00 2130.27 40.10
3002 156.2000 2017.00 2124.26 40.70
3003 156.2500 2006.00 2118.89 41.00
3004 156.3000 2077.00 2114.11 41.50
3005 156.3500 2045.00 2109.87 41.30
3006 156.4000 2090.00 2106.15 41.80
3007 156.4500 2043.00 2102.92 41.20
3008 156.5000 1980.00 2100.15 40.60
3009 156.5500 2058.00 2097.80 41.50
3010 156.6000 2042.00 2095.94 41.20
3011 156.6500 2063.00 2094.53 41.60
3012 156.7000 2053.00 2093.56 41.50
3013 156.7500 2075.00 2093.03 41.90
3014 156.8000 2074.00 2092.94 41.70
3015 156.8500 2092.00 2093.30 42.10
3016 156.9000 2053.00 2094.11 41.70
3017 156.9500 2092.00 2095.38 42.10
3018 157.0000 2151.00 2097.10 42.70
3019 157.0500 2074.00 2099.28 42.10
3020 157.1000 2073.00 2101.92 41.90
3021 157.1500 2097.00 2105.02 42.30
3022 157.2000 2094.00 2108.58 42.30
3023 157.2500 2111.00 2112.60 42.90
3024 157.3000 2167.00 2117.06 43.00
3025 157.3500 2192.00 2121.96 44.00
3026 157.4000 2154.00 2127.30 43.30
3027 157.4500 2228.00 2133.04 44.30
3028 157.5000 2173.00 2139.18 43.80
3029 157.5500 2274.00 2145.70 44.90
3030 157.6000 2239.00 2152.58 44.40
3031 157.6500 2325.00 2159.79 45.80
3032 157.7000 2280.00 2167.30 45.00
3033 157.7500 2386.00 2175.09 46.40
3034 157.8000 2401.00 2182.88 46.50
3035 157.8500 2352.00 2191.13 46.20
3036 157.9000 2370.00 2199.54 46.30
3037 157.9500 2400.00 2208.07 47.00
3038 158.0000 2301.00 2216.68 45.70
3039 158.0500 2411.00 2225.30 47.00
3040 158.1000 2445.00 2233.87 47.50
3041 158.1500 2404.00 2242.32 46.90
3042 158.2000 2486.00 2250.50 47.70
3043 158.2500 2450.00 2258.47 47.90
3044 158.3000 2470.00 2266.08 47.60
3045 158.3500 2470.00 2273.24 47.90
3046 158.4000 2509.00 2279.87 48.50
3047 158.4500 2499.00 2285.90 47.90
3048 158.5000 2439.00 2291.29 47.50
3049 158.5500 2473.00 2295.99 47.80
3050 158.6000 2423.00 2300.00 47.10
3051 158.6500 2493.00 2303.32 47.70
3052 158.7000 2501.00 2305.99 48.10
3053 158.7500 2496.00 2308.06 47.70
3054 158.8000 2545.00 2309.60 48.20
3055 158.8500 2498.00 2310.70 47.70
3056 158.9000 2386.00 2311.45 46.70
3057 158.9500 2466.00 2311.95 47.10
3058 159.0000 2583.00 2312.30 48.50
3059 159.0500 2527.00 2312.59 47.60
3060 159.1000 2477.00 2312.89 47.20
3061 159.1500 2479.00 2313.30 47.00
3062 159.2000 2412.00 2313.87 46.50
3063 159.2500 2577.00 2314.66 47.70
3064 159.3000 2479.00 2315.73 47.00
3065 159.3500 2508.00 2317.10 47.00
3066 159.4000 2481.00 2318.81 46.80
3067 159.4500 2442.00 2320.87 46.10
3068 159.5000 2524.00 2323.28 47.20
3069 159.5500 2568.00 2326.06 47.20
3070 159.6000 2546.00 2329.19 47.10
3071 159.6500 2597.00 2332.66 47.30
3072 159.7000 2415.00 2336.44 45.70
3073 159.7500 2565.00 2340.50 46.90
3074 159.8000 2477.00 2344.82 46.20
3075 159.8500 2434.00 2349.35 45.70
3076 159.9000 2546.00 2354.07 46.80
3077 159.9500 2518.00 2358.94 46.40
3078 160.0000 2579.00 2363.92 47.10
3079 160.0500 2612.00 2369.00 47.10
loop_
_pd_proc_info_excluded_regions
'from 3.646 to 6.000'
'from 160 to 164.765'
loop_
_refln_index_h
_refln_index_k
_refln_index_l
_refln_index_m_1
_refln_F_squared_calc
_refln_F_squared_meas
_refln_observed_status
_refln_d_spacing
0 0 0 4 0.01 0.00 < 14.526768
0 0 1 -3 1.95 3.78 o 5.065516
0 0 1 -1 68.61 65.36 o 4.435142
1 0 0 -3 1.02 0.85 o 4.295721
1 0 0 -1 24.35 22.41 o 4.044843
0 0 1 1 0.13 0.12 o 3.920136
0 1 0 1 12.35 11.58 o 3.897060
0 1 0 3 0.89 0.80 o 3.828782
1 0 0 1 4.64 3.03 o 3.768302
0 0 1 3 0.08 0.02 < 3.499053
1 0 0 3 1.53 0.31 < 3.490204
1 0 1 -4 0.77 0.16 < 3.457955
0 1 1 -4 0.33 0.44 o 3.170579
1 0 1 -2 1.15 1.11 o 3.106686
0 1 1 -2 24.18 24.28 o 3.012952
-1 0 1 -4 3.65 3.97 o 2.946570
-1 0 1 -2 35.87 37.91 o 2.929065
1 1 0 -4 0.09 0.09 o 2.921486
-1 0 1 0 93.74 93.18 o 2.883054
1 1 0 -2 4.51 4.49 o 2.852378
0 1 1 0 123.47 123.51 o 2.848920
1 0 1 0 152.25 151.53 o 2.817613
-1 0 1 2 23.56 23.47 o 2.812414
1 1 0 0 126.40 122.02 o 2.762630
-1 0 1 4 4.14 4.03 o 2.722499
0 1 1 2 19.66 17.03 o 2.685807
1 1 0 2 1.92 1.43 o 2.658316
1 0 1 2 0.05 0.02 < 2.576147
1 1 0 4 0.00 0.00 < 2.545229
0 1 1 4 0.90 1.09 o 2.528473
1 1 1 -3 0.09 0.16 o 2.508848
1 0 1 4 1.12 1.16 o 2.371758
0 0 2 -4 32.04 32.85 o 2.367340
1 1 1 -1 106.60 109.01 o 2.356766
-1 1 1 -3 18.55 19.03 o 2.349719
-1 1 1 -1 55.54 57.18 o 2.333253
-1 1 1 1 32.37 34.78 o 2.302529
-1 1 1 3 2.42 1.13 o 2.259202
0 0 2 -2 17.12 15.82 o 2.217571
1 1 1 1 8.37 7.78 o 2.216351
2 0 0 -4 3.09 3.11 o 2.087681
1 1 1 3 0.09 0.09 o 2.087511
0 0 2 0 344.16 346.65 o 2.082269
2 0 0 -2 106.51 87.26 o 2.022421
1 0 2 -3 0.48 0.39 o 2.008960
0 1 2 -3 9.83 9.91 o 1.975862
0 0 2 2 42.41 42.36 o 1.960068
2 0 0 0 534.06 533.57 o 1.954023
0 2 0 0 792.81 792.09 o 1.952927
0 2 0 2 0.19 0.19 o 1.948530
-1 0 2 -3 7.33 7.31 o 1.944889
0 2 0 4 0.01 0.01 o 1.935515
2 0 1 -3 0.99 1.00 o 1.894470
-1 0 2 -1 63.44 64.07 o 1.885889
2 0 0 2 73.10 73.94 o 1.884151
0 1 2 -1 49.78 50.41 o 1.882288
1 0 2 -1 95.54 96.60 o 1.879195
0 0 2 4 9.48 9.51 o 1.849589
1 1 2 -4 0.19 0.16 o 1.836447
-1 0 2 1 5.50 3.91 o 1.824711
0 2 1 -3 3.35 2.62 o 1.822194
2 1 0 -3 1.10 0.97 o 1.819031
2 0 0 4 3.75 3.47 o 1.814161
2 0 1 -1 60.17 56.47 o 1.798684
-2 0 1 3 0.03 0.03 o 1.795977
0 1 2 1 6.07 5.83 o 1.793983
-2 0 1 1 13.89 13.35 o 1.790223
0 2 1 -1 66.94 64.94 o 1.787326
1 2 0 -3 0.83 0.83 o 1.777828
-2 0 1 -1 16.99 17.82 o 1.777830
2 1 0 -1 25.09 26.53 o 1.772068
1 0 2 1 5.51 5.72 o 1.765160
-1 0 2 3 0.45 0.47 o 1.762602
-1 1 2 -4 9.93 10.75 o 1.761157
-2 0 1 -3 7.44 7.80 o 1.759205
1 2 0 -1 30.34 31.64 o 1.758670
0 2 1 1 0.49 0.49 o 1.748023
2 1 1 -4 0.55 0.55 o 1.741217
1 1 2 -2 54.69 53.94 o 1.738858
1 2 0 1 6.83 6.83 o 1.733909
2 1 0 1 2.84 2.87 o 1.722478
-1 1 2 -2 77.64 78.79 o 1.719996
0 1 2 3 0.32 0.32 o 1.711077
2 0 1 1 10.79 10.97 o 1.710141
0 2 1 3 0.03 0.03 o 1.705298
1 2 0 3 2.34 2.48 o 1.704271
1 2 1 -4 0.15 0.15 o 1.700476
-1 1 2 0 49.09 47.33 o 1.675986
2 1 0 3 0.22 0.22 o 1.671273
2 1 1 -2 0.05 0.05 o 1.668721
1 0 2 3 0.00 0.00 < 1.664160
1 2 1 -2 0.01 0.00 < 1.653383
1 1 2 0 139.16 142.58 o 1.649990
-2 1 1 4 8.46 9.44 o 1.631979
-2 1 1 2 31.64 34.90 o 1.630219
-1 1 2 2 29.63 32.19 o 1.630036
2 0 1 3 1.18 1.26 o 1.628367
-1 2 1 -4 1.40 1.54 o 1.627848
-1 2 1 -2 22.16 24.05 o 1.624878
-2 1 1 0 42.30 45.86 o 1.623372
-1 2 1 0 91.19 97.75 o 1.616893
-2 1 1 -2 35.20 37.39 o 1.611629
1 2 1 0 131.52 141.20 o 1.605075
-1 2 1 2 16.75 18.07 o 1.604112
2 1 1 0 121.32 131.94 o 1.599714
-2 1 1 -4 4.51 4.95 o 1.595305
-1 2 1 4 3.06 3.39 o 1.586875
-1 1 2 4 12.54 13.86 o 1.582949
1 1 2 2 9.26 15.14 o 1.568893
1 2 1 2 0.06 0.13 o 1.556284
2 0 2 -4 7.82 15.59 o 1.553343
2 1 1 2 0.01 0.02 o 1.534319
1 2 1 4 1.19 1.60 o 1.507612
0 2 2 -4 21.76 31.96 o 1.506476
1 1 2 4 3.12 3.68 o 1.494715
0 0 3 -3 0.20 0.23 o 1.478381
2 0 2 -2 118.52 133.85 o 1.477700
2 1 1 4 0.10 0.11 o 1.472542
0 2 2 -2 13.10 17.33 o 1.465609
-2 0 2 -4 3.94 6.26 o 1.464533
-2 0 2 -2 18.29 19.97 o 1.454713
-2 0 2 0 139.10 149.32 o 1.441527
2 2 0 -4 2.32 2.27 o 1.426189
-2 0 2 2 75.79 73.75 o 1.425250
0 2 2 0 229.85 223.47 o 1.424460
1 0 3 -4 0.91 0.89 o 1.423331
0 0 3 -1 46.52 45.89 o 1.417230
2 1 2 -3 3.93 3.79 o 1.412161
0 1 3 -4 0.04 0.04 o 1.408858
2 0 2 0 170.32 162.89 o 1.408807
-2 0 2 4 24.13 22.88 o 1.406207
2 2 0 -2 69.82 66.09 o 1.404854
1 2 2 -3 0.17 0.16 o 1.400318
-1 0 3 -4 7.27 6.69 o 1.395017
0 2 2 2 27.32 27.02 o 1.383446
2 2 0 0 358.23 354.49 o 1.381315
-1 2 2 -3 7.38 7.33 o 1.378077
-2 1 2 -3 13.58 16.31 o 1.367629
0 0 3 1 6.35 7.18 o 1.360099
2 2 1 -3 0.53 0.60 o 1.359789
1 0 3 -2 4.48 5.06 o 1.358233
-2 1 2 -1 17.08 19.18 o 1.358136
0 1 3 -2 62.00 70.04 o 1.357114
-1 2 2 -1 50.20 56.35 o 1.356606
-1 0 3 -2 24.11 27.19 o 1.356182
2 2 0 2 51.69 58.04 o 1.355958
1 2 2 -1 82.75 92.62 o 1.354108
2 1 2 -1 46.00 51.01 o 1.353137
3 0 0 -3 0.39 0.44 o 1.348281
-2 1 2 1 20.73 23.68 o 1.345940
2 0 2 2 1.10 1.24 o 1.345833
0 2 2 4 5.70 6.43 o 1.342903
-1 2 2 1 7.38 10.63 o 1.333290
-2 1 2 3 0.81 0.95 o 1.331262
2 2 0 4 3.24 3.29 o 1.329158
2 2 1 -1 61.78 59.39 o 1.323035
-2 2 1 3 0.26 0.25 o 1.321957
-2 2 1 1 16.87 15.34 o 1.319657
3 0 0 -1 28.13 25.39 o 1.318041
3 0 1 -4 1.78 1.53 o 1.317743
-1 0 3 0 6.91 6.22 o 1.317701
-2 2 1 -1 14.43 11.81 o 1.314669
1 1 3 -3 69.05 54.94 o 1.309577
1 2 2 1 1.96 1.52 o 1.309521
-1 2 2 3 0.02 0.01 o 1.308475
0 1 3 0 34.22 26.77 o 1.308023
-2 2 1 -3 8.42 6.29 o 1.307084
0 0 3 3 0.14 0.11 o 1.306712
0 3 0 1 4.04 2.94 o 1.301625
0 3 0 3 0.28 0.20 o 1.299020
1 0 3 0 26.73 19.03 o 1.298717
2 1 2 1 0.16 0.12 o 1.298345
-1 1 3 -3 21.43 15.25 o 1.297462
2 0 2 4 1.31 0.96 o 1.288073
3 0 0 1 0.33 0.26 o 1.287215
3 1 0 -4 1.46 1.04 o 1.286958
2 2 1 1 5.99 4.01 o 1.286578
-1 0 3 2 21.66 11.11 o 1.279828
3 0 1 -2 12.99 5.23 o 1.275703
-3 0 1 4 9.50 3.54 o 1.274254
1 2 2 3 0.07 0.03 o 1.266653
0 3 1 -4 0.40 0.19 o 1.266055
-1 1 3 -1 2.98 1.50 o 1.264841
-3 0 1 2 27.24 13.42 o 1.263920
3 1 0 -2 16.42 8.35 o 1.261770
0 1 3 2 25.51 12.84 o 1.261516
1 1 3 -1 0.37 0.20 o 1.257162
3 0 0 3 0.19 0.10 o 1.256101
0 3 1 -2 13.78 7.31 o 1.255354
-3 0 1 0 13.94 8.09 o 1.251506
2 2 1 3 0.64 0.47 o 1.250654
1 3 0 -4 0.01 0.01 o 1.248481
2 1 2 3 0.37 0.29 o 1.247405
1 0 3 2 18.50 14.49 o 1.244109
1 3 0 -2 1.64 1.35 o 1.242928
-1 0 3 4 10.71 8.38 o 1.242765
0 3 1 0 51.17 45.80 o 1.242641
-3 0 1 -2 31.80 25.40 o 1.237200
3 1 0 0 45.61 36.16 o 1.235763
1 3 0 0 46.68 36.96 o 1.235209
3 0 1 0 59.24 46.90 o 1.235207
-1 1 3 1 0.42 0.33 o 1.232341
3 1 1 -3 7.60 5.92 o 1.230512
0 3 1 2 8.46 6.73 o 1.228106
1 3 0 2 0.50 0.20 o 1.225446
-3 0 1 -4 8.54 2.19 < 1.221211
0 1 3 4 9.16 6.93 o 1.217497
2 2 2 -4 5.10 1.72 o 1.215685
1 3 0 4 0.00 0.00 < 1.213787
0 3 1 4 0.35 0.13 o 1.211955
1 3 1 -3 0.19 0.07 o 1.209775
3 1 0 2 12.13 4.47 o 1.209201
1 1 3 1 0.00 0.00 < 1.208479
-3 1 1 3 1.70 0.66 o 1.207207
-1 1 3 3 0.13 0.08 o 1.200170
-3 1 1 1 2.00 1.60 o 1.197391
3 0 1 2 9.60 6.72 o 1.196305
3 1 1 -1 8.40 6.27 o 1.195059
1 0 3 4 2.59 1.99 o 1.193836
1 3 1 -1 30.15 20.69 o 1.191461
-1 3 1 -3 4.39 2.98 o 1.190548
-1 3 1 -1 18.32 12.07 o 1.188389
2 0 3 -3 15.11 10.52 o 1.188037
-3 1 1 -1 2.53 1.67 o 1.185831
-1 3 1 1 3.65 2.41 o 1.184270
3 1 0 4 0.78 0.63 o 1.182318
0 2 3 -3 0.07 0.06 o 1.178728
2 2 2 -2 86.08 75.20 o 1.178383
-1 3 1 3 0.67 0.59 o 1.178250
-3 1 1 -3 4.87 6.35 o 1.172683
1 3 1 1 0.10 0.11 o 1.172043
-2 2 2 -4 2.58 3.79 o 1.171673
-2 0 3 -3 7.91 9.82 o 1.170105
-2 2 2 -2 12.57 12.73 o 1.166627
1 1 3 3 0.39 0.38 o 1.163178
3 1 1 1 0.38 0.39 o 1.160647
-2 2 2 0 95.52 97.90 o 1.159792
3 0 1 4 2.13 2.10 o 1.159012
2 1 3 -4 14.13 13.80 o 1.158203
-2 0 3 -1 9.15 8.78 o 1.153074
1 3 1 3 0.01 0.01 o 1.151730
-2 2 2 2 51.50 47.04 o 1.151264
3 0 2 -3 5.35 5.29 o 1.150880
1 2 3 -4 0.24 0.24 o 1.150253
0 2 3 -1 37.04 35.55 o 1.147025
2 2 2 0 111.49 111.84 o 1.142546
2 0 3 -1 31.79 31.92 o 1.141508
-2 2 2 4 15.32 15.14 o 1.141158
-1 2 3 -4 2.76 2.75 o 1.135153
-2 0 3 1 19.17 18.78 o 1.135029
0 3 2 -3 9.20 9.46 o 1.131885
-2 1 3 -4 6.83 8.69 o 1.127981
3 1 1 3 0.03 0.03 o 1.127346
3 1 2 -4 6.99 7.89 o 1.121950
-2 0 3 3 2.07 2.33 o 1.116155
0 2 3 1 6.83 7.68 o 1.116099
-3 0 2 -1 4.21 4.89 o 1.115965
2 1 3 -2 16.23 18.31 o 1.115790
-3 0 2 1 18.25 20.57 o 1.115569
1 2 3 -2 0.32 0.36 o 1.115067
-3 0 2 -3 8.80 9.99 o 1.114716
-1 2 3 -2 12.11 13.64 o 1.113932
-3 0 2 3 1.71 1.93 o 1.113535
-2 1 3 -2 32.25 36.70 o 1.113518
0 3 2 -1 12.14 13.79 o 1.113423
3 0 2 -1 41.58 46.34 o 1.111805
3 2 0 -3 0.73 0.83 o 1.109541
0 0 4 -4 0.18 0.21 o 1.108786
2 2 2 2 0.62 0.70 o 1.108175
1 3 2 -4 0.08 0.09 o 1.103705
2 3 0 -3 0.58 0.62 o 1.099890
2 0 3 1 0.03 0.03 o 1.098476
-2 1 3 0 1.96 2.24 o 1.098025
0 3 2 1 6.36 6.08 o 1.094279
3 2 0 -1 28.85 27.53 o 1.092505
3 2 1 -4 1.28 1.30 o 1.092335
-1 2 3 0 8.80 8.44 o 1.092311
2 3 0 -1 10.41 10.77 o 1.089248
-1 3 2 -4 5.72 6.01 o 1.086699
3 1 2 -2 0.34 0.38 o 1.086417
0 2 3 3 0.00 0.00 < 1.086027
2 3 1 -4 0.39 0.38 o 1.081965
-2 1 3 2 20.77 20.26 o 1.081658
1 2 3 0 22.41 21.64 o 1.081424
1 3 2 -2 33.69 32.56 o 1.081398
2 3 0 1 1.29 1.22 o 1.077424
-1 3 2 -2 42.41 40.53 o 1.076816
2 1 3 0 78.03 77.13 o 1.076238
2 2 2 4 0.83 0.84 o 1.075255
3 0 2 1 11.31 11.26 o 1.074984
3 2 0 1 0.22 0.22 o 1.074756
0 3 2 3 0.02 0.02 o 1.074617
0 0 4 -2 2.73 2.71 o 1.074098
-3 1 2 0 4.61 4.75 o 1.073034
-3 1 2 -2 28.66 29.70 o 1.072654
-3 1 2 2 18.08 18.46 o 1.071952
-3 1 2 -4 12.19 12.90 o 1.070817
-1 2 3 2 17.06 17.28 o 1.070445
-3 1 2 4 13.08 13.78 o 1.069421
3 2 1 -2 14.82 15.66 o 1.068028
-3 2 1 4 7.02 7.35 o 1.067177
-1 3 2 0 24.10 24.76 o 1.065760
-2 1 3 4 13.25 14.05 o 1.064571
2 3 0 3 0.07 0.08 o 1.064545
2 3 1 -2 0.40 0.41 o 1.063885
-3 2 1 2 22.40 23.93 o 1.061085
1 3 2 0 69.51 74.50 o 1.058982
2 0 3 3 0.03 0.04 o 1.058562
3 2 0 3 0.49 0.52 o 1.056445
-2 3 1 4 3.57 3.74 o 1.054174
-3 2 1 0 15.26 15.94 o 1.053707
-2 3 1 2 13.35 13.97 o 1.053699
-1 3 2 2 13.15 13.71 o 1.053650
3 1 2 0 97.33 101.10 o 1.052674
1 0 4 -3 1.24 1.30 o 1.052556
-2 3 1 0 19.42 20.06 o 1.051844
0 1 4 -3 30.10 31.36 o 1.050975
-1 0 4 -3 4.53 4.69 o 1.049486
1 2 3 2 13.18 13.74 o 1.049281
-2 3 1 -2 16.92 17.40 o 1.048629
-1 2 3 4 7.16 7.46 o 1.048474
2 3 1 0 56.09 58.21 o 1.045326
-3 2 1 -2 24.67 25.59 o 1.045126
-2 3 1 -4 2.81 2.91 o 1.044093
3 2 1 0 46.20 47.76 o 1.043924
0 0 4 0 28.35 29.51 o 1.041135
-1 3 2 4 5.60 5.83 o 1.040606
3 0 2 3 2.50 2.59 o 1.040257
2 1 3 2 3.80 3.93 o 1.039283
1 3 2 2 3.56 3.77 o 1.036582
-3 2 1 -4 5.58 6.19 o 1.035434
1 1 4 -4 23.75 26.39 o 1.032998
2 3 1 2 0.02 0.02 o 1.026422
-1 1 4 -4 0.12 0.15 o 1.025051
-1 0 4 -1 10.84 15.07 o 1.024261
0 1 4 -1 20.69 27.16 o 1.020664
3 1 2 2 1.13 1.43 o 1.020630
3 2 1 2 8.72 11.45 o 1.020122
1 2 3 4 1.53 1.82 o 1.018590
1 0 4 -1 22.65 28.23 o 1.017183
2 2 3 -3 11.72 14.03 o 1.014981
1 3 2 4 1.52 1.78 o 1.014308
4 0 0 -4 10.95 11.94 o 1.011211
0 0 4 2 24.53 26.71 o 1.009809
2 3 1 4 0.07 0.07 o 1.007295
2 1 3 4 2.36 2.35 o 1.004687
-2 2 3 -3 6.55 6.58 o 1.003731
-1 1 4 -2 18.19 17.52 o 1.002104
3 0 3 -4 0.01 0.00 < 1.001413
1 1 4 -2 10.97 9.84 o 1.000091
-1 0 4 1 14.81 14.22 o 0.999587
3 2 1 4 2.18 1.98 o 0.996702
4 0 0 -2 67.27 59.81 o 0.994252
-2 2 3 -1 6.74 6.46 o 0.992919
0 1 4 1 13.85 11.82 o 0.991676
3 2 2 -3 4.45 3.90 o 0.991517
3 1 2 4 0.63 0.54 o 0.990193
2 3 2 -3 7.39 5.92 o 0.987321
0 3 3 -4 0.05 0.04 o 0.986190
2 2 3 -1 26.71 20.73 o 0.985504
1 0 4 1 6.44 5.77 o 0.984021
-2 2 3 1 16.14 13.83 o 0.981327
0 0 4 4 7.40 6.84 o 0.980034
4 0 1 -3 3.37 3.04 o 0.979597
-1 1 4 0 1.57 1.44 o 0.979517
4 0 0 0 45.79 42.51 o 0.977011
0 4 0 0 271.67 252.94 o 0.976463
0 4 0 2 0.01 0.00 < 0.975912
-1 0 4 3 2.01 1.86 o 0.975512
0 4 0 4 0.14 0.13 o 0.974265
-3 0 3 -4 8.82 7.69 o 0.972248
-2 3 2 -3 6.76 6.22 o 0.971727
4 1 0 -3 0.34 0.32 o 0.971274
2 0 4 -4 5.70 5.22 o 0.970958
-4 0 1 3 3.34 3.07 o 0.970288
3 0 3 -2 3.53 3.46 o 0.969353
1 1 4 0 15.85 14.36 o 0.969061
-2 2 3 3 2.44 2.19 o 0.969052
-3 2 2 -1 2.72 2.62 o 0.968928
-3 2 2 1 15.99 14.94 o 0.968669
-2 3 2 -1 3.20 3.05 o 0.968305
-3 2 2 -3 7.54 7.14 o 0.968110
0 3 3 -2 35.89 32.66 o 0.967934
-3 2 2 3 2.28 2.06 o 0.967336
-3 0 3 -2 13.15 12.03 o 0.967120
2 3 2 -1 19.01 17.22 o 0.966488
3 2 2 -1 37.63 33.87 o 0.966201
0 2 4 -4 0.17 0.17 o 0.964217
0 1 4 3 1.55 1.48 o 0.963963
-2 3 2 1 11.08 9.98 o 0.963855
-3 0 3 0 0.00 0.00 < 0.961018
-4 0 1 1 14.60 14.94 o 0.961015
4 1 1 -4 0.01 0.01 o 0.960476
4 0 0 2 44.36 58.80 o 0.959590
0 4 1 -3 5.09 6.07 o 0.958812
-2 3 2 3 1.06 1.29 o 0.958422
-2 0 4 -4 0.02 0.03 o 0.957874
2 2 3 1 0.04 0.05 o 0.957414
-1 1 4 2 14.91 14.77 o 0.957350
loop_
_jana_atom_site_displace_legendre_atom_site_label
_jana_atom_site_displace_legendre_axis
_jana_atom_site_displace_legendre_param_order
_jana_atom_site_displace_legendre_param_coeff
Fe1 x 1 0.0571(17)
Fe1 y 1 0
Fe1 z 1 0.0158(13)
Fe1 x 2 0
Fe1 y 2 0
Fe1 z 2 0
Fe1 x 3 -0.066(4)
Fe1 y 3 0
Fe1 z 3 0.114(3)
Fe1 x 4 0
Fe1 y 4 0
Fe1 z 4 0
Pb1 x 1 0.047(3)
Pb1 y 1 0
Pb1 z 1 -0.085(2)
Pb1 x 2 0
Pb1 y 2 0
Pb1 z 2 0
Pb1 x 3 -0.093(6)
Pb1 y 3 0
Pb1 z 3 0.156(5)
Pb1 x 4 0
Pb1 y 4 0
Pb1 z 4 0
Bi1 x 1 0.047(3)
Bi1 y 1 0
Bi1 z 1 -0.085(2)
Bi1 x 2 0
Bi1 y 2 0
Bi1 z 2 0
Bi1 x 3 -0.093(6)
Bi1 y 3 0
Bi1 z 3 0.156(5)
Bi1 x 4 0
Bi1 y 4 0
Bi1 z 4 0
O1 x 1 0.056(3)
O1 y 1 0
O1 z 1 0.208(2)
O1 x 2 0
O1 y 2 0
O1 z 2 0
O1 x 3 -0.115(9)
O1 y 3 0
O1 z 3 0.061(5)
O1 x 4 0
O1 y 4 0
O1 z 4 0
O2 x 1 0.062(5)
O2 y 1 0
O2 z 1 0.105(4)
O2 x 2 0
O2 y 2 0
O2 z 2 0
O2 x 3 -0.050(12)
O2 y 3 0
O2 z 3 0.098(10)
O2 x 4 0
O2 y 4 0
O2 z 4 0
O3 x 1 0.056(3)
O3 y 1 0
O3 z 1 0.099(2)
O3 x 2 0
O3 y 2 0
O3 z 2 0
O3 x 3 -0.046(10)
O3 y 3 0
O3 z 3 0.077(8)
O3 x 4 0
O3 y 4 0
O3 z 4 0
