#------------------------------------------------------------------------------
#$Date: 2019-12-26 21:22:11 +0200 (Thu, 26 Dec 2019) $
#$Revision: 246100 $
#$URL: file:///home/coder/svn-repositories/cod/cif/2/31/17/2311756.cif $
#------------------------------------------------------------------------------
#
# This file is available in the Crystallography Open Database (COD),
# http://www.crystallography.net/. The original data for this entry
# were provided by IUCr Journals, http://journals.iucr.org/.
#
# The file may be used within the scientific community so long as
# proper attribution is given to the journal article from which the
# data were obtained.
#
data_2311756
loop_
_publ_author_name
'Ende, Martin'
'Effenberger, Herta'
'Miletich, Ronald'
_publ_section_title
;
 Evolution of the \a-BaMg(CO<sub>3</sub>)<sub>2</sub> low-temperature
 superstructure and the tricritical nature of its \a-\b phase transition.
;
_journal_issue                   'Pt 5'
_journal_name_full
'Acta crystallographica Section B, Structural science, crystal engineering and materials'
_journal_page_first              827
_journal_page_last               835
_journal_paper_doi               10.1107/S2052520617009295
_journal_volume                  73
_journal_year                    2017
_chemical_formula_sum            'C6 Ba3 Mg3 O18'
_chemical_formula_weight         845.01
_space_group_crystal_system      trigonal
_space_group_IT_number           166
_space_group_name_Hall           '-R 3 2"'
_space_group_name_H-M_alt        'R -3 m :H'
_audit_creation_method           SHELXL-2014/7
_cell_angle_alpha                90
_cell_angle_beta                 90
_cell_angle_gamma                120
_cell_formula_units_Z            1
_cell_length_a                   5.0217(2)
_cell_length_b                   5.0217(2)
_cell_length_c                   16.8037(6)
_cell_measurement_reflns_used    5074
_cell_measurement_temperature    399(2)
_cell_measurement_theta_max      45
_cell_measurement_theta_min      1.5
_cell_volume                     366.98(2)
_computing_structure_refinement  'SHELXL-2014/7 (Sheldrick, 2014)'
_diffrn_ambient_temperature      399(2)
_diffrn_measured_fraction_theta_full 0.990
_diffrn_measured_fraction_theta_max 0.995
_diffrn_measurement_device_type  StoeStadiVari
_diffrn_radiation_type           MoK\a
_diffrn_radiation_wavelength     0.71073
_diffrn_reflns_av_R_equivalents  0.0287
_diffrn_reflns_av_unetI/netI     0.0117
_diffrn_reflns_Laue_measured_fraction_full 0.990
_diffrn_reflns_Laue_measured_fraction_max 0.995
_diffrn_reflns_limit_h_max       10
_diffrn_reflns_limit_h_min       -9
_diffrn_reflns_limit_k_max       9
_diffrn_reflns_limit_k_min       -10
_diffrn_reflns_limit_l_max       17
_diffrn_reflns_limit_l_min       -33
_diffrn_reflns_number            5074
_diffrn_reflns_point_group_measured_fraction_full 0.990
_diffrn_reflns_point_group_measured_fraction_max 0.995
_diffrn_reflns_theta_full        25.242
_diffrn_reflns_theta_max         45.535
_diffrn_reflns_theta_min         3.638
_exptl_absorpt_coefficient_mu    8.202
_exptl_absorpt_correction_T_max  0.8
_exptl_absorpt_correction_T_min  0.7
_exptl_absorpt_correction_type   numerical
_exptl_absorpt_process_details   '(Stoe & Cie GmbH 2016)'
_exptl_crystal_density_diffrn    3.824
_exptl_crystal_description       prismatic
_exptl_crystal_F_000             384
_exptl_crystal_size_max          0.060
_exptl_crystal_size_mid          0.030
_exptl_crystal_size_min          0.030
_refine_diff_density_max         1.270
_refine_diff_density_min         -0.680
_refine_diff_density_rms         0.130
_refine_ls_extinction_method     none
_refine_ls_goodness_of_fit_ref   1.117
_refine_ls_hydrogen_treatment    undef
_refine_ls_matrix_type           full
_refine_ls_number_parameters     14
_refine_ls_number_reflns         429
_refine_ls_number_restraints     0
_refine_ls_restrained_S_all      1.117
_refine_ls_R_factor_all          0.0136
_refine_ls_R_factor_gt           0.0136
_refine_ls_shift/su_max          0.000
_refine_ls_shift/su_mean         0.000
_refine_ls_structure_factor_coef Fsqd
_refine_ls_weighting_details
'w=1/[\s^2^(Fo^2^)+(0.0116P)^2^+0.9240P] where P=(Fo^2^+2Fc^2^)/3'
_refine_ls_weighting_scheme      calc
_refine_ls_wR_factor_gt          0.0320
_refine_ls_wR_factor_ref         0.0320
_reflns_Friedel_coverage         0.000
_reflns_number_gt                429
_reflns_number_total             429
_reflns_threshold_expression     'I > 2\s(I)'
_cod_data_source_file            xk5041sup1.cif
_cod_data_source_block           norse_400
_cod_original_cell_volume        366.98(3)
_cod_original_sg_symbol_H-M      'R -3 m'
_cod_database_code               2311756
_shelx_shelxl_version_number     2014/7
_shelx_space_group_comment
;
The symmetry employed for this shelxl refinement is uniquely defined
by the following loop, which should always be used as a source of
symmetry information in preference to the above space-group names.
They are only intended as comments.
;
_shelx_estimated_absorpt_t_min   0.639
_shelx_estimated_absorpt_t_max   0.791
_shelx_res_file
;

    norse_400_a.res created by SHELXL-2014/7


TITL norse_440_a.res in R-3m
REM Old TITL norse_440 in R3m

REM SHELXT solution in R-3m
REM R1 0.034,  Rweak 0.143,  Alpha 0.055,  Orientation as input
REM Formula found by SHELXT:  C2 O6 Mg Ba

CELL  0.71073   5.0217   5.0217  16.8037   90.000   90.000  120.000
ZERR    1.000   0.0002   0.0002   0.0006    0.000    0.000    0.000
LATT  3
SYMM -Y, X-Y, Z
SYMM -X+Y, -X, Z
SYMM Y, X, -Z
SYMM X-Y, -Y, -Z
SYMM -X, -X+Y, -Z
SFAC C O MG BA
UNIT 6 18 3 3
L.S. 20
TEMP 126.15
SIZE 0.06 0.03 0.03
BOND $H
LIST 4
ACTA
FMAP 2
PLAN 20
REM EXTI    0.000000
WGHT    0.011600    0.924000
FVAR       0.43422
BA1   4    0.000000    0.000000    0.500000    10.08333    0.01227    0.01227 =
         0.01733    0.00000    0.00000    0.00613
MG2   3    0.000000    0.000000    0.000000    10.08333    0.00959    0.00959 =
         0.01445    0.00000    0.00000    0.00479
O3    2    0.853580    0.707159    0.257746    10.50000    0.03670    0.01042 =
         0.02714    0.00420    0.00210    0.00521
C4    1    0.000000    0.000000    0.260748    10.16667    0.01086    0.01086 =
         0.01229    0.00000    0.00000    0.00543
HKLF 4

REM  norse_440_a.res in R-3m
REM R1 =  0.0136 for     429 Fo > 4sig(Fo)  and  0.0136 for all     429 data
REM     14 parameters refined using      0 restraints

END

WGHT      0.0116      0.9240

REM Highest difference peak  1.270,  deepest hole -0.680,  1-sigma level  0.130
Q1    1   0.0000  0.0000  0.4655  10.16667  0.05    1.27
Q2    1  -0.0663  0.0663  0.2647  10.50000  0.05    0.49
Q3    1   0.8835  0.7670  0.2904  10.50000  0.05    0.45
Q4    1   0.9049  0.4525  0.2335  10.50000  0.05    0.25
Q5    1   0.1233  0.2467  0.2109  10.50000  0.05    0.24
Q6    1   0.6694  0.6948  0.2985  11.00000  0.05    0.24
Q7    1   0.7355  0.7568  0.2316  11.00000  0.05    0.24
Q8    1   0.7059  0.5485  0.2796  11.00000  0.05    0.21
Q9    1   0.0462  0.2726  0.4581  11.00000  0.05    0.21
Q10   1   0.5368  0.6471  0.2783  11.00000  0.05    0.21
Q11   1   0.0762 -0.0762  0.4025  10.50000  0.05    0.21
Q12   1  -0.1518 -0.0759  0.4606  10.50000  0.05    0.20
Q13   1  -0.2747 -0.1373  0.2846  10.50000  0.05    0.19
Q14   1   0.6824  0.6016  0.2341  11.00000  0.05    0.18
Q15   1   0.9628  0.6410  0.2013  11.00000  0.05    0.18
Q16   1   0.1400 -0.0285  0.2976  11.00000  0.05    0.17
Q17   1  -0.1237 -0.2473  0.4492  10.50000  0.05    0.16
Q18   1   1.0155  0.5078  0.2698  10.50000  0.05    0.16
Q19   1  -0.3572 -0.1786  0.0216  10.50000  0.05    0.16
Q20   1   0.5399  0.4601  0.1974  10.50000  0.05    0.16
;
_shelx_res_checksum              2733
_shelx_hkl_file
;
   4  -4   8  584.93   15.17   0
   1  -1  -7 1468.10   23.83   0
  -1   2   0 3588.91   35.51   0
   2  -2  -8 2899.51   26.88   0
   3  -3   9  839.53   19.82   0
   3  -1 -17  486.16   12.28   0
   4  -4   5  360.82   10.62   0
   2   0 -16  556.98   14.61   0
   3  -2 -13  454.91   10.94   0
   4  -4  -1 1257.89   16.39   0
   0   0   3 1485.59   49.71   0
   4  -3 -11  319.68    9.14   0
   6  -5   2  594.34   11.46   0
   2  -1 -12 1723.03   21.74   0
   1   0 -11  445.38   14.51   0
   4  -2 -15  179.37    8.63   0
   2  -2  -5  178.16    8.35   0
   3  -3  -3 1994.23   21.09   0
   5  -3 -13  501.03   10.80   0
   1  -1  -4 9545.33   62.54   0
   3  -3   0 2373.74   23.51   0
   3  -2 -10 1307.17   16.99   0
   4  -3  -8 1879.20   18.52   0
   5  -4  -3  309.30    8.65   0
  -4   2  -6  719.11   13.77   0
  -1  -1 -15  498.53   10.22   0
  -1   0 -10 1390.24   17.75   0
   0  -1 -11  427.07   11.02   0
   0   0   3 1709.79   36.30   0
   1  -1   5 3539.63   33.80   0
  -6   2  -8  591.41   11.45   0
  -5   2  -7  333.11    9.68   0
  -3   0 -15  460.59    9.59   0
  -3   1 -10 1310.63   16.25   0
   1  -3 -14 1124.30   16.79   0
  -2   1  -6 3837.68   32.18   0
  -1  -2 -17  462.95    9.78   0
  -5   1 -12  553.13   10.78   0
  -2  -1 -16 1008.62   13.43   0
   1  -4 -16  683.33   13.21   0
   0   0   6  275.15   11.70   0
   2  -4 -12 1603.67   22.68   0
  -4   2  -3  764.75   15.64   0
   4  -3   4 2560.72   23.26   0
   2  -2  -2 4613.51   34.91   0
   5  -4   6  827.54   13.04   0
   3  -2   2 2844.87   27.08   0
   4  -5  -3  325.50    8.22   0
   0   1   8 5150.58   45.03   0
   2  -5  -8 1566.54   17.26   0
   4  -4  -1 1266.45   14.98   0
   5  -5   1  262.07    8.00   0
   3  -4  -5 1010.65   13.95   0
  -3   0  -3 1851.86   26.02   0
   0  -2  -7  304.00   11.68   0
   3  -3  -3 1905.21   19.43   0
   3  -1  10 1381.20   31.16   0
   6  -5   8  497.29   10.38   0
  -1   1   4 9999.99   58.73   0
   5  -4   3  763.65   11.98   0
   1  -3  -8 1898.55   21.58   0
   2  -6 -10  474.12   10.44   0
   3  -6  -9  341.30    8.94   0
   5  -5  -2 1014.94   13.03   0
   6  -5   5  373.24    8.68   0
  -1  -2  -8 1822.76   33.39   0
   1  -4 -10  787.61   13.80   0
   4  -5  -6  970.76   12.69   0
   2  -4  -9  937.58   14.04   0
   2  -3  -7 1474.40   17.70   0
   4  -4  -4 1381.11   15.36   0
   5  -3   8 1653.44   20.06   0
   4  -2   6  745.23   15.31   0
   3  -2  -1  648.05   13.24   0
   6  -5   2  608.00   10.58   0
   0  -4 -11  570.19   13.37   0
   3  -4  -8 1851.51   18.21   0
   2  -5 -11  228.90    8.07   0
   3  -1   7 1574.25   28.77   0
  -2   0  -2 4656.41   47.41   0
   4  -3  -2 1206.70   15.55   0
   5  -3   5  666.32   12.66   0
  -1  -3 -10  767.23   19.54   0
   0  -1  -5 3695.82   47.10   0
   2  -2  -5  196.51    8.15   0
   2  -1   0 3879.19   37.80   0
   3  -5 -10  477.38   10.11   0
   3  -3  -6 1886.88   19.18   0
   5  -5  -5  603.76   10.41   0
   4  -5  -9  586.67   10.51   0
   5  -4  -3  323.33    8.58   0
   4  -4  -7  287.30    8.35   0
   4  -2   3  784.99   14.46   0
   6  -4   4  725.65   12.21   0
   5  -3   2  648.28   11.99   0
   1  -1  -4 9257.50   59.58   0
   3  -2  -4 3180.26   25.93   0
   3  -1   4 3282.38   35.59   0
   4  -3  -5  998.75   13.52   0
   6  -4   1  525.89   10.49   0
   1  -3 -11  414.79   10.82   0
   2  -4 -12 1548.68   17.24   0
   5  -4  -6 1014.14   13.11   0
   5  -3  -1  717.28   12.08   0
  -1   0  -1 1904.89   41.73   0
   1  -4 -13  529.26   11.84   0
   3  -5 -13  496.38   10.21   0
   2  -5 -14  308.41    8.90   0
   4  -4 -10 1067.13   13.25   0
   6  -4  -2  733.47   11.59   0
   2  -2  -8 2763.23   24.33   0
   0  -3 -12  918.01   17.37   0
   2  -1  -3 1894.77   23.74   0
   0  -2 -10 3142.21   33.28   0
  -2   0   1 4894.40   38.14   0
   4  -3  -8 1848.33   17.40   0
   5  -3  -4 1940.04   17.90   0
   4  -2  -3  727.66   12.33   0
   5  -4  -9  616.93   10.15   0
   3  -2  -7 1503.37   17.09   0
   5  -2   7  331.33   11.45   0
   6  -3   3  391.29    9.84   0
   3  -4 -14  564.79   10.70   0
   5  -2   4 2070.57   22.85   0
   2  -4 -15  167.95    7.25   0
   2  -3 -13  444.19    9.86   0
   3  -3 -12 1346.15   15.26   0
   6  -3   0  951.78   13.66   0
   1   0  10 1542.74   27.31   0
   5  -3  -7  335.05    8.54   0
   1  -1  -7 1581.11   22.36   0
   3  -1  -2 2918.56   26.78   0
   5  -2   1  753.31   13.45   0
  -2  -1  -4 3014.12   40.83   0
   1  -3 -14 1109.40   16.54   0
   4  -3 -11  335.41    8.16   0
   4  -2  -6  701.45   11.58   0
   2  -2 -11 1676.56   18.40   0
   2  -1  -6 3839.44   30.36   0
   6  -3  -3  386.44    9.02   0
   3  -2 -10 1342.96   15.65   0
   5  -2  -2  615.93   11.59   0
  -1   0   2 2495.21   33.29   0
   1  -2 -12 1565.42   19.29   0
   5  -3 -10  490.74    9.73   0
  -3  -1 -11  330.60    8.81   0
  -1   2 -15  476.28   14.09   0
  -3   1 -19  257.39    8.72   0
  -2  -1 -10 1297.63   16.05   0
  -1   1 -14 1163.44   18.69   0
  -2  -1   8 1793.23   50.15   0
  -1  -1  -6 3778.21   31.19   0
   0   0  -3 1604.64   41.92   0
   0   1   5 3467.82   32.55   0
  -2   1 -18  745.11   13.69   0
  -3  -2  -4 2004.23   19.87   0
  -3  -2  -1  721.54   12.95   0
  -3  -1 -14  580.81   11.22   0
  -3   0 -18  424.34   10.15   0
  -1   0 -13 1014.45   15.75   0
  -4  -2  -5  291.07    8.86   0
  -4  -2   1  512.01   11.85   0
  -2  -1 -13  499.82   10.83   0
  -3  -2  -7  326.35    9.01   0
  -3  -2   2  624.52   13.24   0
  -1  -1  -9 1105.06   16.11   0
  -2   0 -17  241.53    8.67   0
  -2  -2  -6  712.30   12.74   0
  -2  -2   0 4031.76   31.90   0
   0   0  -6  243.89   12.78   0
  -3  -2 -10  517.18   10.52   0
  -1   0   8 4810.48   52.05   0
  -1  -1 -12 1644.22   18.65   0
   0   1   2 2369.39   32.71   0
  -3  -2   5  619.39   14.99   0
  -1   1 -17  747.70   14.94   0
  -2  -2   3  736.69   16.04   0
  -1   0 -16 1523.43   18.80   0
   0   1 -10 1370.33   30.11   0
  -2   1 -21  246.35    8.87   0
  -2  -2 -12 1683.97   17.11   0
  -2   0 -20  632.10   12.08   0
  -1  -2  -5 1905.11   20.76   0
   0   2  -8 2712.80   68.66   0
  -1  -2  -8 1979.26   20.37   0
  -1  -2  -2 2842.67   27.36   0
  -2  -2 -15  165.17    7.45   0
  -2  -1 -19  244.71    8.43   0
  -3  -3  -6  621.34   11.43   0
  -1  -2 -11  440.66   10.34   0
  -3  -3  -3  377.50    9.89   0
   0  -1  -5 3586.72   35.80   0
  -2  -3  -8 1587.66   17.05   0
   0  -1  -8 4826.09   36.94   0
   0   2  -5  162.35   11.69   0
  -3  -3   0  899.31   14.58   0
  -1   0 -19  221.85    8.54   0
   0   0 -12 4052.14   35.65   0
  -2  -3 -11  251.71    8.19   0
  -2  -3  -2  614.96   11.90   0
  -1  -2 -14 1158.92   14.67   0
  -1  -1 -18  764.22   12.83   0
   0  -1 -11  442.65   11.54   0
   0  -1  -2 2324.22   34.70   0
  -2   0  10 3015.69   39.42   0
   0   1 -13 1011.35   22.83   0
  -1  -3  -7  625.32   11.85   0
   0   1  -1 1799.08   37.79   0
  -2  -3   1  713.32   13.85   0
  -2  -2   6  680.19   19.73   0
  -1  -3 -10  829.80   12.53   0
   0  -2  -7  321.37    9.57   0
   0  -1 -14 1177.71   16.53   0
   0   0 -15  147.49    8.26   0
  -1  -3 -13  586.71   11.02   0
   0  -2 -10 3187.77   25.65   0
  -1  -1 -21  250.22    8.45   0
   0  -2  -4 2069.87   23.80   0
  -1  -3  -1  811.69   14.47   0
   0  -2 -13 1127.84   15.39   0
  -2  -4  -7  230.85    7.68   0
  -2  -4  -4  747.09   12.64   0
   0  -1 -17  819.81   14.01   0
   0  -2 -16  577.25   11.50   0
  -1  -2   4 3023.59   39.08   0
  -1  -4  -9  329.21    8.92   0
   0  -3  -9 1196.03   15.34   0
   0   0 -18  514.05   12.61   0
   0   1 -16 1446.71   25.44   0
  -2  -3   4 1927.37   25.00   0
   0  -3 -12  976.22   13.61   0
   0  -3  -6 2484.17   22.73   0
   0  -2  -1 4958.39   40.65   0
  -2  -4  -1  523.16   11.40   0
  -1  -3   2 1207.02   19.09   0
   0  -2 -19  192.30    7.99   0
   0  -1 -20  602.62   12.72   0
  -1  -4  -3  766.20   12.76   0
   0  -3  -3  481.62   11.31   0
   0  -4 -11  623.36   10.98   0
   0  -4  -8 1365.19   15.87   0
   0  -4 -14  527.39   10.20   0
   0  -1   1 1684.64   38.72   0
  -1  -4   0 1311.57   17.69   0
   0  -4  -5  358.13    9.80   0
  -1   1   4 9506.89   62.11   0
   1  -3 -11  412.49   10.10   0
   1  -3  -5 1930.49   20.42   0
  -1   1   4 9706.02   62.54   0
   1  -4  -7  626.74   11.53   0
   1  -4 -10  814.19   12.15   0
   1  -2  -9 1105.94   16.58   0
   1  -2  -6 3757.00   31.24   0
   1  -4  -4 2475.17   21.13   0
   1  -3 -14 1134.49   14.71   0
   1  -2 -12 1658.22   19.67   0
   0  -4   4 1388.38   18.14   0
   0  -5   2 1033.23   14.73   0
   1  -5  -9  337.54    8.75   0
   1  -3  -2 2860.76   25.40   0
   2  -4  -9  907.29   12.57   0
   3  -5 -19   76.59    6.25   0
   4  -5  -6  970.63   12.81   0
   8  -6  -7   80.55    7.01   0
   9  -6  -9  122.71    7.44   0
   3  -5 -16  569.81   10.79   0
   5  -6 -19  101.86    7.46   0
   5  -6 -16  302.07    9.81   0
   6  -6  -9  211.22    7.90   0
   7  -6  -8  477.59   10.77   0
   2  -4 -21  277.26    9.13   0
   9  -6 -12  108.83    7.72   0
   4  -5 -24   94.61    8.40   0
   6  -6 -21   89.09    7.91   0
   6  -6 -12  480.06   10.32   0
   6  -4   1  490.24   10.52   0
   8  -6 -10  135.32    8.23   0
   2  -4 -18  310.26    9.20   0
   3  -4  -5  995.08   12.98   0
   4  -5  -9  618.37   10.66   0
   5  -5  -5  587.83   10.45   0
   6  -6 -18   96.58    8.06   0
   6  -6 -15  107.69    8.04   0
   7  -6 -11   98.63    7.93   0
   7  -5  -3  364.32    9.40   0
   2  -4 -15  166.84    6.85   0
   5  -4   0 1211.48   14.72   0
   1  -3 -11  399.65    9.07   0
   6  -5  -4  691.89   11.79   0
   7  -6 -20  134.77    7.89   0
   1  -3 -20  373.31   10.30   0
   3  -4 -26  128.81    8.32   0
   4  -5 -21  161.68    8.32   0
   5  -5 -26  110.69    8.44   0
   7  -6 -14  121.21    7.38   0
   8  -6 -16  122.26    7.68   0
   9  -5  -7   51.63    6.56   0
   2  -3  -4 3053.42   23.14   0
   8  -5  -5  143.69    7.59   0
   0  -2 -13 1090.35   15.69   0
   1  -3 -17  505.55   10.74   0
   1  -3 -14 1178.08   15.22   0
   4  -5 -15  134.82    7.47   0
   5  -5 -23   43.64    7.65   0
   3  -4  -8 1884.33   17.58   0
   4  -4 -28   59.00    7.76   0
   9  -5 -10   72.41    6.86   0
   3  -4 -23   59.15    7.22   0
   4  -3   1  758.34   12.60   0
   7  -5  -6  309.56    8.51   0
   7  -4  -1  174.41    7.41   0
   4  -4  -4 1293.95   14.64   0
   5  -5 -11  190.36    7.88   0
   5  -3   2  568.70   11.40   0
   8  -5  -8  310.29    8.82   0
   9  -5 -13   99.85    7.14   0
   2  -3 -25  130.19    7.88   0
   5  -5 -17  204.51    8.91   0
   6  -5 -22  113.91    8.38   0
   3  -4 -20  353.78    9.92   0
   3  -4 -11  322.31    8.77   0
   6  -5 -10  392.76    9.79   0
   6  -4  -2  722.12   11.58   0
   7  -5  -9  111.67    6.69   0
   8  -5 -20   87.60    7.39   0
   8  -5 -11   84.65    7.26   0
   2  -3  -7 1502.06   16.36   0
   4  -4 -25  110.29    8.50   0
   3  -4 -14  594.56   10.65   0
   5  -4 -27   32.77    7.01   0
   6  -5 -19   95.73    7.06   0
   8  -5 -17   76.99    7.56   0
   6  -5 -16  292.99    9.30   0
   6  -5 -13  186.62    7.66   0
   7  -5 -18  109.98    8.19   0
   7  -5 -12  327.79    9.39   0
   4  -4  -7  272.22    8.08   0
   7  -5 -15  134.81    8.01   0
   2  -3 -22  242.07    8.66   0
   3  -3  -3 1834.28   17.87   0
   3  -3 -27   48.57    7.25   0
   7  -4  -4  438.45   10.04   0
   4  -4 -22  295.62    9.00   0
   8  -4  -6  188.37    7.81   0
   9  -4 -11   60.02    6.33   0
   4  -3 -29   64.40    7.50   0
   2  -3 -10 1305.04   15.23   0
   9  -4 -14   63.56    6.57   0
   2  -3 -19  270.16    8.62   0
   5  -4  -6  961.60   12.81   0
   6  -4  -5  280.16    8.44   0
   6  -3   0  874.43   13.33   0
   2  -3 -16  992.95   13.81   0
   4  -4 -16  399.05    9.48   0
   4  -4 -13  625.79   10.83   0
   8  -4  -9  142.70    7.81   0
   3  -3 -24  247.16    9.26   0
   5  -4 -21  177.78    8.58   0
   6  -4 -23   63.12    6.97   0
   7  -4 -22   83.84    7.79   0
   7  -4  -7  279.55    8.69   0
   1  -2 -21  248.08    8.51   0
   8  -4 -18   78.17    7.33   0
   5  -4  -9  602.52   10.51   0
   5  -3 -28   80.73    7.83   0
   5  -3  -1  698.05   11.75   0
   8  -4 -15   51.53    7.28   0
   8  -4 -12  241.75    8.94   0
   4  -3 -26  133.14    8.36   0
   2  -2 -26  134.66    8.06   0
   3  -3  -6 1857.89   17.54   0
   5  -4 -18  386.29    9.57   0
   7  -4 -19   76.85    7.56   0
   7  -3  -2  497.30   10.54   0
   5  -4 -12  566.12   10.99   0
   7  -4 -10  328.62    9.30   0
   9  -3 -12  118.01    7.00   0
   5  -4 -15  133.26    7.14   0
   7  -4 -16  200.22    8.84   0
   1  -2 -18  763.44   12.72   0
   3  -3 -21  188.66    8.32   0
   4  -2 -30   74.55    7.38   0
   6  -4 -17  117.29    8.23   0
   6  -4 -11  280.68    8.33   0
   7  -4 -13  114.12    6.83   0
   3  -2 -28  122.87    8.32   0
   6  -4 -14  355.50    9.63   0
   1  -2 -15  518.20   10.70   0
   1  -2 -12 1584.53   17.57   0
   8  -3  -7  100.06    6.90   0
   3  -3  -9  483.55    9.61   0
   4  -3 -23   57.91    6.50   0
   6  -3  -3  387.91    9.40   0
   7  -3 -23   43.67    7.00   0
   4  -3  -5  968.91   12.98   0
   5  -2 -29   59.78    7.55   0
   6  -3 -24   95.33    7.48   0
   2  -2 -23  203.22    8.39   0
   3  -3 -15  487.96   10.35   0
   8  -3 -10  165.89    7.78   0
   5  -3  -4 1903.71   18.13   0
   8  -3 -16  127.76    8.26   0
   8  -3 -13  115.37    7.83   0
   5  -3 -22  169.25    7.92   0
   7  -3 -20  112.98    7.74   0
   4  -2 -27   25.55    6.81   0
  -1  -2  -8 1881.64   18.21   0
  -6  -1 -17  125.23    8.63   0
  -5  -4  -4  281.87   10.01   0
  -5  -3 -11   98.55    7.81   0
  -5  -2 -15  133.52    7.82   0
  -4  -4  -6  180.58    7.87   0
  -2  -2 -12 1664.00   17.02   0
  -2   0 -14  929.93   13.96   0
  -7   0 -19   20.59    6.54   0
  -5  -4  -7   65.17    7.57   0
  -4  -3 -13  123.33    8.36   0
  -1  -4   3  323.89    9.02   0
  -3  -4  -8  367.53   10.02   0
  -1  -4   0 1261.95   15.35   0
  -1  -3  -7  602.61   10.86   0
  -4  -1 -18  366.51    9.53   0
  -4   0 -19   83.60    6.70   0
  -2  -3 -11  233.81    8.36   0
  -5   0 -20  147.28    8.05   0
  -4  -4  -9  138.70    8.00   0
  -2  -4  -7  223.52    8.12   0
  -5  -1 -19   92.02    8.01   0
  -3  -1 -17  407.74    9.47   0
  -4  -5   1  123.47    7.89   0
  -3  -5   2  221.46    8.48   0
  -3   0 -18  418.28   10.44   0
  -6   0 -21   85.32    8.12   0
  -5  -4 -10   84.24    8.28   0
  -3  -5  -1  177.86    8.27   0
  -5  -2 -18  119.95    8.52   0
  -4  -5  -2   83.50    7.44   0
  -1  -2 -11  416.51    9.15   0
   0  -3   0 2197.44   21.25   0
  -4  -4 -12  234.17    9.90   0
  -3  -5  -4  374.47   10.22   0
  -3  -3 -15  145.42    8.28   0
  -2  -5   0  493.77   10.81   0
  -2  -5   3  371.88    9.84   0
  -5  -5   0  132.48    7.43   0
  -4  -5  -5  107.29    7.95   0
  -2  -4 -10  558.10   11.15   0
  -2  -1 -16  953.79   13.74   0
  -2   1 -15  455.06   11.36   0
  -1  -4  -6  795.17   11.92   0
  -1  -3 -10  834.39   12.44   0
  -5  -5  -3   58.22    7.31   0
   0  -3  -3  480.64   10.00   0
  -2  -3 -14  348.53    8.96   0
  -5  -4 -13   94.31    8.56   0
  -4  -1 -21  165.10    8.04   0
  -3  -4 -14  288.64   10.16   0
  -1  -5   1  272.37    8.66   0
  -1  -4  -9  339.78    8.64   0
  -4  -4 -15   68.17    8.21   0
  -4  -2 -20  174.36    8.97   0
  -3  -2 -19   69.11    7.15   0
  -2   0 -17  226.93    8.10   0
  -1  -5  -2  639.49   11.71   0
   0  -3  -6 2386.59   20.41   0
   0  -2  -7  314.45    8.54   0
  -5  -1 -22  101.10    7.66   0
  -3  -5 -10  167.97    9.12   0
  -3  -1 -20  339.73    9.64   0
  -2  -4 -13  305.35    8.91   0
  -1  -5   4  653.76   12.34   0
   0  -4   1 1242.80   15.96   0
  -5  -2 -21   58.86    7.90   0
  -2  -5  -9  315.09    8.98   0
  -1  -3 -13  594.62   10.68   0
  -1   0 -13 1004.63   15.36   0
   0  -4  -2 1391.15   15.77   0
  -2  -2 -18  287.92    8.39   0
   0  -4  -5  344.48    8.93   0
  -5  -3 -20   93.87    7.97   0
  -3  -6  -3  119.94    7.66   0
  -3  -5 -13  139.19    8.81   0
  -3   0 -21  180.07    8.06   0
  -1  -5  -8  542.56   11.06   0
  -1  -1 -15  498.66   10.56   0
   0  -3  -9 1195.03   14.62   0
  -3  -4 -17  129.96    7.99   0
  -2  -5 -12  247.12    9.19   0
  -4  -4 -18   85.38    8.43   0
  -2  -6  -2  178.87    8.48   0
  -2  -6   1  157.22    7.89   0
  -2  -4 -16  273.65    9.53   0
  -2  -1 -19  255.37    8.02   0
   0  -2 -10 3210.71   24.03   0
  -4  -5 -14   68.02    7.80   0
  -3  -6  -6  113.09    8.22   0
  -2  -6  -5  143.98    7.56   0
   0  -4  -8 1260.01   14.57   0
  -1  -5 -11  169.46    7.89   0
  -1  -3 -16  739.65   12.31   0
   0  -5  -1  283.86    8.50   0
  -4  -2 -23   65.30    7.44   0
  -3  -6  -9   62.83    7.63   0
  -3  -2 -22  163.94    8.48   0
  -2  -6  -8  265.81    9.36   0
   0  -5  -4  821.86   12.67   0
  -3  -3 -21  122.05    8.56   0
  -1  -2 -17  488.59   10.54   0
  -4  -3 -22   81.65    8.41   0
  -3  -5 -16  146.12    9.19   0
  -2  -5 -15   66.77    7.68   0
  -1  -6  -4  532.73   11.27   0
   0  -5   2  995.35   14.55   0
  -1  -6   2  192.95    8.03   0
   0  -5  -7  554.95   10.93   0
   0  -3 -12  955.05   12.97   0
  -3  -1 -23   47.83    6.68   0
  -2  -3 -20  349.42   10.14   0
  -1  -6  -7  104.53    7.65   0
   0  -4 -11  633.21   10.91   0
  -3  -6 -12  143.12    8.57   0
  -2  -2 -21  272.91    9.14   0
  -2  -4 -19   60.79    7.47   0
  -1  -5 -14  326.70    9.92   0
   0  -5 -10  554.27   11.09   0
  -1  -6 -10  202.84    7.98   0
  -1   0 -16 1445.65   18.44   0
  -1  -1 -18  727.15   12.47   0
  -3  -5 -19   41.33    7.49   0
  -2  -6 -14  112.85    8.62   0
  -1  -4 -18  262.19    9.10   0
  -1  -3 -19  126.82    7.23   0
  -2  -1 -22  225.50    8.52   0
   0  -6  -3  196.41    8.03   0
   0  -4 -14  519.73   10.22   0
  -2  -7  -4  146.11    8.78   0
   0  -6  -6  330.64    9.50   0
   0  -6   0  714.44   12.60   0
   0  -3 -15  254.19    7.81   0
  -1  -6 -13  194.93    8.86   0
  -3  -3 -24   94.04    7.95   0
  -2  -7  -7   88.66    7.32   0
  -1  -5 -17  168.79    7.96   0
   0  -5 -13  169.66    7.40   0
   1  -4  -4 2402.28   20.43   0
  -3  -2 -25  103.59    8.37   0
  -1  -2 -20  354.56    9.03   0
   1  -4  -1  832.94   13.23   0
   1  -3  -5 1869.75   18.73   0
  -3  -4 -23   30.29    7.75   0
  -2  -3 -23   30.83    7.03   0
  -1  -7  -3  140.75    8.61   0
   1  -4  -7  642.61   10.92   0
  -2  -7 -10   85.79    7.42   0
  -2  -4 -22  161.23    8.35   0
  -1  -7  -6  119.92    7.87   0
   0  -2 -16  561.33   10.81   0
   1  -3  -8 1981.59   18.93   0
  -1  -7  -9   88.78    8.25   0
   0  -1 -14 1147.72   15.50   0
   1  -5  -6  793.49   12.46   0
   1  -5  -3  759.60   12.02   0
  -2  -5 -21   84.47    7.80   0
  -2  -2 -24  205.29    8.70   0
  -1  -6 -16  198.00    9.09   0
   0  -4 -17  206.22    7.84   0
   1  -4 -10  837.57   12.47   0
   0  -5 -16  378.09   10.05   0
   1  -5   0 1238.80   15.79   0
   1  -4   2 1161.62   16.64   0
   1  -5  -9  316.41    8.48   0
  -1  -5 -20  153.74    8.59   0
  -1  -3 -22  215.55    8.64   0
   0  -7  -5  170.49    8.29   0
   0  -7  -8  414.79   10.87   0
   0  -7  -2  143.00    7.80   0
  -1  -1 -21  247.70    8.43   0
   0  -6 -15   87.99    7.01   0
   1  -6  -5  386.54    9.82   0
   1  -5 -12  762.18   12.42   0
   1  -4 -13  587.39   11.10   0
   1  -6  -2  645.89   11.81   0
  -1  -6 -19   34.23    7.50   0
   1  -2  -9 1107.89   15.12   0
  -3  -3 -27   15.08    6.11   0
  -2  -4 -25   68.97    7.95   0
  -1  -7 -15   38.03    7.51   0
  -1  -2 -23   95.23    7.00   0
   0  -5 -19  150.26    7.71   0
   1  -6 -11  177.24    7.99   0
  -2  -3 -26   94.47    7.32   0
   0  -2 -19  191.32    7.21   0
   1  -3 -14 1194.32   14.70   0
   1  -6   1  272.23    8.69   0
  -1  -4 -24  142.31    8.54   0
   0  -7 -14   92.20    7.77   0
   0  -6 -18  144.44    8.51   0
   0  -1 -17  807.35   13.34   0
   1  -5 -15  238.88    8.16   0
   0  -3 -21  230.17    8.52   0
   1  -4 -16  748.42   11.95   0
   1  -7  -7  100.32    7.52   0
   1  -6 -14  326.15    9.70   0
   1  -7  -4  503.01   11.20   0
  -1  -6 -22   79.39    8.19   0
  -1  -3 -25  129.39    7.87   0
   0  -8  -7   73.19    7.58   0
   0  -8  -4  173.56    8.46   0
   0  -7 -17  106.65    8.24   0
   0  -8 -10   94.01    7.56   0
   1  -5 -18  261.19    9.26   0
   0  -4 -23   92.00    7.90   0
   1  -7 -13  190.11    8.08   0
   1  -6 -17  171.12    8.49   0
   2  -5  -8 1531.66   16.11   0
   0  -8 -13   49.14    6.98   0
   1  -2 -15  489.36   10.31   0
   0  -2 -22  501.25   11.02   0
   2  -5 -11  247.60    7.87   0
   2  -4  -9  958.57   13.29   0
   2  -4  -6  689.94   11.48   0
   2  -6 -10  529.51   11.01   0
   2  -6  -4  705.81   12.22   0
   2  -5  -2  601.38   11.35   0
   0  -7 -20  106.72    7.89   0
   1  -7 -16  177.21    8.54   0
  -1  -4 -27   31.90    7.13   0
   0  -3 -24  145.20    8.00   0
   0  -1 -20  581.91   12.11   0
   1  -8  -9   90.30    7.52   0
   2  -6 -13  303.54    9.38   0
   2  -5 -14  333.87    9.53   0
   1  -8 -12  181.72    8.59   0
   1  -8  -3  150.33    7.89   0
   1  -6 -20  144.17    7.77   0
   0  -5 -25   58.95    7.29   0
   1  -3 -20  359.83    9.13   0
   2  -7  -6  399.39    9.59   0
   1  -7 -19   34.77    7.52   0
   1  -4 -22  203.25    8.45   0
   2  -7 -12  225.00    8.41   0
   2  -7  -3  117.27    7.28   0
   2  -4 -15  169.67    7.78   0
   0  -4 -26  109.33    7.81   0
   1  -2 -18  732.89   12.06   0
   2  -6 -16  261.32    8.71   0
   2  -3 -10 1364.67   15.54   0
   2  -5 -17  323.21    9.16   0
   2  -5   1  684.24   12.45   0
   2  -7 -15   59.97    7.42   0
   2  -4   0 3760.92   27.50   0
   2  -3  -4 3191.37   24.77   0
   1  -1 -13 1022.56   15.00   0
   2  -3 -13  464.90    9.76   0
   1  -5 -24  146.87    8.25   0
   2  -8 -11   64.67    7.84   0
   2  -8  -8  282.62    9.29   0
   2  -7   0  490.17   10.98   0
   0  -2 -25  147.92    7.64   0
   1  -7 -22   77.13    7.89   0
   2  -8  -5  143.40    7.56   0
   2  -6 -19   71.53    7.78   0
   2  -6   2  734.53   12.97   0
   2  -7 -18  190.46    9.29   0
   0  -3 -27   52.13    6.42   0
   1  -3 -23   87.02    6.97   0
   2  -5 -20  329.12    9.99   0
   1  -4 -25  141.99    8.04   0
   2  -8  -2  160.85    7.89   0
   1  -2 -21  266.61    8.55   0
   3  -6  -9  341.60    8.80   0
   1  -1 -16 1479.74   17.77   0
   3  -6 -12  496.33   10.45   0
   2  -6 -22  155.63    8.75   0
   3  -7 -11  132.48    7.98   0
   3  -7  -8  336.31    9.00   0
   3  -5 -10  499.76   10.07   0
   3  -5  -7  331.26    9.00   0
   2  -7 -21   83.54    7.74   0
   2  -4 -21  286.79    9.08   0
   3  -5 -13  521.99   10.69   0
   2  -9 -10   95.88    7.64   0
   3  -7 -14  278.24    9.47   0
   3  -7  -5  329.31    9.60   0
   3  -6 -15  135.63    7.35   0
   1  -5 -27   26.57    7.88   0
   2  -9  -7   91.29    6.97   0
   2  -5 -23   30.00    7.21   0
   2  -3 -19  250.14    8.50   0
   3  -6  -3  401.40    9.73   0
   2  -2 -11 1741.09   18.22   0
   2  -2  -8 2813.69   23.18   0
   3  -8 -10  175.10    7.79   0
   3  -8  -7  109.14    7.84   0
   3  -5 -16  571.13   11.58   0
   3  -7 -17  128.08    8.49   0
   3  -6 -18  225.75    9.04   0
   3  -4 -11  333.00    8.96   0
   1  -3 -26  172.10    8.89   0
   2  -2 -14  950.92   13.78   0
   3  -7  -2  515.00   11.07   0
   3  -4  -8 1834.88   17.64   0
   1  -1 -19  207.59    8.27   0
   2  -6 -25   68.57    7.75   0
   3  -8 -16  125.53    8.49   0
   3  -8  -4  348.43    9.94   0
   3  -4 -14  578.13   10.77   0
   1  -4 -28   87.96    7.02   0
   3  -5 -19   74.45    7.21   0
   3  -4  -5 1020.56   13.94   0
   3  -7 -20  104.44    7.97   0
   3  -6   0  904.40   13.73   0
   2  -3 -22  257.82    8.82   0
   3  -6 -21  102.54    8.19   0
   3  -5  -1  699.47   11.83   0
   2  -5 -26   94.33    7.62   0
   2  -2 -17  231.62    8.01   0
   3  -9 -12  129.72    7.82   0
   3  -9  -9   63.17    6.81   0
   3  -8 -19   32.51    7.11   0
   3  -4 -17  393.84    9.42   0
   3  -9  -6  101.04    7.13   0
   3  -7   1  174.53    7.99   0
   3  -5 -22  161.85    8.35   0
   4  -7 -10  323.71    9.61   0
   3  -7 -23   44.37    7.13   0
   4  -7 -13  111.94    7.11   0
   4  -6 -11  287.65    9.16   0
   3  -4 -20  338.23    9.55   0
   4  -7  -7  270.75    8.51   0
   4  -6 -14  354.53    9.66   0
   4  -6  -8  611.25   11.57   0
   3  -6 -24   93.50    7.77   0
   3  -3  -9  474.90    9.84   0
   4  -8  -9  152.30    8.50   0
   4  -7 -16  204.81    9.36   0
   2  -2 -20  620.85   11.79   0
   4  -8 -15   55.51    7.25   0
   2  -4 -27   20.22    6.29   0
   4  -8  -6  197.70    8.57   0
   4  -6 -17  118.38    8.02   0
   2  -3 -25  116.39    7.46   0
   4  -7  -4  458.50   10.38   0
   4  -5 -12  571.48   10.73   0
   3  -3  -6 1907.76   18.42   0
   4  -8 -18   76.38    7.84   0
   4  -7 -19  107.82    8.07   0
   4  -5  -9  651.71   11.08   0
   2  -5 -29   52.02    6.40   0
   3  -5   2  591.49   11.72   0
   4  -9 -11   59.87    6.92   0
   4  -5 -15  137.13    7.08   0
   3  -6   3  353.64    9.60   0
   3  -5 -25  102.85    7.93   0
   3  -3 -18  417.61    9.94   0
   4  -9 -14   58.72    6.75   0
   4  -9  -8  229.57    8.79   0
   3  -4 -23   54.24    6.08   0
   4  -6 -20  180.69    8.79   0
   4  -5  -6  945.80   13.04   0
   4  -8  -3  147.29    7.73   0
   4  -5 -18  350.63    9.68   0
   3  -6 -27   17.51    6.76   0
   4  -9  -5   92.88    6.90   0
   4  -7 -22   89.51    7.21   0
   4  -6  -2  724.07   11.91   0
   2  -2 -23  181.47    7.85   0
   4  -7  -1  188.52    7.73   0
   3  -4   1  786.85   13.18   0
   3  -3  -3 1921.52   19.25   0
   2  -1 -12 1552.09   17.75   0
   3  -3 -21  191.07    7.39   0
   4  -4 -13  610.75   10.83   0
   4  -4 -16  381.06    9.86   0
   2  -1 -15  473.51   10.49   0
   5  -7 -12  349.09    9.87   0
   3  -5 -28   65.22    7.19   0
   3  -4 -26  120.37    7.60   0
   4  -4  -7  277.61    8.48   0
   5  -8 -14  106.53    7.31   0
   5  -7 -15  130.72    8.35   0
   5  -8  -8  299.63    9.61   0
   1   0 -17  755.00   14.24   0
   5  -8 -17   77.68    7.13   0
   5  -6 -13  175.18    8.37   0
   4  -4 -19   76.79    6.32   0
   5  -9 -13   96.78    7.11   0
   5  -9 -10   87.03    7.19   0
   5  -7 -18  106.79    7.69   0
   5  -6 -10  402.09   10.20   0
   2  -1 -18  725.62   12.87   0
   3  -2 -10 1319.43   15.74   0
   5  -7  -6  306.23    8.62   0
   5  -6 -16  267.44    8.63   0
   3  -3 -24  219.72    8.46   0
   3  -2 -16  985.05   13.91   0
   4  -6 -26   66.80    6.87   0
   4  -6   1  492.74   10.59   0
   4  -5 -24   76.16    7.14   0
   5  -8 -20  107.07    8.04   0
   5  -8  -5  148.13    7.90   0
   5  -9  -7   52.32    6.60   0
   5  -6  -7  332.29    9.32   0
   4  -4  -4 1345.07   15.27   0
   5  -7 -21   59.69    7.10   0
   5  -6 -19   94.48    7.61   0
   4  -4 -22  303.59    9.19   0
   3  -2  -7 1540.20   16.75   0
   4  -5   0 1210.00   14.98   0
   3  -2 -19  253.64    8.40   0
   5  -7  -3  348.41    9.47   0
   5  -5 -14  480.30   10.12   0
   5  -5 -11  191.34    7.45   0
   5  -9  -4  250.17    9.40   0
   5  -5 -17  212.12    8.56   0
   4  -3 -11  329.04    8.47   0
   5  -6  -4  640.64   11.11   0
   5  -5  -8  577.43   10.92   0
   4  -5 -27   27.20    7.24   0
   4  -3 -17  414.12    9.74   0
   5  -8  -2  193.17    8.14   0
   4  -3  -8 1891.11   17.64   0
   4  -4 -25  109.83    7.40   0
   6  -8 -13  145.99    7.71   0
   3  -2 -22  238.92    8.20   0
   6  -9 -12  109.69    7.72   0
   6  -8 -16  116.71    7.51   0
   6  -7 -14  105.38    8.01   0
   4  -3 -20  331.47    9.38   0
   5  -5  -5  572.25   10.45   0
   6  -7 -11  113.01    7.94   0
   3  -2  -4 3210.63   24.28   0
   5  -6 -25   51.17    6.44   0
   6  -9  -9  128.90    7.50   0
   6  -8 -19   18.51    6.51   0
   6  -7 -17  118.74    8.04   0
  -1  -7  -9   96.85    8.32   0
   2  -7  15  113.10    7.70   0
   2  -5  -2  611.97   10.85   0
   2  -8   7   77.65    7.68   0
   2  -7   0  499.29   10.51   0
   0  -7  -8  405.73   11.13   0
   0  -4 -11  599.61   12.12   0
   2  -8  10  137.92    8.47   0
   1  -9   7   55.46    7.29   0
   2  -8   4  345.68    9.69   0
   1  -8  -3  139.97    8.76   0
   2  -8  13  132.28    8.32   0
   1  -6  -8  528.02   11.10   0
   2  -3   2 2864.72   24.04   0
   2  -8   1  178.40    9.12   0
   2  -6  -4  768.61   12.43   0
   1  -7  -7  105.71    8.02   0
   2  -7  -3  121.28    8.06   0
   1  -9   1   58.91    7.13   0
   1  -5  -9  337.49    9.22   0
   2  -4  -3  764.04   12.38   0
   0  -8  -7   78.78    8.27   0
   3  -6   9  348.11    8.99   0
   2  -8  16  100.07    7.70   0
   2  -5  -5  652.12   11.44   0
   2  -9   5  114.29    8.29   0
   2  -8  -2  169.53    8.84   0
   3  -7   4  445.61   10.63   0
   3  -7  10  329.90    9.19   0
   3  -6   3  379.16    9.11   0
   3  -6  12  501.52   10.94   0
   1  -9  -2  105.25    8.33   0
   2  -9  11   43.73    6.57   0
   3  -5   8 1585.07   17.11   0
   0  -6 -12  360.83   10.23   0
   2  -9   2  143.03    8.78   0
   0  -7 -11   60.65    7.68   0
   3  -8   8  314.56    9.91   0
   3  -7   1  193.86    8.40   0
   3  -7  13  106.15    7.33   0
   3  -5  11  239.49    8.32   0
   2  -7  -6  397.59   10.46   0
   2  -3  -1  636.51   11.66   0
   3  -8   5  149.52    7.64   0
   0  -5 -13  167.80    7.80   0
   3  -8  11   92.23    7.60   0
   3  -6   0  936.23   12.92   0
   3  -5   2  623.26   10.96   0
   3  -8   2  213.30    9.04   0
   1  -7 -10  187.01    8.96   0
   1  -4 -10  762.19   12.39   0
   2  -9  -1   58.02    7.16   0
   2  -8  -5  140.95    8.25   0
   1  -9  -5   68.24    7.36   0
   1  -6 -11  158.10    7.96   0
   0  -8 -10   93.81    8.21   0
   3  -8  14  109.37    7.29   0
   3  -7  -2  519.01   10.58   0
   3  -5  14  305.65    9.21   0
   2  -4  -6  698.97   11.89   0
   3  -9   9  114.23    8.11   0
   3  -8  -1  182.64    8.87   0
   3  -9   3   57.20    7.71   0
   3  -6  -3  384.46    9.66   0
   3  -5  -1  687.55   11.38   0
   3  -4   7  624.90   11.86   0
   2  -9  -4  154.09    8.66   0
   3  -9  12  107.80    7.45   0
   3  -4  10  792.48   13.63   0
   1  -5 -12  707.68   12.57   0
   2  -7  -9  294.66    9.61   0
   3  -9   0  231.32    9.07   0
   2  -8  -8  261.87    9.88   0
   3  -8  -4  361.24   10.34   0
   3  -7  -5  324.56    9.46   0
   2  -3  -4 3108.73   24.26   0
   3  -4   1  801.09   12.55   0
   2  -6 -10  489.89   10.80   0
   4  -7   8  343.66    9.81   0
   3  -5  -4 1994.02   18.44   0
   4  -8   6  202.12    9.01   0
   2  -9  -7   98.60    7.80   0
   3  -9  -3  120.34    7.83   0
   3  -6  -6  660.62   11.75   0
   4  -8   3  139.57    7.97   0
   4  -8   9  142.90    8.38   0
   4  -7   2  552.61   11.37   0
   1  -7 -13  193.04    8.67   0
   4  -7  11  117.85    7.45   0
   4  -6   7  219.47    8.24   0
   1  -8 -12  171.28    8.55   0
   4  -9   4  263.48    9.44   0
   4  -9   7   54.05    7.41   0
   4  -8   0  415.54   10.64   0
   4  -8  12  248.98    9.09   0
   4  -6  10  516.01   11.18   0
   1  -6 -14  298.06    9.38   0
   4  -9  10   70.35    7.68   0
   3  -4  -2 1168.56   14.47   0
   4  -7  -1  192.99    7.64   0
   4  -6   1  512.80   10.72   0
   3  -9  -6  110.44    8.23   0
   4  -9   1  114.63    7.62   0
   1  -4 -13  538.81   11.49   0
   2  -8 -11   68.91    7.82   0
   2  -7 -12  234.86    9.09   0
   2  -5 -11  224.90    7.51   0
   1  -3 -11  405.67   10.11   0
   4  -9  13   92.27    7.96   0
   4  -6  13  287.95    9.13   0
   2  -9 -10   86.98    7.46   0
   3  -5  -7  324.95    8.46   0
   4  -9  -2   86.59    7.41   0
   4  -6  -2  758.44   12.14   0
   4  -5   6  833.08   13.04   0
   4  -7  -4  440.40    9.95   0
   4  -5   9  314.06    9.18   0
   1  -5 -15  226.67    8.77   0
   3  -8 -10  172.08    8.74   0
   3  -3   6 2314.79   22.65   0
   4 -10  -1   56.74    7.16   0
   3  -9  -9   61.28    7.52   0
   3  -4  -5  996.51   13.30   0
   4  -9  -5   93.75    7.89   0
   4  -8  -6  182.57    8.76   0
   4  -5   0 1260.41   15.10   0
   3  -7 -11  135.08    7.99   0
   4  -6  -5  279.11    8.69   0
   5  -8   7  109.55    7.69   0
   3  -3   9 1121.95   17.11   0
   4  -7  -7  297.78    9.44   0
   4  -5  12  728.59   13.27   0
   5  -9   5   92.26    7.91   0
   5  -9   2   85.26    7.60   0
   5  -9   8  236.05    9.45   0
   2  -8 -14  109.87    7.59   0
   5  -8  10  170.44    8.41   0
   5  -7   6  392.20    9.59   0
   3  -3   0 2451.57   21.61   0
   4  -5  -3  316.52    8.86   0
   5  -7   9  297.79    9.50   0
   5  -9  -1  121.54    8.18   0
   5  -9  11   46.79    6.46   0
   2  -4 -12 1592.20   17.45   0
   5  -8  -2  185.62    7.99   0
   5  -7   0  497.41   10.37   0
   3  -6 -12  464.62   10.04   0
   3  -9 -12  146.45    8.40   0
   3  -8 -13  125.67    8.24   0
   4  -6  -8  608.95   11.33   0
   5  -7  12  219.33    8.66   0
   3  -4  -8 1820.37   17.54   0
   5  -9  -4  281.67    9.40   0
   5  -7  -3  353.06    9.78   0
   5  -6   5  376.15    9.23   0
   4  -4   5  348.73    8.92   0
   5 -10  -3   47.46    7.63   0
   5  -8  -5  157.62    8.20   0
   5  -6   8  512.74   11.15   0
   3  -3  -3 1966.24   19.05   0
   4  -4   2 1399.29   15.78   0
   4  -5  -6  997.17   13.18   0
   4  -4   8 1329.77   16.89   0
   5  -6  -1  260.97    8.19   0
   4  -9 -11   50.10    7.19   0
   4  -4  -1 1263.42   14.82   0
   5  -9  -7   51.36    7.58   0
   5  -7  -6  331.69    9.73   0
   5  -6  11  165.33    7.99   0
   1  -3 -14 1108.55   16.02   0
   4  -8 -12  224.87    8.95   0
   6  -9   3  111.53    8.13   0
   6  -9   6   89.36    7.38   0
   5  -6  -4  681.59   11.86   0
   6  -8   5  124.61    8.10   0
   3  -5 -13  494.95   10.16   0
   4  -4  11  537.95   11.96   0
   6 -10   1   50.12    7.44   0
   6  -9   0  205.17    8.63   0
   6  -9   9   67.17    7.85   0
   3  -6 -15  136.86    7.39   0
   6  -8   8  257.82    9.25   0
   3  -8 -16  116.84    8.38   0
   4  -7 -13  114.46    7.83   0
   4  -5  -9  639.08   11.26   0
   6  -8  -1  167.57    8.50   0
   3  -3  -6 1856.37   18.10   0
   4  -4  -4 1377.68   15.18   0
   5  -5   4  842.76   12.64   0
   6 -10  -2   77.53    7.29   0
   6  -9  -3   59.69    7.30   0
   3  -4 -11  293.13    8.05   0
   5  -7  -9  115.08    7.78   0
   5  -5   1  268.60    7.95   0
   5  -5   7  550.73   11.25   0
   6  -7   4  503.31   10.62   0
   2  -5 -17  302.68    9.70   0
   2  -4 -15  159.43    7.28   0
   4  -9 -14   55.24    6.74   0
   5  -6  -7  317.85    9.31   0
   6  -8  -4  323.25    9.85   0
   6  -7   7   93.33    7.19   0
   5  -5  -2  976.66   13.47   0
   3  -7 -17  117.30    7.27   0
   6  -9  -6  111.90    8.04   0
   6  -7  -2  208.47    8.71   0
   4  -8 -15   47.39    7.09   0
   5  -5  10  545.19   11.54   0
   6  -7  10  182.24    8.24   0
   4  -4  -7  279.13    8.42   0
   4  -6 -14  327.63    9.44   0
   6  -8  -7   80.02    7.79   0
   2  -3 -13  444.87   10.22   0
   5  -5  -5  595.77   10.65   0
   6  -7  -5  165.67    8.11   0
   4  -5 -12  510.42   10.70   0
   5  -9 -13   94.53    7.92   0
   6  -6   3  202.17    8.21   0
   5  -6 -10  394.28    9.40   0
   6  -9  -9  136.27    8.11   0
   3  -5 -16  533.23   11.08   0
   3  -3  -9  446.99    9.55   0
   4  -7 -16  185.55    8.53   0
   6  -6   0  721.24   11.84   0
   6  -6   6  324.88    9.51   0
   7  -9   4  138.64    8.11   0
   3  -6 -18  213.76    8.89   0
   4  -3   1  794.97   12.66   0
   4  -3   4 2498.36   21.92   0
   5  -8 -14  100.01    7.53   0
   7  -9  -2  121.50    8.03   0
   7  -9   7   84.00    7.50   0
   3  -4 -14  563.59   11.00   0
   6  -8 -10  132.81    8.21   0
   6  -7  -8  452.72   10.88   0
   7  -8   3  136.16    8.28   0
   5  -5  -8  594.47   11.15   0
   6  -6   9  267.43    8.96   0
   7  -8   6  127.33    7.92   0
   3  -2  -1  643.53   11.76   0
   4  -4 -10 1063.42   13.59   0
   4  -3  -2 1191.23   14.53   0
   4  -3   7  636.92   12.42   0
   5  -4   3  764.56   12.49   0
   7  -9  -5   98.70    7.82   0
   5  -4   0 1230.37   14.61   0
   7  -8  -3   76.06    6.79   0
   5  -4   6  836.99   13.36   0
   6  -6  -6  271.32    8.35   0
   5  -7 -15  147.46    8.17   0
   5  -6 -13  171.89    8.02   0
   7  -8   9   82.45    7.32   0
   5  -4  -3  320.01    8.84   0
   4  -6 -17  111.25    7.41   0
   4  -5 -15  121.31    7.28   0
   6  -7 -11  116.00    7.69   0
   7  -9  -8  108.60    8.19   0
   7  -8  -6  142.14    8.18   0
   7  -7   2  131.74    7.21   0
   4  -3  -5 1024.45   13.40   0
   7  -7  -1  162.02    7.56   0
   7  -7   5  175.92    8.42   0
   3  -2  -4 3137.02   24.11   0
   6  -5   2  611.54   11.50   0
   3  -3 -12 1345.24   15.82   0
   5  -8 -17   75.70    7.02   0
   5  -5 -11  183.44    7.27   0
   5  -4   9  324.34    9.77   0
   6  -5  -1  274.26    8.61   0
   6  -5   5  375.41    9.85   0
   6  -6  -9  210.67    7.91   0
   7  -7  -4  476.65   10.45   0
   7  -7   8  377.30   10.43   0
   4  -3  10  747.52   14.41   0
   5  -4  -6  954.82   12.89   0
   7  -8  -9  150.44    8.28   0
   4  -4 -13  606.77   10.84   0
   7  -9 -11   26.54    7.20   0
   8  -9   2  120.64    8.15   0
   2  -3 -16  967.99   14.72   0
   6  -5   8  526.86   11.27   0
   7  -7  -7  109.38    8.03   0
   8  -9   5   51.35    6.40   0
   3  -4 -17  415.76   10.14   0
   5  -6 -16  260.97    8.95   0
   6  -7 -14  115.54    8.04   0
   3  -2  -7 1547.77   16.93   0
   7  -6   1  271.42    8.52   0
   8  -9  -4  102.28    7.24   0
   5  -7 -18  110.99    7.95   0
   5  -4  -9  631.02   11.31   0
   6  -8 -16  115.61    7.68   0
   6  -6 -12  457.85   10.73   0
   6  -5  -7  307.37    8.53   0
   7  -6  -2  208.40    8.59   0
   7  -6   4  496.36   10.75   0
   8  -8   1   74.01    8.05   0
   5  -5 -14  483.34   10.64   0
   7  -8 -12  128.82    8.21   0
   8  -8   4  178.94    8.79   0
   1  -2 -15  474.56   11.69   0
   7  -7 -10  109.89    7.08   0
   7  -6   7   96.11    7.24   0
   4  -5 -18  339.26    9.49   0
   8  -8  -5  120.30    8.14   0
   8  -8   7   71.25    6.69   0
   6  -5 -10  393.52    9.96   0
   3  -3 -15  449.46   10.13   0
   5  -3   2  626.12   11.44   0
   7  -6  -8  463.58   10.66   0
   4  -4 -16  349.56    8.83   0
   5  -3  -1  724.90   11.63   0
   6  -7 -17  100.83    7.53   0
   8  -8  -8  130.00    8.19   0
   8  -7   0  298.78    9.93   0
   5  -4 -12  514.17   10.09   0
   6  -6 -15   98.85    7.35   0
   6  -4  -2  738.27   11.72   0
   7  -7 -13  143.61    8.21   0
   8  -7  -3   71.07    7.36   0
   8  -7   3  136.75    7.88   0
   5  -3  -4 2015.22   18.44   0
   6  -4   4  745.41   12.71   0
   7  -8 -15   30.76    6.37   0
   2  -2 -14  956.10   14.47   0
   5  -3   5  695.57   12.31   0
   4  -2   0 4021.97   26.84   0
   6  -4  -5  275.34    8.77   0
   8  -7  -6  141.27    8.15   0
   8  -7   6  127.08    7.96   0
   5  -5 -17  197.06    8.26   0
   4  -2  -3  747.87   11.89   0
   4  -2   3  751.42   12.61   0
   7  -6 -11  108.39    6.92   0
   7  -5  -3  368.43    9.30   0
   7  -5   3  114.84    6.77   0
   8  -8 -11   44.73    7.05   0
   5  -3  -7  322.67    8.84   0
   6  -4   7  230.87    8.26   0
   6  -4  -8  612.96   10.85   0
   7  -5  -6  312.31    8.77   0
   7  -5   6  405.09   10.19   0
   8  -7  -9  148.35    8.15   0
   4  -3 -14  575.24   10.86   0
   4  -2  -6  698.05   11.25   0
   5  -4 -15  129.66    7.29   0
   5  -3   8 1580.47   18.93   0
   7  -7 -16  161.40    8.13   0
   4  -2   6  726.62   13.35   0
   6  -6 -18   84.72    7.56   0
   9  -8  -1   68.76    6.70   0
   9  -8   2  108.96    7.35   0
   6  -7 -20  124.85    7.75   0
   8  -6  -4  309.24    9.74   0
   3  -2 -13  430.16    9.73   0
   5  -3 -10  503.68   10.16   0
   7  -5  -9  123.97    6.85   0
   4  -4 -19   87.46    6.60   0
   8  -7 -12  130.27    7.81   0
   8  -6   5  136.94    7.61   0
   6  -5 -16  288.62    9.07   0
   6  -4 -11  284.00    8.40   0
   9  -8  -7   60.22    6.89   0
   4  -2  -9  947.13   12.83   0
   3  -1  -2 2953.39   23.88   0
   5  -5 -20  140.01    7.70   0
   7  -5 -12  319.15    9.37   0
   9  -7  -2  129.47    8.04   0
   8  -6 -10  141.03    8.45   0
   9  -7   1   50.33    6.90   0
   3  -1  -5 1966.02   19.14   0
   7  -7 -19   18.28    6.17   0
   9  -7  -5   94.06    7.35   0
   6  -3  -3  383.85    9.02   0
   7  -6 -17  101.29    7.60   0
   7  -4  -4  449.62   10.15   0
   9  -7   4  135.96    8.36   0
   2  -2 -17  222.15    8.18   0
   4  -3 -17  388.63    9.63   0
   5  -4 -18  344.01    9.50   0
   7  -4   2  527.07   10.51   0
   6  -3  -6  623.41   11.32   0
   6  -3   3  400.89    9.65   0
   6  -6 -21   88.48    6.72   0
   7  -4  -7  281.97    8.89   0
   8  -5   1  172.33    8.51   0
   5  -2  -2  627.69   11.16   0
   8  -6 -13  137.07    7.92   0
   8  -5  -5  151.20    8.05   0
   6  -5 -19   81.38    7.26   0
   7  -4   5  320.25    9.38   0
   3  -2 -16  951.35   13.74   0
   3  -1  -8 1895.27   18.17   0
   5  -2  -5  627.22   10.71   0
   8  -5   4  349.19   10.22   0
   6  -3  -9  338.20    8.66   0
   8  -5  -8  293.36    9.52   0
   9  -7 -11   19.36    6.48   0
   6  -3   6  642.83   12.05   0
   7  -4 -10  333.75    8.83   0
   9  -6  -3   42.39    6.84   0
   9  -6   0  223.52    8.56   0
   5  -3 -16  535.46   10.76   0
   5  -2  -8 1599.10   16.32   0
   5  -2   4 2077.85   20.07   0
   6  -4 -17  120.48    7.68   0
   9  -6  -6  118.63    7.44   0
   7  -6 -20  117.13    7.82   0
   8  -5 -11   91.59    7.51   0
   9  -6   3  119.58    7.79   0
   6  -3 -12  463.18   10.14   0
   4  -2 -15  163.88    7.17   0
   7  -4 -13  104.29    7.25   0
   9  -6  -9  119.30    8.01   0
   5  -4 -21  145.50    7.68   0
   7  -5 -18   96.23    7.29   0
   4  -3 -20  320.28    9.03   0
   4  -1  -4 2559.91   20.71   0
   4  -1  -1  809.60   12.58   0
   5  -2 -11  236.66    8.08   0
   8  -5 -14  100.96    7.84   0
   4  -1  -7  640.31   11.08   0
   6  -5 -22   97.53    7.13   0
   9  -6 -12  104.38    7.68   0
   4  -1   2 1186.33   15.41   0
   5  -2   7  350.71    9.63   0
   7  -3  -5  313.72    8.63   0
   8  -4  -6  189.67    8.34   0
   8  -4   0  415.17   10.29   0
   7  -3   1  184.77    8.12   0
   2  -1 -15  484.79   10.59   0
   5  -3 -19   68.76    6.35   0
   7  -3  -8  354.31    9.46   0
   3  -2 -19  237.80    8.19   0
   6  -4 -20  160.20    8.06   0
   6  -2  -4  712.31   11.71   0
   8  -4  -9  142.04    8.00   0
   8  -4   3  146.01    7.81   0
   9  -5  -1  115.92    7.74   0
   9  -5  -7   55.10    6.99   0
   4  -1 -10  774.19   11.57   0
   3  -9  -3  113.84    7.70   0
   4  -5   0 1276.77   14.91   0
   5  -8   4  338.08    9.34   0
   4  -6  -2  750.71   12.25   0
   5  -9   5   93.65    8.14   0
   2  -5  -8 1489.37   16.90   0
   3  -6  -6  605.06   10.90   0
   5  -7   3  113.33    6.87   0
   5  -6   5  389.73    9.35   0
   3  -3   0 2452.21   21.12   0
   5  -5  13  177.26    7.80   0
   5  -5  10  575.18   11.45   0
   4  -9  -2   89.85    7.66   0
   4  -4   2 1393.46   15.49   0
   5  -8   1  163.56    7.74   0
   2  -7  -9  288.01    9.38   0
   5  -5   7  554.13   11.03   0
   4  -3  10  807.45   13.60   0
   4  -3  13  501.77   11.59   0
   3  -8  -7  103.48    7.87   0
   5  -7   0  504.64   10.95   0
   6  -8  11   73.30    7.33   0
   5 -10   3   56.44    7.72   0
   6  -9  12  137.15    7.87   0
   6  -8  14  110.09    8.02   0
   3  -9  -6  111.96    8.17   0
   3  -7  -8  332.70    9.66   0
   2  -6 -10  515.69   11.12   0
   3  -4  -5 1011.28   13.77   0
   4  -5  -3  325.57    8.94   0
   5  -5   4  854.74   12.77   0
   6  -8  17   72.15    7.09   0
   6  -7  10  191.95    8.88   0
   6  -7  13  203.73    8.64   0
   4  -6  -5  276.41    8.64   0
   4  -3   7  636.46   11.49   0
   5  -9  -1  107.78    7.90   0
   5  -8  -2  194.28    7.97   0
   6  -8   5  138.47    8.41   0
   6  -7  16  184.08    8.38   0
   4  -9  -5  104.74    7.96   0
   4  -8  -6  184.96    8.57   0
   4  -4  -1 1273.71   14.71   0
   3  -6  -9  338.64    9.34   0
   5  -7  -3  353.40    9.56   0
   6  -9   3  116.63    7.67   0
   6  -7   4  528.78   11.10   0
   2  -4  -9  906.47   13.62   0
   4  -7  -7  276.11    9.09   0
   6  -8   2  182.34    8.72   0
   6  -6   9  280.99    9.15   0
   6  -6  12  401.49   10.24   0
   3  -3  -3 1905.43   18.48   0
   5  -5   1  274.06    7.97   0
   5  -4   9  321.11    9.07   0
   5  -4  12  778.47   13.35   0
   6  -6   6  320.08    9.21   0
   5 -10  -3   59.89    7.05   0
   5  -4   6  847.96   13.01   0
   6  -9   0  205.80    8.59   0
   6  -7   1  279.06    9.08   0
   2  -5 -11  219.95    8.01   0
   3  -8 -10  159.91    8.01   0
   6 -10   1   50.02    6.72   0
   4  -5  -6  962.67   12.95   0
   6  -8  -1  167.01    7.80   0
   4  -6  -8  607.77   11.32   0
   5  -6  -4  673.80   11.34   0
   6  -6   3  197.04    8.16   0
   7  -9  10   82.98    7.73   0
   4  -9  -8  238.92    9.36   0
   7  -8   9   84.31    7.85   0
   7  -8  12  179.50    8.56   0
   3  -7 -11  124.63    7.36   0
   4  -8  -9  139.80    8.17   0
   5  -7  -6  322.15    9.52   0
   5  -5  -2 1003.65   13.52   0
   4  -4  -4 1323.65   14.95   0
   4  -3   1  783.83   12.11   0
   6  -9  -3   49.90    7.25   0
   6  -5  11  160.31    8.25   0
   7  -9   4  145.26    8.50   0
   6  -7  -2  221.10    8.01   0
   6  -5   8  536.86   11.09   0
   5  -9  -7   56.93    7.43   0
   6  -6   0  736.90   12.32   0
   7  -8   3  137.88    8.24   0
   7  -7   8  390.56   10.40   0
   7  -7  11   78.79    7.28   0
   5  -8  -8  303.81    9.70   0
   7  -9   1   41.49    7.44   0
   7  -7   5  182.38    7.64   0
   3  -6 -12  470.01   10.68   0
   3  -3  -6 1849.08   18.31   0
   5  -4   0 1259.06   14.87   0
   3  -2  -1  646.18   11.68   0
   5  -6  -7  299.20    8.46   0
   5  -5  -5  610.76   11.14   0
   7  -8   0  292.73    9.19   0
   6  -7  -5  180.47    7.67   0
   7  -7   2  135.80    8.22   0
   1  -3 -11  392.68   10.32   0
   4  -3  -2 1187.23   14.44   0
   6  -6  -3  289.78    8.43   0
   7  -9  -2  138.60    8.20   0
   7  -6  10  183.21    8.32   0
   4  -6 -11  263.75    8.16   0
   2  -4 -12 1564.12   18.07   0
   4  -4  -7  259.82    7.81   0
   5  -9 -10   71.98    8.22   0
   7  -8  -3   72.61    8.00   0
   4  -2   9  907.57   15.54   0
   5  -3   8 1635.59   18.56   0
   6  -5  -1  278.65    8.80   0
   7  -7  -1  172.53    7.71   0
   7  -6   4  523.03   11.28   0
   5  -4  -3  317.36    8.30   0
   4  -2   6  707.07   12.96   0
   5  -8 -11   81.20    7.67   0
   8  -8   7   90.54    7.30   0
   8  -8  10   79.93    7.34   0
   5  -3   5  661.38   11.49   0
   7  -9  -5  117.61    7.75   0
   8  -9   2  126.68    7.92   0
   3  -4 -11  300.91    8.57   0
   4  -7 -13  104.54    7.39   0
   6  -9  -9  128.55    8.17   0
   6  -7  -8  488.78   11.01   0
   6  -4   7  223.56    8.31   0
   6  -4  10  547.19   11.57   0
   8  -8   4  184.38    8.55   0
   3  -5 -13  507.63   10.82   0
   7  -6   1  262.08    8.32   0
   5  -5  -8  574.75   10.43   0
   6  -4   4  753.32   12.40   0
   7  -7  -4  470.49   10.70   0
   4  -3  -5 1004.60   13.23   0
   4  -2   3  757.50   12.79   0
   7  -8  -6  143.57    8.51   0
   8  -9  -1   67.47    7.46   0
   8  -8   1   74.32    7.42   0
   3  -2  -4 3143.39   23.99   0
   5  -7 -12  336.23   10.07   0
   6  -8 -10  135.41    7.70   0
   6  -5  -4  666.33   11.72   0
   8  -7   9   79.13    6.87   0
   8  -7   6  132.41    7.77   0
   4  -5 -12  522.49   10.71   0
   7  -6  -2  196.12    7.89   0
   7  -5   9  302.63    9.85   0
   5  -4  -6 1009.58   13.60   0
   7  -5   6  397.12   10.26   0
   8  -7   3  130.07    7.97   0
   8  -8  -2  134.54    8.46   0
   4  -6 -14  320.41    9.29   0
   6  -6  -9  223.26    8.54   0
   7  -5   3  121.13    6.70   0
   8  -9  -4   92.43    7.20   0
   5  -3  -1  685.76   11.25   0
   6  -7 -11  102.27    7.93   0
   7  -7  -7  102.64    8.16   0
   8  -7   0  280.73    9.29   0
   4  -2   0 3892.30   26.32   0
   5  -8 -14   97.92    7.64   0
   6  -9 -12  109.57    7.45   0
   7  -8  -9  141.73    7.77   0
   7  -6  -5  168.12    8.27   0
   6  -5  -7  336.58    8.77   0
   6  -4  -2  765.63   12.12   0
   5  -6 -13  166.69    8.05   0
   8  -8  -5  105.30    7.86   0
   8  -6   5  139.11    7.79   0
   8  -6   8  254.55    9.23   0
   4  -3  -8 1902.34   17.96   0
   6  -8 -13  121.74    7.92   0
   7  -9 -11   29.81    6.97   0
   9  -8   5   54.90    6.79   0
   8  -6   2  165.19    7.59   0
   5  -7 -15  121.94    7.73   0
   5  -4  -9  593.77   10.62   0
   5  -3  -4 1945.67   17.67   0
   9  -8   2  117.89    7.67   0
   2  -4 -15  158.30    7.34   0
   3  -2  -7 1477.21   16.36   0
   7  -7 -10  115.80    7.85   0
   2  -3 -13  449.04   10.38   0
   4  -2  -3  741.84   11.76   0
   6  -4  -5  281.25    8.79   0
   7  -6  -8  490.43   10.98   0
   3  -5 -16  508.08   11.28   0
   8  -8  -8  133.25    8.35   0
   4  -5 -15  133.21    7.20   0
   7  -8 -12  140.45    7.91   0
   8  -7  -6  148.13    8.27   0
   3  -3 -12 1349.21   15.83   0
   4  -4 -13  588.33   11.09   0
   6  -7 -14   96.95    7.45   0
   6  -5 -10  404.14    9.86   0
   6  -3   6  641.33   12.03   0
   9  -7   7   74.70    7.60   0
   6  -3   3  378.73    9.60   0
   7  -4   5  313.69    8.82   0
   7  -4   8  350.34   10.05   0
   7  -5  -6  333.73    9.50   0
   4  -6 -17  103.96    7.01   0
   7  -4   2  551.03   10.63   0
   8  -6  -4  324.50    9.03   0
   9  -8  -4   95.06    7.54   0
   9  -7   1   52.46    6.81   0
   5  -5 -14  452.34    9.82   0
   5  -2   7  341.86    9.90   0
   5  -6 -16  262.73    8.99   0
   5  -2   4 2064.43   20.19   0
   8  -5   7  102.16    7.78   0
   4  -3 -11  302.81    8.66   0
   6  -8 -16  110.32    7.66   0
   6  -4  -8  609.78   10.68   0
   8  -7  -9  142.85    8.45   0
   3  -1  -2 2995.90   24.30   0
   4  -2  -6  724.65   11.63   0
   5  -4 -12  528.09   10.60   0
   7  -6 -11  108.02    7.04   0
   8  -8 -11   36.69    6.75   0
   5  -2   1  740.50   12.18   0
   8  -5   1  174.74    7.65   0
   6  -6 -15   92.00    7.56   0
   8  -6  -7   85.95    6.58   0
   9  -8  -7   58.08    6.90   0
   6  -3  -3  371.58    8.81   0
   7  -5  -9  126.21    7.05   0
   3  -2 -10 1241.72   14.82   0
   7  -4  -4  454.03   10.31   0
   9  -7  -5  106.02    7.34   0
   9  -6   3  127.38    7.54   0
   9  -6   6   95.21    6.93   0
   5  -2  -2  601.28   10.63   0
   6  -7 -17  114.26    7.22   0
   9  -6   0  221.30    8.69   0
   5  -3 -10  477.76    9.65   0
   8  -7 -12  136.62    7.91   0
   3  -4 -17  385.51    9.75   0
   4  -4 -16  377.19    9.50   0
   6  -4 -11  283.01    8.35   0
   8  -5  -5  151.95    7.84   0
   4  -5 -18  341.30    9.36   0
   6  -3  -6  628.42   11.24   0
   3  -1  -5 1937.74   18.75   0
   4  -1   5 1024.91   15.70   0
   7  -7 -16  164.58    8.43   0
   7  -4  -7  271.26    9.05   0
   9  -7  -8  107.01    7.73   0
   3  -3 -15  436.29    9.53   0
   4  -2  -9  921.16   12.57   0
   4  -1   2 1216.54   15.96   0
   5  -5 -17  199.40    7.76   0
   5  -4 -15  140.36    7.37   0
   5  -2  -5  632.12   10.67   0
   7  -5 -12  341.28    8.96   0
   4  -3 -14  587.58   10.89   0
   2  -3 -16  956.46   14.70   0
   5  -6 -19   88.35    6.67   0
   6  -5 -16  266.79    8.98   0
   7  -3   4  457.81   10.67   0
   8  -5  -8  293.10    9.67   0
   8  -4   3  154.02    7.93   0
   9  -6  -6  120.49    7.71   0
   6  -6 -18   86.53    7.32   0
   7  -3   1  189.63    7.99   0
   8  -4   0  434.06   10.38   0
   2  -1  -9 1055.98   14.87   0
   6  -3  -9  344.77    8.74   0
   9  -7 -11   28.52    6.70   0
   5  -3 -13  513.92    9.99   0
   6  -4 -14  342.47    9.34   0
   7  -4 -10  332.95    8.85   0
   7  -3  -2  546.92   11.02   0
   8  -6 -13  120.51    7.41   0
   9  -5   2   80.12    7.55   0
   6  -2   2  774.43   12.79   0
   8  -4  -3  143.80    7.58   0
   2  -2 -14  933.20   14.06   0
   5  -2  -8 1540.74   15.68   0
   9  -5  -1  110.32    7.47   0
   3  -1  -8 1967.32   18.63   0
   4  -1  -4 2478.57   20.30   0
   6  -2  -1  528.75   10.66   0
   7  -6 -17  103.96    7.39   0
   9  -6  -9  130.41    7.98   0
   4  -2 -12 1655.68   16.69   0
   7  -5 -15  122.72    8.01   0
   8  -5 -11   86.75    7.86   0
   7  -3  -5  318.53    8.60   0
   9  -5  -4  268.07    9.23   0
   7  -7 -19   27.53    6.64   0
   8  -4  -6  189.65    8.37   0
   4  -4 -19   93.46    6.48   0
   6  -3 -12  519.87   10.55   0
   5  -5 -20  144.24    7.51   0
   5  -4 -18  324.82    8.73   0
   7  -4 -13  105.06    7.56   0
  10  -6  -2   77.63    6.63   0
   4  -3 -17  418.55    9.87   0
   9  -5  -7   48.73    7.18   0
   4  -1  -7  596.91   10.46   0
   5  -2 -11  230.16    8.12   0
   6  -5 -19   96.07    7.12   0
   7  -3  -8  365.70    9.06   0
   9  -6 -12  108.99    7.88   0
   3  -3 -18  422.10    9.96   0
   8  -4  -9  135.14    7.98   0
   5  -1   0 1311.10   15.65   0
   5  -1   3  329.66    9.20   0
   8  -5 -14  120.20    7.72   0
   6  -6 -21   85.91    6.98   0
   3  -1 -11  414.94    9.09   0
   7  -5 -18  109.03    7.50   0
   2  -1 -12 1560.28   17.27   0
   5  -1   6  944.99   15.03   0
   7  -6 -20  130.25    7.90   0
   9  -5 -10   77.99    6.92   0
   3  -2 -16  965.49   13.66   0
   7  -3 -11  129.35    7.53   0
   8  -3  -1  183.50    8.20   0
   8  -3   2  218.68    8.66   0
   9  -4   1  122.03    7.33   0
   6  -3 -15  136.61    7.09   0
   9  -4  -2   88.26    7.11   0
   4  -1 -10  813.51   12.26   0
   7  -4 -16  194.32    7.98   0
   8  -4 -12  250.34    8.31   0
   5  -1  -6  808.05   11.84   0
   6  -2 -10  515.89   10.20   0
   7  -2   0  496.25   10.91   0
   8  -3  -4  371.38    9.29   0
   5  -2 -14  316.15    8.89   0
   7  -2   3  380.99    9.90   0
   8  -6 -19   23.86    6.06   0
   9  -4  -5   94.22    7.28   0
   3   0  -3  493.47   10.43   0
   7  -2  -3  119.44    7.33   0
   8  -5 -17   77.91    7.25   0
   2  -2 -17  228.37    8.29   0
   9  -5 -13  109.85    7.58   0
  10  -5  -3   49.63    6.93   0
   5  -4 -21  147.46    7.61   0
   6  -4 -20  169.26    8.19   0
   2   0  -7  305.21    8.68   0
   4  -3 -20  327.34    9.26   0
   5  -1  -9  342.95    8.79   0
   6  -5 -22   92.15    7.08   0
   7  -3 -14  272.58    8.47   0
   8  -4 -15   63.26    7.52   0
   3   0  -6 2409.32   20.18   0
   6  -2 -13  298.08    8.51   0
   7  -5 -21   47.38    7.03   0
   4  -1 -13  538.98   10.38   0
   6  -1  -2  626.90   11.47   0
   8  -3 -10  151.79    8.18   0
   7  -4 -19   72.93    7.23   0
   7  -2  -9  312.94    9.21   0
   4  -2 -18  282.71    8.54   0
   9  -4 -11   57.31    7.01   0
   4   0   1 1319.78   16.39   0
   6  -1   4  694.45   12.94   0
   2  -1 -15  497.41   10.36   0
   3  -2 -19  237.24    8.20   0
   4   0  -5  359.95    8.90   0
   5  -1 -12  746.82   11.91   0
   8  -5 -20   95.10    6.93   0
   3   0  -9 1201.88   14.39   0
   7  -3 -17  121.08    8.02   0
   6  -1  -8  524.70   10.21   0
   2   0 -10 3181.84   23.37   0
   4   0   4 1437.10   18.28   0
   6  -2 -16  245.58    8.58   0
   7  -2 -12  230.75    8.07   0
   8  -4 -18   76.91    7.24   0
   9  -3  -3  122.99    7.59   0
   9  -4 -14   51.29    6.99   0
   4   0  -8 1320.44   14.98   0
   8  -2  -2  194.58    8.45   0
   8  -2   1  166.71    8.51   0
   9  -3  -6   96.78    7.27   0
   6  -4 -23   59.73    6.90   0
   8  -2  -5  135.83    7.73   0
   5  -3 -22  158.22    7.75   0
   3  -1 -17  475.72   10.02   0
   6  -3 -21  106.73    7.46   0
   6  -1 -11  178.26    7.27   0
   5  -1 -15  240.31    7.79   0
   5   0  -1  291.33    8.60   0
   7  -4 -22   68.15    7.42   0
   3   0 -12  958.48   13.01   0
   4  -3 -23   57.35    6.61   0
   7  -2 -15   60.80    7.25   0
   8  -3 -16  128.09    8.13   0
   5  -2 -20  301.72    9.23   0
   7  -1  -4  516.16   10.88   0
   7  -1  -1  273.08    8.84   0
   4  -2 -21  274.29    8.59   0
   4   0 -11  585.72   10.32   0
   5   0  -7  545.87   10.49   0
   5   0   2 1048.89   14.88   0
   1   0 -11  395.39    9.64   0
   7  -1   2  206.26    8.66   0
   8  -2 -11   68.02    6.69   0
   9  -3 -12  132.79    7.98   0
   6  -1 -14  299.69    8.55   0
  -2   4  -6  663.41   12.67   0
   0   4 -13  583.75   11.25   0
   1   3 -14  582.90   10.89   0
   3   4 -16  201.77    8.23   0
  -1   8  -9  131.39    7.57   0
   0   3 -12 1416.54   16.32   0
   1   4 -15  139.74    7.92   0
  -1   7 -11  102.62    7.50   0
   4   1 -15  236.52    9.15   0
   4   2 -16  248.43    9.30   0
   0   5 -14  463.71   10.51   0
   1   2 -13  492.57   10.28   0
   5   3 -16  127.58    7.87   0
   0   7 -13  150.61    8.27   0
   0   8 -11   38.48    7.03   0
   2   2 -15  166.29    8.08   0
   2   3 -16  526.61   10.95   0
  -1   5 -12  522.50   10.39   0
   1   5 -16  258.13    9.40   0
   2   4 -17  113.29    7.30   0
   2   6 -16  130.41    7.99   0
   3   5 -17   83.96    7.60   0
   4   0 -14  531.21   11.73   0
   0   2 -11 1755.31   18.31   0
  -1   6 -13  170.43    8.09   0
  -1   3 -10 1237.97   15.29   0
   1   7 -15   32.36    6.96   0
   3   3 -18  207.87    8.43   0
   4   4 -18   76.44    7.44   0
   6   1 -16  170.13    8.38   0
   2   5 -18  115.83    8.47   0
   1   6 -17  104.38    7.69   0
  -2   6 -11  261.24    8.45   0
  -1   8 -12  127.45    7.85   0
   5   2 -18  163.65    8.26   0
   6   2 -17   65.69    6.62   0
   3   4 -19   87.90    8.02   0
  -1   7 -14  110.33    7.28   0
   0   4 -16  365.14    9.57   0
   1   3 -17  405.95    9.61   0
   1   4 -18  347.59    9.95   0
   5   0 -16  365.42   10.14   0
  -2   4  -9  918.00   13.81   0
   0   3 -15  473.47   10.26   0
   0   5 -17  205.31    8.31   0
   0   7 -16  178.16    8.30   0
   4   2 -19   67.39    7.31   0
   5   3 -19   25.62    6.95   0
   4   1 -18  237.72    9.08   0
  -1   5 -15  119.93    6.60   0
   1   2 -16 1049.97   14.30   0
   2   3 -19   70.54    6.70   0
   1   5 -19   77.96    6.68   0
   2   2 -18  274.75    9.49   0
   3  -1 -11  437.05   10.87   0
   4  -1 -13  602.45   12.69   0
   2   4 -20  166.44    7.90   0
   3   5 -20   97.07    7.83   0
  -1   6 -16  264.05    9.00   0
  -1   2  -9 1100.38   14.94   0
  -1   3 -13  467.68   10.08   0
  -1   8 -15   20.60    6.44   0
   0   1 -10 1486.62   17.42   0
   0   2 -14  968.98   13.41   0
   3   3 -21   95.19    7.82   0
   4   0 -17  195.74    8.03   0
  -2   5 -13  498.22   10.49   0
   1   6 -20  127.13    7.95   0
   2   1 -17  530.86   11.32   0
   2   5 -21   51.09    7.48   0
   5  -1 -15  230.09    8.79   0
  -2   6 -14  316.53    9.18   0
   6   1 -19   29.15    6.19   0
  -1   7 -17   97.15    7.76   0
   3   1 -19  134.78    8.21   0
   3   4 -22   74.59    6.96   0
   5   1 -20  137.37    7.85   0
   5   2 -21   72.11    7.10   0
   0   4 -19   86.56    7.46   0
   0   7 -19   13.87    6.33   0
  -2   4 -12 1537.62   16.97   0
  -2   7 -15  111.72    7.25   0
   0   5 -20  139.50    8.06   0
   1   3 -20  351.52   10.08   0
   1   4 -21  138.03    7.45   0
   0   3 -18  431.00   10.24   0
   1   0 -11  450.29   10.41   0
   5   0 -19  141.87    8.25   0
  -1   4 -17  382.33    9.15   0
   1   5 -22  103.05    7.66   0
   2   3 -22  160.16    7.94   0
   1   2 -19  260.18    8.96   0
   2   4 -23   66.14    7.81   0
   4   1 -21  123.02    8.28   0
   4   3 -23   30.72    6.95   0
  -1   6 -19   89.96    6.45   0
   2   2 -21  310.32    9.15   0
   4  -1 -16  756.15   13.69   0
  -1   2 -12 1651.68   17.40   0
   3  -1 -14 1164.01   16.12   0
  -2   5 -16  526.83   10.34   0
  -2   6 -17  117.82    7.35   0
  -1   3 -16  938.91   13.02   0
   0   2 -17  229.34    7.75   0
  -1   7 -20  123.07    7.81   0
   0   1 -13 1109.33   14.24   0
   4   0 -20  335.84   10.34   0
  -2   4 -15  172.40    7.14   0
   3   1 -22  214.36    9.31   0
   5  -1 -18  251.61    9.05   0
   0   5 -23   50.38    6.95   0
   1   3 -23   56.48    7.41   0
   1   4 -24  101.09    7.80   0
   5   1 -23   38.56    6.53   0
   0   3 -21  185.26    8.42   0
  -1   4 -20  336.47    9.32   0
   1   0 -14 1229.33   15.05   0
   1   5 -25   39.02    7.01   0
   2  -1 -12 1632.09   18.60   0
   2   3 -25  115.84    7.94   0
   4  -2 -12 1591.37   20.24   0
   4   2 -25   69.02    7.38   0
  -1   6 -22   91.70    7.75   0
   1   2 -22  236.62    8.96   0
   5   0 -22  118.91    8.60   0
  -3   6 -15  135.60    7.20   0
   2   2 -24  212.70    9.23   0
   2   4 -26   56.55    7.31   0
   4   1 -24  137.18    8.46   0
  -1   2 -15  504.38   10.44   0
  -2   5 -19   56.81    6.70   0
  -2   6 -20  158.00    7.91   0
  -1   3 -19  247.77    8.67   0
   3   0 -21  251.82    9.54   0
   0   2 -20  662.64   12.13   0
   3  -1 -17  505.44   11.21   0
   4  -1 -19  142.61    7.86   0
  -3   4 -10  763.33   12.78   0
   3   2 -26   95.38    7.60   0
  -2   7 -21   40.74    6.32   0
   4   0 -23   98.29    8.24   0
   0   4 -25  110.06    8.14   0
   1   1 -21  280.26    8.69   0
   0   5 -26  105.06    7.80   0
   1   3 -26  126.88    8.40   0
   1   4 -27   25.13    6.85   0
   3   1 -25  126.50    7.64   0
  -1   4 -23   51.65    6.21   0
   0   3 -24  214.30    8.35   0
   1   0 -17  863.75   13.19   0
  -3   6 -18  209.15    8.18   0
   2  -1 -15  499.32   10.36   0
  -1   6 -25   50.72    7.01   0
   4  -2 -15  161.09    7.82   0
  -3   7 -19   77.23    6.50   0
  -1   1 -11  432.96    9.81   0
  -1   2 -18  764.74   11.87   0
   1   2 -25  121.36    7.45   0
   2   3 -28   45.80    6.81   0
  -3   4 -13  523.02   10.28   0
  -3   5 -17  320.78    9.04   0
  -2   5 -22  167.64    8.30   0
  -2   6 -23   65.20    7.04   0
  -1   3 -22  257.60    9.05   0
   0   1 -19  224.97    7.78   0
   0   2 -23  198.58    8.83   0
   4   1 -27   40.14    7.16   0
   3   0 -24  155.78    8.95   0
   4  -1 -22  230.78    8.78   0
  -1   1 -14 1208.24   14.49   0
   0   4 -28   41.50    6.64   0
   1   0 -20  635.87   11.93   0
   3  -2 -13  460.40   10.85   0
   4   0 -26  111.28    7.94   0
  -3   4 -16  720.11   12.21   0
  -3   6 -21  102.98    7.09   0
  -1   4 -26  125.15    8.03   0
   0   3 -27   46.64    7.63   0
   2  -1 -18  796.59   13.03   0
  -1   2 -21  281.90    8.89   0
   1   3 -29   65.82    7.10   0
   3   1 -28   91.39    7.95   0
  -3   5 -20  311.45    9.34   0
  -3   7 -22   71.22    6.48   0
  -2   3 -20  370.36    9.77   0
  -2   5 -25  115.45    7.85   0
   0   0 -15  154.48    6.66   0
   4  -2 -18  291.86    9.38   0
  -2   6 -26   64.45    7.12   0
  -1   3 -25  128.57    8.42   0
   1   2 -28  123.72    8.04   0
   0   2 -26  160.32    8.77   0
  -4   5 -12  702.16   12.83   0
  -2   2 -16  571.72   10.74   0
  -1   1 -17  814.71   12.09   0
   2   0 -25  152.41    7.93   0
   3  -1 -23  103.74    7.78   0
  -3   3 -12  921.80   13.48   0
  -3   4 -19  126.45    7.25   0
   3  -2 -16 1025.91   15.07   0
   3   0 -27   55.74    7.93   0
   1   1 -27   79.93    8.06   0
   2  -1 -21  263.03    9.11   0
   4  -1 -25  122.91    8.25   0
  -1   2 -24  256.48    9.46   0
   2   1 -29   63.08    7.47   0
  -3   5 -23   32.96    6.80   0
  -2   3 -23  108.87    7.44   0
  -4   5 -15  226.26    8.15   0
  -3   3 -15  254.49    8.25   0
   0   3 -30   64.11    7.81   0
  -4   6 -19   58.49    6.24   0
   0   1 -25  199.50    9.10   0
   4   0 -29   38.94    7.16   0
  -2   2 -19  194.92    7.37   0
  -2   5 -28   54.50    6.96   0
  -1   1 -20  600.92   10.91   0
  -1   3 -28  121.40    8.31   0
  -3   4 -22  196.71    7.76   0
   0   2 -29   53.68    7.78   0
   1   2 -31   29.71    6.73   0
   3  -2 -19  258.80    8.98   0
  -4   5 -18  237.80    8.47   0
  -3   3 -18  652.51   11.79   0
   0   0 -21  604.98   11.12   0
   2   0 -28   61.89    8.50   0
   3  -1 -26  198.89    9.45   0
   2  -2 -14  979.71   14.50   0
   2  -1 -24  263.41    8.85   0
   3   0 -30  110.63    8.34   0
  -3   5 -26   83.05    7.18   0
  -2   2 -22  539.96   11.20   0
  -2   3 -26  203.68    9.15   0
  -1   2 -27   84.91    6.96   0
  -1   1 -23   92.24    6.88   0
   2   1 -32   47.49    7.33   0
  -4   4 -14  504.38   10.73   0
   0   1 -28  153.68    8.46   0
  -4   5 -21  125.64    7.51   0
  -3   4 -25  129.03    7.18   0
  -2   1 -12 1634.30   17.01   0
  -1   0 -13 1058.92   13.81   0
  -1   0 -10 1434.29   16.62   0
   2  -2 -17  247.52    8.38   0
  -1   3 -31   35.48    7.36   0
  -4   4 -17  185.83    7.94   0
  -2   1 -15  510.90    9.96   0
  -2   1  -9 1086.54   14.74   0
   0   2 -32   70.95    7.73   0
  -2   2 -25  166.19    8.69   0
  -4   6 -25   59.18    7.47   0
  -2   1 -18  769.34   12.46   0
  -1   1 -26  224.04    9.42   0
   0  -1 -14 1282.40   15.44   0
   2  -1 -27   78.48    8.21   0
   2   0 -31   38.02    7.62   0
   3  -1 -29   72.69    8.35   0
  -3   2 -11  388.99    9.40   0
  -3   5 -29   59.34    7.29   0
  -2   3 -29   67.45    8.04   0
  -1   2 -30  107.23    8.38   0
   0  -1 -11  423.39    9.56   0
   2  -2 -20  659.79   12.44   0
  -4   4 -20  336.46    9.68   0
  -1   0 -19  222.97    7.74   0
  -4   5 -24  131.40    8.01   0
   0  -1 -17  828.24   12.57   0
  -3   4 -28   80.92    7.50   0
  -2   1 -21  266.41    8.92   0
   0   0 -27   38.68    7.91   0
   0   1 -31   33.78    7.34   0
   3  -2 -25  121.09    8.10   0
   0  -1 -20  645.51   11.88   0
  -2   2 -28   72.90    8.03   0
   2  -2 -23  207.43    8.85   0
  -4   4 -23  106.30    7.02   0
  -1   1 -29  114.85    8.91   0
  -4   3 -16  702.56   12.31   0
  -4   3 -13  548.71   11.12   0
  -4   5 -27   26.91    6.49   0
  -2   1 -24  253.17    9.13   0
  -2   3 -32   45.09    7.70   0
   1  -2 -15  490.47   10.59   0
   1   0 -32   46.83    8.35   0
   2  -1 -30  101.06    9.20   0
  -3   2 -23  102.13    6.91   0
   0  -1 -23   84.79    6.85   0
   1  -2 -18  759.23   12.66   0
   1  -2 -12 1539.60   17.55   0
   1  -1 -28  151.35    9.34   0
   3  -1 -32   41.79    6.91   0
  -4   3 -19  139.22    7.52   0
  -1   0 -25  208.47    8.43   0
   0   0 -30  120.31    8.88   0
   3  -3 -15  466.43   11.16   0
  -4   3 -10  784.25   13.56   0
   3  -2 -28  126.54    8.58   0
  -4   4 -26   92.19    8.02   0
   2  -2 -26  147.45    8.83   0
   3  -3 -12 1348.36   19.21   0
  -2   2 -31   44.10    7.74   0
   1  -2 -21  285.38    9.25   0
  -4   3 -22  214.25    9.01   0
  -2   1 -27   79.29    8.11   0
  -3   2 -26  183.55    8.99   0
  -1   1 -32   51.75    7.83   0
  -5   5 -22  120.46    7.70   0
   3  -3 -21  198.29    8.43   0
  -2   0 -17  240.49    7.92   0
  -2   0 -14 1018.24   13.87   0
   1  -2 -24  273.44    9.62   0
   1  -1 -31   27.53    8.48   0
   2  -1 -33   33.33    7.52   0
  -4   3 -25  123.02    8.48   0
  -3   1 -16  997.46   13.55   0
  -2   0 -20  683.82   11.75   0
  -1  -1 -15  537.17   10.91   0
  -4   4 -29   43.33    7.40   0
  -3   1 -19  261.13    8.40   0
  -3   1 -13  455.07   10.13   0
  -1  -1 -18  773.60   12.26   0
  -2   0 -11 1743.99   17.90   0
   2  -2 -29   69.28    7.83   0
  -5   4 -15  222.91    8.43   0
  -3   2 -29   68.79    7.93   0
  -2   0 -23  207.81    8.91   0
  -2   1 -30  108.72    8.46   0
  -1  -1 -21  275.38    8.70   0
  -3   1 -22  266.40    8.89   0
  -1  -1 -12 1695.96   17.40   0
  -5   4 -21  117.72    7.64   0
   2  -3 -16 1023.55   15.08   0
  -4   2 -18  306.31    8.80   0
  -4   2 -15  180.77    7.69   0
  -1   0 -31   34.49    7.68   0
   1  -2 -27   82.41    8.04   0
   2  -3 -19  247.27    8.98   0
  -4   3 -28   91.00    7.89   0
  -1  -1 -24  250.66    8.99   0
  -4   2 -21  300.91    8.89   0
  -3   1 -25  143.45    8.96   0
  -2   0 -26  148.61    8.86   0
  -5   4 -24  135.35    7.96   0
   2  -3 -22  261.48    9.43   0
   2  -3 -13  437.92   10.68   0
  -4   2 -12 1636.07   17.86   0
  -4   2 -24  217.66    9.25   0
   0  -2 -13 1101.24   14.46   0
  -3   2 -32   38.79    7.02   0
  -2   0  -8 2777.25   23.39   0
  -1  -1 -27   78.81    8.21   0
  -1  -1  -9 1105.71   14.86   0
   0  -1 -32   52.30    8.79   0
   2  -2 -32   56.04    7.59   0
   2  -3 -25  133.62    9.04   0
  -3   1 -28  139.64    8.20   0
  -2   0 -29   62.39    8.54   0
   0  -2 -25  166.76    8.86   0
  -5   4 -27   37.10    7.20   0
  -5   3 -20  322.22    9.89   0
  -5   3 -17  334.52    9.86   0
  -5   3 -23   27.72    7.29   0
  -5   3 -14  321.75    9.46   0
  -1  -1 -30   94.63    8.28   0
   0  -2 -28   83.49    8.64   0
   1  -3 -20  392.34   10.48   0
   1  -3 -17  508.33   11.17   0
  -4   2  -9  911.41   13.89   0
  -3   0 -21  210.43    9.08   0
  -3   0 -18  446.87   10.13   0
  -3   1 -31   31.13    7.61   0
   2  -3 -28  120.37    8.29   0
  -2  -1 -16 1066.41   14.52   0
   1  -3 -23  108.37    7.67   0
  -5   3 -26   89.23    8.13   0
  -3   0 -24  230.52    9.72   0
  -3   0 -15  458.32    9.93   0
  -2   0 -32   78.25    8.60   0
  -2  -3 -14  338.64    9.51   0
  -1  -5  10  382.36    9.89   0
  -3  -6   0  224.27    9.52   0
  -3  -6   6  107.48    7.65   0
  -1  -5  -5  388.37    9.95   0
  -1  -4  -9  335.43    8.62   0
  -2  -6   1  170.00    8.60   0
  -2  -6   4  350.02   10.09   0
   0  -3  -6 2402.10   20.62   0
  -4  -6  -1   60.89    7.36   0
  -3  -4 -14  290.91    9.96   0
  -3  -6  -3  121.32    8.02   0
  -2  -6  -2  193.94    8.82   0
  -2  -6   7   74.61    7.03   0
   0  -4  10 1087.37   15.75   0
  -4  -5 -11   48.38    7.46   0
  -3  -6   9  114.89    7.76   0
  -2  -4 -13  314.46    9.73   0
   0  -4  -5  366.01    8.66   0
  -4  -4 -15   61.39    8.09   0
   0  -5  -1  276.19    8.61   0
   0  -5   5  621.43   10.92   0
  -3  -6  -6  107.94    8.23   0
  -2  -6  -5  150.10    8.46   0
  -1  -6   5  177.09    8.17   0
  -1  -5  -8  545.49   11.24   0
  -2  -6  10  130.06    7.87   0
  -1  -6  -1  276.06    8.59   0
  -1  -3 -13  539.41   10.95   0
   0  -5   8  575.63   11.24   0
  -1  -6   8  485.20   10.86   0
   0  -5  -4  858.68   12.85   0
  -3  -5 -13  124.73    8.73   0
  -2  -5 -12  243.58    9.58   0
  -1  -4 -12  735.77   11.90   0
   0  -4  -8 1350.85   15.46   0
  -3  -6  -9   63.18    7.86   0
  -2  -6  -8  277.50    9.30   0
  -4  -5 -14   51.89    7.44   0
  -1  -2 -14 1115.82   15.74   0
  -3  -4 -17  124.62    8.09   0
  -2  -3 -17  330.57    9.94   0
  -1  -6  -7  108.37    7.99   0
   0  -6   0  732.91   12.39   0
   0  -6   3  309.69    9.36   0
   0  -5  -7  580.08   10.97   0
  -2  -7   2  145.43    8.27   0
  -1  -6  11  102.80    7.24   0
   0  -5  11  180.07    8.04   0
  -2  -7  -1   53.32    7.05   0
  -2  -7   5  120.73    7.83   0
  -2  -4 -16  264.08    9.31   0
   0  -6   6  281.75    9.02   0
   0  -6  -3  195.96    7.79   0
   1  -4   2 1175.98   14.97   0
  -2  -7  -4  154.90    8.59   0
   1  -3   1  618.28   11.84   0
  -3  -6 -12  147.99    8.45   0
  -2  -7   8  103.28    7.60   0
  -1  -7   3   74.74    7.12   0
   1  -4  -1  807.81   12.15   0
  -3  -5 -16  134.22    8.84   0
  -2  -5 -15   65.00    7.29   0
   1  -4   5  965.47   13.81   0
  -1  -7  -3  135.66    7.63   0
  -1  -7   6  136.31    8.20   0
  -1  -6 -10  190.05    7.87   0
   0  -6  -6  321.25    9.61   0
   0  -6   9  204.65    8.09   0
   1  -3  -2 2939.99   23.86   0
  -1  -4 -15  216.18    8.53   0
   0  -5 -10  530.87   10.79   0
  -2  -7  -7   86.94    7.66   0
   1  -4  -4 2468.37   20.25   0
  -1  -7  -6  131.91    8.68   0
  -1  -5 -14  323.38    9.80   0
  -1  -3 -16  723.67   12.73   0
   0  -3 -12  918.80   13.51   0
   1  -5  -3  765.10   11.98   0
  -1  -7   9  139.55    8.11   0
   1  -5   6 1007.18   14.12   0
  -2  -6 -14  100.33    8.04   0
   0  -7  -2  130.85    7.32   0
   0  -7   4  479.89   10.55   0
   0  -6  -9  306.43    9.24   0
   1  -4   8 1785.33   19.68   0
   1  -3  -5 1933.16   19.01   0
  -2  -7 -10   94.62    7.43   0
  -1  -6 -13  194.49    9.17   0
   1  -6  -2  634.83   11.43   0
   1  -6   4  684.28   11.93   0
   1  -5  -6  834.84   12.59   0
  -1  -7  -9   86.55    8.12   0
   0  -7  -5  185.76    8.02   0
   0  -7   7   86.83    7.44   0
   0  -5 -13  179.52    7.86   0
   1  -5   9  593.77   11.55   0
  -2  -5 -18  176.39    8.95   0
  -1  -8   1   63.86    7.19   0
   1  -6  -5  376.31    9.15   0
   1  -6   7  326.55    9.18   0
  -1  -8  -2  120.24    8.22   0
  -1  -8   4   95.00    7.19   0
   0  -7  -8  407.77   11.02   0
  -1  -8  -5   75.71    7.60   0
   1  -5  -9  330.52    9.07   0
  -1  -5 -17  172.21    8.43   0
  -1  -4 -18  254.71    8.79   0
   1  -7  -1  274.21    8.53   0
   1  -7   2  198.67    7.76   0
  -2  -6 -17   77.76    7.81   0
   0  -8   2  137.32    8.29   0
   0  -2 -13 1073.10   15.60   0
   1  -6  -8  522.95   10.43   0
   1  -3  -8 1883.83   18.48   0
   1  -7  -4  509.18   10.52   0
   1  -7   5  176.94    8.00   0
  -1  -6 -16  204.01    9.13   0
   0  -8  -4  179.44    8.83   0
   0  -8   5  109.63    7.85   0
   1  -4  11  271.84    9.19   0
   0  -7 -11   75.42    7.87   0
   0  -3 -15  257.52    8.31   0
   1  -6  10  375.89    9.88   0
   1  -7  -7   98.23    7.09   0
   0  -8  -7   77.70    7.47   0
   0  -5 -16  369.35    9.78   0
   1  -7   8  468.28   10.76   0
   0  -8   8  114.99    7.69   0
   0  -6 -15   92.78    7.80   0
   1  -6 -11  176.66    7.47   0
  -1  -7 -15   55.05    7.89   0
   2  -5  -2  629.06   11.16   0
   2  -5   1  684.53   11.29   0
   1  -8  -3  142.58    8.26   0
   1  -8   3   68.89    7.47   0
   2  -6  -1  514.93   10.18   0
   0  -4 -17  200.13    8.04   0
   1  -7 -10  182.70    8.47   0
   2  -6  -4  748.30   12.24   0
   2  -5   4 1996.09   19.07   0
   0  -8 -10   91.05    8.01   0
   0  -7 -14   83.66    7.86   0
   1  -3 -11  395.61    9.51   0
   2  -5  -5  654.20   11.29   0
   1  -4 -13  557.37   10.84   0
   2  -6   5  286.44    8.80   0
   2  -4   0 3955.96   26.52   0
  -1  -6 -19   38.31    7.69   0
   2  -7  -3  114.88    6.83   0
   2  -7   3  364.05    9.60   0
   2  -6  -7  231.44    8.46   0
   2  -4  -3  758.66   11.90   0
   1  -8  -9   86.76    7.84   0
   1  -6 -14  314.93    8.95   0
   2  -7  -6  386.12   10.24   0
   2  -5  -8 1616.64   16.37   0
   1  -5 -15  220.66    7.80   0
   2  -7   6  306.34    9.34   0
   2  -4  -6  699.10   11.39   0
   0  -6 -18  143.93    8.22   0
   2  -6   8  608.83   11.70   0
   0  -5 -19  135.42    7.79   0
   1  -9   1   63.84    7.06   0
   2  -8  -2  182.14    7.82   0
   2  -8   1  171.11    8.68   0
   2  -6 -10  524.57   10.97   0
   0  -7 -17  103.47    7.79   0
   2  -8  -5  143.82    8.53   0
   2  -7  -9  306.40    9.66   0
   0  -2 -16  536.64   11.85   0
   1  -9   4   94.47    7.19   0
   1  -8 -12  171.53    8.78   0
   2  -8   4  330.00    9.56   0
   2  -4   6  678.79   12.19   0
   2  -5 -11  241.88    8.30   0
   1  -4 -16  701.64   12.23   0
   2  -8  -8  286.67    9.93   0
   2  -4  -9  955.50   13.07   0
   1  -6 -17  157.65    8.30   0
   1  -3 -14 1110.32   14.64   0
   2  -7   9  109.83    6.94   0
   1  -7 -16  185.16    8.93   0
   2  -8   7   82.26    6.99   0
   2  -7 -12  259.26    9.21   0
   2  -3  -1  626.06   11.62   0
   2  -9  -1   44.52    7.08   0
   2  -3  -4 3254.72   24.68   0
   2  -9  -4  165.96    8.43   0
   2  -5  10  470.51   10.98   0
   1  -8 -15   49.93    7.11   0
   2  -8 -11   82.68    7.69   0
   3  -7  -2  515.60   10.84   0
   3  -6   0  904.31   13.22   0
   1  -5 -18  239.39    8.75   0
   2  -9  -7   85.43    7.91   0
   3  -6  -3  388.72    9.14   0
   3  -7  -5  324.83    8.95   0
   2  -9   5  121.15    7.39   0
   2  -5 -14  332.23    9.25   0
   3  -6  -6  629.62   11.04   0
   3  -6   3  393.58    9.67   0
   2  -4 -12 1520.58   16.27   0
   2  -3  -7 1499.17   16.61   0
   3  -8  -4  345.89    9.85   0
   3  -7   4  456.90   10.45   0
   2  -7 -15   62.08    7.20   0
   2  -4   9  892.29   15.13   0
   3  -8   2  209.37    8.89   0
   3  -7  -8  358.29    9.92   0
   3  -5  -1  710.58   11.42   0
   1  -2 -12 1573.39   18.57   0
   2  -9 -10   93.85    7.92   0
   3  -8  -7  108.38    8.11   0
   3  -5  -4 1990.96   18.05   0
   3  -6  -9  343.79    9.34   0
   1  -7 -19   32.64    6.70   0
   2  -6 -16  248.03    8.23   0
   1  -6 -20  138.58    8.09   0
   3  -9  -3  106.59    8.14   0
   3  -8   5  154.09    7.98   0
   3  -6   6  613.51   11.67   0
   3  -5  -7  337.35    8.48   0
   3  -9   0  229.23    9.09   0
   3  -7 -11  136.53    7.69   0
   3  -7   7  284.21    8.92   0
   1  -4 -19  121.83    7.09   0
   3  -9  -6   98.85    7.78   0
   1  -3 -17  475.82   10.69   0
   3  -9   3   52.61    6.58   0
   3  -5   5  656.15   11.83   0
   3  -9  -9   65.47    7.48   0
   3  -6 -12  509.05   10.31   0
   3  -5 -10  512.25   10.46   0
   2  -5 -17  311.14    9.31   0
   2  -4 -15  158.84    7.29   0
   2  -8 -17   83.24    7.68   0
   2  -7 -18  169.68    8.22   0
   3  -8   8  286.34    9.08   0
   3  -9   6  109.67    7.61   0
   3  -8 -13  114.89    7.81   0
   3  -4  -2 1183.37   14.57   0
   3  -4  -5 1029.47   13.44   0
   2  -6 -19   63.41    7.03   0
   3  -9 -12  145.78    8.10   0
   3  -6   9  340.17    9.44   0
   3  -4   1  802.26   12.46   0
   4  -8   0  400.46   10.45   0
   4  -7  -4  437.16    9.81   0
   4  -7  -1  182.02    7.42   0
   4  -8  -6  193.67    7.97   0
   3  -6 -15  141.13    7.86   0
   3  -4  -8 1877.93   17.67   0
   4  -7  -7  284.01    8.68   0
   4  -7   2  540.16   11.11   0
   1  -2 -15  510.22   11.50   0
   2  -3 -13  433.93    9.55   0
   4  -9  -5  101.39    7.81   0
   4  -8   3  157.76    8.23   0
   3  -8 -16  137.47    8.19   0
   3  -5   8 1539.05   18.23   0
   4  -9   1  120.26    7.68   0
   4  -8  -9  151.98    8.62   0
   4  -6  -5  284.62    8.93   0
   4  -6  -2  737.35   11.80   0
   3  -4   4 2553.20   22.46   0
   3  -7 -17  122.84    7.88   0
   4  -9  -8  240.52    9.07   0
   4  -7 -10  345.68    9.14   0
   4  -7   5  308.53    9.25   0
   4  -6  -8  614.77   10.95   0
   2  -7 -21   73.37    6.96   0
   2  -5 -20  323.78    9.89   0
   4  -9   4  269.50    9.03   0
   2  -4 -18  277.02    8.78   0
   4 -10  -1   51.62    6.51   0
   4  -8 -12  245.87    8.80   0
   4  -8   6  183.97    8.01   0
   4  -9 -11   57.05    6.95   0
   4  -6   4  743.73   12.42   0
   4  -7 -13  123.66    8.04   0
   3  -6 -18  216.58    8.46   0
   3  -5 -16  508.41   10.37   0
   4  -6 -11  300.50    8.50   0
   4  -5  -3  316.52    8.35   0
   3  -8 -19   36.91    6.55   0
   4  -5  -6  965.06   13.01   0
   4  -5   0 1250.41   15.18   0
   4  -9 -14   41.46    7.17   0
   2  -3 -16  987.80   14.46   0
   4  -7   8  336.32    9.58   0
   3  -7 -20  101.62    7.35   0
   3  -4 -14  559.66   10.89   0
   3  -4   7  624.52   12.35   0
   4  -5  -9  637.15   10.89   0
   3  -3  -3 1969.21   18.85   0
   5  -9  -4  253.94    9.63   0
   5  -9  -1  118.59    8.17   0
   3  -3  -6 1913.22   18.31   0
   4  -7 -16  195.04    8.64   0
   4  -6   7  227.83    8.04   0
   4  -5   3  749.08   12.34   0
   5  -9  -7   54.07    7.11   0
   3  -3   0 2530.28   21.98   0
   5  -8   1  182.96    7.59   0
   5  -7  -3  348.52    9.89   0
   5 -10  -3   46.92    7.06   0
   5  -9   2   89.84    7.46   0
   5  -7  -6  335.94    8.98   0
   5  -9 -10   72.08    7.80   0
   3  -5 -19   71.95    6.53   0
   3  -3  -9  462.79    9.97   0
   5 -10   0  140.39    7.76   0
   5  -8 -11   86.34    8.03   0
   5  -7  -9  125.64    7.64   0
   3  -6 -21   94.94    8.16   0
   4  -8 -18   78.45    7.78   0
   5  -8   4  343.36    9.79   0
   5  -7   3  108.77    7.31   0
   4  -6 -17  128.54    7.71   0
   5 -10   3   50.04    6.27   0
   5  -9 -13   90.32    7.20   0
   5  -9   5   86.48    7.15   0
   5  -6  -4  695.18   11.48   0
   3  -4 -17  385.58    9.80   0
   4  -7 -19   91.51    7.79   0
   4  -5   6  814.61   13.16   0
   4  -4  -4 1344.12   15.05   0
   5  -8 -14  108.91    7.99   0
   5  -6  -7  313.72    8.66   0
   5  -6  -1  278.14    8.89   0
   4  -4  -7  275.22    8.38   0
   4  -4  -1 1299.15   15.31   0
   3  -3 -12 1321.63   15.67   0
   4  -5 -15  131.46    7.27   0
   5  -6 -10  395.37    9.99   0
   5  -8   7   92.95    6.88   0
   5  -6   2  606.43   10.93   0
   4  -4 -10 1088.66   13.70   0
   5  -7   6  379.44    9.88   0
   6  -9  -6  110.68    7.83   0
   2  -2 -14  907.54   14.15   0
   5  -8 -17   73.70    7.81   0
   6  -9  -9  137.64    7.98   0
   6  -9   0  211.04    8.62   0
   6  -8  -7   70.14    7.59   0
   6  -8  -4  324.45    9.09   0
   3  -4  10  741.47   14.54   0
   4  -6 -20  161.13    8.10   0
   5  -5  -5  605.29   11.00   0
   4  -4 -13  609.26   10.98   0
   5  -6   5  384.96    9.14   0
   5  -5  -2 1020.87   13.73   0
   6  -8 -10  146.46    7.95   0
   3  -3 -15  447.16   10.07   0
   4  -7 -22   70.05    7.61   0
   4  -5 -18  339.09    9.40   0
   5  -5  -8  569.91   10.54   0
   6  -9 -12  119.91    7.94   0
   6  -9   3  126.38    7.85   0
   6  -8   2  176.18    8.44   0
   6  -7  -5  165.91    8.37   0
   3  -4 -20  323.56    9.65   0
   6  -7  -2  198.66    8.31   0
   3  -3   6 2379.88   23.42   0
   4  -5   9  321.48    9.23   0
   5  -7 -18  103.35    7.59   0
   6  -7  -8  454.22   10.10   0
   5  -6 -16  272.13    9.03   0
   6  -8 -13  131.89    7.94   0
   4  -4   5  356.49    8.95   0
   6  -7   1  259.84    8.83   0
   5  -8 -20   82.70    6.77   0
   6  -7 -11   97.90    6.89   0
   6  -8   5  132.29    7.70   0
   4  -4 -16  358.85    8.93   0
   5  -6   8  507.75   11.16   0
   5  -5 -14  468.48   10.20   0
   6  -6  -6  269.37    8.70   0
   3  -2  -7 1486.69   16.73   0
   3  -2  -4 3165.99   24.12   0
   4  -3  -5 1024.48   13.29   0
   5  -5   4  842.85   12.59   0
   6  -7   4  519.23   10.98   0
   4  -3  -8 1907.19   17.90   0
   6  -6  -9  195.05    7.78   0
   7  -9  -5  107.99    7.55   0
   4  -5 -21  145.16    7.40   0
   4  -3  -2 1212.09   14.52   0
   5  -7 -21   46.79    6.34   0
   5  -6 -19   96.05    6.89   0
   7  -9  -8  107.56    7.45   0
   7  -9  -2  127.07    7.83   0
   3  -2  -1  637.68   11.61   0
   6  -6 -12  447.08   10.32   0
   7  -9 -11   27.00    7.19   0
   5  -4  -6  977.87   12.87   0
   7  -8  -3   69.17    6.66   0
  -5   4 -15  235.35    9.42   0
  -4   7 -23   23.88    7.20   0
   0   2 -17  234.76    8.78   0
  -6   4 -10  504.48   11.45   0
  -6   6 -18  126.68    8.66   0
  -7   5  -9  296.84    9.58   0
  -4   5 -21  109.45    7.98   0
   0   1 -13 1001.59   15.60   0
  -5   5 -19  138.71    8.29   0
  -2   1  -9 1134.54   15.73   0
  -8   7 -12  165.99    8.52   0
  -3   6 -24   87.51    8.02   0
  -3   5 -23   30.16    6.67   0
  -8   6  -8  240.66    9.21   0
  -4   3 -16  733.44   12.70   0
  -3   2 -14 1181.80   15.33   0
  -7   6 -16  155.05    8.94   0
  -6   5 -17  156.83    9.23   0
  -4   4 -20  339.60   10.29   0
  -1   2 -18  775.79   13.68   0
  -1   4 -23   49.23    7.31   0
  -7   5 -12  219.24    9.38   0
   0   3 -21  187.58    8.68   0
  -6   4 -13  293.63    9.16   0
  -6   7 -22   68.64    7.78   0
  -5   4 -18  253.40   10.04   0
  -5   6 -23   49.19    7.65   0
  -8   7 -15   45.98    6.91   0
  -1   1 -14 1239.55   16.42   0
  -8   6 -11   63.52    7.01   0
  -6   6 -21   84.47    7.85   0
  -4   6 -25   49.97    7.97   0
  -2   5 -25   98.03    8.41   0
  -1   3 -22  241.89    9.79   0
  -7   7 -20   85.97    8.18   0
  -5   3 -14  333.11    9.71   0
  -4   2 -12 1603.41   17.76   0
  -2   1 -12 1708.91   18.45   0
  -2   6 -26   62.75    7.94   0
  -5   5 -22  121.80    8.48   0
  -4   5 -24  138.69    8.83   0
  -3   1  -7 1457.87   17.68   0
  -2   4 -24  201.40    9.33   0
   1   1 -15  475.91   11.43   0
  -7   5 -15   46.27    7.90   0
  -6   5 -20  151.03    9.10   0
  -4   3 -19  134.24    8.04   0
  -3   2 -17  526.83   11.17   0
   0   1 -16 1463.05   17.88   0
   0   2 -20  610.97   12.57   0
  -8   6 -14  106.89    7.84   0
  -3   5 -26   80.73    8.26   0
  -3   6 -27   19.94    6.62   0
  -6   3  -9  341.69    9.78   0
  -2   3 -23   96.78    7.58   0
  -5   2  -4 1878.16   20.39   0
  -5   4 -21  121.28    9.45   0
  -3   1 -10 1307.24   15.89   0
  -5   3 -17  359.14   10.39   0
  -4   2 -15  155.14    8.31   0
  -3   4 -25  114.09    8.74   0
  -1   2 -21  268.07    9.64   0
  -6   6 -24   70.30    8.42   0
  -5   2  -7  312.74    9.12   0
  -2   1 -15  553.39   11.13   0
  -7   4 -11  115.87    7.84   0
  -7   5 -18  166.46    9.10   0
  -8   5 -10  156.78    7.88   0
  -6   3 -12  488.41   10.62   0
  -5   5 -25   55.90    8.19   0
  -8   6 -17   66.71    7.32   0
  -7   6 -22   83.51    8.18   0
  -6   4 -19   59.26    7.37   0
  -5   2 -10  493.06   10.40   0
  -6   5 -23   38.63    7.73   0
  -4   3 -22  216.78    9.89   0
  -3   1 -13  479.48   10.20   0
  -2   5 -28   52.64    7.85   0
  -2   4 -27   25.59    7.56   0
  -1   3 -25  114.78    8.20   0
  -7   4 -14  267.03    9.14   0
  -8   5 -13  112.13    7.66   0
  -4   2 -18  298.71    9.33   0
  -6   3 -15  143.61    8.05   0
  -5   3 -20  346.04   10.17   0
  -5   4 -24  148.13    9.43   0
  -1   0 -10 1367.91   17.01   0
   0   1 -19  197.21    8.14   0
  -3   5 -29   49.97    7.68   0
  -2   3 -26  189.89    9.46   0
  -4   1  -8 1828.39   18.96   0
  -4   1  -5  961.47   14.66   0
  -3   1 -16 1070.38   14.94   0
  -7   4 -17  127.15    8.48   0
  -6   4 -22  152.97    9.22   0
  -3   4 -28   88.20    8.35   0
  -1   1 -20  626.52   12.28   0
  -1   2 -24  248.30    9.47   0
  -8   5 -16  137.47    8.16   0
  -1   0 -13 1090.89   15.01   0
  -5   2 -16  539.83   11.16   0
  -4   3 -25  125.24    9.85   0
  -3   2 -23  106.79    8.87   0
  -4   2 -21  312.13   10.38   0
  -2   0  -8 2694.12   23.20   0
  -5   3 -23   41.63    8.07   0
  -3   3 -27   57.26    8.73   0
  -2   0 -11 1735.17   18.29   0
   0   0 -15  147.12    6.66   0
  -4   1 -14  602.91   11.30   0
  -2   1 -21  285.94    9.68   0
  -8   5 -19   29.99    7.38   0
  -7   4 -20   95.97    8.08   0
  -5   4 -27   36.51    8.00   0
  -3   1 -19  278.08    9.09   0
  -2   4 -30   57.25    8.13   0
   0   1 -22  339.91    9.95   0
  -6   4 -25   72.93    8.45   0
  -5   2 -19   68.84    6.95   0
  -1   0 -16 1520.59   16.88   0
  -7   3 -13  109.46    7.48   0
  -6   2  -8  595.56   11.92   0
  -6   3 -21  128.51    8.56   0
  -2   0 -14  999.25   13.89   0
  -6   2 -11  272.24    9.24   0
  -1   1 -23   86.69    7.65   0
  -4   1 -17  428.44   10.23   0
  -2   3 -29   71.66    8.26   0
  -8   4 -15   60.85    7.53   0
  -7   3 -16  195.17    9.28   0
  -6   2 -14  332.11   10.12   0
  -4   3 -28   90.02    8.85   0
  -1   2 -27   63.97    7.97   0
   0   0 -18  505.51   11.02   0
  -5   3 -26   86.84    8.53   0
  -3   1 -22  272.42   10.40   0
  -3   0  -9  454.49    9.97   0
  -5   2 -22  176.65    8.74   0
  -3   0 -12 1430.75   16.58   0
   1   0 -17  749.64   13.41   0
  -6   2 -17  120.52    8.46   0
  -5   1  -9  612.53   11.40   0
  -4   1 -20  384.35   11.11   0
  -3   3 -30  104.04    8.42   0
  -2   2 -28   76.11    8.25   0
  -8   4 -18   76.19    8.27   0
  -6   3 -24  111.35    9.10   0
  -7   3 -19   92.42    7.98   0
  -5   1  -6  950.30   14.44   0
  -3   0 -15  460.56   10.30   0
   0   1 -25  196.31    9.29   0
  -4   2 -27   22.59    8.37   0
  -2   0 -20  672.12   12.64   0
  -1   1 -26  228.83    9.73   0
   0   0 -21  568.49   11.35   0
  -5   2 -25  116.07    9.10   0
  -5   3 -29   66.99    9.08   0
  -3   2 -29   70.12    8.68   0
  -5   1 -18  382.45   10.01   0
  -4   1 -23   68.30    8.41   0
  -1   0 -22  346.82    9.60   0
  -7   3 -22   76.29    7.99   0
  -6   3 -27   22.33    7.67   0
  -2   1 -27   77.05    7.26   0
  -1   2 -30   90.39    8.17   0
  -4   0 -10 1090.50   14.82   0
  -6   2 -23   73.36    8.03   0
  -5   1 -21  178.58    9.56   0
  -2   0 -23  189.55    9.33   0
  -7   2 -12  323.05   10.10   0
  -4   0 -16  411.23   10.53   0
  -1  -1 -12 1648.83   17.51   0
  -7   2 -15  138.31    8.03   0
  -4   0  -7  279.26    8.76   0
  -1  -1  -9 1096.79   15.18   0
  -5   2 -28   82.31    9.20   0
  -4   2 -30   73.74    8.64   0
  -1  -1 -15  509.40   10.40   0
  -8   3 -17   81.76    7.25   0
  -1   0 -25  210.01    9.05   0
  -1   1 -29  108.16    8.51   0
  -7   2 -18  108.97    8.51   0
  -6   1 -13  187.87    8.22   0
   0  -1 -17  760.70   12.84   0
  -6   1 -10  395.06   10.37   0
  -3   2 -32   27.22    8.32   0
  -2  -1 -13  475.90   10.10   0
  -1  -1 -18  778.15   13.04   0
  -6   1 -16  298.94    9.35   0
  -2  -1 -10 1303.86   15.61   0
   1   0 -23   85.44    6.77   0
  -6   2 -26   72.09    8.20   0
  -2  -1 -16 1065.40   14.29   0
  -2   1 -30  110.62    8.67   0
   1  -1 -13  969.92   15.21   0
  -7   2 -21   55.34    7.52   0
  -6   1 -19   99.18    8.12   0
  -6   1  -7  310.99    9.52   0
   1  -1 -16 1448.48   17.80   0
  -4   0 -22  319.65    9.91   0
  -4   0  -4 1315.01   17.26   0
  -2  -1 -19  274.21    9.31   0
   0  -1 -20  623.54   11.99   0
  -2  -1  -7 1436.36   16.85   0
  -5   0 -14  525.37   11.47   0
  -4   1 -29   67.56    9.32   0
  -5   0 -11  201.45    7.73   0
  -3   1 -31   30.36    8.45   0
  -1   0 -28  139.50    8.86   0
   0   0 -27   24.20    6.86   0
  -5   1 -27   40.59    8.28   0
  -3  -1 -17  424.74   10.75   0
  -3  -1 -11  307.59    8.56   0
   1  -1 -19  222.54    8.29   0
  -3   0 -27   58.98    8.29   0
  -2  -1 -22  272.84    9.95   0
  -4   0 -25  123.31    9.23   0
  -5   0 -20  145.68    8.15   0
  -5   0  -8  591.84   11.80   0
  -2   0 -29   52.79    8.33   0
   0  -1 -23   86.84    7.42   0
  -1  -1 -24  247.16    8.83   0
  -5   0 -23   54.90    8.42   0
   1  -1 -22  328.40    9.80   0
  -2  -1 -25  123.68    8.19   0
  -7   1 -17  110.80    8.33   0
  -7   1 -14  107.80    7.93   0
  -4  -1 -18  398.68   10.74   0
  -4  -1 -12  544.22   11.47   0
  -1   0 -31   29.92    8.39   0
  -5   0  -5  588.34   12.39   0
   0  -1 -26  224.78    9.16   0
  -7   1 -20  136.16    8.53   0
  -1  -1 -27   64.97    7.53   0
  -6   0 -15  108.16    8.12   0
  -5   0 -26  113.46    9.51   0
  -4  -1 -21  170.38    9.33   0
  -1  -2 -17  515.10   11.23   0
  -1  -2 -14 1167.87   14.75   0
   2  -1 -15  452.43   11.69   0
  -6   0 -18   97.63    8.11   0
  -4  -1  -9  624.42   11.96   0
  -2   0 -32   71.22    8.14   0
   0  -2 -13 1151.22   15.27   0
  -6   0 -12  458.25   11.35   0
  -1  -2 -20  379.50   10.48   0
  -2  -2 -15  172.54    7.70   0
  -1  -2 -11  416.11    9.55   0
  -6   0 -21   98.12    8.19   0
  -2  -2 -18  308.16    9.23   0
  -4  -1 -24   85.97    8.32   0
  -2  -2 -12 1578.62   17.02   0
  -6   0  -9  219.45    9.11   0
   0  -2 -22  518.26   11.82   0
   0  -2 -10 3185.53   24.83   0
   0  -1 -29  112.85    9.20   0
   1  -2 -18  740.59   13.18   0
   1  -2 -15  473.78   10.80   0
  -6   0 -24   91.74    8.23   0
  -5  -1 -16  278.93   10.42   0
  -1  -1 -30   91.43    9.06   0
  -5  -1 -19   92.48    8.80   0
  -5  -1 -13  159.84    8.39   0
  -4  -1  -6  980.94   14.70   0
  -3  -1 -29   62.00    8.83   0
  -4  -1 -27   34.05    8.63   0
  -3  -2 -19   59.64    8.44   0
  -3  -2 -13  540.81   11.56   0
  -2  -2 -24  221.19   10.18   0
  -2  -2  -9  921.87   13.45   0
  -1  -2  -8 1837.14   18.72   0
   1  -2 -12 1590.98   18.45   0
  -2  -1 -31   41.34    7.99   0
   1  -2 -21  263.04    8.73   0
  -1  -2 -26  204.44   10.05   0
   0  -2 -25  159.97    8.68   0
  -5  -1 -10  389.79   10.57   0
  -3  -2 -22  183.41    8.77   0
  -5  -1 -25   37.84    8.54   0
  -2  -2 -27   18.57    7.97   0
   1  -2 -24  240.19    9.28   0
  -3  -2 -25  128.29    9.67   0
   0  -2  -7  300.63    8.89   0
  -7   0 -19   20.14    6.72   0
  -7   0 -16  162.04    8.96   0
  -4  -2 -20  166.00    8.61   0
  -4  -2 -14  338.28   10.30   0
  -3  -1  -2 1136.09   16.97   0
   0  -2 -28   75.63    7.85   0
  -1  -2 -29   63.29    8.23   0
  -5  -1  -7  300.85    9.65   0
  -4  -2 -23   78.12    9.05   0
   2  -2 -17  236.13    9.05   0
  -6  -1 -17  106.72    8.27   0
  -1  -3 -19  141.31    7.91   0
  -1  -3 -16  718.71   12.45   0
   0  -3 -18  664.22   12.82   0
  -6  -1 -14  113.77    9.17   0
  -4  -2 -11  299.29    9.85   0
  -3  -2 -28   83.52    8.44   0
  -3  -2  -7  334.93    9.56   0
  -1  -2  -5 1830.30   19.60   0
   0  -3 -15  260.07    8.60   0
   1  -2 -27   72.05    7.37   0
  -1  -3 -22  223.68    9.00   0
  -1  -3 -13  563.96   11.09   0
   2  -2 -14  918.12   15.36   0
  -2  -3 -20  335.38   10.18   0
  -4  -2 -26   76.19    9.20   0
  -2  -3 -14  341.90    9.71   0
  -2  -3 -23   44.93    8.33   0
   0  -3 -24  143.31    9.28   0
   0  -3 -12  939.10   13.71   0
   1  -3 -17  488.40   11.26   0
  -6  -1 -11  110.64    8.04   0
  -1  -2 -32   36.92    8.21   0
   0  -2 -31   24.59    7.48   0
   1  -3 -20  361.11    9.80   0
  -5  -2 -18  117.57    8.98   0
  -5  -2 -21   64.59    8.33   0
  -5  -2 -15  145.28    8.84   0
  -4  -2  -8  627.83   12.54   0
  -2  -3 -11  239.85    8.91   0
  -1  -3 -10  770.26   12.60   0
   1  -3 -23   96.20    8.06   0
  -3  -3 -21  115.88    8.50   0
  -3  -3 -15  137.41    9.03   0
  -2  -3 -26   92.18    9.09   0
   0  -3 -27   64.66    8.16   0
  -1  -3 -28   88.78    9.09   0
  -5  -2 -12  346.68   10.79   0
   0  -3  -9 1193.58   15.77   0
   1  -3 -26  208.96    9.58   0
   1  -3 -11  396.06    9.82   0
  -3  -2  -4 1939.01   20.31   0
  -2  -3 -29   73.74    9.26   0
  -3  -3 -27   24.87    7.89   0
  -2  -3  -8 1557.70   17.55   0
   2  -3 -19  245.76    9.25   0
  -4  -3 -22   95.74    9.04   0
  -4  -3 -16  208.96   10.03   0
  -1  -3  -7  626.48   12.03   0
   0  -3 -30   89.35    8.48   0
   2  -3 -22  247.06    9.53   0
   2  -3 -16  950.26   15.20   0
  -5  -2  -9  110.52    7.98   0
  -1  -4 -18  268.58    9.63   0
   0  -4 -20  330.44   10.21   0
  -4  -2  -5  272.40    9.49   0
  -1  -4 -15  242.30    9.48   0
   1  -3 -29   68.33    8.20   0
  -2  -4 -19   60.79    9.34   0
  -6  -2 -16  111.66    8.38   0
  -2  -4 -22  155.56   10.11   0
  -2  -4 -16  269.90    9.82   0
   1  -4 -19  128.53    7.77   0
   2  -3 -13  446.74   11.31   0
   0  -4 -26  112.99    9.03   0
   1  -4 -22  216.72    9.14   0
  -2  -4 -25   73.87    9.06   0
  -1  -4 -12  743.66   13.01   0
   0  -3  -6 2419.77   22.07   0
   1  -3  -8 1866.62   19.88   0
  -4  -3 -10  330.99   10.49   0
  -7   3  -7  301.22    8.96   0
  -7   6 -22   65.44    7.64   0
  -6   3 -15  148.00    8.36   0
  -6   6 -24   62.93    7.08   0
  -4   1  -8 1844.91   17.74   0
  -3   1 -13  502.16   10.25   0
  -9   5  -5   86.71    6.84   0
  -8   4  -9  136.26    7.93   0
  -6   2  -2  727.53   12.30   0
  -8   5 -16  141.22    8.45   0
  -6   2  -5  286.73    8.08   0
  -9   5  -8  235.82    9.02   0
  -7   3 -10  312.20    9.47   0
  -7   4 -17  118.82    8.30   0
  -2   3 -23   85.88    6.93   0
  -7   5 -21   81.35    7.41   0
  -6   2  -8  603.82   10.91   0
  -5   3 -20  328.02    9.74   0
  -4   1 -11  332.57    8.63   0
  -4   2 -18  288.11    8.89   0
  -4   3 -22  220.76    9.53   0
  -9   5 -11   47.72    7.06   0
  -6   3 -18  230.10    9.25   0
  -5   4 -24  154.61    8.84   0
  -1   1 -17  791.51   13.04   0
  -7   3 -13  114.99    8.15   0
  -6   2 -11  296.62    9.27   0
  -6   4 -22  156.17    8.31   0
  -8   5 -19   29.72    7.41   0
  -3   1 -16 1074.74   14.22   0
  -2   0  -8 2699.42   22.31   0
  -1   0 -10 1325.29   16.71   0
  -7   4 -20  110.61    8.56   0
  -5   1  -6  977.71   13.54   0
  -5   1  -3  315.11    8.77   0
  -9   5 -14   46.82    6.62   0
  -4   4 -26   93.22    7.34   0
  -2   1 -18  740.38   12.54   0
  -2   2 -22  532.39   11.56   0
  -7   3 -16  207.20    9.18   0
  -6   2 -14  353.51    9.33   0
  -5   1  -9  599.31   10.74   0
  -5   1   0 1186.45   15.75   0
  -3   0  -6 1820.13   18.27   0
  -2   0 -11 1713.69   17.34   0
  -5   2 -19   75.72    6.87   0
  -6   3 -21  111.33    8.76   0
  -8   3  -8  296.06    9.47   0
  -5   1 -12  563.46   11.11   0
  -4   3 -25  128.23    8.53   0
  -3   0  -9  481.87    9.77   0
  -9   4  -7   48.50    6.25   0
  -8   4 -18   74.84    7.55   0
  -6   4 -25   65.02    8.18   0
  -4   1 -17  447.60   10.64   0
  -3   2 -23   86.39    6.76   0
  -7   2  -6  329.69    9.17   0
  -9   4 -10   70.62    6.91   0
  -8   3 -11   87.38    7.23   0
  -7   2  -3  349.24    9.77   0
  -6   2 -17  132.77    7.44   0
  -7   2  -9  121.96    6.94   0
  -7   3 -19   88.52    7.97   0
  -7   4 -23   27.56    6.72   0
  -5   4 -27   28.27    7.39   0
  -2   0 -14 1021.61   13.83   0
  -1   1 -20  568.18   11.41   0
  -9   4 -13   96.15    7.52   0
  -8   3 -14   95.67    7.83   0
  -7   2 -12  341.12    9.99   0
  -2   1 -21  269.77    8.90   0
  -3   3 -27   54.16    6.87   0
  -6   3 -24   96.88    8.39   0
  -4   0  -7  268.70    7.86   0
  -4   2 -24  222.11    8.80   0
  -6   1  -7  323.50    8.61   0
  -5   3 -26   87.24    8.01   0
  -4   0  -4 1345.75   15.83   0
  -7   2 -15  121.91    8.36   0
  -6   1  -4  665.61   11.75   0
  -6   2 -20  191.51    8.30   0
  -4   0 -10 1100.17   13.83   0
  -3   0 -15  490.14    9.97   0
  -2   2 -25  136.25    7.62   0
  -3   1 -22  260.04    9.44   0
  -5   1 -18  400.08   10.00   0
  -6   1 -13  178.46    8.03   0
  -6   1  -1  263.66    8.68   0
  -4   3 -28   72.73    7.81   0
  -3   2 -26  189.16    8.97   0
   0   0 -15  150.39    6.96   0
  -4   0  -1 1229.90   15.92   0
  -7   2 -18  121.82    8.42   0
  -3   0 -18  454.71   10.36   0
  -6   1 -16  303.40    9.08   0
  -4   0 -16  418.03   10.35   0
  -8   3 -20  103.99    7.61   0
  -6   2 -23   66.01    7.57   0
  -2   1 -24  252.89    8.98   0
  -1   1 -23   78.98    6.80   0
  -8   2  -7   79.62    7.68   0
  -6   3 -27   30.63    7.55   0
  -5   0  -8  569.07   10.98   0
  -5   1 -21  178.28    8.26   0
  -4   2 -27   28.45    7.78   0
  -1   0 -19  207.86    7.89   0
  -9   3 -12  110.71    7.79   0
  -8   2 -10  148.19    8.12   0
  -5   0 -11  186.14    8.01   0
  -2   0 -20  646.34   11.90   0
  -5   0  -5  605.83   10.76   0
  -5   3 -29   61.84    7.23   0
  -8   2 -13  131.14    8.09   0
  -7   2 -21   70.86    7.91   0
  -3   1 -25  130.34    8.41   0
  -6   1 -19  106.69    7.78   0
  -5   0 -14  513.85   10.45   0
  -7   1 -11  122.65    7.89   0
  -7   1  -8  470.50   10.74   0
  -2  -1 -10 1314.36   15.02   0
  -2  -1  -7 1474.77   16.17   0
  -1  -1  -9 1067.82   14.29   0
   0   0 -18  494.82   10.95   0
  -8   2 -16  125.29    8.40   0
  -5   0  -2  992.84   14.08   0
  -2  -1 -13  477.37   10.16   0
  -1  -1 -12 1662.44   17.40   0
  -7   1 -14  102.74    7.04   0
  -6   2 -26   63.15    8.20   0
  -5   0 -17  200.96    9.05   0
  -5   1 -24   85.18    8.82   0
  -3  -1  -8 1857.42   17.87   0
  -5   2 -28   73.82    8.19   0
  -3  -1 -11  317.03    8.39   0
  -4   1 -26  133.43    8.73   0
  -2  -1  -4 2971.32   23.65   0
  -6   1 -22  112.46    8.45   0
  -7   1 -17  123.73    8.45   0
  -2  -1 -16 1042.48   13.57   0
  -2   0 -23  192.68    8.43   0
  -1   0 -22  341.00    9.49   0
  -6   0  -9  213.97    8.36   0
  -4   0 -22  316.70    9.62   0
  -5   0 -20  157.07    8.87   0
  -4   2 -30   64.31    8.19   0
  -2   1 -27   62.33    7.04   0
  -6   0  -6  272.69    8.74   0
  -4  -1  -9  627.90   11.39   0
  -3   0 -24  235.85    9.64   0
  -6   0 -15  104.55    7.11   0
  -3  -1 -17  436.07    9.85   0
  -3   1 -28  135.19    8.54   0
   0  -1 -11  405.22    9.99   0
  -7   1 -20  135.56    8.31   0
  -4  -1  -6  982.56   13.58   0
  -1  -1 -18  747.18   12.40   0
  -6   1 -25   63.24    7.91   0
  -5   1 -27   44.43    7.30   0
   0  -1 -14 1157.75   15.40   0
  -9   2 -11   19.14    5.80   0
  -6   0  -3  296.89    8.99   0
  -3  -1  -2 1140.15   14.85   0
  -5   0 -23   54.47    8.49   0
  -8   1 -12  148.59    8.44   0
  -8   1  -9  144.24    7.81   0
  -4  -1 -18  403.33   10.49   0
  -4   1 -29   68.05    7.70   0
  -3  -1 -20  366.13    9.58   0
  -8   1 -15   31.99    7.14   0
  -2   0 -26  142.14    8.20   0
  -5  -1 -13  186.49    8.51   0
  -4  -1  -3  315.79    8.34   0
  -6   0 -21   95.86    8.28   0
   0  -1 -17  791.61   12.99   0
  -5  -1  -7  337.78    9.14   0
  -3   0 -27   49.88    7.38   0
  -2  -1 -22  254.94    8.41   0
  -1  -1 -21  261.93    8.73   0
  -7   0 -10  107.07    7.77   0
  -5  -1 -16  306.16    9.21   0
  -4  -1 -21  171.54    8.08   0
  -7   0 -16  194.90    8.79   0
  -7   0  -7   86.54    7.00   0
  -5   0 -26  103.56    8.45   0
  -5  -1 -19   79.12    7.33   0
  -5  -1  -4  651.36   11.91   0
  -2  -2 -12 1630.51   16.52   0
  -6   0 -24  103.39    8.50   0
  -4   0 -28   55.39    8.35   0
  -2  -2 -15  170.09    7.87   0
  -2  -2  -9  922.31   12.75   0
  -3  -2 -13  528.28   10.44   0
  -3  -2 -10  502.07   10.63   0
  -1  -2 -11  420.47    9.68   0
   0  -1 -20  599.98   11.75   0
  -1  -2 -14 1143.75   14.18   0
  -4  -1 -24   86.24    8.23   0
  -3  -2 -16  576.36   11.09   0
  -2  -1 -25  127.45    8.03   0
  -5  -1 -22   96.82    8.84   0
  -4  -1   0 1209.09   16.06   0
  -3  -2  -7  318.15    8.82   0
  -3  -1   1  757.93   13.47   0
  -2  -2 -18  285.52    8.54   0
  -1  -2  -8 1915.23   18.48   0
  -1  -1 -24  248.24    8.80   0
  -3  -1 -26  139.35    8.87   0
  -2  -2  -6  687.44   11.34   0
  -4  -2 -14  356.60   10.27   0
  -4  -2 -11  301.64    9.44   0
  -3   0 -30   74.33    7.94   0
  -4  -2 -17  135.44    8.37   0
  -6  -1  -5  168.92    7.81   0
  -5  -1  -1  277.85    8.67   0
  -1  -2 -20  361.58    9.23   0
  -8   0 -11   35.71    6.80   0
  -5  -1 -25   47.29    8.27   0
  -4  -1 -27   35.74    7.74   0
  -3  -2  -4 1957.80   18.80   0
   0  -1 -23   84.71    6.52   0
  -3  -2 -22  176.13    8.34   0
  -1  -2  -5 1906.14   18.85   0
   0  -2 -16  550.02   10.61   0
   0  -2 -10 3051.14   23.68   0
  -2  -1 -28  126.09    8.51   0
  -5  -2 -15  139.54    8.75   0
  -4  -2  -5  280.58    8.88   0
  -7  -1 -15   30.84    6.79   0
  -7  -1 -12  123.54    8.36   0
  -5  -2 -18  116.21    8.46   0
  -5  -2  -9  131.56    6.99   0
  -3  -1 -29   78.57    8.25   0
  -2  -2 -24  216.00    8.35   0
   0  -2 -19  202.00    8.06   0
  -4  -2 -23   80.41    8.25   0
  -1  -2 -23   88.71    6.38   0
  -7  -1  -9  154.42    8.01   0
  -3  -2 -25  126.01    8.51   0
  -5  -2 -21   71.90    7.67   0
  -5  -2  -6  327.39    9.52   0
  -2  -3 -14  341.64    9.67   0
  -2  -3 -17  378.88   10.02   0
  -3  -3 -15  151.40    7.76   0
  -3  -3 -12  501.13   11.24   0
  -1  -3 -13  587.50   11.10   0
  -3  -2  -1  721.95   12.36   0
  -1  -3 -16  757.50   12.14   0
   0  -2 -22  514.44   11.34   0
  -6  -2 -13  142.21    8.11   0
  -4  -2  -2  728.41   12.67   0
  -3  -3 -18  239.28    8.88   0
  -2  -2 -27   26.83    6.93   0
  -6  -2 -10  129.41    8.35   0
  -3  -3  -9  337.66    9.00   0
  -2  -3  -8 1560.39   16.30   0
  -1  -3 -10  811.75   12.16   0
  -1  -2 -26  191.95    8.80   0
  -4  -3 -13  110.15    8.19   0
  -3  -3 -21  128.82    8.65   0
  -3  -2 -28   80.65    8.23   0
  -5  -2  -3  357.57    9.85   0
  -4  -3 -19  104.80    8.13   0
   1  -2 -15  490.30   10.94   0
  -6  -2  -7   67.58    7.27   0
  -1  -3 -22  216.48    8.86   0
  -1  -3  -7  613.90   10.86   0
   0  -3 -12  971.62   13.77   0
   1  -2 -12 1556.81   18.43   0
  -2  -2   0 3771.69   27.50   0
   0  -3 -18  685.66   12.30   0
   0  -2 -25  142.25    8.21   0
   1  -2 -18  732.25   13.14   0
  -3  -3 -24   98.46    8.27   0
  -2  -3  -5  620.68   11.01   0
  -4  -3  -7  297.53    9.66   0
  -5  -3 -14  110.21    7.93   0
  -2  -2 -30   64.90    8.09   0
  -5  -3 -11   91.73    7.69   0
   0  -3 -21  249.60    9.04   0
   0  -3  -9 1183.46   14.64   0
  -5  -3 -20   94.86    8.71   0
  -2  -3 -26   99.69    8.04   0
  -1  -3 -25  138.33    7.61   0
   1  -2 -21  249.75    8.98   0
  -5  -3  -8  313.49    9.91   0
  -4  -2   1  503.83   11.51   0
  -3  -3 -27   33.78    7.24   0
  -3  -3  -3  392.80    9.87   0
  -2  -4 -16  277.38    9.94   0
  -2  -4 -13  316.89    9.68   0
  -1  -4 -15  245.90    8.78   0
  -1  -3  -4 2404.80   20.58   0
  -3  -4 -17  138.05    8.86   0
  -3  -4 -14  291.67   10.19   0
  -2  -4 -19   61.96    7.35   0
  -1  -4 -18  269.02    9.62   0
   0  -3 -24  146.91    8.09   0
  -2  -4 -10  555.30   11.47   0
  -1  -4 -12  770.42   12.29   0
  -3  -4 -20  108.76    8.68   0
  -3  -4 -11  128.30    7.50   0
  -3  -2   2  584.60   12.14   0
  -2  -3  -2  619.11   11.51   0
   0  -3  -6 2464.43   20.95   0
  -2  -4 -22  165.09    8.87   0
   1  -3 -17  479.80   10.82   0
   1  -3 -14 1103.38   14.62   0
  -6  -3 -12  117.02    7.82   0
  -2  -3 -29   67.42    7.79   0
  -1  -4  -9  338.76    9.45   0
  -1  -3 -28   89.48    7.62   0
  -5  -3  -5  143.23    8.11   0
  -4  -4 -18   88.20    8.12   0
  -4  -4 -15   53.03    7.60   0
  -3  -4 -23   34.34    7.83   0
  -2  -4  -7  221.30    8.37   0
   1  -3 -20  374.52   10.10   0
  -6  -3  -9  122.81    8.54   0
   0  -4 -20  333.79   10.12   0
  -2  -4 -25   63.79    7.94   0
  -1  -4 -24  137.48    8.59   0
   0  -4 -11  603.71   10.94   0
  -4  -4  -9  150.27    8.76   0
  -4  -3  -1  186.12    8.18   0
  -1  -4  -6  797.19   12.77   0
  -3  -3   0  944.05   14.27   0
   0  -4 -23   97.95    8.15   0
   1  -3 -23   86.93    7.02   0
  -5  -4 -13   97.04    7.75   0
  -3  -4  -5  320.86    9.60   0
   0  -4  -8 1378.32   15.87   0
   1  -3  -8 1892.33   19.27   0
  -2  -4  -4  714.98   11.89   0
  -1  -4 -27   33.61    7.76   0
  -5  -4 -10   79.64    7.59   0
  -2  -5 -15   45.08    7.33   0
  -1  -5 -17  162.77    8.97   0
   0  -3  -3  467.71   10.16   0
   1  -4 -16  703.05   12.02   0
  -2  -5 -12  248.20    9.62   0
   1  -4 -19  118.56    7.69   0
  -1  -5 -20  156.13    8.27   0
   0  -4 -26   98.84    8.26   0
  -3  -5 -19   29.49    7.76   0
  -3  -5 -13  134.94    8.69   0
  -2  -3   1  695.43   12.43   0
  -1  -5 -11  168.31    7.78   0
  -2  -5  -9  302.35    9.84   0
  -1  -5 -23   34.81    7.55   0
  -1  -4  -3  751.22   12.47   0
   0  -5 -13  183.08    8.43   0
   1  -4 -22  211.58    8.89   0
   1  -4 -10  804.30   12.87   0
  -5  -4  -7   60.04    7.33   0
   0  -4  -5  352.55    8.93   0
  -3  -4  -2  543.81   11.45   0
   2  -2 -14  897.20   15.96   0
  -4  -5 -14   55.16    7.47   0
  -4  -4  -3  154.76    8.10   0
   0  -5 -10  544.10   10.88   0
  -4  -5 -11   50.40    7.95   0
   1  -3  -5 1909.72   19.47   0
   2  -3 -16  966.19   15.06   0
  -3  -5  -7  101.25    8.32   0
  -2  -4  -1  513.17   10.59   0
   2  -3 -19  243.60    9.18   0
   2  -3 -13  434.29   10.79   0
   1  -5 -18  255.03    8.58   0
   1  -4  -7  622.42   11.20   0
   7  -3  -8  348.02    9.67   0
   7  -2  -6  385.03    9.48   0
   9  -3  -3  132.63    8.42   0
   4   0  -5  351.68    8.70   0
   4   2   5  288.56    9.05   0
   5   0  -4  845.69   12.39   0
   6  -5 -10  372.77   10.22   0
   8   0   8  110.36    7.81   0
   7   0   1  185.45    7.71   0
   9  -5  -7   58.00    7.72   0
   5  -3 -10  501.98   10.66   0
   7  -1  -4  510.26   11.03   0
   6   0  -3  203.25    8.33   0
   9  -2  -1   64.53    7.85   0
   7  -4 -10  329.26    9.84   0
   8  -2  -5  147.09    8.50   0
   6   1   2  219.74    8.30   0
   8   0   5  113.71    7.96   0
   9  -1   4   92.86    7.65   0
   3   0  -6 2476.75   21.08   0
   8  -4  -9  146.61    8.55   0
   6  -4 -11  275.14    9.15   0
   3  -1  -8 1907.72   18.76   0
   8  -6 -10  126.64    8.68   0
   5   1  -2  653.70   11.76   0
   3   2   1  727.72   12.69   0
   7   0  -2  132.86    8.07   0
   8  -1  -3  131.14    8.40   0
   9  -6  -9  130.61    8.29   0
   9  -3  -6  120.46    8.48   0
   4   2   2  756.23   13.04   0
   6  -1  -8  522.28   10.95   0
   3   1  -4 2543.23   21.35   0
   5  -1  -9  315.57    9.14   0
   6  -2 -10  550.87   10.64   0
   7  -2  -9  323.64    9.83   0
   8   0   2  147.05    8.59   0
   9  -1   1   72.98    7.08   0
   4  -3 -11  303.95    9.00   0
   8  -5 -11   91.60    7.77   0
   9  -2  -4  149.48    8.44   0
   5   0  -7  562.55   11.08   0
   6   1  -1  263.85    9.22   0
   7  -1  -7   98.56    7.49   0
   7  -5 -12  323.77    9.98   0
   7   1   3   76.67    7.26   0
   5  -4 -12  530.55   11.52   0
   5   2   3  372.12    9.98   0
   6   0  -6  339.37    8.99   0
   8  -2  -8  279.67    9.76   0
   9  -5 -10   69.32    7.75   0
   6  -3 -12  456.21   10.00   0
   8  -3 -10  159.61    7.76   0
   4  -1 -10  799.95   12.15   0
   4   0  -8 1343.16   15.11   0
   2   2   0 3928.66   29.19   0
   8   0  -1   77.93    7.63   0
   8  -1  -6  135.21    8.24   0
   9  -1  -2  124.36    7.73   0
   8  -4 -12  241.71    9.22   0
   7  -4 -13  100.25    7.86   0
   9  -3  -9   65.91    6.88   0
   2   0  -7  319.46    9.08   0
   4   1  -6  821.91   12.18   0
   7   1   0  318.40   10.01   0
   9  -2  -7   92.93    7.78   0
   5  -3 -13  495.32   10.43   0
   5   2   0  499.39   11.20   0
   9  -4 -11   41.59    7.09   0
   2   1  -5 1942.93   19.46   0
   3   2  -2  625.62   11.25   0
   6   1  -4  536.38   10.70   0
   6  -1 -11  157.84    8.32   0
   3   0  -9 1200.02   14.55   0
   6  -4 -14  323.94    9.79   0
   7  -2 -12  223.97    8.25   0
   7  -1 -10  181.26    8.72   0
   6  -2 -13  305.18    9.44   0
   6   0  -9  297.97    9.41   0
   8   0  -4  174.30    8.71   0
   5  -1 -12  730.66   11.92   0
   5   0 -10  566.02   10.99   0
   8  -2 -11   83.77    7.70   0
   3   1  -7  604.41   10.73   0
   3  -1 -11  410.54    9.78   0
   6   2   1  163.77    8.34   0
   7  -3 -14  257.28    9.50   0
   7   0  -8  387.15   10.47   0
   7   1  -3  138.54    8.18   0
   8  -5 -14  102.07    7.75   0
   8  -1  -9   95.51    7.75   0
   9  -5 -13   91.51    7.26   0
   4   2  -4  746.19   12.54   0
   4   0 -11  615.66   11.36   0
   5   1  -8  550.87   11.16   0
   5   2  -3  117.40    6.78   0
   8   1   1   62.67    7.06   0
   9  -3 -12  116.75    7.86   0
   2   2  -3  742.47   12.72   0
   6  -3 -15  144.50    7.98   0
   4  -1 -13  549.45   10.97   0
   4   1  -9  340.82    9.25   0
   8  -4 -15   53.04    6.99   0
   3  -3 -12 1309.45   17.84   0
   3   2  -5  651.75   11.61   0
   4  -3 -14  577.46   11.64   0
   6   2  -2  197.71    8.48   0
   9  -4 -14   45.17    6.79   0
   5  -4 -15  127.56    7.37   0
   7  -4 -16  189.26    8.58   0
   7  -1 -13  195.84    8.87   0
   7   1  -6  126.01    8.12   0
   8   1  -2  106.81    7.46   0
   6  -1 -14  327.28    9.18   0
   6   0 -12  332.31   10.07   0
   7  -2 -15   65.59    7.64   0
   4   3   1  173.88    7.78   0
   8  -2 -14  112.02    7.89   0
   3  -2 -13  450.55   10.33   0
   7   0 -11   77.61    6.77   0
   8  -1 -12  180.56    8.41   0
   2   1  -8 1978.83   18.90   0
   2   3   2  563.15   12.57   0
   3   3   0  926.29   14.40   0
   5  -3 -16  523.55   11.51   0
   5   0 -13  180.67    7.63   0
   5   2  -6  405.86    9.69   0
   3   1 -10  825.14   12.60   0
   4   2  -7  222.46    7.64   0
   5  -1 -15  250.54    8.75   0
   8  -3 -16  120.85    8.55   0
   2   0 -10 3209.22   23.92   0
   3   0 -12  935.42   13.02   0
   4  -2 -15  167.07    7.05   0
   6   2  -5  137.29    8.28   0
   5   1 -11  176.70    7.58   0
   7  -3 -17  121.45    7.89   0
   8   1  -5   75.93    7.79   0
   6  -4 -17  110.97    7.77   0
   4   3  -2  561.90   12.00   0
   7   1  -9   76.00    7.88   0
   4   0 -14  513.77   10.80   0
   4   1 -12  745.95   11.88   0
   2   3  -1  704.91   12.78   0
   3   3  -3  370.56    9.73   0
   6  -3 -18  205.94    8.89   0
   7  -1 -16  174.35    9.09   0
   7   2  -4  140.89    7.81   0
   5   2  -9  304.41    9.53   0
   6   0 -15   97.05    8.12   0
   8  -4 -18   77.41    7.78   0
   6   2  -8  257.62    9.54   0
   7   0 -14   85.45    7.25   0
   8  -1 -15   44.20    7.26   0
   2  -1 -12 1587.38   17.64   0
   4   3  -5  317.73    9.50   0
   5   0 -16  369.66   10.21   0
   5   3  -4  365.70   10.32   0
   6   1 -13  191.60    7.98   0
   7  -4 -19   81.68    7.68   0
   8   0 -13   67.19    7.19   0
   5   1 -14  328.32    9.56   0
   3   1 -13  580.52   10.82   0
   7   2  -7   95.04    7.66   0
   2   1 -11  429.99    9.39   0
   4  -3 -17  391.80   10.73   0
   6  -2 -19   63.37    6.38   0
   8  -3 -19   41.93    6.62   0
   2   3  -4 1996.33   19.67   0
   3   3  -6  642.07   11.84   0
   2   2  -9  954.57   13.38   0
   3   0 -15  253.58    7.88   0
   3   2 -11  235.84    8.12   0
   4   1 -15  236.56    8.72   0
   5  -3 -19   63.91    6.90   0
   7  -3 -20   97.01    7.71   0
   2   0 -13 1121.16   14.19   0
   3  -3 -15  447.88   11.20   0
   6   2 -11   79.14    7.79   0
   3  -2 -16  950.83   14.28   0
   4   0 -17  197.52    7.72   0
   4   3  -8  358.16    9.88   0
   5   3  -7   94.47    7.56   0
   7  -1 -19   32.53    7.14   0
   7   0 -17   97.16    8.26   0
   4   2 -13  299.61    8.75   0
   6   0 -18  136.11    7.64   0
   5  -2 -20  298.50    9.68   0
   6   1 -16  187.34    8.73   0
   6   3  -6   95.14    8.08   0
   7   2 -10   86.41    7.60   0
   1   1  -9 1134.77   14.82   0
   7   1 -15   42.09    7.19   0
   1   2  -7 1437.85   16.45   0
   3  -1 -17  461.43    9.94   0
   3   3  -9  354.08    9.34   0
   6  -3 -21  103.35    7.81   0
   2   3  -7  334.68    8.52   0
   4  -1 -19  115.53    6.78   0
   5   0 -19  149.48    8.49   0
   5   1 -17  162.59    7.82   0
   7  -2 -21   86.16    8.04   0
   1   3  -2 1180.10   16.55   0
   3   1 -16  739.57   12.17   0
   5   3 -10  164.19    8.23   0
   2   1 -14 1180.27   14.60   0
   3   2 -14  334.69    9.20   0
   4   3 -11  124.37    7.77   0
   5   2 -15   66.98    7.31   0
   2  -2 -14  937.08   14.92   0
   2  -1 -15  494.40   10.67   0
   2   2 -12 1588.28   16.26   0
   1   0 -11  407.90    9.52   0
   5  -1 -21  131.01    8.39   0
   6  -2 -22  139.14    8.14   0
   6   3  -9   49.36    7.25   0
   3   0 -18  647.12   11.60   0
   4   1 -18  235.99    8.29   0
   3   4  -4  443.10   10.64   0
   4   2 -16  278.84    9.20   0
   7   0 -20   90.04    8.14   0
   1   3  -5 1021.57   14.53   0
   4   0 -20  323.59    9.81   0
   6   0 -21   89.70    7.69   0
   6   1 -19   28.25    7.07   0
   7  -3 -23   29.09    6.40   0
   2   4  -2  725.38   13.40   0
   4   4  -6  175.58    8.11   0
   1   2 -10 1302.02   15.07   0
   4  -3 -20  313.11    9.69   0
   5   3 -13  121.67    7.78   0
   1   1 -12 1702.71   17.47   0
   5  -3 -22  156.32    8.37   0
   5   1 -20  141.91    8.39   0
   3   4  -7  285.97    9.04   0
   6  -1 -23   35.56    6.95   0
   6   2 -17   65.57    7.47   0
   6   3 -12  133.28    8.19   0
   2   4  -5  280.64    8.78   0
   3  -2 -19  245.95    8.62   0
   5   0 -22  121.26    8.10   0
   5   2 -18  180.52    8.67   0
   2   2 -15  173.62    7.50   0
   3   2 -17  337.97    9.75   0
   5  -2 -23   31.54    7.01   0
   3  -1 -20  357.32    9.79   0
   3   1 -19  118.35    6.97   0
   4  -1 -22  196.41    8.37   0
   4   4  -9  156.51    8.08   0
   2   1 -17  514.67   10.61   0
   2   3 -13  515.66   10.25   0
   3   3 -15  154.37    7.25   0
   3   4 -10  324.97    9.60   0
   4   1 -21  123.54    7.32   0
   4   2 -19   61.92    6.63   0
   2   4  -8  627.00   11.61   0
   5  -1 -24  121.38    8.28   0
   5   3 -16  128.42    8.30   0
   1  -1 -13 1004.49   15.07   0
   1   2 -13  472.18    9.62   0
   2  -1 -18  741.23   12.55   0
   6  -2 -25   60.58    7.48   0
   6   1 -22   77.83    7.00   0
   4   4 -12  248.10    9.17   0
   1   3 -11  315.16    8.61   0
   5   4 -11   58.01    7.00   0
   1   1 -15  542.76   10.62   0
   1   4  -3  315.55    9.51   0
   2  -2 -17  229.55    8.25   0
   5   1 -23   38.37    7.14   0
   5   2 -21   97.90    7.42   0
   2   2 -18  277.22    8.28   0
   2   4 -11  289.19    8.39   0
   3   2 -20  318.06    9.24   0
   3   4 -13  112.81    7.65   0
   1   4  -6 1005.87   14.41   0
   2   3 -16  554.52   11.03   0
   3   1 -22  202.30    8.77   0
   4  -2 -24  203.98    8.73   0
   0   2  -8 2757.60   22.62   0
   2   1 -20  356.13    9.46   0
   4   2 -22  157.06    8.75   0
   4   4 -15   59.59    6.93   0
   5   4 -14   52.17    6.55   0
   1   2 -16 1050.72   13.72   0
   3  -2 -22  237.03    8.68   0
   3  -1 -23   94.07    6.90   0
   4  -1 -25  126.57    7.77   0
   4   1 -24  132.03    8.52   0
   5  -2 -26   81.91    7.21   0
   1   3 -14  595.62   10.55   0
   1   4  -9  612.14   10.95   0
   4   3 -20  107.47    7.67   0
   0   1 -10 1422.75   16.69   0
   2   4 -14  329.87    9.30   0
   1   0 -17  778.93   12.49   0
   3   4 -16  199.56    8.91   0
   3   0 -24  138.63    7.28   0
   5  -1 -27   30.12    7.22   0
   0   2 -11 1747.83   17.61   0
   1   1 -18  774.61   12.41   0
   4   0 -26  108.77    8.03   0
   1  -1 -16 1485.41   17.63   0
   1   4 -12  537.59   10.83   0
   2  -1 -21  253.13    8.63   0
   2   2 -21  312.42    9.23   0
   2   3 -19   81.64    7.27   0
   5   1 -26   74.79    7.14   0
   0   3  -9  456.98    9.56   0
   2   0 -22  510.40   10.56   0
   3   3 -21  125.21    8.34   0
   2   5  -9  123.46    7.88   0
   3   5 -11   82.05    7.36   0
   4   4 -18   76.36    6.96   0
   1   3 -17  423.06    9.45   0
   4   2 -25   67.82    7.68   0
   0   1 -13 1079.51   14.01   0
   1   2 -19  260.17    8.13   0
   4   3 -23   40.52    6.53   0
   0   2 -14 1010.46   13.54   0
   0   3 -12 1387.67   15.22   0
   2   5 -12  330.81    9.66   0
   3   5 -14  122.41    7.77   0
   0   4  -7  273.44    8.25   0
   1   5  -7  330.37    9.37   0
   0   4  -4 1366.07   17.10   0
   1   0 -20  592.35   11.36   0
   2   3 -22  161.98    8.44   0
   3  -1 -26  177.12    8.42   0
   4  -1 -28   78.89    7.26   0
   0   4 -10 1063.96   13.72   0
   1   5 -10  410.66    9.63   0
   2   2 -24  213.90    8.00   0
   3   0 -27   53.14    6.88   0
   3   2 -26   75.04    7.98   0
   3   3 -24  112.18    7.54   0
   0   3 -15  472.03   10.00   0
   1   3 -20  359.45    9.19   0
   2   4 -20  174.59    7.60   0
   2   5 -15  136.70    8.09   0
   0   1 -16 1489.07   16.24   0
   1  -1 -19  206.71    7.91   0
   3   5 -17   93.44    7.63   0
   4   0 -29   39.80    7.21   0
   1  -2 -15  483.07   11.68   0
   1   2 -22  245.16    8.92   0
   1   4 -18  362.02    9.20   0
   2  -1 -24  265.22    8.94   0
   2   0 -25  131.59    7.21   0
   3   4 -22   87.62    7.76   0
   0   2 -17  231.29    7.60   0
   1   5 -13  172.63    7.24   0
   3   1 -28   77.07    7.66   0
   0   0 -15  146.07    6.75   0
   2   1 -26  175.68    7.66   0
   2   5 -18  121.08    7.88   0
   0   3 -18  433.65    9.52   0
   1   5 -16  285.70    9.42   0
   2   3 -25  125.32    7.48   0
   0   4 -16  376.72    9.10   0
   1   0 -23   89.74    6.89   0
   1   3 -23   68.33    7.28   0
   2   4 -23   60.18    6.78   0
   3   5 -20   89.54    6.93   0
   0   5  -8  582.05   11.32   0
   1   1 -24  236.50    8.06   0
   1   4 -21  146.56    7.37   0
   3   3 -27   28.85    6.59   0
   0   2 -20  637.12   11.40   0
   0   5 -11  188.76    7.85   0
   2   2 -27   12.81    6.12   0
   1   2 -10 1333.96   15.59   0
   3   2 -14  323.48    8.73   0
   4   5 -10   83.19    7.49   0
   5   2 -15   57.56    7.58   0
   1   1  -9 1121.86   14.88   0
   0   6  -3  288.02    8.93   0
   2   6  -7   82.05    7.52   0
   7   1 -15   54.59    7.12   0
   3   4 -13  120.02    7.83   0
   3   5 -11   84.63    7.64   0
   5  -1 -15  233.15    8.71   0
   6   1 -16  160.97    8.75   0
  -1   4  -2 1130.15   16.32   0
   2   3 -13  516.82   10.21   0
   5   0 -16  354.27   10.12   0
   1   3 -11  317.49    8.33   0
   4  -2 -12 1680.84   20.83   0
   4   2 -16  270.78    9.34   0
   3   3 -15  144.91    8.14   0
   3   6  -9  119.93    8.09   0
   5  -2 -14  329.05   10.00   0
   5   1 -17  153.51    8.24   0
   1   5 -10  380.54    9.39   0
   5   4 -14   54.24    7.47   0
   1   6  -8  466.47   10.86   0
   2   7  -5   96.28    7.36   0
   5   3 -16  121.92    8.29   0
   4   4 -15   57.82    7.48   0
  -1   5  -3  301.13    8.84   0
   0   5  -8  564.64   10.99   0
   1   4 -12  537.48   10.33   0
   2   4 -14  333.31    9.64   0
   4   5 -13   95.26    7.70   0
   6   2 -17   70.51    7.14   0
   0   2  -8 2843.01   23.20   0
   0   3  -9  458.15    9.58   0
   0   6  -6  282.51    8.80   0
   2   1 -14 1158.90   14.84   0
   2   6 -10  132.47    7.74   0
   6  -1 -17  144.29    8.19   0
   2   2 -15  174.57    7.80   0
   3   0 -15  262.10    8.14   0
   6   0 -18  130.52    8.32   0
   3   2 -17  339.68    9.43   0
   3   5 -14  112.67    7.58   0
   4   0 -17  182.88    7.43   0
   1   7  -6  138.10    7.73   0
   3   4 -16  205.41    8.38   0
   4   1 -18  241.79    9.13   0
  -1   4  -5  974.86   14.22   0
   1   2 -13  484.73   10.20   0
   3   6 -12   94.34    7.68   0
   2   3 -16  541.18   11.07   0
   2   7  -8  102.74    7.51   0
   4  -1 -16  737.58   13.27   0
   6   1 -19   30.97    7.04   0
   1   3 -14  592.01   10.98   0
   1   1 -12 1757.27   17.97   0
   1   6 -11  103.66    7.72   0
   3  -1 -14 1212.19   16.46   0
   5   0 -19  139.66    7.84   0
  -1   6  -4  642.25   12.34   0
   0   6  -9  201.13    8.19   0
   2   5 -15  118.16    6.92   0
   5  -1 -18  253.57    9.23   0
  -1   5  -6  980.76   13.67   0
   0   5 -11  187.32    7.74   0
   2   6 -13  131.47    7.60   0
   5   1 -20  139.70    8.37   0
   1   4 -15  135.39    6.86   0
   1   7  -9  133.67    7.50   0
   2   4 -17  123.14    8.08   0
   0   3 -12 1383.63   15.27   0
   0   7  -7   92.76    6.73   0
   3   5 -17   91.25    7.30   0
   2   7 -11   27.47    6.05   0
   0   2 -11 1770.12   17.81   0
   0   4 -13  621.49   11.13   0
   2   2 -18  297.54    9.30   0
   3   1 -19  118.07    7.60   0
   3   4 -19   97.51    7.77   0
   5   2 -21   82.80    7.41   0
  -1   6  -7  315.33    8.99   0
   1   6 -14  104.26    7.80   0
   3   0 -18  667.13   12.37   0
   6   0 -21   96.28    7.24   0
   1   5 -16  271.51    9.32   0
   2  -1 -12 1699.52   19.75   0
   2   3 -19   70.43    7.37   0
  -1   5  -9  603.28   11.30   0
   0   6 -12  446.91   10.31   0
   1   2 -16 1001.98   13.24   0
   4   1 -21  109.36    7.02   0
   1   3 -17  407.91    9.46   0
   2   5 -18  106.86    7.84   0
   2   6 -16  119.09    7.66   0
   1   7 -12  143.55    8.01   0
   6   1 -22   71.04    7.34   0
   0   7 -10   95.50    7.16   0
   2   0 -16  562.03   11.24   0
   3   3 -21  106.06    7.31   0
   4   2 -22  152.30    8.30   0
   1   1 -15  545.39   10.57   0
   1   4 -18  360.84    9.41   0
   2   4 -20  183.77    8.84   0
   4  -1 -19  129.86    7.61   0
   5   0 -22  122.69    8.00   0
  -1   6 -10  375.33    9.60   0
   0   1 -10 1488.46   17.23   0
   0   3 -15  463.16    9.91   0
   3  -2 -13  482.60   11.83   0
   3   5 -20   81.90    6.71   0
   5   1 -23   40.08    6.83   0
   5  -1 -21  118.26    8.44   0
   0   4 -16  383.77    9.27   0
   1   6 -17  112.75    7.73   0
   4   3 -23   37.94    6.79   0
   3   4 -22   71.97    7.58   0
  -1   3 -10 1292.82   14.99   0
   0   2 -14  975.26   13.07   0
   0   6 -15   98.92    6.46   0
   2   2 -21  295.52    9.63   0
   0   7 -13  140.85    7.53   0
   1   5 -19  101.13    6.77   0
   1   7 -15   22.59    6.58   0
   3   1 -22  210.38    8.57   0
   0   5 -17  194.06    7.56   0
   1   2 -19  251.61    8.66   0
   1   3 -20  346.78    9.55   0
   2   3 -22  156.11    7.73   0
   2   5 -21   53.59    6.66   0
   3   0 -21  233.73    8.08   0
   4   1 -24  137.34    8.35   0
  -1   6 -13  173.46    7.83   0
   3   3 -24   97.06    7.79   0
   4   0 -23   93.36    7.46   0
  -1   7 -11  106.91    7.22   0
   1   4 -21  140.54    7.33   0
   2  -1 -15  529.79   11.34   0
   4   2 -25   52.55    7.54   0
  -1   4 -14  571.07   10.39   0
   1   1 -18  768.89   12.38   0
   2   4 -23   64.91    7.06   0
   0   3 -18  431.54    9.52   0
   2   0 -19  188.88    7.38   0
  -2   5  -7  310.32    8.69   0
  -1   3 -13  464.50    9.89   0
   0   1 -13 1103.86   14.20   0
   0   4 -19   90.16    6.50   0
   0   6 -18   92.32    7.44   0
  -1   2  -9 1100.85   14.53   0
   0   7 -16  184.98    8.40   0
  -2   6  -8  597.20   11.40   0
   0   2 -17  241.28    8.23   0
   4  -1 -22  220.04    9.16   0
   5   0 -25   50.39    7.10   0
   1   5 -22  116.07    7.38   0
  -2   4  -6  669.84   12.18   0
   0   5 -20  133.45    8.20   0
   3  -1 -20  399.01   10.57   0
  -1   6 -16  285.94    9.10   0
  -1   7 -14  112.08    7.33   0
  -2   5 -10  493.90   10.30   0
   1   3 -23   47.27    7.39   0
   2   3 -25  100.83    8.18   0
   3  -2 -16 1009.68   16.09   0
   1   2 -22  252.98    9.08   0
   2   1 -23   85.58    7.39   0
   3   1 -25  110.37    8.16   0
   3   2 -26   84.22    7.84   0
  -1   4 -17  416.11    9.87   0
  -2   4  -9  926.94   13.41   0
  -2   6 -11  271.41    8.61   0
   1   4 -24   94.46    7.75   0
  -1   2 -12 1696.95   17.04   0
   0   7 -19   12.96    6.45   0
   1   0 -17  772.04   12.31   0
  -1   3 -16 1005.34   13.10   0
   0   3 -21  197.68    7.77   0
   2   4 -26   68.42    7.29   0
   3   0 -24  151.23    8.42   0
   4   1 -27   31.24    6.81   0
  -2   5 -13  504.66   10.45   0
   2  -1 -18  770.06   13.16   0
   4   0 -26  107.66    7.67   0
  -1   7 -17  107.70    7.76   0
   0   2 -20  644.05   11.58   0
   2   0 -22  529.72   10.97   0
  -2   7 -12  328.02    9.51   0
  -1   6 -19   88.25    6.43   0
   0   5 -23   52.82    7.16   0
   1   5 -25   53.66    6.98   0
  -2   6 -14  335.50    9.28   0
  -1   4 -20  336.21    9.32   0
  -1   2 -15  526.25    9.95   0
   1   3 -26  126.01    8.30   0
   2   2 -27   30.78    6.74   0
  -1   5 -21  152.64    7.33   0
   3  -1 -23   90.07    7.47   0
  -2   5 -16  548.80   10.95   0
  -1   3 -19  240.68    7.85   0
   0   0 -12 4227.39   28.28   0
   1  -1 -13  997.49   14.63   0
   2   1 -26  187.01    8.75   0
  -2   7 -15  119.00    7.33   0
   1   4 -27   24.10    6.65   0
   3   1 -28   99.51    7.60   0
   3   2 -29   53.05    6.75   0
  -2   4 -15  163.38    6.81   0
  -2   6 -17  123.42    7.63   0
  -1   7 -20  131.41    8.03   0
   0   1 -19  220.73    7.49   0
   0   3 -24  218.32    8.18   0
   0   4 -25  112.77    7.91   0
  -2   3 -11  405.32    9.37   0
   1   1 -24  241.51    8.97   0
   0   2 -23  216.33    8.56   0
   3   0 -27   55.30    7.29   0
   2  -1 -21  281.08    9.16   0
  -1   1 -11  456.64    9.99   0
  -1   2 -18  759.82   11.77   0
   2   0 -25  146.69    8.22   0
  -2   7 -18   98.84    7.29   0
  -1   4 -23   60.99    6.42   0
   2  -2 -14  942.29   15.51   0
  -2   3 -14 1137.76   13.85   0
  -2   4 -18  308.99    9.00   0
  -1   5 -24   95.48    7.57   0
  -3   6  -9  336.12    9.15   0
  -2   6 -20  171.52    8.36   0
  -1   3 -22  270.56    8.41   0
   1  -1 -16 1512.10   17.63   0
  -3   6 -12  473.36   10.44   0
   1   3 -29   53.16    6.66   0
   2   2 -30   54.41    7.06   0
  -3   5  -8 1543.06   17.45   0
  -1   1 -14 1254.94   14.80   0
  -3   5 -11  243.41    7.97   0
   0   3 -27   61.50    6.62   0
   0   4 -28   55.50    7.30   0
   1   0 -23   95.16    6.47   0
  -3   7 -13  108.61    7.28   0
  -2   3 -17  495.14   10.34   0
   2   1 -29   70.87    7.10   0
  -3   5  -5  602.68   12.08   0
  -2   7 -21   58.34    7.17   0
  -1   2 -21  262.51    8.30   0
   0   2 -26  144.95    8.45   0
  -3   6 -15  143.50    7.45   0
  -2   4 -21  311.83    9.53   0
  -2   5 -22  170.93    7.40   0
   1   1 -27   70.75    7.74   0
  -3   5 -14  323.69    8.46   0
  -1   4 -26  142.15    8.24   0
  -2   6 -23   68.83    7.06   0
  -1   1 -17  842.62   12.70   0
   2  -2 -17  236.72    8.50   0
  -3   7 -16  194.64    8.14   0
  -2   2 -10 3158.57   23.30   0
  -1   3 -25  125.50    7.37   0
  -1   5 -27   41.24    7.21   0
   1  -1 -19  217.08    8.06   0
   2  -1 -24  261.33    9.29   0
   2   0 -28   74.22    7.37   0
  -3   4 -10  814.54   12.66   0
  -3   6 -18  220.68    8.69   0
  -2   2 -13 1133.22   13.92   0
  -2   2  -7  301.05    8.33   0
  -2   3 -20  381.93    9.69   0
  -3   5 -17  344.45    8.78   0
   0   1 -25  202.28    8.72   0
  -1   2 -24  260.02    9.30   0
  -3   7 -19   74.97    6.93   0
  -2   2 -16  581.64   10.83   0
  -2   4 -24  221.53    8.88   0
  -2   5 -25  116.97    7.29   0
   0   0 -21  614.72   11.72   0
   0   3 -30   65.78    6.89   0
   1   0 -26  234.45    9.22   0
   1   2 -31   21.39    6.35   0
  -3   6 -21  119.29    7.83   0
  -1   4 -29   60.10    7.46   0
   2   1 -32   36.25    7.02   0
  -2   3 -23   91.61    7.60   0
  -1   3 -28  117.09    8.11   0
   1  -1 -22  353.22    9.86   0
   1   1 -30   97.79    8.38   0
   2  -2 -20  625.53   12.53   0
  -3   4 -19  142.03    7.34   0
  -2   2 -19  195.25    7.42   0
  -3   7 -22   78.82    7.40   0
   2  -1 -27   65.24    7.40   0
   0   1 -28  145.10    8.65   0
  -3   3 -12  915.11   13.04   0
  -3   5 -23   35.52    7.09   0
  -2   4 -27   14.88    7.00   0
  -2   5 -28   67.35    7.30   0
  -1   2 -27   79.52    6.64   0
   0   0 -24  366.30   10.14   0
   2   0 -31   35.62    7.97   0
  -3   6 -24   83.69    7.23   0
  -3   3 -15  262.40    7.81   0
  -1   0 -13 1074.67   14.33   0
   0  -1 -14 1169.06   15.46   0
   0  -1 -11  411.36   10.20   0
  -4   6 -13  289.28    8.96   0
  -3   4 -22  211.89    8.63   0
  -2   3 -26  207.14    9.21   0
   1   0 -29  102.26    8.03   0
  -4   6 -10  521.77   11.08   0
  -1   0 -10 1363.36   16.38   0
  -4   6 -16  258.50    8.28   0
  -3   3 -18  673.23   11.43   0
   0   2 -32   62.88    7.75   0
  -4   7 -17  115.25    7.47   0
  -1   3 -31   25.53    7.03   0
   0  -1 -17  809.68   13.02   0
   1  -1 -25  202.79    8.72   0
  -4   5 -12  736.56   12.38   0
  -4   5 -15  229.85    8.48   0
  -4   6 -19   66.97    6.76   0
  -3   5 -26   85.67    7.57   0
  -2   1 -15  556.23   10.75   0
  -2   1 -12 1745.09   17.25   0
  -3   3  -6 2325.16   21.55   0
  -3   6 -27   20.37    7.07   0
  -4   5  -9  312.45    8.89   0
  -4   7 -20  106.40    7.05   0
  -3   3 -21  245.43    8.31   0
  -3   4 -25  110.92    7.96   0
  -2   2 -25  165.14    8.45   0
  -2   4 -30   57.75    7.53   0
   0   0 -27   25.83    7.17   0
   1  -2 -15  520.57   11.49   0
  -2   1 -18  796.56   12.59   0
   0  -1 -20  619.20   11.89   0
   0   1 -31   38.21    7.27   0
  -2   1  -9 1130.86   14.62   0
  -2   3 -29   73.23    7.97   0
  -4   6 -22  145.62    7.95   0
   1  -2 -18  767.97   13.56   0
  -4   7 -23   33.29    6.61   0
  -1   0 -22  341.76    9.18   0
  -4   4 -14  519.41   10.28   0
  -3   2 -14 1173.14   14.58   0
  -3   3 -24  136.26    7.53   0
  -2   1 -21  261.58    8.37   0
   1   0 -32   48.98    7.21   0
  -4   4 -11  597.18   11.17   0
  -3   2 -17  498.82   10.34   0
  -3   5 -29   72.16    7.74   0
   1  -1 -28  141.93    8.59   0
  -4   5  -6  756.76   13.46   0
  -3   2 -11  427.99    9.60   0
  -3   4 -28   85.40    7.75   0
  -1   1 -29   98.41    8.44   0
   0  -1 -23   95.85    6.83   0
  -4   4 -20  334.38    9.89   0
  -4   6 -25   66.24    7.22   0
  -2   2 -28   74.11    7.03   0
  -3   2 -20  390.92    9.84   0
   1  -2 -21  277.38    9.32   0
  -2   1 -24  257.77    9.08   0
  -1   2 -33   34.53    6.87   0
   0   0 -30  114.27    8.28   0
  -3   3 -27   52.60    8.05   0
  -2   3 -32   33.19    7.59   0
  -1   0 -25  208.63    8.19   0
  -4   4  -8 1306.65   16.13   0
  -4   4 -23  100.82    7.00   0
  -3   2 -23  100.72    7.01   0
  -3   2  -8 1872.89   18.46   0
  -3   6  -9  323.33    9.02   0
  -1   4 -14  582.36   10.74   0
   0   3 -15  478.54   10.01   0
   3   1 -16  707.00   13.24   0
  -3   7 -10  329.05    9.41   0
  -2   9 -11   29.72    6.20   0
  -1   6 -16  270.48    8.60   0
  -3   4  -4 2424.66   22.26   0
  -1   8 -15   32.00    6.45   0
   0   6 -18   98.85    7.96   0
  -3   5  -8 1535.64   16.31   0
  -2   5 -13  501.08   10.06   0
  -2   6 -14  336.16    9.39   0
   2   3 -19   67.03    7.13   0
  -3   9  -9  128.85    7.28   0
   1   2 -16  974.82   13.80   0
  -2   3  -8 1896.75   18.78   0
  -1   3 -13  485.06    9.87   0
   2   4 -20  173.43    8.38   0
  -3   8 -11   94.31    7.39   0
  -1   7 -17  107.27    7.67   0
   2   2 -18  306.18    9.41   0
  -4   8  -6  170.32    7.65   0
  -2   4 -12 1588.00   16.53   0
  -2   7 -15  123.42    7.00   0
  -4   6  -4  714.34   12.60   0
   0   2 -14 1032.58   13.91   0
   0   1 -10 1440.13   17.24   0
   0   7 -19   21.85    6.08   0
   2   5 -21   45.18    6.90   0
  -3   7 -13  108.15    6.57   0
  -1   5 -18  324.96    9.03   0
   0   4 -19   91.39    6.59   0
   3   3 -21  109.44    8.24   0
  -4   7  -8  330.89    9.14   0
  -3   4  -7  616.29   11.28   0
  -3   9 -12  100.41    7.84   0
  -1   4 -17  408.44   10.11   0
  -1   6 -19   87.17    7.89   0
   1   4 -21  155.36    8.28   0
  -4   8  -9  131.10    7.20   0
   0   3 -18  432.75   10.31   0
   1   3 -20  346.26    9.94   0
   2   1 -17  530.41   11.65   0
  -4   6  -7  215.12    7.77   0
  -3   8 -14  125.18    7.48   0
  -2   5 -16  542.09   10.43   0
  -2   6 -17  109.03    6.86   0
   1   1 -15  544.03   11.29   0
   1   5 -22   89.68    7.55   0
  -2   3 -11  407.23    9.12   0
  -2   7 -18  113.73    7.29   0
  -1   2 -12 1743.57   17.51   0
  -1   7 -20  130.51    7.68   0
  -4   9 -10   70.61    7.22   0
  -2   4 -15  173.29    7.41   0
  -1   3 -16 1029.39   13.53   0
   3   1 -19  134.19    7.64   0
   1   2 -19  263.01    8.70   0
   2   4 -23   60.01    7.40   0
  -4   7 -11  129.23    7.02   0
  -4   8 -12  240.31    8.66   0
   2   2 -21  274.05    9.30   0
  -4   6 -10  479.00   10.40   0
  -3   5 -14  317.77    8.97   0
  -4   5  -6  769.01   12.61   0
  -1   5 -21  151.13    7.46   0
   0   1 -13 1072.43   14.33   0
  -3   8 -17   70.73    6.80   0
  -1   4 -20  330.20    9.60   0
  -1   6 -22  100.73    7.66   0
   0   5 -23   40.77    7.25   0
  -2   5 -19   59.80    6.87   0
  -2   6 -20  159.67    8.47   0
  -4   9 -13   93.43    6.69   0
   1   4 -24   89.03    7.57   0
  -4   7 -14  272.07    8.76   0
  -2   2  -7  302.12    8.38   0
  -2   3 -14 1118.23   13.90   0
  -2   7 -21   52.57    7.00   0
   1   3 -23   59.94    7.02   0
  -1   2 -15  556.23   10.70   0
   1   5 -25   35.24    7.17   0
  -4   5  -9  314.13    8.71   0
  -4   6 -13  296.26    8.97   0
  -4   8 -15   63.66    6.52   0
  -3   4 -13  529.62   10.44   0
  -3   7 -19   76.48    7.36   0
  -1   3 -19  266.23    8.71   0
   1   1 -18  799.18   13.30   0
  -3   5 -17  340.23    8.87   0
   1   2 -22  276.56    9.41   0
   2   3 -25  104.39    7.77   0
   2   4 -26   63.05    6.55   0
  -2   2 -10 3202.89   23.53   0
  -1   5 -24   81.71    7.56   0
  -2   6 -23   65.27    7.20   0
   1   0 -14 1255.60   16.40   0
  -4   5 -12  703.12   11.47   0
  -4   7 -17  108.79    6.55   0
  -2   5 -22  172.38    7.71   0
  -1   4 -23   47.80    6.29   0
   2   2 -24  217.79    9.10   0
  -4   6 -16  259.20    8.59   0
  -4   8 -18   70.09    7.15   0
  -2   3 -17  522.98   10.03   0
  -3   4 -16  722.83   11.86   0
  -3   6 -21  121.23    7.15   0
  -2   4 -21  291.75    9.39   0
  -1   1 -11  439.20    9.54   0
   0   3 -24  231.18    9.22   0
  -5   8 -13  110.34    7.32   0
  -3   7 -22   79.70    7.60   0
  -5   7 -12  214.71    8.19   0
  -3   5 -20  303.55    9.54   0
  -1   3 -22  258.37    8.95   0
   1   4 -27   25.67    7.10   0
   1   3 -26  132.86    8.01   0
  -3   3 -12  930.86   12.95   0
  -2   2 -13 1127.07   13.87   0
  -4   4  -8 1292.31   15.53   0
   1   1 -21  285.21    8.73   0
   2   1 -23  101.71    7.38   0
  -5   6 -11  152.78    7.19   0
  -5   8 -16  118.26    7.29   0
  -1   5 -27   24.49    6.98   0
   0   2 -23  202.83    8.50   0
  -5   7 -15   62.58    6.61   0
  -3   4 -19  140.62    6.94   0
  -2   3 -20  370.64    9.33   0
  -2   5 -25  117.39    8.15   0
  -2   6 -26   66.01    7.35   0
  -1   1 -14 1281.86   15.19   0
   0   1 -19  228.67    7.67   0
   1   2 -25  128.81    7.52   0
  -4   4 -11  561.93   10.33   0
  -1   4 -26  126.10    8.13   0
   1   0 -17  843.96   13.54   0
  -3   6 -24   81.01    7.28   0
  -3   3 -15  245.12    7.51   0
  -2   4 -24  215.11    9.00   0
  -1   2 -21  268.70    9.08   0
   0   4 -28   40.19    7.32   0
  -3   5 -23   38.49    6.89   0
  -2   2 -16  591.00   10.46   0
  -5   6 -14  306.72    8.96   0
   2   2 -27   21.27    6.57   0
   0   3 -27   50.30    7.10   0
  -5   7 -18  169.66    8.33   0
  -5   8 -19   31.99    6.44   0
  -4   6 -22  146.62    7.82   0
  -3   4 -22  211.64    7.97   0
  -1   1 -17  843.59   12.29   0
   1   1 -24  264.18    9.59   0
   1   3 -29   59.23    6.95   0
  -5   5 -10  525.55   10.64   0
  -5   6 -17  154.03    7.95   0
  -3   3 -18  665.24   11.22   0
  -2   3 -23   95.78    6.96   0
   0   1 -22  362.21    9.91   0
  -4   4 -17  195.18    7.75   0
  -4   5 -21  122.64    7.05   0
  -2   2 -19  189.94    7.24   0
   0   2 -26  155.36    7.91   0
   2  -1 -15  509.38   11.68   0
   2   0 -22  523.17   11.65   0
  -5   5 -13  166.15    7.47   0
  -3   6 -27   10.46    5.96   0
   1   0 -20  629.80   12.02   0
  -3   5 -26   73.34    7.48   0
  -2   4 -27   16.86    6.77   0
   1   2 -28  126.22    8.15   0
  -5   7 -21   85.89    7.01   0
  -3   2  -8 1846.20   18.03   0
  -4   6 -25   64.58    7.16   0
  -3   2 -11  424.50    9.40   0
  -5   5 -16  360.59    9.60   0
  -5   6 -20  140.48    7.92   0
  -3   3 -21  240.48    8.84   0
  -2   1  -9 1100.18   14.27   0
  -1   1 -20  607.69   11.55   0
  -1   3 -28  131.02    7.67   0
   0   3 -30   62.49    7.28   0
  -4   3 -10  783.92   11.82   0
  -4   4 -20  319.10    8.82   0
  -2   1 -12 1677.09   16.80   0
   0   0 -18  536.88   10.77   0
  -4   5 -24  131.76    7.47   0
  -3   2 -14 1149.69   13.85   0
  -2   2 -22  546.25   10.82   0
  -6   7 -16  157.32    7.56   0
   0   1 -25  211.32    9.03   0
   1   1 -27   76.50    7.38   0
  -5   5 -19  148.16    7.96   0
  -2   1 -15  531.95   10.35   0
   2  -1 -18  757.58   13.52   0
   0   2 -29   62.14    7.45   0
   1  -1 -13 1049.30   15.34   0
   1   0 -23   99.41    7.19   0
  -6   6 -12  343.44    9.50   0
  -5   6 -23   34.44    6.57   0
  -4   3 -16  709.51   11.72   0
  -3   2 -17  477.72    9.64   0
  -2   4 -30   60.56    7.44   0
  -1   2 -27   68.63    6.81   0
  -3   3 -24  161.10    8.46   0
  -6   7 -19   25.71    5.99   0
  -5   4 -12  723.37   11.98   0
  -4   4 -23   99.98    6.76   0
  -1   0 -10 1436.14   16.45   0
  -6   6 -15   73.79    6.91   0
  -3   4 -28   75.88    8.19   0
  -1   0 -13 1103.50   14.28   0
  -2   2 -25  149.04    8.39   0
  -5   4 -15  228.00    7.58   0
  -4   5 -27   39.48    6.42   0
  -1   3 -31   30.04    7.32   0
   1  -1 -16 1511.57   17.72   0
  -4   3 -19  131.10    6.86   0
  -3   2 -20  364.65    9.69   0
  -6   6 -18  127.51    7.43   0
  -6   7 -22   67.54    6.29   0
   0   1 -28  145.78    8.49   0
  -4   4 -26  105.79    7.71   0
  -3   3 -27   56.79    6.96   0
  -2   1 -21  274.74    8.23   0
   1   0 -26  220.28    9.12   0
  -4   3 -22  227.08    8.76   0
  -1   2 -30   91.39    8.68   0
  -6   5 -11  154.43    7.21   0
  -6   6 -21   82.52    7.19   0
  -5   5 -25   47.13    6.99   0
  -3   2 -23  105.03    7.35   0
   0   0 -24  367.13   10.26   0
   0   2 -32   64.63    7.64   0
   1  -1 -19  213.52    7.98   0
  -6   5 -14  300.88    9.09   0
  -6   5 -17  159.03    7.66   0
  -4   2 -12 1556.61   16.30   0
  -2   1 -24  266.66    8.90   0
  -2   3 -32   37.69    7.26   0
  -4   2 -15  169.35    6.74   0
  -4   3 -25  123.93    8.11   0
  -3   1 -13  493.65    9.95   0
  -6   5 -20  146.52    8.08   0
  -6   6 -24   70.38    7.22   0
  -4   4 -29   30.27    7.25   0
  -3   1 -16 1072.87   13.88   0
   0  -1 -14 1135.13   14.57   0
  -5   3 -14  324.76    8.86   0
  -5   4 -24  153.69    8.12   0
  -4   2 -18  298.65    9.07   0
  -3   1 -10 1274.67   14.68   0
  -3   2 -26  199.10    8.90   0
  -3   3 -30  102.31    8.11   0
   1  -1 -22  362.29   10.06   0
  -5   3 -11  225.56    7.90   0
  -1   1 -29  112.61    8.19   0
   0  -1 -17  824.03   12.86   0
   0   1 -31   26.12    6.97   0
   0   0 -27   36.20    6.92   0
  -2   0 -14 1000.15   13.46   0
  -2   2 -31   37.90    7.27   0
  -6   5 -23   48.48    6.95   0
  -5   3  -8 1527.97   16.74   0
  -4   2 -21  307.26    8.79   0
  -5   3 -20  322.67    8.97   0
  -4   3 -28   97.00    8.22   0
  -3   1  -7 1398.52   15.86   0
  -2   0 -17  253.99    7.79   0
  -2   0 -11 1728.52   16.99   0
  -1   0 -25  221.93    8.73   0
   0  -1 -20  625.70   11.71   0
  -5   4 -27   40.69    7.02   0
  -4   2  -6  666.55   11.61   0
  -6   4 -16  270.40    8.85   0
  -6   4 -13  291.47    8.84   0
  -3   1 -22  270.32    8.52   0
  -7   6 -19   28.21    6.86   0
  -2   0 -20  667.48   11.69   0
   1  -1 -25  206.00    8.54   0
  -6   4 -19   62.25    6.94   0
  -6   4 -10  489.90   10.48   0
  -5   3 -23   31.63    7.24   0
  -4   2 -24  221.00    9.17   0
  -2   0  -8 2704.27   21.82   0
  -8   6  -8  253.69    8.53   0
  -7   6 -16  184.41    8.56   0
  -6   5 -17  152.72    7.76   0
  -4   4 -20  340.92    9.56   0
  -3   4 -22  209.68    9.17   0
  -6   4 -13  302.54    8.58   0
  -6   7 -22   76.27    6.92   0
  -5   4 -18  258.46    8.64   0
  -3   1  -4 2967.45   24.36   0
  -6   6 -21  107.69    8.09   0
  -1   1 -14 1202.91   15.69   0
  -8   6 -11   73.64    7.01   0
  -4   6 -25   64.80    6.92   0
  -1   3 -22  248.17    8.92   0
  -7   7 -20   93.28    6.91   0
  -5   3 -14  343.52    9.29   0
  -4   2 -12 1680.08   17.04   0
  -2   1 -12 1703.61   17.66   0
  -6   3  -3  368.63    9.22   0
  -5   5 -22  122.87    7.29   0
  -4   5 -24  130.39    8.06   0
  -3   1  -7 1556.24   16.97   0
  -6   3  -6  612.29   11.23   0
  -3   3 -21  253.96    9.39   0
  -7   6 -19   31.40    7.02   0
  -6   4 -16  264.86    9.07   0
  -4   3 -19  140.38    7.47   0
  -3   2 -17  522.11   10.49   0
  -2   2 -19  203.87    8.43   0
  -8   6 -14  104.15    7.80   0
   0   1 -16 1449.67   17.73   0
  -9   7 -10   79.66    6.53   0
  -3   5 -26   91.01    7.58   0
  -6   3  -9  337.80    8.54   0
  -5   2  -4 1918.41   18.66   0
  -3   1 -10 1371.84   15.59   0
  -2   3 -23   98.80    7.41   0
  -8   5  -7   92.20    6.89   0
  -5   4 -21  136.43    8.79   0
  -5   2  -7  323.91    8.70   0
  -5   2  -1  671.58   12.04   0
  -5   3 -17  363.75   10.07   0
  -4   2 -15  175.56    7.30   0
  -7   4 -11  118.74    6.66   0
  -6   6 -24   69.27    7.67   0
  -3   4 -25  125.79    8.20   0
  -2   1 -15  551.22   10.82   0
  -1   2 -21  263.92    8.77   0
  -8   5 -10  148.96    7.80   0
  -7   5 -18  170.88    8.64   0
  -1   1 -17  833.59   13.03   0
  -6   4 -19   56.50    7.55   0
  -5   2 -10  496.66    9.76   0
  -7   6 -22   78.14    7.15   0
  -6   5 -23   36.91    7.10   0
  -4   3 -22  224.56    9.31   0
  -3   1 -13  470.22    9.62   0
  -8   5 -13  118.39    7.39   0
  -4   5 -27   24.79    6.61   0
  -9   6  -9   53.12    6.08   0
  -3   3 -24  158.76    8.89   0
  -6   3 -15  142.71    7.61   0
  -5   2 -13  532.95   10.47   0
  -4   2 -18  309.69    9.46   0
  -2   2 -22  547.75   11.58   0
  -5   4 -24  149.80    8.81   0
  -7   5 -21   84.44    7.65   0
  -4   4 -26  109.08    7.89   0
  -1   0 -10 1340.80   16.21   0
  -9   6 -12  123.15    7.10   0
  -4   1  -8 1842.93   17.37   0
  -8   5 -16  128.16    7.78   0
  -7   4 -17  124.28    7.72   0
   0   1 -19  197.20    7.64   0
  -6   4 -22  160.35    8.78   0
  -4   1  -2 1129.73   14.91   0
  -3   1 -16 1074.01   13.81   0
  -2   3 -26  191.57    8.64   0
  -4   1 -11  306.32    8.07   0
  -6   3 -18  216.76    8.89   0
  -5   2 -16  571.19   10.67   0
  -3   4 -28   82.85    8.02   0
  -1   1 -20  602.28   11.56   0
  -7   3  -7  266.73    8.51   0
  -2   0  -8 2794.32   22.37   0
  -8   4  -6  177.41    7.66   0
  -7   3  -4  429.32    9.99   0
  -3   2 -23  105.30    7.93   0
  -1   2 -24  244.26    8.72   0
  -8   4  -9  137.67    7.43   0
  -7   3 -10  335.97    9.31   0
  -4   2 -21  306.81    9.22   0
  -4   3 -25  125.80    7.81   0
  -5   3 -23   31.31    6.39   0
  -4   1 -14  611.60   10.71   0
  -2   0 -11 1774.62   17.67   0
  -7   4 -20  101.43    7.17   0
  -6   2  -8  601.42   10.67   0
  -6   2  -5  278.62    8.36   0
  -8   4 -12  225.36    8.29   0
  -7   3 -13  117.71    7.49   0
  -3   1 -19  271.10    9.07   0
  -3   3 -27   65.22    7.23   0
  -6   2 -11  281.98    8.18   0
  -5   2 -19   72.50    7.02   0
  -5   4 -27   34.70    7.20   0
  -2   1 -21  282.50    8.99   0
  -2   2 -25  151.61    8.07   0
  -6   3 -21  122.82    8.49   0
  -6   4 -25   75.61    7.42   0
   0   0 -15  142.68    6.54   0
  -9   5 -11   39.96    6.08   0
  -4   4 -29   31.59    7.21   0
  -8   4 -15   59.22    7.00   0
  -4   1 -17  435.57   10.05   0
  -2   0 -14 1014.52   13.30   0
  -1   0 -16 1442.50   16.24   0
  -9   5 -14   57.30    6.60   0
  -7   4 -23   34.03    7.12   0
  -3   0  -9  472.23    9.87   0
  -5   1  -6  962.86   12.99   0
  -3   0  -6 1774.15   17.84   0
  -1   1 -23   93.87    6.68   0
  -8   4 -18   64.41    7.16   0
  -6   2 -17  121.67    7.82   0
  -5   1 -12  546.04   10.23   0
  -4   3 -28   96.89    8.34   0
  -3   0 -12 1476.80   15.96   0
  -3   2 -26  190.61    9.26   0
  -7   3 -19   96.24    7.90   0
  -6   3 -24  100.76    8.34   0
  -2   0 -17  239.24    7.68   0
  -5   1  -3  310.13    8.65   0
   0   0 -18  495.28   10.67   0
  -3   0 -15  492.85   10.34   0
  -2   1 -24  256.96    9.09   0
  -1   0 -19  213.06    7.22   0
  -3   3 -30   88.93    7.25   0
  -6   2 -20  174.14    7.97   0
  -2   2 -28   74.21    7.33   0
  -8   3 -11   87.25    7.15   0
  -8   3  -8  281.31    9.21   0
  -5   1 -18  385.82   10.34   0
  -7   2  -9  114.95    7.12   0
  -7   3 -22   79.42    7.49   0
  -8   3 -14  115.19    7.81   0
  -7   2 -12  331.13    9.60   0
  -5   2 -25  133.81    8.27   0
  -4   0 -10 1103.58   13.94   0
  -3   0 -18  458.11   10.53   0
  -7   2  -6  307.69    9.30   0
  -5   3 -29   61.82    7.39   0
  -4   1 -23   70.10    8.02   0
  -3   1 -25  126.57    8.29   0
  -7   2 -15  138.84    8.12   0
  -4   0 -13  618.76   10.81   0
  -3   2 -29   72.77    7.55   0
  -8   3 -17   82.47    7.24   0
  -6   1 -10  408.04    9.83   0
  -6   2 -23   70.97    7.61   0
  -5   1 -21  168.47    8.03   0
  -4   0 -16  408.75   10.07   0
  -1   0 -22  339.91    8.83   0
   0   0 -21  570.39   11.48   0
  -6   1  -7  331.55    8.92   0
  -2   1 -27   69.72    7.40   0
  -4   0  -4 1319.40   15.57   0
  -3   0 -21  201.38    7.90   0
  -6   1 -16  291.07    9.32   0
  -2   0 -23  190.00    8.43   0
  -1  -1 -12 1645.31   16.82   0
  -1  -1  -9 1102.66   14.59   0
  -8   3 -20   89.23    7.17   0
  -4   0 -19  102.15    6.79   0
  -6   1  -4  659.04   12.08   0
  -4   2 -30   65.23    7.65   0
  -2  -1 -13  481.84   10.03   0
  -7   2 -21   56.14    7.22   0
  -6   2 -26   79.89    8.20   0
  -5   1 -24  106.37    8.25   0
  -3   1 -28  137.11    8.81   0
   0  -1 -14 1137.85   15.03   0
  -5   0 -14  512.63   10.96   0
  -2  -1 -16 1048.66   13.45   0
  -2  -1  -7 1499.71   16.42   0
  -5   0  -8  585.06   10.99   0
  -1  -1 -18  741.43   12.15   0
  -4   0 -22  305.75   10.41   0
  -1   0 -25  198.49    8.33   0
  -5   0 -17  212.70    8.14   0
  -3  -1 -11  323.75    8.81   0
   0  -1 -17  778.06   12.72   0
  -6   1 -22   99.38    8.43   0
  -2  -1 -19  257.80    8.61   0
  -2   0 -26  150.78    8.37   0
  -8   2 -13  133.44    7.98   0
  -8   2 -10  135.78    7.66   0
  -8   2 -16  122.16    8.08   0
  -5   0  -5  599.52   11.03   0
  -4   1 -29   78.71    8.54   0
  -3  -1  -8 1777.04   17.10   0
  -7   1 -14  100.00    7.76   0
  -7   1 -11  113.66    7.52   0
  -5   0 -20  157.97    8.90   0
  -5   1 -27   29.40    7.95   0
  -1  -1 -21  259.88    8.59   0
  -7   1 -17  109.12    8.03   0
  -2  -1  -4 3066.99   24.12   0
  -7   1  -8  466.77   10.63   0
  -3   0 -27   57.69    7.67   0
   0  -1 -20  589.80   11.36   0
  -6   1 -25   51.90    7.06   0
  -3   1 -31   33.29    6.73   0
  -2  -1 -22  240.76    8.36   0
  -4  -1 -12  571.41   10.53   0
  -6   0 -12  465.24   10.65   0
  -5   0 -23   53.82    7.24   0
  -4  -1 -18  399.77   10.48   0
   1  -1 -16 1421.16   17.99   0
  -6   0  -9  204.59    7.94   0
  -3  -1 -23   53.02    7.59   0
  -2   0 -29   59.53    7.56   0
  -1  -1 -24  244.28    8.68   0
  -5   0  -2  972.67   14.18   0
  -4  -1 -21  163.46    9.17   0
  -2  -1 -25  134.85    8.30   0
   0  -1 -23   85.72    6.60   0
  -6   0 -21   87.23    8.30   0
  -5   0 -26  109.32    8.49   0
  -4  -1  -6  968.36   13.49   0
  -6   0  -6  259.74    8.55   0
  -3   0 -30   70.94    8.16   0
  -1  -2 -14 1154.10   14.49   0
  -5  -1 -16  291.72    9.56   0
  -2  -2 -15  173.83    7.60   0
  -2  -2 -12 1669.98   16.56   0
  -1  -2 -11  426.73    9.24   0
  -5  -1 -19   88.11    8.39   0
  -5  -1 -10  409.29    9.99   0
  -4  -1 -24  100.76    8.61   0
  -2  -2 -18  312.02    9.22   0
  -8   1 -15   25.94    6.82   0
  -8   1 -12  135.77    7.84   0
  -6   0 -24   98.05    7.70   0
  -3  -1  -2 1128.64   14.89   0
  -2  -2  -9  949.45   13.16   0
  -1  -2 -20  380.19    9.76   0
  -1  -1 -27   82.81    7.40   0
   0  -2 -16  563.59   10.95   0
  -3  -2 -16  564.27   10.99   0
  -2  -1 -28  129.21    8.49   0
  -7   0 -16  187.68    8.47   0
  -7   0 -13  149.09    8.00   0
  -1  -2  -8 1913.34   18.13   0
  -5  -1  -7  331.78    8.70   0
  -4  -1  -3  328.59    8.92   0
  -3  -2 -10  509.49   10.50   0
   0  -2 -19  195.99    8.00   0
  -7   0 -19   26.89    6.78   0
  -7   0 -10  107.21    7.60   0
  -6   0  -3  283.55    8.91   0
  -1  -2 -23  105.22    6.81   0
  -2  -2 -24  211.46    9.31   0
  -6  -1 -14  119.92    8.20   0
  -5  -1 -25   64.60    8.07   0
  -2  -2  -6  667.63   11.17   0
   0  -2 -22  519.74   11.30   0
  -3  -2  -7  321.60    8.42   0
  -6  -1 -20  138.95    8.41   0
  -6  -1 -11  114.70    7.92   0
  -4  -2 -20  181.37    9.57   0
  -5  -1  -4  688.49   12.09   0
  -2  -1 -31   36.06    6.60   0
   1  -2 -15  488.32   10.77   0
  -1  -2 -26  195.39    8.95   0
  -1  -2  -5 1901.44   18.70   0
   0  -2  -7  306.12    8.52   0
   1  -2 -18  742.85   13.01   0
  -6  -1  -8  481.55   11.10   0
  -4  -2 -23   65.30    8.50   0
  -2  -2 -27   19.64    7.40   0
   0  -2 -25  147.76    8.40   0
   1  -2 -12 1551.40   18.28   0
  -5  -2 -18  103.58    8.29   0
  -2  -3 -17  357.20    9.49   0
  -2  -3 -14  326.62    9.00   0
   8  -4  -9  130.10    8.12   0
   3   4   2  560.86   12.10   0
   5   3  -1  183.02    8.81   0
   8   1  -2  128.36    8.31   0
   9  -4  -8  226.75    9.25   0
   4   4   3  149.81    8.10   0
   5  -3 -10  480.14   11.47   0
   7   2  -1   47.13    7.01   0
   9  -2  -7   88.61    7.75   0
   3   3  -3  368.76    9.19   0
   5   1  -8  525.43   10.88   0
   6   0  -9  284.13    8.68   0
   6   1  -7  106.02    7.20   0
   7  -4 -10  315.19    9.89   0
   2   0  -7  307.67    9.08   0
   7   0  -8  400.86   10.04   0
   5   2  -6  397.21   10.21   0
   6   3   0  223.00    9.47   0
   8  -3 -10  155.57    8.29   0
   5  -2 -11  228.45    8.58   0
   5   0 -10  553.94   10.75   0
   7   1  -6  128.66    7.82   0
   2   4   1  519.93   11.17   0
   3   0  -9 1185.88   14.80   0
   6   2  -5  144.42    7.47   0
   7  -3 -11  116.39    7.80   0
   9  -3  -9   69.39    7.61   0
   4   1  -9  319.43    8.77   0
   4   2  -7  236.32    7.96   0
   8   0  -7   79.26    7.93   0
   2   2  -6  690.99   11.50   0
   4   4   0  406.09   10.47   0
   8   1  -5   67.17    7.32   0
   2   3  -4 1959.93   18.98   0
   4   3  -5  331.34    9.60   0
   5   3  -4  356.07    9.49   0
   1   2  -4 3023.63   24.68   0
   1   3  -2 1181.43   15.86   0
   3   4  -1  194.54    7.60   0
   6  -3 -12  489.04   11.30   0
   7  -2 -12  235.55    9.06   0
   8  -2 -11   66.74    7.21   0
   4   0 -11  583.00   10.78   0
   5   4   1  122.51    8.17   0
   3   2  -8 1550.75   16.18   0
   6   3  -3  118.58    7.77   0
   2   1  -8 1928.12   18.85   0
   6   1 -10  188.48    8.49   0
   9  -2 -10   97.35    8.03   0
   7   0 -11   67.62    7.90   0
   5   1 -11  168.93    7.94   0
   6  -2 -13  302.51    9.44   0
   6   0 -12  374.01   10.27   0
   6   2  -8  268.52    9.80   0
   3   1 -10  803.30   12.17   0
   2   4  -2  746.18   12.70   0
   8   0 -10   85.31    7.75   0
   1   4   0 1230.97   16.80   0
   4   4  -3  151.90    8.12   0
   7  -1 -13  186.01    8.85   0
   4   2 -10  571.49   11.27   0
   5   4  -2   83.56    7.32   0
   7   2  -7   81.45    7.19   0
   8  -3 -13  112.06    8.09   0
   3  -2 -10 1308.15   17.82   0
   3  -1 -11  397.91    9.78   0
   4  -2 -12 1510.12   17.59   0
   5   0 -13  177.82    7.59   0
   9  -3 -12  136.39    7.64   0
   3   4  -4  457.54   10.64   0
   4  -3 -11  316.32   10.01   0
   4   1 -12  740.50   11.93   0
   6  -1 -14  303.53    8.90   0
   6   3  -6   99.50    7.39   0
   4  -1 -13  515.33   10.39   0
   7  -3 -14  266.22    9.48   0
   5  -3 -13  514.31   11.81   0
   8  -2 -14  101.48    7.92   0
   2   2  -9  912.67   12.81   0
   3   0 -12  915.25   13.02   0
   1   3  -5  977.67   13.87   0
   6   1 -13  181.23    9.07   0
   7  -2 -15   55.91    7.28   0
   7   1 -12  165.58    8.48   0
   2   0 -10 3255.21   24.53   0
   3   2 -11  244.58    8.48   0
   3   3  -9  328.44    8.68   0
   4   4  -6  184.30    8.69   0
   5   4  -5   89.55    7.90   0
   6   2 -11   66.64    7.18   0
   7   0 -14   90.22    7.89   0
   2   4  -5  296.49    8.83   0
   4   0 -14  522.52   10.75   0
   5  -1 -15  224.11    8.70   0
   5   2 -12  255.72    8.48   0
   5   1 -14  316.36    9.62   0
   6   0 -15   80.85    7.88   0
   7   2 -10   89.86    7.14   0
   8   0 -13   56.59    7.01   0
   1   2  -7 1513.88   16.79   0
   5   3 -10  168.32    8.70   0
   1   4  -3  323.47    9.06   0
   3   4  -7  293.89    9.32   0
   6  -3 -15  137.58    7.91   0
   3   5  -2  203.32    8.41   0
   8  -1 -15   43.51    7.37   0
   2   1 -11  422.42    9.28   0
   3   1 -13  555.64   10.50   0
   4   2 -13  305.36    8.89   0
   4   3 -11  122.04    7.82   0
   6  -2 -16  244.60    9.45   0
   7  -1 -16  168.48    8.46   0
   4   1 -15  248.78    8.27   0
   2   3 -10  507.61   10.55   0
   4   4  -9  133.73    8.14   0
   6  -1 -17  157.42    7.78   0
   2   5  -3  360.56    9.85   0
   4   5  -4  266.22    9.06   0
   6   2 -14  111.09    8.02   0
   7   1 -15   55.19    7.27   0
   2   4  -8  625.24   11.53   0
   3   3 -12  491.11   10.90   0
   6   1 -16  201.71    9.09   0
   3   5  -5  147.70    7.94   0
   5   2 -15   57.17    7.56   0
   8  -2 -17   60.11    7.48   0
   1   1  -9 1143.39   14.90   0
   2   2 -12 1610.09   16.41   0
   3  -1 -14 1123.81   15.24   0
   3   2 -14  325.45    9.25   0
   4  -2 -15  174.85    7.65   0
   4  -1 -16  684.19   12.41   0
   5   3 -13  131.73    8.12   0
   6   3 -12  133.24    8.01   0
   1   4  -6  990.77   14.09   0
   3   4 -10  329.61    9.66   0
   5   1 -17  151.23    8.65   0
   7  -2 -18  164.94    8.37   0
   5  -2 -17  317.24    9.82   0
   4   3 -14  275.23    9.46   0
   1   2 -10 1333.50   15.65   0
   3  -2 -13  461.74   10.98   0
   4   2 -16  276.42    9.34   0
   5   4 -11   40.69    7.64   0
   2   0 -13 1095.25   14.38   0
   2   5  -6  322.78    9.26   0
   4   5  -7   52.23    7.05   0
   3   1 -16  694.44   12.01   0
   4   4 -12  233.63    9.09   0
   7  -1 -19   29.43    6.68   0
   3   5  -8  316.07    9.81   0
   4  -3 -14  585.28   12.76   0
   1   5  -4  659.58   12.29   0
   2  -1 -12 1614.06   18.72   0
   2   1 -14 1176.75   14.46   0
   2   3 -13  498.42   10.68   0
   2   4 -11  298.63    9.10   0
   4   1 -18  255.97    9.24   0
   6  -2 -19   59.43    7.42   0
   6   2 -17   73.27    7.79   0
   3   3 -15  139.54    7.25   0
   6   1 -19   24.86    6.96   0
   1   4  -9  638.32   11.62   0
   5   2 -18  177.15    8.29   0
   6  -1 -20  146.01    8.15   0
   0   4  -4 1335.22   16.97   0
   1   3 -11  312.72    8.31   0
   2   2 -15  162.52    7.11   0
   3   2 -17  352.50    9.22   0
   4   5 -10   72.65    7.53   0
   7   0 -20   94.67    7.78   0
   2   5  -9  126.60    7.59   0
   4   3 -17  137.71    7.45   0
   5   1 -20  139.58    8.44   0
   1   1 -12 1658.73   17.21   0
   1   5  -7  319.19    9.18   0
   3   5 -11   82.19    7.22   0
   6   0 -21   82.25    7.95   0
   4  -1 -19  114.65    6.80   0
   4   2 -19   64.89    7.90   0
   1   2 -13  459.12   10.04   0
   3  -1 -17  490.68   10.95   0
   4   0 -20  327.87    9.82   0
   7  -2 -21   69.97    7.55   0
   1   0 -11  421.62    9.75   0
   4  -2 -18  315.13    9.62   0
   5  -2 -20  322.36   10.06   0
   5  -1 -21  117.41    7.91   0
   0   2  -8 2764.66   22.82   0
   2   3 -16  557.68   11.39   0
   3   1 -19  128.34    7.05   0
   7  -1 -22   77.89    8.09   0
   0   4  -7  263.85    8.27   0
   3   3 -18  226.85    9.12   0
   3   4 -16  193.16    8.79   0
   4   5 -13  106.25    7.88   0
   2   1 -17  475.80   10.08   0
   2   5 -12  336.75    9.85   0
   4   1 -21  108.41    8.15   0
   5   3 -19   27.00    7.39   0
   0   3  -9  472.31   10.07   0
   5   0 -22  113.05    7.89   0
   5   2 -21   94.13    7.99   0
   1   3 -14  568.99   10.59   0
   1   5 -10  413.09   10.22   0
   3  -2 -16 1029.38   15.63   0
   3   5 -14  104.54    7.58   0
   6  -2 -22  155.53    8.21   0
   0   5  -5  609.22   11.92   0
   2  -1 -15  513.64   11.04   0
   2   2 -18  308.89    8.79   0
   3   2 -20  325.95    9.32   0
   4   3 -20   94.39    8.23   0
   6  -1 -23   36.08    7.38   0
   4   4 -18   77.65    7.62   0
   1   1 -15  532.83   10.24   0
   2   4 -17  120.65    7.80   0
   4   2 -22  153.95    8.89   0
   0   4 -10 1069.50   13.89   0
   1   2 -16 1033.49   13.58   0
   2   6 -10  126.89    7.39   0
   6   0 -24   79.11    7.04   0
   0   2 -11 1750.02   17.73   0
   1   4 -15  138.46    7.62   0
   2   5 -15  133.83    8.17   0
   0   5  -8  573.49   11.30   0
   1   6  -8  456.70   10.93   0
   2   3 -19   82.47    6.61   0
   3   4 -19   93.81    7.94   0
   4  -1 -22  194.79    8.68   0
   4   0 -23  105.69    8.07   0
   0   3 -12 1408.28   15.82   0
   1   5 -13  159.87    7.30   0
   3   3 -21  127.77    8.13   0
   3  -1 -20  374.33   10.16   0
   3   5 -17   87.55    7.81   0
   1   3 -17  396.06    9.43   0
   2   1 -20  363.79    9.73   0
   5  -1 -24  141.08    8.36   0
   0   1 -10 1458.73   16.83   0
   2   0 -19  187.97    8.00   0
   4  -2 -21  304.04   10.27   0
   5   0 -25   47.84    7.60   0
   2   2 -21  292.73    9.29   0
   2   6 -13  135.91    7.53   0
   4   3 -23   29.31    7.04   0
   1   6 -11  111.81    7.28   0
   3   2 -23   36.17    6.49   0
   0   5 -11  193.65    7.10   0
   2   4 -20  172.11    8.12   0
   0   2 -14 1009.47   13.59   0
   1   4 -18  366.37    9.91   0
   1   5 -16  280.03    9.11   0
   2  -2 -14  986.76   15.74   0
   2  -1 -18  759.97   13.05   0
   2   5 -18  108.80    7.41   0
   3  -2 -19  268.69    9.46   0
   0   3 -15  477.74   10.07   0
   1   1 -18  741.99   11.85   0
   1   2 -19  245.67    8.01   0
   4   2 -25   63.68    7.02   0
   3   4 -22   85.50    7.21   0
  -1   4  -5 1001.05   14.81   0
   3   5 -20   97.79    7.15   0
   0   6  -9  203.06    8.13   0
   1   3 -20  374.24    9.75   0
   3   3 -24  104.53    7.73   0
   0   1 -13 1088.65   14.07   0
   1   6 -14  105.43    7.48   0
   2   6 -16  125.87    7.45   0
   3   0 -24  163.21    8.27   0
   0   4 -16  388.10    9.81   0
   0   5 -14  498.95   10.21   0
   1  -1 -13 1033.37   15.28   0
   4   0 -26   93.08    7.71   0
  -1   4  -8 1836.74   18.53   0
   4  -1 -25  116.81    8.01   0
   3  -1 -23   95.05    7.34   0
  -1   5  -6  962.35   14.26   0
   2   0 -22  529.36   11.20   0
   2   2 -24  227.02    9.05   0
   4   1 -27   27.13    6.81   0
   0   6 -12  463.47   10.78   0
   2   4 -23   74.90    7.43   0
   3   2 -26   90.21    7.51   0
   5  -1 -27   30.02    7.44   0
   0   2 -17  245.36    8.16   0
   1   4 -21  172.29    8.51   0
  -1   3 -10 1248.15   14.86   0
  -1   5  -9  626.46   11.46   0
   1   2 -22  249.32    8.35   0
   1   6 -17  111.53    7.33   0
   0   5 -17  202.61    8.37   0
   2   3 -25  110.05    8.21   0
   0   1 -16 1510.10   16.08   0
   0   4 -19   82.51    6.47   0
   1   3 -23   63.45    7.59   0
   2  -1 -21  266.44    8.83   0
   0   6 -15  105.01    7.29   0
   2  -2 -17  230.51    8.26   0
   3   3 -27   24.56    6.50   0
  -1   2  -9 1101.49   14.42   0
  -1   3 -13  433.40    9.53   0
  -1   5 -12  533.51   10.22   0
   3  -2 -22  246.89    9.04   0
  -1   4 -14  578.17   10.83   0
   1  -1 -16 1533.31   17.69   0
   1   0 -20  632.91   11.28   0
   3   0 -27   51.65    6.96   0
   7  -3  -2  561.79   11.34   0
   8  -3   2  205.29    8.84   0
   6  -5  -7  306.01    8.83   0
   9  -3   9  119.56    8.56   0
   5  -5  -8  555.09   11.66   0
   6   0   9  219.43    8.61   0
   9  -7  -2  127.01    8.25   0
   7  -5  -6  313.39    9.64   0
   4  -2  -6  695.12   11.58   0
   5  -2  -5  647.12   11.55   0
   4   1   6 1025.16   15.13   0
   5  -3  -7  311.73    8.89   0
   9  -5  -1  117.52    7.71   0
   4  -1  -4 2557.86   21.03   0
   5   0   2 1055.80   14.36   0
   7  -1   5  179.39    7.53   0
   8  -4  -3  153.60    8.38   0
   9  -4   1  131.82    8.54   0
   6  -3  -6  656.47   11.55   0
   8  -2   4  333.11   10.20   0
  10  -6   1   48.37    7.06   0
   6   0   6  272.82    8.95   0
   8  -7  -6  127.54    8.91   0
  10  -5   3   61.04    7.15   0
   3  -1  -5 1949.86   19.23   0
   5  -1  -3  791.31   12.29   0
   6  -2  -4  744.68   11.78   0
   8  -3  -1  193.90    8.05   0
   7  -6  -8  466.86   11.11   0
   3   1   2 1227.69   16.32   0
   5  -4  -9  592.44   11.45   0
   7  -3  -5  323.96    9.40   0
   7  -4  -7  279.35    8.92   0
   7  -1   2  211.31    8.41   0
   8  -6  -7   74.65    7.65   0
   9  -2  11   14.14    5.94   0
   4   0  -2 1451.22   15.89   0
   6  -1  -2  630.96   11.37   0
   9  -5  -4  288.86    9.70   0
   3   0  -3  501.87   10.26   0
   7  -2  -3  119.98    6.94   0
   8  -1   9  143.45    7.74   0
   9  -4  -2   90.61    8.04   0
  10  -6  -2   75.34    7.28   0
  10  -5   0  145.09    8.16   0
   4   1   3  336.75    9.18   0
   5   1   7  332.70    9.52   0
   6   0   3  315.75    9.28   0
   9  -2   8  101.91    7.65   0
   8  -4  -6  187.62    7.96   0
   9  -6  -6  116.71    7.89   0
   8  -3  -4  366.41    9.54   0
   9  -3   0  226.48    8.96   0
   3  -3  -9  446.08   10.51   0
   4  -4 -10 1036.43   15.14   0
   8  -1   6  136.78    8.07   0
   8  -5  -8  296.49    8.91   0
   9  -2   5  121.39    8.16   0
   5  -2  -8 1535.46   15.97   0
   7   0   7   95.25    7.28   0
   6  -3  -9  346.73    9.36   0
   6  -2  -7  214.24    7.66   0
   5  -1  -6  798.21   11.89   0
   5   1   4  700.51   12.46   0
   8  -2  -2  175.01    8.60   0
  10  -5  -3   54.10    7.02   0
   4  -1  -7  628.25   10.76   0
   6   0   0  758.72   12.46   0
   7  -3  -8  352.63    9.55   0
   4  -2  -9  906.21   12.91   0
   8  -1   3   77.94    7.33   0
   9  -7  -8  106.16    8.11   0
  10  -4  -1   60.48    6.99   0
   6  -1  -5  397.79    9.80   0
   7  -2  -6  402.93    9.98   0
   9  -2   2  151.55    8.45   0
   6  -4 -11  280.33    8.92   0
   7   0   4  495.33   11.04   0
   9  -3  -3  119.52    7.99   0
   3   1  -1  808.21   12.89   0
   4   1   0 1333.21   16.02   0
   7  -6 -11  100.81    7.59   0
   8  -6 -10  126.40    8.17   0
   4   0  -5  364.72    8.76   0
   5   0  -4  861.26   12.80   0
   8  -4  -9  133.89    8.27   0
   8  -3  -7  111.26    7.23   0
   9  -6  -9  122.11    8.25   0
   3  -1  -8 1913.48   18.50   0
   4  -3 -11  294.81    8.69   0
   7  -1  -4  526.08   11.02   0
   8  -1   0  306.86    9.61   0
   5  -4 -12  532.92   11.13   0
   5   1   1  279.09    8.84   0
   7  -5 -12  317.24    9.81   0
   7   0   1  175.06    8.43   0
   3   0  -6 2415.23   20.45   0
   6   1   5  174.68    7.94   0
   8  -5 -11   78.50    7.82   0
   6  -2 -10  557.22   10.57   0
   9  -3  -6  110.65    7.92   0
   9  -5 -10   81.10    7.23   0
   3   2   4 1899.58   21.60   0
   5  -2 -11  252.78    7.97   0
   5  -1  -9  323.30    8.62   0
   6  -5 -13  167.78    7.95   0
   6  -1  -8  547.46   11.10   0
   7  -3 -11  114.95    7.90   0
   7  -2  -9  298.23    9.56   0
   9  -1   4   90.56    7.53   0
   4   1  -3  779.76   12.48   0
   6   1   2  223.55    8.55   0
   8  -1  -3  126.34    8.34   0
   8  -3 -10  159.44    8.55   0
   9  -2  -4  163.28    8.45   0
   4  -1 -10  810.50   12.19   0
   5   1  -2  657.90   12.02   0
   7  -4 -13  122.62    7.75   0
   7  -1  -7  104.00    7.48   0
   7   0  -2  142.81    7.22   0
   5  -3 -13  517.80   10.93   0
   5   0  -7  560.92   10.57   0
   8  -2  -8  264.10    9.60   0
   3   1  -4 2470.20   20.86   0
   8  -6 -13  120.24    8.08   0
   9  -6 -12  106.08    8.42   0
   9  -1   1   70.32    7.02   0
   4   0  -8 1328.67   15.06   0
   6  -4 -14  343.44    9.84   0
   6   0  -6  333.45    9.44   0
   8   0   2  151.54    8.41   0
   9  -4 -11   49.41    7.36   0
   9  -3  -9   71.63    7.48   0
   6   1  -1  278.44    9.16   0
   2   0  -7  320.01    8.69   0
   3   2   1  737.99   13.15   0
   4   2   2  778.66   13.32   0
   3  -3 -12 1339.81   17.40   0
   8  -5 -14  110.38    8.06   0
   1   2  -7 1444.80   16.29   0
   3   2 -14  333.40    9.06   0
   4   3  -8  353.82    9.72   0
   2   2 -12 1557.57   15.93   0
   2   3  -4 1982.71   19.29   0
   4  -1 -22  205.99    8.59   0
   6   0 -21   95.27    7.28   0
   7   0 -20  105.54    8.04   0
   7   2 -10   82.42    7.41   0
   5   3  -7  110.20    7.47   0
   1   1 -12 1685.03   17.09   0
   3   3  -9  359.97    9.28   0
   6   2 -14  104.56    7.69   0
   4   2 -16  257.19    9.25   0
   5   0 -22  110.17    8.10   0
   6   1 -19   33.67    6.96   0
   2   3  -7  319.73    8.83   0
   6  -2 -25   68.50    7.66   0
   4   3 -11  122.08    7.75   0
   5  -1 -24  138.39    8.29   0
   5   1 -20  130.12    7.55   0
   3   1 -19  144.44    7.07   0
   5   3 -10  178.17    8.28   0
   1   2 -10 1291.92   15.01   0
   2   1 -17  491.34    9.92   0
   4  -2 -24  216.20    8.79   0
   2   0 -19  184.28    7.79   0
   2   2 -15  162.79    7.69   0
   3  -2 -22  226.73    8.63   0
   3   2 -17  352.49    9.87   0
   4   1 -21  112.04    8.37   0
   5   2 -18  177.37    8.66   0
   6   3  -9   57.80    7.08   0
   5   3 -13  136.60    8.36   0
   6   0 -24   71.37    7.33   0
   1   1 -15  530.41   10.62   0
   4   2 -19   64.51    7.82   0
   4   3 -14  284.48    8.78   0
   5  -2 -26   82.64    7.51   0
   1   3  -5 1011.57   14.41   0
   1   3  -2 1179.13   16.50   0
   3  -1 -23   83.36    7.16   0
   6   1 -22   83.92    7.37   0
   1  -1 -16 1463.28   17.61   0
   1   2 -13  482.49   10.26   0
   4  -1 -25  114.41    7.71   0
   2  -2 -20  603.76   12.26   0
   3   3 -15  148.39    8.05   0
   5   1 -23   45.49    7.25   0
   6   3 -12  140.87    7.68   0
   2   3 -13  516.79   10.23   0
   1   0 -17  801.56   12.74   0
   2  -1 -21  256.49    8.70   0
   3   1 -22  210.58    8.89   0
   1  -2 -15  469.31   11.82   0
   2   2 -18  322.60    9.53   0
   3   2 -20  332.97    9.77   0
   3   4  -4  436.94   10.69   0
   5   2 -21   87.07    7.82   0
   5   3 -16  137.98    8.69   0
   3   0 -24  164.12    8.27   0
   5  -1 -27   17.83    7.24   0
   1   3 -11  317.41    8.89   0
   4   1 -24  138.69    7.78   0
   4   4  -9  151.60    8.18   0
   0   1 -10 1409.39   16.72   0
   2   0 -22  511.09   11.17   0
   3   4 -10  337.67    9.76   0
   4   2 -22  170.47    8.66   0
   1   2 -16 1032.50   13.37   0
   2   3 -16  569.55   11.39   0
   2   4  -5  287.62    8.84   0
   4   0 -26  107.34    8.11   0
   1   1 -18  736.95   11.81   0
   3   3 -18  215.18    8.09   0
   0   2  -8 2807.36   22.79   0
   2   4  -2  719.16   13.28   0
   4   4 -12  255.70    9.53   0
   3   4 -13  118.95    7.62   0
   0   0 -12 4079.36   29.29   0
   1   3 -14  578.30   10.57   0
   2   2 -21  298.20    9.20   0
   2   4 -11  299.88    8.50   0
   4   3 -20  110.97    8.08   0
   0   2 -11 1778.91   17.65   0
   1  -1 -19  210.74    8.37   0
   3   2 -23   35.91    7.44   0
   0   1 -13 1017.07   13.71   0
   1   0 -20  605.27   11.46   0
   4  -1 -28   85.48    7.28   0
   2   3 -19   82.99    7.13   0
   4   4 -15   58.62    6.95   0
   1   2 -19  251.40    8.25   0
   3   3 -21  126.32    8.16   0
   1   4  -6 1012.15   14.11   0
   3   4 -16  210.32    8.89   0
   4   2 -25   60.34    7.19   0
   5   4 -14   43.81    6.94   0
  -5  -3  -2  197.82    8.38   0
  -3  -3 -15  154.35    8.38   0
  -2  -1 -22  230.36    8.69   0
  -5  -3 -14  111.35    8.52   0
  -5  -2 -21   67.83    7.70   0
  -5  -1 -25   56.43    7.63   0
  -6  -3  -6  117.62    8.32   0
  -6  -3  -9  144.32    8.88   0
  -1  -3  -7  607.30   10.81   0
  -6  -3  -3   52.24    7.75   0
  -3  -2 -22  166.03    9.08   0
  -2  -3   1  691.58   11.95   0
  -1  -3 -10  812.91   12.31   0
  -1  -3  -4 2486.82   21.19   0
  -1  -2 -17  457.22    9.95   0
  -4  -2 -23   53.75    8.48   0
  -3  -3   3  363.59    9.72   0
  -3  -3 -18  228.78    8.84   0
   0  -2  -7  315.18    8.76   0
;
_shelx_hkl_checksum              62711
loop_
_space_group_symop_operation_xyz
'x, y, z'
'-y, x-y, z'
'-x+y, -x, z'
'y, x, -z'
'x-y, -y, -z'
'-x, -x+y, -z'
'x+2/3, y+1/3, z+1/3'
'-y+2/3, x-y+1/3, z+1/3'
'-x+y+2/3, -x+1/3, z+1/3'
'y+2/3, x+1/3, -z+1/3'
'x-y+2/3, -y+1/3, -z+1/3'
'-x+2/3, -x+y+1/3, -z+1/3'
'x+1/3, y+2/3, z+2/3'
'-y+1/3, x-y+2/3, z+2/3'
'-x+y+1/3, -x+2/3, z+2/3'
'y+1/3, x+2/3, -z+2/3'
'x-y+1/3, -y+2/3, -z+2/3'
'-x+1/3, -x+y+2/3, -z+2/3'
'-x, -y, -z'
'y, -x+y, -z'
'x-y, x, -z'
'-y, -x, z'
'-x+y, y, z'
'x, x-y, z'
'-x+2/3, -y+1/3, -z+1/3'
'y+2/3, -x+y+1/3, -z+1/3'
'x-y+2/3, x+1/3, -z+1/3'
'-y+2/3, -x+1/3, z+1/3'
'-x+y+2/3, y+1/3, z+1/3'
'x+2/3, x-y+1/3, z+1/3'
'-x+1/3, -y+2/3, -z+2/3'
'y+1/3, -x+y+2/3, -z+2/3'
'x-y+1/3, x+2/3, -z+2/3'
'-y+1/3, -x+2/3, z+2/3'
'-x+y+1/3, y+2/3, z+2/3'
'x+1/3, x-y+2/3, z+2/3'
loop_
_atom_site_label
_atom_site_type_symbol
_atom_site_fract_x
_atom_site_fract_y
_atom_site_fract_z
_atom_site_U_iso_or_equiv
_atom_site_adp_type
_atom_site_occupancy
_atom_site_site_symmetry_order
_atom_site_calc_flag
_atom_site_refinement_flags_posn
_atom_site_refinement_flags_adp
_atom_site_refinement_flags_occupancy
Ba1 Ba 0.0000 0.0000 0.5000 0.01395(4) Uani 1 12 d S T P
Mg2 Mg 0.0000 0.0000 0.0000 0.01121(15) Uani 1 12 d S T P
O3 O 0.85358(13) 0.7072(3) 0.25775(7) 0.0277(2) Uani 1 2 d S T P
C4 C 0.0000 0.0000 0.26075(11) 0.0113(2) Uani 1 6 d S T P
loop_
_atom_site_aniso_label
_atom_site_aniso_U_11
_atom_site_aniso_U_22
_atom_site_aniso_U_33
_atom_site_aniso_U_23
_atom_site_aniso_U_13
_atom_site_aniso_U_12
Ba1 0.01227(5) 0.01227(5) 0.01733(7) 0.000 0.000 0.00613(2)
Mg2 0.0096(2) 0.0096(2) 0.0145(4) 0.000 0.000 0.00479(11)
O3 0.0367(5) 0.0104(3) 0.0271(4) 0.0042(3) 0.00210(16) 0.00521(17)
C4 0.0109(3) 0.0109(3) 0.0123(5) 0.000 0.000 0.00543(17)
loop_
_atom_type_symbol
_atom_type_description
_atom_type_scat_dispersion_real
_atom_type_scat_dispersion_imag
_atom_type_scat_source
C C 0.0033 0.0016 'International Tables Vol C Tables 4.2.6.8 and 6.1.1.4'
O O 0.0106 0.0060 'International Tables Vol C Tables 4.2.6.8 and 6.1.1.4'
Mg Mg 0.0486 0.0363 'International Tables Vol C Tables 4.2.6.8 and 6.1.1.4'
Ba Ba -0.3244 2.2819 'International Tables Vol C Tables 4.2.6.8 and 6.1.1.4'
loop_
_geom_angle_atom_site_label_1
_geom_angle_atom_site_label_2
_geom_angle_atom_site_label_3
_geom_angle
_geom_angle_site_symmetry_1
_geom_angle_site_symmetry_3
O3 Ba1 O3 180.0 31 7_445
O3 Ba1 O3 57.10(4) 31 32_455
O3 Ba1 O3 122.90(4) 7_445 32_455
O3 Ba1 O3 122.90(4) 31 8_545
O3 Ba1 O3 57.10(4) 7_445 8_545
O3 Ba1 O3 180.0 32_455 8_545
O3 Ba1 O3 43.98(4) 31 33_435
O3 Ba1 O3 136.02(4) 7_445 33_435
O3 Ba1 O3 95.46(3) 32_455 33_435
O3 Ba1 O3 84.54(3) 8_545 33_435
O3 Ba1 O3 136.02(4) 31 9_565
O3 Ba1 O3 43.98(4) 7_445 9_565
O3 Ba1 O3 84.54(3) 32_455 9_565
O3 Ba1 O3 95.46(3) 8_545 9_565
O3 Ba1 O3 180.0 33_435 9_565
O3 Ba1 O3 95.46(3) 31 33_545
O3 Ba1 O3 84.54(3) 7_445 33_545
O3 Ba1 O3 43.98(4) 32_455 33_545
O3 Ba1 O3 136.02(4) 8_545 33_545
O3 Ba1 O3 116.94(4) 33_435 33_545
O3 Ba1 O3 63.06(4) 9_565 33_545
O3 Ba1 O3 84.54(3) 31 9_455
O3 Ba1 O3 95.46(3) 7_445 9_455
O3 Ba1 O3 136.02(4) 32_455 9_455
O3 Ba1 O3 43.98(4) 8_545 9_455
O3 Ba1 O3 63.06(4) 33_435 9_455
O3 Ba1 O3 116.94(4) 9_565 9_455
O3 Ba1 O3 180.0 33_545 9_455
O3 Ba1 O3 95.46(3) 31 32_445
O3 Ba1 O3 84.54(3) 7_445 32_445
O3 Ba1 O3 116.94(4) 32_455 32_445
O3 Ba1 O3 63.06(4) 8_545 32_445
O3 Ba1 O3 57.10(4) 33_435 32_445
O3 Ba1 O3 122.90(4) 9_565 32_445
O3 Ba1 O3 95.46(3) 33_545 32_445
O3 Ba1 O3 84.54(3) 9_455 32_445
O3 Ba1 O3 84.54(3) 31 8
O3 Ba1 O3 95.46(3) 7_445 8
O3 Ba1 O3 63.06(4) 32_455 8
O3 Ba1 O3 116.94(4) 8_545 8
O3 Ba1 O3 122.90(4) 33_435 8
O3 Ba1 O3 57.10(4) 9_565 8
O3 Ba1 O3 84.54(3) 33_545 8
O3 Ba1 O3 95.46(3) 9_455 8
O3 Ba1 O3 180.00(4) 32_445 8
O3 Ba1 O3 63.06(4) 31 7_345
O3 Ba1 O3 116.94(4) 7_445 7_345
O3 Ba1 O3 84.54(3) 32_455 7_345
O3 Ba1 O3 95.46(3) 8_545 7_345
O3 Ba1 O3 84.54(3) 33_435 7_345
O3 Ba1 O3 95.46(3) 9_565 7_345
O3 Ba1 O3 122.90(4) 33_545 7_345
O3 Ba1 O3 57.10(4) 9_455 7_345
O3 Ba1 O3 136.03(4) 32_445 7_345
O3 Ba1 O3 43.97(4) 8 7_345
O3 Ba1 O3 116.94(4) 31 31_655
O3 Ba1 O3 63.06(4) 7_445 31_655
O3 Ba1 O3 95.46(3) 32_455 31_655
O3 Ba1 O3 84.54(3) 8_545 31_655
O3 Ba1 O3 95.46(3) 33_435 31_655
O3 Ba1 O3 84.54(3) 9_565 31_655
O3 Ba1 O3 57.10(4) 33_545 31_655
O3 Ba1 O3 122.90(4) 9_455 31_655
O3 Ba1 O3 43.97(4) 32_445 31_655
O3 Ba1 O3 136.03(5) 8 31_655
O3 Ba1 O3 180.0 7_345 31_655
O3 Mg2 O3 180.00(5) 26_455 14_544
O3 Mg2 O3 86.07(5) 26_455 27_445
O3 Mg2 O3 93.93(5) 14_544 27_445
O3 Mg2 O3 93.93(5) 26_455 15_554
O3 Mg2 O3 86.07(5) 14_544 15_554
O3 Mg2 O3 180.00(6) 27_445 15_554
O3 Mg2 O3 86.07(5) 26_455 25
O3 Mg2 O3 93.93(5) 14_544 25
O3 Mg2 O3 86.07(5) 27_445 25
O3 Mg2 O3 93.93(5) 15_554 25
O3 Mg2 O3 93.93(5) 26_455 13_444
O3 Mg2 O3 86.07(5) 14_544 13_444
O3 Mg2 O3 93.93(5) 27_445 13_444
O3 Mg2 O3 86.07(5) 15_554 13_444
O3 Mg2 O3 180.00(6) 25 13_444
O3 Mg2 Ba1 135.327(16) 26_455 7_444
O3 Mg2 Ba1 44.673(16) 14_544 7_444
O3 Mg2 Ba1 135.327(16) 27_445 7_444
O3 Mg2 Ba1 44.673(16) 15_554 7_444
O3 Mg2 Ba1 82.01(4) 25 7_444
O3 Mg2 Ba1 97.99(4) 13_444 7_444
O3 Mg2 Ba1 44.673(16) 26_455 13_554
O3 Mg2 Ba1 135.327(16) 14_544 13_554
O3 Mg2 Ba1 44.673(16) 27_445 13_554
O3 Mg2 Ba1 135.327(16) 15_554 13_554
O3 Mg2 Ba1 97.99(4) 25 13_554
O3 Mg2 Ba1 82.01(4) 13_444 13_554
Ba1 Mg2 Ba1 180.0 7_444 13_554
O3 Mg2 Ba1 82.01(4) 26_455 7_554
O3 Mg2 Ba1 97.99(4) 14_544 7_554
O3 Mg2 Ba1 135.327(16) 27_445 7_554
O3 Mg2 Ba1 44.673(16) 15_554 7_554
O3 Mg2 Ba1 135.327(16) 25 7_554
O3 Mg2 Ba1 44.673(16) 13_444 7_554
Ba1 Mg2 Ba1 77.054(2) 7_444 7_554
Ba1 Mg2 Ba1 102.946(2) 13_554 7_554
O3 Mg2 Ba1 97.99(4) 26_455 13_444
O3 Mg2 Ba1 82.01(4) 14_544 13_444
O3 Mg2 Ba1 44.673(16) 27_445 13_444
O3 Mg2 Ba1 135.327(16) 15_554 13_444
O3 Mg2 Ba1 44.673(16) 25 13_444
O3 Mg2 Ba1 135.327(16) 13_444 13_444
Ba1 Mg2 Ba1 102.946(2) 7_444 13_444
Ba1 Mg2 Ba1 77.054(2) 13_554 13_444
Ba1 Mg2 Ba1 180.0 7_554 13_444
O3 Mg2 Ba1 135.327(16) 26_455 7_454
O3 Mg2 Ba1 44.673(16) 14_544 7_454
O3 Mg2 Ba1 82.01(3) 27_445 7_454
O3 Mg2 Ba1 97.99(3) 15_554 7_454
O3 Mg2 Ba1 135.327(16) 25 7_454
O3 Mg2 Ba1 44.673(16) 13_444 7_454
Ba1 Mg2 Ba1 77.054(2) 7_444 7_454
Ba1 Mg2 Ba1 102.946(2) 13_554 7_454
Ba1 Mg2 Ba1 77.054(2) 7_554 7_454
Ba1 Mg2 Ba1 102.946(2) 13_444 7_454
O3 Mg2 Ba1 44.673(16) 26_455 13_544
O3 Mg2 Ba1 135.327(16) 14_544 13_544
O3 Mg2 Ba1 97.99(3) 27_445 13_544
O3 Mg2 Ba1 82.01(3) 15_554 13_544
O3 Mg2 Ba1 44.673(16) 25 13_544
O3 Mg2 Ba1 135.327(16) 13_444 13_544
Ba1 Mg2 Ba1 102.946(2) 7_444 13_544
Ba1 Mg2 Ba1 77.054(2) 13_554 13_544
Ba1 Mg2 Ba1 102.946(2) 7_554 13_544
Ba1 Mg2 Ba1 77.054(2) 13_444 13_544
Ba1 Mg2 Ba1 180.0 7_454 13_544
C4 O3 Mg2 139.73(12) 1_665 7
C4 O3 Ba1 94.61(5) 1_665 13_554
Mg2 O3 Ba1 105.83(3) 7 13_554
C4 O3 Ba1 94.61(5) 1_665 13_654
Mg2 O3 Ba1 105.83(3) 7 13_654
Ba1 O3 Ba1 116.94(4) 13_554 13_654
O3 C4 O3 119.846(14) 1_445 2_655
O3 C4 O3 119.844(14) 1_445 3_565
O3 C4 O3 119.844(14) 2_655 3_565
O3 C4 Ba1 62.77(5) 1_445 13_444
O3 C4 Ba1 149.13(12) 2_655 13_444
O3 C4 Ba1 62.77(5) 3_565 13_444
O3 C4 Ba1 149.13(12) 1_445 13_554
O3 C4 Ba1 62.77(5) 2_655 13_554
O3 C4 Ba1 62.77(5) 3_565 13_554
Ba1 C4 Ba1 98.99(3) 13_444 13_554
O3 C4 Ba1 62.77(5) 1_445 13_544
O3 C4 Ba1 62.77(5) 2_655 13_544
O3 C4 Ba1 149.13(12) 3_565 13_544
Ba1 C4 Ba1 98.99(3) 13_444 13_544
Ba1 C4 Ba1 98.99(3) 13_554 13_544
loop_
_geom_bond_atom_site_label_1
_geom_bond_atom_site_label_2
_geom_bond_distance
_geom_bond_site_symmetry_2
Ba1 O3 2.9458(7) 31
Ba1 O3 2.9458(7) 7_445
Ba1 O3 2.9458(7) 32_455
Ba1 O3 2.9458(7) 8_545
Ba1 O3 2.9458(7) 33_435
Ba1 O3 2.9458(7) 9_565
Ba1 O3 2.9458(7) 33_545
Ba1 O3 2.9458(7) 9_455
Ba1 O3 2.9458(7) 32_445
Ba1 O3 2.9458(7) 8
Ba1 O3 2.9458(7) 7_345
Ba1 O3 2.9458(7) 31_655
Mg2 O3 2.0631(11) 26_455
Mg2 O3 2.0631(11) 14_544
Mg2 O3 2.0631(11) 27_445
Mg2 O3 2.0631(11) 15_554
Mg2 O3 2.0631(11) 25
Mg2 O3 2.0631(11) 13_444
Mg2 Ba1 4.03100(10) 7_444
Mg2 Ba1 4.03100(10) 13_554
Mg2 Ba1 4.03100(11) 7_554
Mg2 Ba1 4.03100(11) 13_444
Mg2 Ba1 4.03103(10) 7_454
Mg2 Ba1 4.03103(10) 13_544
O3 C4 1.2745(11) 1_665
O3 Mg2 2.0631(11) 7
O3 Ba1 2.9458(7) 13_554
O3 Ba1 2.9458(7) 13_654
C4 O3 1.2745(11) 1_445
C4 O3 1.2745(11) 2_655
C4 O3 1.2746(11) 3_565
C4 Ba1 3.3023(9) 13_444
C4 Ba1 3.3023(9) 13_554
C4 Ba1 3.3023(9) 13_544
