#------------------------------------------------------------------------------
#$Date: 2019-12-26 21:22:11 +0200 (Thu, 26 Dec 2019) $
#$Revision: 246100 $
#$URL: file:///home/coder/svn-repositories/cod/cif/2/31/17/2311744.cif $
#------------------------------------------------------------------------------
#
# This file is available in the Crystallography Open Database (COD),
# http://www.crystallography.net/. The original data for this entry
# were provided by IUCr Journals, http://journals.iucr.org/.
#
# The file may be used within the scientific community so long as
# proper attribution is given to the journal article from which the
# data were obtained.
#
data_2311744
loop_
_publ_author_name
'Ende, Martin'
'Effenberger, Herta'
'Miletich, Ronald'
_publ_section_title
;
 Evolution of the \a-BaMg(CO<sub>3</sub>)<sub>2</sub> low-temperature
 superstructure and the tricritical nature of its \a-\b phase transition.
;
_journal_issue                   'Pt 5'
_journal_name_full
'Acta crystallographica Section B, Structural science, crystal engineering and materials'
_journal_page_first              827
_journal_page_last               835
_journal_paper_doi               10.1107/S2052520617009295
_journal_volume                  73
_journal_year                    2017
_chemical_formula_sum            'C6 Ba3 Mg3 O18'
_chemical_formula_weight         845.01
_space_group_crystal_system      trigonal
_space_group_IT_number           167
_space_group_name_Hall           '-R 3 2"c'
_space_group_name_H-M_alt        'R -3 c :H'
_audit_creation_method           SHELXL-2014/7
_cell_angle_alpha                90
_cell_angle_beta                 90
_cell_angle_gamma                120
_cell_formula_units_Z            2
_cell_length_a                   5.01130(10)
_cell_length_b                   5.01130(10)
_cell_length_c                   33.5158(10)
_cell_measurement_reflns_used    9363
_cell_measurement_temperature    200(2)
_cell_measurement_theta_max      45
_cell_measurement_theta_min      1.5
_cell_volume                     728.92(3)
_computing_structure_refinement  'SHELXL-2014/7 (Sheldrick, 2014)'
_diffrn_ambient_temperature      200(2)
_diffrn_measured_fraction_theta_full 0.993
_diffrn_measured_fraction_theta_max 0.996
_diffrn_measurement_device_type  StoeStadiVari
_diffrn_radiation_type           MoK\a
_diffrn_radiation_wavelength     0.71073
_diffrn_reflns_av_R_equivalents  0.0304
_diffrn_reflns_av_unetI/netI     0.0140
_diffrn_reflns_Laue_measured_fraction_full 0.993
_diffrn_reflns_Laue_measured_fraction_max 0.996
_diffrn_reflns_limit_h_max       9
_diffrn_reflns_limit_h_min       -10
_diffrn_reflns_limit_k_max       10
_diffrn_reflns_limit_k_min       -9
_diffrn_reflns_limit_l_max       65
_diffrn_reflns_limit_l_min       -34
_diffrn_reflns_number            9363
_diffrn_reflns_point_group_measured_fraction_full 0.993
_diffrn_reflns_point_group_measured_fraction_max 0.996
_diffrn_reflns_theta_full        25.242
_diffrn_reflns_theta_max         45.574
_diffrn_reflns_theta_min         3.647
_exptl_absorpt_coefficient_mu    8.259
_exptl_absorpt_correction_T_max  0.8
_exptl_absorpt_correction_T_min  0.7
_exptl_absorpt_correction_type   numerical
_exptl_absorpt_process_details   '(Stoe & Cie GmbH 2016)'
_exptl_crystal_density_diffrn    3.850
_exptl_crystal_description       prismatic
_exptl_crystal_F_000             768
_exptl_crystal_size_max          0.060
_exptl_crystal_size_mid          0.030
_exptl_crystal_size_min          0.030
_refine_diff_density_max         0.543
_refine_diff_density_min         -0.584
_refine_diff_density_rms         0.122
_refine_ls_extinction_method     none
_refine_ls_goodness_of_fit_ref   0.954
_refine_ls_hydrogen_treatment    undef
_refine_ls_matrix_type           full
_refine_ls_number_parameters     17
_refine_ls_number_reflns         697
_refine_ls_number_restraints     0
_refine_ls_restrained_S_all      0.954
_refine_ls_R_factor_all          0.0199
_refine_ls_R_factor_gt           0.0101
_refine_ls_shift/su_max          0.000
_refine_ls_shift/su_mean         0.000
_refine_ls_structure_factor_coef Fsqd
_refine_ls_weighting_details
'w=1/[\s^2^(Fo^2^)+(0.0117P)^2^] where P=(Fo^2^+2Fc^2^)/3'
_refine_ls_weighting_scheme      calc
_refine_ls_wR_factor_gt          0.0192
_refine_ls_wR_factor_ref         0.0204
_reflns_Friedel_coverage         0.000
_reflns_number_gt                515
_reflns_number_total             697
_reflns_threshold_expression     'I > 2\s(I)'
_cod_data_source_file            xk5041sup1.cif
_cod_data_source_block           norse_200
_cod_original_cell_volume        728.92(4)
_cod_original_sg_symbol_H-M      'R -3 c'
_cod_database_code               2311744
_shelx_shelxl_version_number     2014/7
_shelx_space_group_comment
;
The symmetry employed for this shelxl refinement is uniquely defined
by the following loop, which should always be used as a source of
symmetry information in preference to the above space-group names.
They are only intended as comments.
;
_shelx_estimated_absorpt_t_min   0.637
_shelx_estimated_absorpt_t_max   0.790
_shelx_res_file
;

    norse_200.res created by SHELXL-2014/7


TITL norse_100K_woo_a.res in R-3c
REM Old TITL norse_100k_woo in R-3c

REM SHELXT solution in R-3c
REM R1 0.027,  Rweak 0.000,  Alpha 0.038,  Orientation as input
REM Formula found by SHELXT:  C2 O6 Mg Ba

CELL  0.71073   5.0113   5.0113  33.5158   90.000   90.000  120.000
ZERR    2.000   0.0001   0.0001   0.0010    0.000    0.000    0.000
LATT  3
SYMM -Y, X-Y, Z
SYMM -X+Y, -X, Z
SYMM Y, X, 1/2-Z
SYMM X-Y, -Y, 1/2-Z
SYMM -X, -X+Y, 1/2-Z
SFAC C O MG BA
UNIT 12 36 6 6
L.S. 20
TEMP -73.15
SIZE 0.06 0.03 0.03
BOND $H
ACTA
LIST 4
FMAP 2
PLAN 20
REM EXTI    0.000000
WGHT    0.011700
FVAR       0.21597
BA1   4    0.000000    0.000000    0.250000    10.16667    0.00656    0.00656 =
         0.00965    0.00000    0.00000    0.00328
MG2   3    0.000000    0.000000    0.000000    10.16667    0.00542    0.00542 =
         0.00834    0.00000    0.00000    0.00271
O3    2    0.113315    0.821135    0.129274    11.00000    0.01798    0.01499 =
         0.01585   -0.00361   -0.00596    0.01355
C4    1    0.000000    0.000000    0.130339    10.33333    0.00680    0.00680 =
         0.00756    0.00000    0.00000    0.00340
HKLF 4

REM  norse_100K_woo_a.res in R-3c
REM R1 =  0.0101 for     515 Fo > 4sig(Fo)  and  0.0199 for all     697 data
REM     17 parameters refined using      0 restraints

END

WGHT      0.0117      0.0000

REM Highest difference peak  0.543,  deepest hole -0.584,  1-sigma level  0.122
Q1    1   0.0950  0.1348  0.1316  11.00000  0.05    0.54
Q2    1   0.0041  0.7034  0.1322  11.00000  0.05    0.42
Q3    1   0.2278  0.8246  0.1385  11.00000  0.05    0.42
Q4    1  -0.1180 -0.1194  0.2661  11.00000  0.05    0.38
Q5    1   0.2519  0.9808  0.1353  11.00000  0.05    0.38
Q6    1   0.0843 -0.2024  0.2644  11.00000  0.05    0.36
Q7    1   0.1433 -0.0627  0.2808  11.00000  0.05    0.34
Q8    1  -0.0693  0.5212  0.1297  11.00000  0.05    0.32
Q9    1   0.2009  0.6912  0.1349  11.00000  0.05    0.31
Q10   1   0.4069  0.9375  0.1109  11.00000  0.05    0.31
Q11   1  -0.0248  0.6696  0.1156  11.00000  0.05    0.29
Q12   1  -0.2285  0.5230  0.1322  11.00000  0.05    0.29
Q13   1   0.2900  1.0608  0.1153  11.00000  0.05    0.28
Q14   1   0.1876  0.5981  0.1194  11.00000  0.05    0.28
Q15   1   0.0929  0.9074  0.1488  11.00000  0.05    0.27
Q16   1   0.0862  0.6134  0.1150  11.00000  0.05    0.27
Q17   1   0.5243  1.1363  0.1354  11.00000  0.05    0.26
Q18   1   0.0972  0.5297  0.1314  11.00000  0.05    0.26
Q19   1  -0.0541  0.5364  0.1081  11.00000  0.05    0.24
Q20   1   0.3674  0.9641  0.1455  11.00000  0.05    0.24
;
_shelx_res_checksum              84915
_shelx_hkl_file
;
   0   4  17   -3.91    7.06   0
   2   1  37    1.02    8.16   0
   0   5   1    1.95    6.92   0
   2   0  35   -1.25    8.34   0
   0   2  19    2.02    6.56   0
   0   4  14  380.88   12.12   0
   2   2  36  493.50   14.61   0
   0   4 -13    1.47    7.61   0
   1   0 -26 1281.18   28.99   0
   1   3  28  845.53   17.04   0
   1   2  29    9.82    6.93   0
   2  -3  14 1638.88   31.38   0
   0   1  14 1821.85   31.77   0
   0   4  11   -9.13    6.82   0
   1  -2   0 3779.64   44.49   0
   1   0  25   -1.18    8.65   0
   0   2  16 3197.51   33.72   0
   0   3  15    0.53    6.87   0
   1  -2   3   16.25    6.32   0
   1   1  27   -1.26    7.23   0
   1   4  21   19.28    7.84   0
   1   5 -13   12.36    8.01   0
   0   4   5   -0.97    7.89   0
   0   2 -17   -2.14   10.45   0
   0   4  -7    0.46    6.78   0
   2   1  34  722.14   17.42   0
   0   3 -15    0.57    7.60   0
   0   3  12 2166.35   25.81   0
   0   4  -4 1644.33   23.55   0
   2  -1  30  703.06   24.08   0
   2   2  33    3.58    7.58   0
   1   4  18  885.02   16.37   0
   1   5  -7   -0.59    7.62   0
   0   1  11    1.46    8.85   0
   0   2  13    3.69    6.33   0
   1   5  -4  889.35   17.08   0
   1   5  -1   10.63    7.66   0
   0   3   9   -0.23    7.69   0
   1   3  22  431.22   12.40   0
   2   0  32  719.51   19.15   0
   1   4  15    5.30    6.71   0
   2  -3  17   18.58    7.80   0
   0   3 -12 2647.77   35.51   0
   0   0  -6 1554.27   63.05   0
   0   2  10  197.01   10.73   0
   0   3   6 1986.13   25.53   0
   1   1  24 2000.57   27.97   0
   1  -2   9   62.60    9.47   0
   1   4  12 1316.93   19.43   0
   2   2  30  244.59   10.55   0
   0   3  -9    0.10    7.00   0
   0   3   3   -2.95    6.40   0
   1   3  19   30.64    7.66   0
   2   1  31    6.06    7.48   0
   0   1   8 9999.99   77.14   0
   1   0  22  512.80   18.14   0
   0   3   0 2686.15   30.37   0
   1   4   9   39.26    8.04   0
   3   1  35   12.12    8.28   0
   0   2   7    2.19    7.85   0
   0   3  -3    0.45    5.64   0
   1   4 -15   25.54    7.91   0
   1   3  16 2240.45   24.37   0
   1   4   6  409.93   11.59   0
  -4  -2  16  889.25   17.34   0
  -3  -1  25    0.42    7.19   0
  -1   2  21   14.97    7.25   0
  -3   0  30  706.29   14.52   0
  -2   2  29    2.00    7.33   0
   0   0  -9   -0.10    6.91   0
  -3   2  34  708.42   15.53   0
  -2  -2   9   -1.13    6.87   0
  -2   0  25    2.26    6.85   0
  -1  -1  12 4261.32   41.25   0
  -4  -2  13   -1.52    7.89   0
  -3   3  33   -1.19    8.09   0
  -2   1  27   -4.62    7.07   0
  -1   0  17    0.92    8.41   0
   0   0 -12  158.39   11.47   0
   0   2   1    0.71    9.02   0
  -1   3  17    8.80    9.54   0
  -3  -2  11   11.99    8.56   0
  -1   1  19   -5.19    7.98   0
  -3   0  27   -1.12    7.26   0
  -2  -1  17   17.43    7.50   0
  -4  -1  21   19.07    7.84   0
  -2   0  22 2070.13   23.51   0
  -1  -1   9   86.87    9.11   0
  -1   2   9   72.73   10.03   0
   0   3   3   -0.70    6.56   0
  -2   6   7    3.21    7.72   0
   0   2   4 4645.20   44.62   0
  -3   6  12  847.60   16.32   0
  -2   5  11    1.71    7.93   0
   1   2  -4 3105.44   36.02   0
   1   4 -12 1047.73   18.27   0
   2   2 -24 1856.55   33.33   0
  -3   0   6 2025.78   35.52   0
  -1   5   6  449.95   13.12   0
   2   1 -20 1494.72   39.13   0
   0   4   2 1507.99   20.92   0
  -4   3  17    0.15    8.08   0
   0   5  -2  407.80   11.93   0
   1   4  -9    7.05    7.44   0
  -3   5  16 1991.06   25.27   0
   1   5 -19   -0.91    7.57   0
  -3   4  17    5.00    7.96   0
  -1   3  11   33.55    8.08   0
  -1   4  10 1244.19   19.73   0
   1  -1 -16 5356.44   57.45   0
  -4   6  17   -3.23    8.14   0
  -2   6  10  436.74   12.25   0
   1   5 -16  732.03   15.91   0
  -3   6  15    3.47    7.24   0
   0   3   6 2116.39   26.39   0
   1   1  -3   55.37   10.27   0
  -4   4  19   -1.41    8.34   0
  -1   5   9   38.86    7.40   0
   0   5   1   -2.10    6.61   0
   1   4  -6 1012.56   17.73   0
   0  -1  -8 9740.00   73.10   0
   0   4   5    1.96    6.65   0
   1   5 -13   20.12    7.96   0
   1   2  -1   62.29    7.91   0
   2   1 -17   18.97   10.09   0
   1  -1 -19   -2.17    7.00   0
  -2   3  16 2164.69   29.93   0
   0   2   7   -0.97    6.67   0
   1   5 -10  575.63   14.41   0
   2   2 -15    0.03    7.29   0
   2   3 -19   13.51    8.06   0
  -3   3  18 1416.17   27.53   0
  -3   5  19   10.36    8.15   0
  -1   4  13   19.38    7.22   0
  -1   2  12 3877.46   43.46   0
   0   1   5    0.35    8.59   0
   2   3 -16 2074.04   28.65   0
  -3   6  18  498.25   14.25   0
  -1   5  12 1289.40   19.43   0
   1   5  -7    0.95    7.93   0
  -4   5  21   10.79    7.88   0
   0   3   9    2.44    7.81   0
   0   4   8 1742.16   22.22   0
   1   3   1   47.49    7.59   0
  -1   3  14 1712.28   24.70   0
  -2   4  18 1181.00   20.10   0
   2   3 -13    4.62    7.33   0
   0  -1 -11    0.96    5.48   0
   2   1 -14 1678.23   37.12   0
   0   5   7   -3.30    6.80   0
   1   2   2  717.43   17.36   0
   1   5  -4  853.81   15.94   0
  -2   0   4 4857.83   63.11   0
  -1   4  16 2352.73   26.68   0
  -1   5  15    8.20    7.59   0
   1   1   0 4001.47   49.26   0
   2   2  -9    0.19    6.78   0
   0   4  11   -0.31    6.86   0
   1   3   4 1417.73   21.28   0
   1   5  -1   27.23    8.21   0
  -4   6  23    2.10    8.15   0
  -3   5  22  363.11   13.03   0
   0   2  10  207.50   12.03   0
   1   4   3   -0.63    6.55   0
   2   4 -14  371.89   12.94   0
  -2   5  20  707.23   15.86   0
   0   5  10  788.00   15.56   0
   0   3  12 2134.47   25.94   0
  -2   3  19    2.33    7.41   0
  -1   1  10 3792.63   61.06   0
   2   1 -11   34.08    9.20   0
   2   3  -7   20.40    6.98   0
   2   4 -11   -0.55    7.34   0
  -2   4  21    2.02    7.89   0
   1   2   5   12.88    6.51   0
   1   4   6  451.18   13.07   0
   2   4  -8 1063.79   18.88   0
   0   4  14  381.01   12.71   0
   1   3   7   24.49    7.14   0
  -3   4  23   24.51    8.28   0
   0   5  13    4.16    7.71   0
   2   3  -4  834.37   17.02   0
  -3   3  21    1.11    7.06   0
  -2   2  17   -0.53    8.14   0
   2   4  -5    6.05    7.56   0
  -4   1   7   28.92    8.55   0
  -2   5  23   14.36    8.20   0
  -3   5  25   -0.32    7.76   0
   0   1   8 9187.71   76.06   0
   0   3  15    2.87    6.95   0
   2   1  -8 3488.01   46.61   0
   2   2  -3    4.79    5.95   0
   1   1   3   50.45   10.31   0
   1   4   9   42.01    7.16   0
   2   3  -1    5.83    7.56   0
   0   2  13   -1.69    6.21   0
   2   4  -2  668.41   15.21   0
   0   5  16  828.02   15.97   0
   1   2   8 3392.24   34.16   0
   1   3  10 1237.23   19.40   0
  -1   0   2 1933.04   55.20   0
   0   4  17   -2.19    6.64   0
  -2   4  24 2094.07   26.56   0
  -2   3  22  521.96   15.86   0
   1   4  12 1273.89   19.00   0
   2   3   2  920.06   17.15   0
   2   4   1   -4.10    6.71   0
  -2   5  26  759.00   16.43   0
   2   1  -5   11.22    7.48   0
  -3   4  26  737.01   18.59   0
   0   3  18  601.38   14.63   0
   1   3  13   13.12    6.99   0
   2   4   4  974.95   17.24   0
   0   4  20 1486.43   20.57   0
   1   2  11   30.71    7.28   0
   0   2  16 3121.58   33.32   0
   1   1   6 1992.30   31.63   0
   1   4  15    6.29    6.61   0
  -1   4  25    0.55    7.93   0
  -2   4  27   -2.16    7.74   0
  -1   3  23    5.31    7.76   0
  -3   3  24 1193.35   25.75   0
  -2   0  -2 5003.82   50.16   0
   0   1  11   -1.02    7.37   0
   2   3   8 2318.25   25.48   0
  -2   5  29   -0.73    8.13   0
   1   3  16 2286.75   25.01   0
   3   3  -9   12.91    7.63   0
   0   3  21   -1.36    6.63   0
   0   4  23    5.19    7.66   0
   2   2   6  862.70   17.28   0
  -2   2  20 3679.99   46.31   0
  -2   3  25   12.62    7.97   0
   1   0  -5   -1.11   14.57   0
   1   4  18  847.61   15.40   0
   3   2 -14  434.52   16.35   0
   1   2  14 1711.01   23.59   0
   3   2 -11    3.80    8.11   0
   3   3  -6  534.22   14.61   0
   2   3  11    5.05    7.67   0
   3   2  -8 2388.49   31.15   0
  -3   4  29    5.30    8.28   0
   3   3  -3   10.88    6.55   0
  -1   4  28  829.54   16.69   0
   0   2  19   -1.49    6.44   0
   1   1   9   73.12    8.72   0
   1   3  19   30.06    8.22   0
  -3   2  19    3.08    9.67   0
  -1   2  21   30.71    7.70   0
   1   0 -23    0.21    7.00   0
   2   2   9    4.86    6.47   0
   2   4  13   -5.14    6.40   0
   3   2  -5   18.67    7.62   0
   1   4  21   11.55    6.69   0
   3   3   0 1214.05   19.67   0
  -3   1   8 3266.26   56.75   0
  -2   4  30  259.73   11.69   0
  -1   3  26  578.43   14.76   0
   0   3  24 1763.60   23.04   0
  -1   0  -1   -1.83    9.70   0
   2   3  14  428.97   12.67   0
   1   2  17   17.30    7.16   0
   2   1   4 3089.89   35.22   0
   3   2  -2  919.21   18.75   0
   3   3   3   11.25    7.60   0
   0   1  14 1698.09   29.71   0
   1   0 -20 1591.79   34.24   0
   2   2  12  868.72   17.17   0
   1   3  22  410.26   11.87   0
   3   2   1    7.53    7.39   0
   3   3   6  524.02   13.72   0
  -2   3  28 1486.57   24.57   0
  -1   4  31    7.84    8.08   0
   0   2  22 2055.20   26.54   0
   1   1  12 4004.23   39.53   0
   2   3  17    1.59    7.69   0
  -3   3  27    3.62    7.28   0
   2   1   7   -1.04    7.22   0
   3   2   4  836.45   16.98   0
   1   2  20 1619.37   22.05   0
  -2   4  33    0.89    8.22   0
  -1   0  -4 2496.22   42.96   0
  -1   3  29   11.99    7.93   0
   1   0 -17    0.98    8.22   0
   2   2  15    1.53    6.56   0
   3   3   9    6.59    6.69   0
  -2   2  23   -0.34    7.71   0
  -1   2  24 1913.28   27.78   0
   1   3  25    1.17    6.52   0
   2   3  20  706.60   14.55   0
   3   1 -10 1218.06   27.27   0
   3   1  -7   26.93    8.95   0
  -1   0  -7    0.55    6.58   0
   3   2   7   23.36    6.73   0
   3   3  12  842.26   15.44   0
  -3   1 -16 2067.08   59.10   0
  -3   1  17   11.24    7.23   0
   3  -3  15   -0.84    7.88   0
  -5   1  21   13.62    7.76   0
  -1  -1  33    7.21    8.13   0
  -2   1   9   74.01    8.72   0
  -1  -2  40  566.28   15.42   0
  -1   0 -19    1.15    7.57   0
  -4   1  22  431.30   12.15   0
  -3   1  20 1591.64   21.94   0
   1  -2  30  676.54   21.40   0
  -3   0  33   -3.07    7.72   0
  -2  -1  38  454.92   13.08   0
  -2   1  12 4063.67   39.65   0
   0  -1  28 1495.51   26.36   0
  -4   1  25    1.92    7.19   0
   1  -1 -10 3621.76   40.66   0
   0   0   6 1612.60   51.85   0
  -3   1  23    0.45    7.92   0
  -2   0  31   -4.78    8.10   0
  -2   1  15    7.44    6.25   0
  -5   2   2  931.08   18.04   0
  -5   2   5   18.98    6.81   0
  -1  -1  36 1120.81   20.32   0
  -6   2   1    4.83    7.16   0
  -6   2   4 1015.96   17.84   0
  -6   2   7   -4.45    7.51   0
  -5   2  -1    2.27    7.29   0
  -5   2   8 2266.68   25.17   0
  -4   1  28  832.93   15.94   0
  -6   2  -2  631.21   15.31   0
  -6   2  10  426.36   12.45   0
  -3   0  36  647.81   14.50   0
  -1   0  26 1257.42   22.05   0
  -5   2  -4  813.96   18.37   0
  -2  -1  41    3.45    8.07   0
  -2   1  -9   68.26   14.82   0
   0   0   9   -0.20    9.87   0
  -6   2  13    3.55    6.54   0
  -5   2  14  437.96   12.05   0
  -3   1  26  610.06   14.29   0
  -2   1  18 1209.61   20.76   0
   1  -1  -7   -0.74    7.43   0
  -6   2  -5   -1.35    7.11   0
  -4   2   9    1.28    7.60   0
  -2   0  34  333.23   12.23   0
   1  -1  17    0.03    8.67   0
  -5   2  17    7.27    7.46   0
  -4   1  31   14.33    7.30   0
  -4   2   0 4356.85   40.03   0
   0  -1  31    1.06    7.25   0
  -5   2  -7   18.86    7.82   0
  -4   2  12  862.95   16.58   0
  -2   1  21   34.40    8.12   0
  -5   2  20  739.52   14.27   0
  -4   2  -3    1.85    6.73   0
  -4   2  15    1.80    6.52   0
  -3   1  29    2.94    6.70   0
  -1  -1  39    1.34    7.38   0
   0   0  12  251.35   16.63   0
  -1   0  29    2.94    7.44   0
  -2   0 -23   -0.85    7.62   0
   1  -2  33    8.14    7.91   0
  -5   2  23    4.34    6.49   0
  -4   2  18 1200.53   18.45   0
  -5   2 -10  750.63   19.80   0
  -2   0  37    6.40    6.66   0
  -2   1  24 1985.65   25.32   0
  -1   0 -16 4929.77   63.81   0
   1  -1  -4 2328.24   39.04   0
  -4   2  -6  850.25   20.79   0
  -4   2  21    0.26    7.62   0
   0   0  15   -0.40    7.64   0
   0  -1  34 1077.51   22.09   0
  -1   0  32 2018.27   26.40   0
   2  -2   1    1.14    5.88   0
  -1  -1  42  383.35   13.83   0
  -3   2   7    0.41    5.85   0
  -3   2  10 2048.16   26.14   0
  -3   1  35    4.47    6.56   0
  -3   2   4 3068.52   34.18   0
  -3   2  13   42.96    7.30   0
  -2   0  40 1057.60   18.65   0
  -4   2  27    2.91    7.16   0
  -3   2  16 2166.33   25.84   0
  -4   2  -9    3.36    7.71   0
  -3   2  19   -0.92    6.65   0
   1  -1  -1    0.06    7.07   0
   2  -2  13    0.61    9.31   0
  -6   3   9   12.62    7.57   0
  -6   3  12  858.60   15.79   0
  -4   2  30  239.02   10.33   0
  -1   0  35   -5.36    7.22   0
   2  -2   7    0.16    6.19   0
  -6   3   6  525.03   13.11   0
  -6   3  15    0.80    6.29   0
  -3   1  38  418.04   12.03   0
  -3   2  22  512.19   13.59   0
   0  -1  37    0.41    7.70   0
   0   0  21    0.01    6.57   0
  -6   3   3   14.79    7.14   0
  -2   0  43   -0.79    7.41   0
  -1   1  10 3573.03   43.15   0
  -1   1  13   -0.92    7.99   0
  -4   2  33    1.62    7.78   0
  -3   2  25   10.07    7.65   0
  -2   1  33   12.72    7.56   0
  -6   3   0 1145.25   19.60   0
  -5   3   7   17.50    6.63   0
  -5   3  16 2055.24   22.99   0
  -1   1   7    0.34    7.71   0
  -1   1  16 5271.28   46.96   0
  -5   3   4  810.91   16.81   0
  -5   3  19   12.74    7.28   0
  -1   0  38  320.15   12.72   0
   0   0  24 4963.07   47.86   0
   1  -1  23   -0.98    7.95   0
  -6   3  -3    4.64    7.64   0
  -5   3  22  375.11   11.76   0
  -3   2  28 1540.68   20.48   0
  -1   1  19    0.31    5.91   0
  -5   3   1    1.21    7.80   0
  -5   3  25    1.46    7.40   0
  -2   1  36 1100.99   18.62   0
  -1   1   4 2244.45   40.56   0
  -4   2 -12  815.77   24.95   0
  -3   2  -5   10.08    7.04   0
  -3   2  31   -0.41    6.33   0
   1  -1   2 1752.52   44.31   0
  -5   3  -2  925.82   18.84   0
   0   0  27    2.23    7.86   0
  -4   3  11   43.23    8.22   0
  -4   3  14  770.38   15.42   0
  -4   3  17    1.87    7.39   0
  -4   3   8 2885.54   29.51   0
  -1   0  41   -2.60    7.33   0
  -4   3  20 1024.98   16.90   0
  -2   0 -20 3462.21   50.50   0
  -2   1  39    0.63    7.37   0
  -4   3  23   21.98    7.42   0
   1  -1  26 1252.24   31.40   0
  -2   2  14  346.68   12.11   0
  -2   2  17   -7.94    5.65   0
  -4   3  26  800.77   15.41   0
  -2   2  11   -0.70    6.22   0
  -2   2  20 3789.42   34.15   0
  -1   1  28 1445.88   22.63   0
  -5   3  -5   15.81    7.82   0
   0   0  30  173.74   10.99   0
  -4   3   2  914.97   18.44   0
  -3   2  37    7.92    6.60   0
  -2   2   8 2126.85   29.06   0
  -2   2  23    7.36    7.53   0
  -1   1   1    1.90    8.39   0
  -4   3  29    0.86    6.34   0
  -2   1  42  418.82   13.11   0
  -1   1  31   -2.40    7.06   0
  -6   4  14  362.93   11.77   0
  -2   2  26 1382.24   20.38   0
  -6   4  11    2.64    6.39   0
  -4   3  32 1064.18   16.72   0
  -2   2   5   -1.47    6.18   0
  -6   4   8  990.44   17.40   0
  -3   2  -8 3238.32   47.49   0
   0   0  33   -0.02    7.59   0
   1  -1  29   -1.44    7.74   0
  -4   3  -1   41.89    7.92   0
  -6   4   5   -0.61    7.21   0
  -2   1  45    4.94    7.70   0
  -1   1  34 1105.80   19.69   0
   0  -1 -11   -1.28    5.30   0
  -5   3  -8 2321.25   32.68   0
  -3   3  18 1467.90   20.91   0
  -2   2  32  736.70   15.73   0
  -5   4  18  458.00   12.02   0
  -5   4  21    7.32    7.29   0
  -3   3  15    1.03    6.39   0
  -3   3  21   -0.61    6.52   0
  -6   4   2  677.27   15.55   0
  -3   3  12 2626.28   27.86   0
  -3   3  24 1248.50   18.95   0
  -2   2   2 4970.31   48.52   0
   1  -1   5   -0.09   11.06   0
   0   0  36  700.81   18.08   0
  -5   4   9    4.64    6.44   0
  -3   3   9   -3.40    6.03   0
  -3   3  27    0.12    6.31   0
  -2   2  35    3.91    7.35   0
  -1   1  37    0.58    7.17   0
  -4   3  -4 1371.58   24.10   0
  -5   4   6  999.66   17.78   0
  -3   3  30  352.81   11.79   0
   1  -1  32 1974.22   36.53   0
  -6   4  -1   -1.11    6.99   0
  -3   3   6  568.13   14.63   0
  -2   2  38  333.18   11.89   0
  -4   2 -15    0.07    9.98   0
  -1   1  40  914.27   17.97   0
  -5   4   3   40.15    8.47   0
   0   0  39    1.36    7.14   0
  -3   3  36 1001.48   17.13   0
  -2   2  -1   -0.13    7.51   0
  -6   4  -4  983.49   19.82   0
  -5   3 -11    4.23    7.47   0
  -4   4  16 1729.76   21.69   0
  -4   4  19    1.49    6.38   0
  -4   4  22  839.73   15.32   0
  -4   4  25    4.44    7.36   0
  -3   3   3    0.48    5.30   0
  -2   2  41    3.50    7.31   0
  -1   1  -2 1677.24   45.48   0
  -4   4  13    5.47    7.36   0
  -5   4   0 1605.93   23.10   0
  -4   4  28  732.72   14.18   0
  -1   1  43    1.30    7.11   0
  -4   3  -7   27.56    8.35   0
  -4   4  10  477.25   12.64   0
  -2   3  10 2109.15   25.80   0
  -5   5  -1   -2.97    7.01   0
  -3   4  17   -7.66    6.79   0
  -2   3  22  504.73   13.22   0
  -3   4  11   46.04    7.27   0
  -3   4  20 1040.28   16.70   0
  -2   3   7    3.50    7.39   0
  -1   2  15    4.90    7.09   0
  -1   2  18 1225.45   21.61   0
   0  -1  -8 9441.12   73.34   0
  -5   4 -15    3.76    7.61   0
  -3   4  23   23.69    7.25   0
  -1   2  12 4064.55   39.71   0
  -4   4  -8 1655.90   23.43   0
  -3   4   8 2871.34   27.54   0
  -5   5  -4 1285.99   19.45   0
  -3   4   5   11.54    6.97   0
  -2   2 -10  178.15   13.31   0
  -2   3   4 3010.09   31.28   0
  -2   3  28 1536.30   20.85   0
  -1   2   9   72.79    8.29   0
  -1   2  24 1959.12   26.09   0
   1  -2   6 1864.74   30.78   0
  -4   5  15   24.67    7.47   0
  -4   5  18  450.16   12.09   0
  -4   5  12 1053.61   16.36   0
  -4   5  21    5.30    6.15   0
  -3   4  29    1.35    5.86   0
  -2   4  18 1180.83   17.95   0
  -2   5  26  774.37   14.84   0
  -1   4   7   26.42    6.84   0
  -1   5  12 1256.65   17.86   0
  -1   5  54   98.79    9.73   0
  -1   6  26  303.22   12.02   0
  -2   4  48  408.22   13.36   0
  -2   5  32  842.94   16.25   0
  -2   5  35    4.07    8.03   0
  -2   5  38  133.66    8.88   0
  -1   6  29   12.91    8.90   0
  -1   6  35    3.56    9.47   0
   0   6  18  338.82   12.11   0
   3   6  21    9.23    9.34   0
  -1   3   5   17.37    5.63   0
  -1   6  32  511.85   13.49   0
   1   3  -5   11.75    6.23   0
   1   5   5    1.90    7.86   0
   1   6  16  829.40   16.62   0
   2   3  -7   16.32    6.52   0
   2   6  17   12.79    9.32   0
  -1   5  51    3.65    9.27   0
   3   6  24  257.16   11.78   0
  -2   4  21   -1.51    5.99   0
  -2   4  45    7.67    7.71   0
  -1   5  15    2.60    6.79   0
   0   6  21    8.16    7.84   0
   0   6  45   -3.92    8.68   0
   2   4  -2  672.65   15.33   0
   3   5   7    7.06    8.86   0
   0   6  24  785.42   16.50   0
   0   6  42  193.57   11.62   0
   2   6  20  262.77   12.54   0
   3   6  27    3.31    9.64   0
  -2   4  42  531.46   14.11   0
  -1   5  48  204.43   12.11   0
   0   5  10  781.85   15.37   0
   0   6  39  -13.11   10.19   0
   1   4   0 1589.12   21.38   0
   2   5   6  508.29   13.85   0
  -1   4  10 1224.24   17.84   0
  -1   5  18  868.68   15.38   0
   0   6  27   13.16    8.15   0
   0   6  30  202.31   11.63   0
   0   6  36  233.70   12.14   0
   1   6  22  221.08   11.63   0
   1   6  43    7.80    9.53   0
   2   6  23   11.43    9.80   0
  -2   4  27   -0.76    7.02   0
  -2   4  39    3.91    7.86   0
   0   6  33    4.90    8.77   0
   1   5   8  950.11   16.85   0
   1   6  25    1.72    9.88   0
  -2   4  30  246.97   10.54   0
  -2   4  33    4.03    7.40   0
  -2   4  36  470.68   13.29   0
  -1   5  45    6.39    8.91   0
   1   6  28  221.85   12.35   0
   2   6  32  313.65   12.96   0
   2   6  35    0.53    9.51   0
  -2   3  22  500.81   12.93   0
  -2   3  43    4.04    7.44   0
  -1   5  21   14.86    7.10   0
   0   4   5   -0.64    6.66   0
   1   6  31    2.99    9.70   0
   1   6  34  257.26   12.31   0
   1   6  37   -5.22    9.15   0
   3   5  10  303.52   12.39   0
  -1   3   8 3395.58   30.52   0
   0   5  13   -3.12    6.84   0
   2   5   9   -4.47    7.87   0
  -2   2  23   -0.23    5.55   0
  -2   3  40  568.32   14.76   0
  -1   4  13   16.25    7.26   0
  -1   4  52  288.05   12.22   0
  -1   5  24  808.32   15.09   0
   0   4  59    3.28    7.85   0
   4   5  17    8.09    8.41   0
  -2   3  25   16.57    5.74   0
  -1   5  27   14.46    7.18   0
   1   5  11   13.26    8.13   0
   2   4   1    0.11    6.97   0
  -2   3  28 1492.16   20.70   0
  -2   3  37    4.43    6.73   0
  -1   5  30  232.48   10.24   0
  -1   5  33   10.60    7.53   0
   0   5  16  841.03   16.09   0
   0   5  49   -3.04    8.73   0
   3   5  13   -3.80    8.42   0
   4   5  20  187.69   12.26   0
  -2   2  26 1382.19   21.78   0
  -2   3  31    6.03    6.65   0
  -2   3  34  710.25   15.41   0
  -1   4  49    1.48    8.73   0
   1   4   3   -2.62    5.93   0
   3   4   2  301.10   11.61   0
   1   3  -2  884.73   17.01   0
   2   3  -4  813.91   17.16   0
   4   5  23   -4.36    9.35   0
  -2   2  29   -1.69    5.71   0
  -2   2  35    1.50    6.63   0
  -1   4  16 2258.56   23.31   0
   0   4   8 1638.39   20.72   0
   0   4  56  121.08   10.13   0
   0   5  19    2.70    6.94   0
   3   5  16  563.35   14.96   0
  -2   2  32  675.27   15.75   0
  -1   4  46  124.44   10.17   0
   4   5  26  231.41   12.06   0
  -1   3  11   29.99    6.13   0
   0   3   3   -0.15    5.14   0
   0   5  22  298.55   11.44   0
   1   5  47   -3.66   10.12   0
   2   5  15    1.47    8.52   0
   4   5  29    9.73    9.40   0
  -1   4  19   30.35    6.56   0
   0   5  40  298.50   13.06   0
   1   5  17   14.05    8.65   0
   3   5  19    4.19    8.93   0
  -1   4  43    2.27    8.11   0
   0   4  53   -4.61    8.62   0
   0   5  25    8.82    7.30   0
   0   5  37    7.69    9.23   0
   2   4   4 1032.85   17.71   0
   0   5  28  772.46   15.35   0
   0   5  31   -6.70    9.16   0
   0   5  34  367.03   12.18   0
   1   4   6  397.81   11.33   0
   1   5  20  637.08   14.93   0
   1   5  44  243.26   12.53   0
   2   5  45    7.92    9.51   0
   3   3  -3    9.68    7.06   0
   3   4   5   18.50    7.76   0
   3   5  22  169.87   11.16   0
  -1   3  50  220.71   11.19   0
  -1   4  22  417.58   11.61   0
  -1   4  40  609.78   14.69   0
   0   4  11    5.29    5.89   0
   3   5  25   -5.60    9.69   0
  -1   4  25   11.89    7.50   0
  -1   4  37    0.98    7.97   0
   1   5  23    4.94    8.56   0
   1   5  41   -4.23    8.89   0
   2   5  42  153.42   11.73   0
   3   5  28  242.30   12.34   0
   3   5  34  214.67   11.78   0
   3   5  37    3.33    8.83   0
   4   4   9    1.47    8.34   0
  -1   3  14 1647.23   20.98   0
  -1   4  28  840.70   15.91   0
   0   3  57   -6.91    8.76   0
   0   4  50  241.00   12.29   0
   1   5  38  196.66   12.37   0
   2   5  39   -2.02    9.65   0
  -1   3  47    1.59    8.57   0
   1   4  54   88.21   10.17   0
   1   5  29   14.29    9.11   0
   1   5  32  518.87   14.33   0
   1   5  35    0.71    8.32   0
   2   5  24  566.23   14.05   0
   2   5  36  247.72   12.30   0
   5   4  19    0.84    9.72   0
   0   4  14  369.67   11.70   0
   1   3   1   48.03    7.35   0
   2   4   7   -4.30    7.48   0
   2   5  27   -5.11    8.21   0
   2   5  30  257.55   12.74   0
   2   5  33   -1.51   10.03   0
   0   3   6 2010.65   23.41   0
   0   4  47   -1.87    9.28   0
   2   3  -1    3.11    6.22   0
   3   4   8  663.02   15.10   0
   4   4  12  359.16   12.97   0
   5   4  22  142.23   11.46   0
  -1   3  17   14.77    5.87   0
  -1   3  44  425.79   13.09   0
   0   3  54  136.10   10.47   0
   0   4  44  573.09   14.79   0
   1   4  51   -4.67    9.00   0
   5   4  25    3.05    8.78   0
   5   4  28  147.94   11.67   0
   0   4  17    4.04    6.32   0
   1   3  58  174.62   10.92   0
   1   4  12 1258.23   18.37   0
   2   4  10  437.13   12.79   0
   3   4  11    5.09    8.11   0
   4   4  15    7.79    8.71   0
  -1   3  20 1566.80   20.66   0
  -1   3  41    2.13    6.84   0
   3   3   0 1134.94   19.15   0
   2   4  49    5.40    9.26   0
   4   4  18  285.91   12.53   0
   0   3   9   -0.06    5.51   0
   0   3  51   -2.95    8.74   0
   0   4  23    2.78    6.67   0
   3   4  47    3.22    9.55   0
  -1   3  23   -1.59    5.83   0
  -1   3  35    1.38    7.21   0
   0   4  26  892.31   16.31   0
   0   4  35   -5.39    7.43   0
   1   4  15    3.81    6.81   0
   2   4  13    2.01    7.78   0
   3   4  14  442.40   13.15   0
   4   4  21  -15.12    9.38   0
   4   4  39   -4.24    9.43   0
  -1   2  45    5.00    7.13   0
  -1   3  29    5.21    7.03   0
  -1   3  32 1376.58   19.71   0
   0   4  29    4.07    7.10   0
   1   3  55   -1.52    8.76   0
   2   4  46  161.42   11.70   0
   3   4  44  213.10   12.24   0
   1   4  42  326.98   13.07   0
   2   3   2  894.00   16.62   0
   4   3   4  763.91   16.85   0
   4   4  24  463.24   14.39   0
   4   4  27   -0.09    9.74   0
   0   3  48  474.24   13.14   0
   1   4  18  833.26   15.24   0
   2   3  56  163.86   11.69   0
   2   4  43   -1.93    9.55   0
   3   4  17   15.51    8.94   0
   3   4  41    3.88    9.73   0
   4   4  30  147.48   10.74   0
  -1   2  42  405.70   13.24   0
   1   4  39   -2.22    8.22   0
   6   3  24  304.43   12.61   0
   0   3  12 2085.55   23.24   0
   1   2  59   -0.46    8.24   0
   1   3  52  324.62   12.79   0
   1   4  21   17.67    7.25   0
   1   4  36  667.24   15.28   0
   2   4  40  360.72   13.53   0
   3   2  -5   12.71    6.83   0
   3   3   3    9.51    7.08   0
   3   4  20  548.08   14.71   0
   6   3  27    6.95    8.57   0
   0   3  45   -2.18    8.32   0
   1   4  24  823.24   15.27   0
   1   4  33    9.24    8.58   0
   2   4  19   -2.86    7.14   0
   3   4  35  -15.33    9.72   0
   5   3  11    4.70    8.26   0
   0   2  52  247.06   11.57   0
   1   4  27   10.45    7.36   0
   1   4  30  247.01   10.54   0
   2   4  22  450.67   13.42   0
   2   4  37    2.68    8.33   0
   3   4  29   22.35    9.61   0
   3   4  32  408.59   14.39   0
  -1   2  39    1.35    6.78   0
   2   3  53    3.50    8.91   0
   2   4  25   -4.90    8.81   0
   2   4  34  275.69   11.46   0
   4   3   7    5.25    8.60   0
   0   3  15    6.59    6.83   0
   0   3  42  326.83   12.21   0
   1   3  49    3.45    9.14   0
   2   2  60  182.02   11.06   0
   2   3   5    9.68    7.10   0
   2   4  28  593.90   14.08   0
   2   4  31   -4.33    8.09   0
   5   3  14  193.42   11.18   0
  -1   2  36 1058.80   18.18   0
   3   3  51  -18.72    9.93   0
   0   3  39    3.79    8.10   0
   1   2  56  294.44   12.81   0
   3   3   6  522.63   13.79   0
  -1   2  33   12.83    7.17   0
   0   2  49    0.87    7.78   0
   0   3  18  589.61   13.57   0
   5   3  17   -3.60    8.73   0
  -1   2  24 1798.44   22.84   0
  -1   2  27   -1.51    6.24   0
  -1   2  30  683.38   15.22   0
   1   3  10 1252.64   18.76   0
   1   3  46  120.33    9.32   0
   4   3  10  462.53   13.66   0
   4   3  46  106.20   11.62   0
   0   3  21   -0.61    7.20   0
   3   3  48  226.11   12.99   0
   5   3  20  310.80   12.93   0
   2   2  57    3.53    8.69   0
   2   3   8 2376.18   25.30   0
   2   3  47   -6.20   10.37   0
   4   3  43    4.61   10.16   0
   5   3  23    2.20    9.43   0
   5   3  26  275.51   12.78   0
   5   3  29   -2.12    9.94   0
   5   3  32  328.40   13.54   0
   0   2  46  362.47   12.57   0
   0   3  24 1830.36   21.51   0
   0   3  27   -0.42    7.32   0
   0   3  30  693.63   14.25   0
   1   2  53    6.18    9.01   0
   3   3   9    9.70    7.60   0
   1   3  13   23.82    7.31   0
   3   3  45    9.59   10.45   0
   4   2  -1   -1.55    7.08   0
   4   3  13   19.42    7.66   0
   1   3  40  600.45   14.94   0
   2   1  61   -3.30    8.40   0
   2   3  44  358.75   13.64   0
   4   3  40  250.11   12.28   0
  -9   4   5    0.04   10.83   0
  -7   0  35    0.58   10.29   0
  -6   2  28  581.66   16.05   0
  -5   2  26  810.98   16.98   0
  -5   3  16 2050.49   24.36   0
  -2   1  18 1169.33   20.69   0
  -9   3  18  295.14   13.66   0
  -7   4  10  481.61   15.03   0
  -4   0  35   -4.33    9.29   0
  -2  -1  32 1340.45   23.51   0
  -9   4   8  506.28   15.52   0
  -8   3  22  153.62   13.12   0
  -6   3  21   14.85    8.74   0
  -5   1  33    0.07    9.88   0
  -3   1  26  571.45   15.24   0
  -3   2  16 2141.93   25.82   0
  -8   4  12  369.74   14.47   0
  -7   3  23   16.22   10.71   0
  -5   0  37    5.71   10.18   0
  -8   2  29   -1.40   10.81   0
  -7   1  34  263.83   13.47   0
  -4   1  31   20.19    7.94   0
  -4   3  11   46.62    7.54   0
  -9   3  21   -6.12   10.95   0
  -7   4  13   19.93    8.77   0
  -6   1  35   -2.86   10.87   0
  -5   3  19    8.25    7.98   0
  -3   0  33   -4.44    8.20   0
  -8   1  33   10.58   10.87   0
  -8   4  15   -6.94   10.59   0
  -5   4  -9   34.28    8.43   0
  -5   4  -6  423.42   13.82   0
  -5   4  -3   -4.41    7.40   0
  -2   0  28 1196.82   21.41   0
  -8   3  25   -9.83   10.98   0
  -6   4  11   -9.01    9.25   0
  -9   4  14  119.58   11.43   0
  -7   0  38   73.92   10.52   0
  -7   3  26  224.06   13.21   0
  -6   0  39   -0.79   10.51   0
  -5   4   0 1571.71   22.15   0
  -9   3  24  265.53   13.92   0
  -4   3  14  740.96   15.68   0
  -3   2  19   10.27    6.69   0
  -8   4  18  280.25   14.27   0
  -5   1  36  639.12   17.34   0
  -5   3  22  375.76   13.21   0
  -5   4   3   39.43    7.54   0
  -9   4  17    0.72   10.47   0
  -7   1  37    3.79   11.27   0
  -6   4  14  387.74   12.82   0
  -4   0  38  191.11   12.30   0
  -4   2  27   -3.69    8.92   0
  -3   1  29   10.42    8.11   0
  -8   3  28  232.41   13.45   0
  -8   5  -7    4.96    9.34   0
  -8   5  -4  343.72   13.84   0
  -8   5  -1    2.83    9.67   0
  -7   4  19   -3.44   10.06   0
  -6   1  38  197.00   13.51   0
  -5   0  40  303.40   14.61   0
  -4   1  34  685.43   16.94   0
  -9   5  -5    8.99   10.16   0
  -9   5  -2  233.30   12.92   0
  -8   5   2  301.78   13.94   0
  -6   2  34  260.66   13.74   0
  -6   3  27    9.75    8.99   0
  -9   3  27    5.46   10.37   0
  -9   5   1   -0.51   10.64   0
  -8   4  21   -9.88   11.32   0
  -6   4  17   -9.68    9.70   0
  -4   3  17   -3.63    7.18   0
  -9   4  20  200.22   12.24   0
  -9   5   4  194.87   12.83   0
  -8   5   5    4.56   10.23   0
  -5   4   9    7.98    7.13   0
  -9   5   7   17.28   10.66   0
  -8   2  35   -0.75   11.06   0
  -7   2  36  238.13   13.78   0
  -7   4  22  262.61   13.63   0
  -7   5  -3    7.24    9.07   0
  -7   5   0  770.43   17.40   0
  -6   0  42  191.47   13.82   0
  -5   3  25    3.27    8.23   0
  -3   2  22  528.47   13.74   0
 -10   5   0  265.17   14.27   0
  -8   5   8  620.02   15.47   0
  -7   5  -9    0.38    8.28   0
  -7   5   3   -2.10    9.28   0
  -2   0  31   -0.10    7.12   0
 -10   5   3    2.66   10.30   0
  -9   4  23   11.67   11.26   0
  -9   5  10  175.97   12.91   0
  -8   3  31    2.04   10.30   0
  -8   4  24  473.45   15.62   0
  -7   1  40  326.25   14.13   0
  -5   1  39    7.92   10.40   0
  -5   4  12 1026.45   17.90   0
  -7   3  32  385.86   15.23   0
  -7   5   6  236.52   11.40   0
  -6   4  20  801.24   16.86   0
  -4   3  20  993.89   17.72   0
  -2   1  24 1828.24   24.41   0
  -6   1  41   -9.50   11.04   0
  -6   2  37   -2.51   10.74   0
  -3   1  32 1366.93   21.68   0
  -7   4  25   27.37   11.56   0
  -7   5   9   -1.62    8.30   0
  -5   2  35    7.27    8.75   0
  -5   4  15   24.23    9.20   0
  -4   0  41    3.78    9.30   0
  -4   1  37    2.20    9.28   0
  -2   2  11    0.29    5.91   0
  -5   3  28  520.06   14.52   0
  -9   4  26  234.28   13.61   0
  -8   4  27   14.32   10.22   0
  -7   2  39   -6.07   11.15   0
  -6   4  23    1.62    8.82   0
  -3   2  25   12.12    7.20   0
  -3   3   9    4.36    6.14   0
  -8   5  17  -15.07   11.10   0
  -6   3  33    6.85   10.92   0
  -4   3  23   32.72    9.07   0
  -6   5  -5    4.35    7.84   0
  -6   5   1   18.63    8.73   0
  -5   4  18  468.82   13.93   0
  -7   1  43   -6.62    9.85   0
  -7   4  28  540.00   15.32   0
  -7   5  15    4.09    8.85   0
  -6   5   4  905.96   18.01   0
  -4   2  33    6.81    7.79   0
  -3   0  39    0.13    9.42   0
  -2   2  14  365.67   12.71   0
  -9   4  29    1.63   10.66   0
  -9   5  19   12.54   10.10   0
  -8   4  30  164.11   12.75   0
  -6   2  40  376.98   15.48   0
  -6   5   7   -1.14    8.86   0
  -5   1  42  305.24   14.09   0
  -5   3  31   -4.43    9.95   0
  -4   4  -2 1436.15   22.41   0
  -4   4   1   -0.94    7.04   0
  -3   3  12 2607.47   27.58   0
  -2   1  27    2.63    6.97   0
  -8   5  20  306.43   12.91   0
  -6   4  26  501.61   14.59   0
  -5   2  38  123.96   12.14   0
  -4   4  -5   -0.85    6.95   0
  -2   0  34  300.27   13.17   0
  -7   5  18  495.44   15.69   0
  -6   1  44  224.43   13.63   0
  -5   4  21   17.91    9.18   0
  -3   1  35   -0.55    8.23   0
  -7   2  42  139.95   13.24   0
  -4   1  40  588.01   16.70   0
  -4   3  26  797.34   16.30   0
  -8   5  23    4.55   10.90   0
  -7   3  38  212.20   13.30   0
  -7   4  31   -5.06    9.73   0
  -6   5  13   13.11    9.70   0
  -3   3  15    8.80    6.49   0
  -8   4  33    4.11   10.87   0
  -7   5  21    1.12   10.32   0
  -6   4  29   -5.24   10.72   0
  -4   4  10  479.83   13.71   0
  -2   2  17    1.94    5.97   0
  -9   6   0  417.87   15.16   0
  -9   6   3   14.47   10.06   0
  -4   2  36  515.38   15.00   0
  -9   5  25    1.23    9.92   0
  -9   6   6  258.38   13.95   0
  -6   5  16  782.30   17.08   0
  -5   4  24 1145.13   19.09   0
  -4   4 -11   -0.86    6.61   0
  -9   6   9    9.46    9.94   0
  -8   5  26  258.82   13.82   0
  -8   6  -2  309.70   13.70   0
  -8   6   1   -7.36    9.60   0
  -8   6   4  305.63   13.84   0
  -6   2  43    1.29   11.28   0
  -4   3  29    3.33    9.05   0
  -4   4  13   -5.88    6.84   0
  -3   3  18 1403.91   20.37   0
  -9   6  12  228.28   13.53   0
  -8   6   7    5.11    9.95   0
  -7   4  34  264.53   12.91   0
  -7   5  24  446.52   16.01   0
  -5   1  45    0.68   10.54   0
  -5   2  41    5.67    9.07   0
  -2   1  30  722.85   16.60   0
  -8   6  10  261.30   13.65   0
  -6   3  39    1.96   11.70   0
  -6   4  32  504.64   16.19   0
  -6   5  19    5.96    9.39   0
  -3   2  31    8.70    6.93   0
  -9   5  28  156.55   11.78   0
  -9   6  15   12.80   11.34   0
  -8   4  36  211.58   12.61   0
  -7   2  45   -4.99   10.20   0
  -7   3  41    7.07   10.68   0
  -5   4  27   22.82    9.48   0
  -4   1  43    9.03   10.65   0
  -4   4  16 1690.23   22.00   0
  -3   1  38  428.70   14.33   0
  -2   2  20 3721.59   33.35   0
  -8   5  29    8.66   11.06   0
  -8   6  13  -15.55   10.36   0
  -7   5  27   10.86    9.43   0
  -5   5  -1    5.28    7.58   0
  -5   5   2  429.08   12.75   0
  -5   5   5   -1.01    8.00   0
  -3   3  21    2.99    6.88   0
  -2   0  37    2.14    7.41   0
  -7   4  37    2.10   11.26   0
  -7   6   2  427.81   14.56   0
  -6   5  22  269.50   12.42   0
  -5   5  -4 1240.51   21.04   0
  -4   2  39    2.12    8.08   0
  -4   4  19   -5.20    8.47   0
  -7   6  -1   -3.38    8.81   0
  -7   6   5   19.24    8.90   0
  -7   6   8  852.75   18.53   0
  -7   6  -4  354.90   13.63   0
  -6   2  46  169.41   13.52   0
  -6   3  42  241.97   14.60   0
  -6   4  35   -4.07    9.40   0
  -5   2  44  353.38   14.95   0
  -5   4  30  432.71   14.58   0
  -2   2  23   -3.78    7.14   0
  -1   0  29    1.40    6.42   0
  -8   5  32  321.27   13.88   0
  -7   3  44  228.74   14.28   0
  -7   5  30  144.09   12.88   0
  -7   6  11   11.51    8.63   0
  -6   5  25   17.40   10.18   0
  -5   5  -7    1.65    7.65   0
  -3   2  34  739.87   16.91   0
  -7   6  14  188.06   12.58   0
  -5   5  14  744.14   15.65   0
  -4   4  22  835.84   17.16   0
  -3   3  24 1226.86   19.14   0
  -2   1  33    7.38    7.64   0
  -8   6  22  167.08   12.97   0
  -5   3  40  648.05   17.33   0
  -9   6  24  346.79   13.63   0
  -5   5  17    3.16    8.05   0
  -3   1  41    6.32    8.69   0
  -8   5  35   10.00   10.78   0
  -7   5  33  -15.70   12.12   0
  -6   5  28  602.03   16.45   0
  -5   4  33   12.68    9.91   0
  -4   1  46  136.54   11.79   0
  -4   2  42  531.13   16.17   0
  -4   4  25    7.25    8.59   0
  -9   6  27   14.65   10.56   0
  -8   6  25   -9.40   10.53   0
  -7   6  20  372.89   14.98   0
  -6   3  45   14.02   11.31   0
  -5   5  20  832.14   16.67   0
  -3   3  27    6.69    7.10   0
  -1   1  22  453.73   13.42   0
  -7   3  47    2.74   11.19   0
  -6   2  49   -6.58   10.27   0
  -5   2  47    8.18   10.87   0
  -3   2  37    1.66    8.62   0
  -6   5  31   -5.92   11.18   0
  -6   6   3    0.61    8.92   0
  -6   6   6  291.28   12.87   0
  -8   5  38  101.74   11.90   0
  -8   6  28  234.82   13.67   0
  -7   4  43   10.51   11.04   0
  -7   6  23   14.91    9.54   0
  -6   6   0  988.58   19.39   0
  -6   6   9    3.20    9.49   0
  -5   3  43    5.34   10.51   0
  -5   4  36  447.22   15.45   0
  -5   5  23   14.15    8.31   0
  -2   1  36 1097.42   20.13   0
  -9   7   5   10.80   10.37   0
  -9   7   8  304.86   13.61   0
  -6   6  12  558.67   14.63   0
  -4   3  38  233.94   11.46   0
  -4   4  28  708.42   15.81   0
  -1   0  32 1903.35   27.51   0
  -9   7  11    2.43   10.53   0
  -6   6  -3    4.46    7.96   0
  -3   3  30  394.68   12.45   0
  -9   7  14  177.32   13.20   0
  -7   6  26  384.57   14.07   0
  -5   5  26  287.78   13.06   0
  -4   2  45    1.41   10.03   0
  -3   1  44  416.12   14.72   0
  -3   4   2  898.08   18.14   0
  -3   4   8 2777.81   28.57   0
  -2   3   7   -0.69    5.86   0
  -9   7  17   -4.15   10.98   0
  -8   6  31   -1.45   10.50   0
  -6   6  18  463.98   14.93   0
  -3   4  11   57.40    7.35   0
  -2   3  10 2096.23   25.65   0
  -1   1  25   -1.62    5.47   0
  -8   7   3    7.69   10.03   0
  -8   7   6  281.46   13.81   0
  -8   7   9   -8.69   10.04   0
  -7   5  39   15.48   11.47   0
  -6   3  48  239.99   14.32   0
  -4   4  31   -8.52    9.37   0
  -3   4  -1   40.27    7.68   0
  -3   4  14  760.92   16.24   0
  -2   3  13   37.80    8.04   0
  -9   7  20  217.13   12.71   0
  -8   7  12  255.04   13.91   0
  -7   4  46  115.77   12.45   0
  -7   6  29   12.68   11.32   0
  -6   6  21    2.60   10.25   0
  -3   2  40  571.61   14.89   0
  -8   7  15   12.51   10.94   0
  -6   4  44  348.41   15.14   0
  -5   2  50  268.40   13.94   0
  -5   3  46   84.12   11.88   0
  -5   5  29    0.25   10.41   0
  -4   3  41    2.14    9.61   0
  -4   5   6  971.29   18.27   0
  -3   4  17    2.88    7.69   0
  -4   5   3   40.22    7.32   0
  -4   5  12 1042.68   18.00   0
  -2   3  16 2180.19   25.30   0
  -6   6  24  612.65   16.44   0
  -4   5   0 1575.15   23.13   0
  -4   5  15   33.29    8.68   0
  -3   4  -4 1305.33   22.51   0
  -2   1  39    5.83    8.09   0
  -2   2  32  698.06   15.45   0
  -7   5  42  253.26   14.79   0
  -7   6  32  386.94   14.78   0
  -4   4  34  350.76   12.66   0
  -3   4  20 1030.15   17.79   0
  -4   2  48  462.60   16.49   0
  -4   5  18  447.37   14.03   0
  -2   3  19    7.95    6.55   0
  -1   0  35    0.26    7.04   0
  -1   1  28 1399.73   21.88   0
  -8   6  37  -13.26   10.88   0
  -6   3  51    8.84   11.59   0
  -6   6  27    6.80   10.90   0
  -5   4  42  262.42   12.69   0
  -4   5  -3    1.94    7.26   0
  -7   7   4  282.28   13.19   0
  -7   7   7    2.10    9.76   0
  -7   7  10  300.27   13.91   0
  -7   7  13   -7.29   10.26   0
  -6   4  47    5.64   11.91   0
  -6   5  40  298.89   15.37   0
  -4   5  21   10.49    9.27   0
  -3   2  43    2.04    9.13   0
  -3   3  36 1020.30   19.09   0
  -3   4  23   23.50    7.80   0
  -7   6  35    9.36   12.15   0
  -7   7   1    1.16   10.10   0
  -7   7  16  710.59   17.98   0
  -5   3  49    4.18   11.35   0
  -5   6   7    1.73    8.76   0
  -5   6  10  607.87   15.72   0
  -4   3  44  403.04   14.97   0
  -2   3  22  519.93   13.44   0
  -8   7  27    7.42   11.26   0
  -6   6  30  176.84   12.64   0
  -5   5  35   -4.05   10.61   0
  -5   6   4  879.03   18.07   0
  -2   2  35   -3.38    7.96   0
  -7   7  19    1.49   11.32   0
  -4   5  24 1135.37   19.71   0
  -3   4  26  788.17   16.50   0
  -1   2  15    5.74    6.06   0
  -5   6   1   20.04    8.35   0
  -8   7  30  101.93   13.06   0
  -7   6  38   89.23   12.23   0
  -5   4  45   14.56   11.45   0
  -5   6  19   -5.96    8.31   0
  -2   1  42  423.35   14.17   0
  -2   3  25   11.76    7.12   0
  -1   1  31    2.35    6.90   0
  -6   6  33    1.04   12.00   0
  -5   6  -2  386.45   13.49   0
  -4   5  27    7.99    9.69   0
  -3   3  39   13.39    9.18   0
  -1   2  18 1221.19   20.21   0
  -7   7  25    9.09   11.39   0
  -6   4  50  182.61   13.01   0
  -5   5  38  318.70   13.34   0
  -5   6  22  274.31   12.25   0
  -3   4  29    6.97    7.78   0
  -4   3  47    7.62   10.53   0
  -3   2  46  182.33   11.60   0
  -9   8  13    6.26    9.31   0
  -8   7  33    0.42   11.74   0
  -7   7  28  223.47   13.90   0
  -5   3  52  227.22   13.91   0
  -5   6  25    7.50   10.49   0
  -4   5  30  423.67   14.61   0
  -2   2  38  331.51   12.85   0
  -2   3  28 1562.46   21.42   0
  -1   2  21   29.75    6.79   0
  -7   6  41  -15.19   10.72   0
  -5   6  -5    7.97    7.63   0
  -4   5  -9   33.59    7.56   0
  -6   5  46  117.68   12.50   0
  -6   7   8  856.72   18.28   0
  -6   7  11   12.65   10.14   0
  -6   7  14  192.17   12.06   0
  -5   4  48  359.94   14.86   0
  -3   4  32 1138.42   19.73   0
  -7   7  31   -0.52   11.75   0
  -6   7   5   20.79    9.04   0
  -6   7  17   19.46   10.27   0
  -5   5  41    1.87    9.39   0
  -5   6  28  599.35   15.57   0
  -3   3  42  432.09   14.63   0
  -1   1  34 1107.68   20.23   0
  -4   4  43    2.49   10.79   0
  -4   5  33    7.66   10.41   0
  -8   8   8  353.57   15.35   0
  -8   8  11    0.69    9.99   0
  -8   8  14  209.26   13.18   0
  -6   4  53   -1.02   11.12   0
  -6   6  39   -5.03   11.16   0
  -6   7   2  423.14   14.41   0
  -8   8  17   -1.05   11.24   0
  -5   6  31   -1.93    9.24   0
  -4   3  50  286.86   13.94   0
  -3   4  35    7.37    9.15   0
  -8   8  20  215.66   13.05   0
  -7   7  34  260.66   13.43   0
  -6   7  -1    4.91    9.48   0
  -3   2  49   -5.22    9.73   0
  -2   2  41    2.04    8.60   0
  -8   8  23   12.83   11.30   0
  -6   5  49    5.34   10.97   0
  -6   7  26  382.57   15.32   0
  -4   5  36  447.40   15.17   0
  -3   5  13   -3.07    8.29   0
  -5   4  51    2.86   11.19   0
  -5   6  34  336.31   14.79   0
  -3   3  45   -3.42    9.61   0
  -3   5  16 1975.49   23.82   0
  -8   8  26  138.08   12.91   0
  -7   7  37  -13.21   11.33   0
  -6   7  29    3.52   11.80   0
  -4   4  46  217.60   12.34   0
  -3   5  19   15.77    7.74   0
  -1   1  37    4.71    7.20   0
  -4   6  11   -4.58    7.56   0
  -4   6  17   -6.42    8.98   0
  -3   5  22  380.30   13.33   0
  -2   4  12  852.80   16.54   0
  -2   4  15   -2.37    6.81   0
  -4   5  39  -14.92   10.62   0
  -4   6   8  998.95   18.06   0
  -3   5   4  797.12   16.37   0
  -2   4   9    3.21    6.26   0
  -2   4  18 1197.92   18.98   0
  -1   2  30  675.56   15.74   0
  -7   8  12  257.42   13.55   0
  -7   8  15    1.93   10.74   0
  -6   7  32  381.37   15.37   0
  -5   5  47   -1.85   10.91   0
  -5   6  37   12.47    9.63   0
  -4   6   5    2.82    8.38   0
  -3   5  25    1.80    9.41   0
  -2   3  37   -3.75    8.42   0
  -2   4   6  844.96   17.36   0
  -2   4  21  -10.84    8.02   0
  -7   7  40  273.76   14.15   0
  -7   8   9    3.72    9.91   0
  -7   8  18  208.36   13.34   0
  -6   6  45    7.46   11.28   0
  -4   3  53    1.77   10.67   0
  -4   6  23    0.64    8.47   0
  -2   2  44  928.69   19.30   0
  -7   8   6  263.80   12.85   0
  -7   8  21   11.74   10.85   0
  -4   6   2  664.17   16.20   0
  -3   5   1    3.52    6.19   0
  -7   8  24  398.33   14.95   0
  -6   7  35    6.54   11.30   0
  -5   4  54   95.42   11.85   0
  -5   7  12  618.03   16.40   0
  -5   7  15    3.86    9.33   0
  -4   4  49  -14.76   11.10   0
  -4   6  26  481.20   14.12   0
  -3   3  48  257.82   13.29   0
  -3   4  41    4.96    8.61   0
  -5   6  40  317.17   14.22   0
  -5   7   9    6.60    9.49   0
  -5   7  21   -0.59   10.28   0
  -1   2  33    9.22    7.69   0
  -5   7   6  221.42   11.84   0
  -4   6  29   -5.40   10.28   0
  -2   4  27    6.76    7.58   0
  -5   5  50  123.12   12.33   0
  -5   7  24  437.88   15.66   0
  -4   6  -1   -1.90    7.70   0
  -3   5  -2  906.90   18.34   0
  -3   5  31   -3.21    8.40   0
  -2   3  40  607.37   15.11   0
  -7   8  30  125.63   12.22   0
  -6   7  38   79.20   11.90   0
  -1   3  14 1733.34   23.04   0
  -1   3  17   14.81    6.71   0
  -5   6  43   -6.21   11.70   0
  -5   7   3    2.79    8.78   0
  -5   7  27    6.54    9.32   0
  -4   6  32  482.08   14.57   0
  -3   4  44  394.11   15.04   0
  -2   2  47   -2.87    8.74   0
  -2   4   0 4086.88   36.81   0
  -2   4  30  247.50   11.10   0
  -1   3  11   36.02    6.76   0
  -1   3  20 1637.71   22.03   0
  -4   4  52  229.04   14.23   0
  -4   5  45    6.25    9.25   0
  -3   5  34  589.56   15.15   0
  -1   2  36 1105.78   19.78   0
  -7   8  33    6.21   11.64   0
  -6   7  41    2.37   11.26   0
  -5   7  30  101.31   11.42   0
  -3   3  51    2.47    9.95   0
  -1   3   8 3310.89   32.35   0
  -1   3  23    5.58    6.77   0
  -6   8  13   -0.19   10.59   0
  -6   8  16  531.80   16.28   0
  -5   7   0  794.64   17.89   0
  -4   6  -4  985.47   19.40   0
  -4   6  35    3.04    9.21   0
  -2   3  43   -1.34    9.30   0
  -2   4  33   -2.05    7.75   0
   0   1  23   -0.11    5.41   0
  -6   8  10  293.58   13.50   0
  -6   8  19  -11.20   10.36   0
  -6   8  22  162.66   13.17   0
  -5   5  53    8.23   10.67   0
  -5   7  33   -2.94   11.08   0
  -3   5  -5   13.91    7.86   0
  -3   5  37    3.29   10.18   0
  -1   1  43    4.48    8.27   0
  -1   3  26  606.97   14.44   0
  -3   4  47   -0.76   10.41   0
  -1   3   5   11.58    6.89   0
  -6   8   7    2.48    9.64   0
  -4   5  48  345.18   14.88   0
  -4   6  38  150.65   13.15   0
  -2   4  -3    0.57    6.47   0
  -1   2  39  -10.31    8.20   0
   0   0  33    0.02    6.51   0
   0   1  26 1219.31   21.39   0
  -6   7  44  203.67   12.51   0
  -6   8  28  239.22   13.53   0
  -6   8   4  295.00   13.36   0
  -4   4  55   -4.07   11.28   0
  -6   8  31    7.33   10.85   0
  -5   6  49    1.33   11.62   0
  -2   3  46  199.82   11.99   0
  -5   7  39    6.67   11.83   0
  -4   6  41    4.99    9.50   0
  -3   6  15    1.71    7.81   0
  -3   6  18  509.23   14.07   0
  -3   6  21   11.31    9.52   0
  -2   4  39    1.11    9.44   0
   0   1  29   -2.02    6.54   0
  -4   5  51   11.08   11.59   0
  -3   4  50  270.75   13.98   0
  -3   6  24  769.90   17.16   0
  -6   8  34  201.72   12.78   0
  -4   7  13   11.63    9.27   0
  -4   7  22  253.90   13.19   0
  -3   6   9   16.85    8.74   0
  -2   5  14  405.24   13.01   0
  -2   5  17    5.09    7.42   0
  -2   5  20  713.85   15.48   0
  -1   2  42  429.22   14.07   0
  -4   7  10  461.70   14.74   0
  -4   7  25   16.61   10.74   0
  -3   6  27   -3.50    8.75   0
  -2   5  11   15.21    8.09   0
  -2   5  23   26.32    7.99   0
  -1   3  35   -1.61    8.22   0
  -7   9  14  187.26   12.80   0
  -7   9  17   -3.10    9.84   0
  -7   9  20  198.39   12.44   0
  -6   8  37    3.53   10.92   0
  -5   7  42  229.97   13.53   0
  -4   6  44  334.90   14.20   0
  -3   6   6  541.83   14.75   0
  -3   6  30  275.78   13.50   0
  -2   5  26  786.52   17.22   0
   0   1  32 1944.14   26.38   0
  -4   7   7    3.30    9.09   0
  -4   7  28  534.51   15.03   0
  -2   3  49   -1.94    9.48   0
  -2   4  42  573.03   14.87   0
  -4   7  31   -6.35   11.44   0
  -2   5  29  -11.91    8.25   0
  -5   8  14  216.75   12.80   0
  -5   8  17   -3.53    9.09   0
  -5   8  20  316.17   12.78   0
  -4   5  54  109.46   12.52   0
  -3   5  46   97.80   11.84   0
  -3   6  33    9.06    9.10   0
  -1   3  38  445.39   14.23   0
   0   2  19    0.56    6.72   0
  -5   7  45   -5.98   11.10   0
  -5   8  11    5.70   10.19   0
  -4   7   4  781.63   17.13   0
  -3   4  53    1.59   10.99   0
  -3   6   3   10.81    7.01   0
  -2   5   5   19.14    7.81   0
  -1   2  45    2.91    9.30   0
   0   2  16 3094.23   31.27   0
   0   2  22 2039.63   25.20   0
  -5   8  29   -1.62   11.41   0
  -4   7  34  274.72   12.76   0
  -3   6  36  431.14   15.21   0
  -2   4  45  -12.04    9.93   0
  -1   4  16 2199.22   24.77   0
  -1   4  19   23.51    7.51   0
  -1   4  22  433.58   13.53   0
   0   1  35   -4.99    7.22   0
   0   2  13    3.25    6.85   0
  -5   8   8  637.57   16.56   0
  -1   4  13   24.70    8.14   0
  -1   4  25   -0.85    8.60   0
  -5   8  32  316.08   14.20   0
  -4   7  37   19.44   11.22   0
  -2   5  35   11.21    8.68   0
   0   2  28 1190.43   19.99   0
  -4   7   1    9.46    8.32   0
  -3   5  49   -1.84   11.05   0
  -3   6   0 1166.75   20.20   0
  -2   3  52  424.96   14.72   0
  -1   3  41   15.49    9.04   0
  -1   4  10 1211.71   19.74   0
  -1   4  28  858.64   16.56   0
  -5   8   5   -0.46    9.56   0
  -5   8  35   14.14   11.27   0
  -4   6  50  169.09   13.04   0
  -2   5   2  862.97   16.99   0
  -6   9  18  162.27   14.08   0
  -6   9  21  -12.54   10.97   0
  -4   5  57    6.74    9.84   0
  -4   7  40  214.63   13.44   0
  -3   4  56  210.86   14.10   0
  -2   5  38  128.18   10.40   0
  -1   4  31   16.46    8.05   0
   0   1  38  323.56   13.02   0
   0   2  31    2.31    7.41   0
  -6   9  15    8.82   10.23   0
  -6   9  24  349.92   14.28   0
  -2   4  48  426.73   14.35   0
  -1   2  48  440.63   14.55   0
  -1   4   7   26.47    7.80   0
  -6   9  12  199.15   13.10   0
  -6   9  27    1.02   10.48   0
  -5   8  38   87.70   11.84   0
  -3   6  42  256.95   12.53   0
  -3   5  52  227.44   13.15   0
  -1   3  44  415.59   13.80   0
   0   2  34  331.84   12.28   0
  -4   6  53    6.24   10.39   0
  -4   7  43    0.00   10.48   0
  -3   6  -3   13.45    7.79   0
  -2   5  -1    4.35    7.01   0
  -3   7  20  562.70   15.82   0
  -3   7  23    3.06   10.30   0
  -3   7  26  225.23   13.69   0
  -2   4  51    1.97    9.69   0
  -2   6  19    6.12    9.71   0
  -2   6  22  452.90   14.51   0
   0   1  41    1.68    8.02   0
  -4   7  46  118.99   12.10   0
  -3   7  14  442.09   13.60   0
  -3   7  29   10.63   10.62   0
  -2   5  44  358.19   14.66   0
  -2   6  16  901.25   18.06   0
  -2   6  25   10.10    8.74   0
   0   2  37    6.33    7.89   0
  -4   8  15   -4.99   10.53   0
  -4   8  18  281.13   12.31   0
  -4   8  27    6.66   11.28   0
  -3   7  11    2.95    9.06   0
  -2   6  28  556.80   14.94   0
  -1   3  47    5.92    8.98   0
  -1   4  40  603.28   16.24   0
   0   3  18  596.32   14.90   0
   0   3  21   -4.66    6.65   0
  -4   8  30  143.32   12.76   0
  -3   5  55   -8.83   10.16   0
  -3   7  32  399.62   14.41   0
  -2   6  31   -7.46    9.88   0
   0   3  27    1.48    8.10   0
  -4   8  12  376.76   14.64   0
  -3   6  48  224.60   12.82   0
  -3   7  35   -7.99   11.42   0
   0   3  15  -11.26    6.49   0
  -4   8  33    4.05   10.68   0
  -3   7   8  676.52   15.71   0
  -2   5  47   -1.91   10.27   0
  -2   6  34  248.67   13.32   0
   0   2  40 1050.00   19.52   0
  -4   8   9    7.15    9.53   0
  -3   6  -6  509.24   14.83   0
  -2   4  54   56.55   10.50   0
  -2   5  -4  769.12   17.23   0
  -1   4   1   43.72    6.82   0
  -1   4  43   12.98    9.57   0
  -1   5  18  857.21   16.66   0
  -1   5  21   15.55    8.03   0
  -1   5  24  801.06   16.33   0
  -1   5  27    0.80    9.09   0
   0   3  12 2080.85   24.68   0
  -5   9  19    1.60   10.20   0
  -5   9  22  131.45   12.77   0
  -5   9  25    5.54   10.45   0
  -4   8  36  226.45   13.23   0
  -3   7  38  204.33   13.74   0
  -2   6   7   -6.65    8.40   0
  -2   6  37    9.75   10.50   0
  -1   5  15    5.00    8.73   0
   0   3  33    3.42    8.49   0
  -5   9  16  450.27   15.43   0
  -5   9  28  136.59   12.73   0
  -3   6  51   -2.35   10.64   0
  -3   7   5   16.21    9.01   0
  -1   3  50  255.67   12.69   0
  -1   5  30  228.69   11.41   0
  -5   9  13    5.63    9.87   0
  -4   8   6  270.01   12.66   0
  -4   8  39   -7.31   11.37   0
  -1   5  12 1226.48   19.07   0
  -1   5  33   -2.28    9.46   0
  -3   7  41  -10.11   10.53   0
  -2   5  50  292.51   14.66   0
  -2   6  40  374.66   14.93   0
  -1   4  46  143.28   11.61   0
   0   2  43   -0.41    8.04   0
   0   3   9   -1.16    6.20   0
   0   3  36  645.24   15.21   0
  -5   9  10  193.00   12.64   0
  -2   6   4  989.89   18.70   0
  -1   5  36  657.35   16.79   0
  -1   5   9   28.46    7.42   0
  -4   8   3    4.43    9.32   0
  -3   7  44  237.22   12.63   0
  -1   4  -2  857.88   17.96   0
   0   3  39    2.06    8.98   0
   0   3   6 2034.86   25.33   0
  -2   5  -7   19.70    7.75   0
  -2   5  53    0.34   10.93   0
  -1   4  49   -3.80    9.60   0
   0   4  23    1.10    8.43   0
  -2   6   1    7.82    7.95   0
   0   2  46  386.69   13.64   0
   0   4  20 1449.19   20.39   0
   0   4  26  871.84   16.68   0
   0   4  29    8.21    9.05   0
  -3   7  -1   12.89    8.47   0
  -3   8  25  -10.51   11.10   0
  -2   7  24  616.51   17.09   0
   0   3  42  305.11   11.93   0
   0   4  17    2.31    7.13   0
   1   1  21   26.84    7.41   0
   1   1  24 1825.52   25.15   0
   1   1  27    0.73    6.54   0
  -3   8  19   -4.69   10.44   0
  -3   8  28  268.86   13.59   0
  -2   7  21    5.39    8.82   0
  -2   7  27    8.79    9.30   0
   0   4  32  598.65   14.89   0
  -3   8  16  548.24   15.97   0
  -3   8  31   11.36   10.99   0
  -2   7  30  248.74   12.18   0
   0   4  14  363.93   11.91   0
   1   1  30  704.40   16.68   0
  -3   8  34  227.28   13.04   0
  -2   5  56  177.75   12.95   0
  -2   6  49   -0.90   11.31   0
  -2   7  33    5.66   11.38   0
  -1   4  52  324.55   14.14   0
  -1   5   3   -1.89    7.61   0
  -1   5  45   -1.99   10.81   0
   1   0  31    0.44    6.40   0
  -4   9  20  200.42   12.87   0
  -4   9  23    7.34   11.30   0
  -4   9  26  225.53   13.55   0
  -3   8  13    1.49   10.25   0
  -2   7  36  247.38   14.27   0
  -1   6  20  629.04   16.20   0
  -1   6  23   -1.93   10.00   0
  -1   6  26  303.61   13.56   0
   0   3   3    2.88    5.79   0
   0   3  45   -5.21    8.84   0
   0   4  11    4.39    7.51   0
   1   1  33    6.43    7.24   0
  -4   9  17    9.29   10.18   0
  -3   8  37  -13.91   10.82   0
  -2   6  -2  645.08   15.86   0
  -2   7  12  488.32   13.81   0
  -1   6  17   18.11    9.64   0
  -1   6  29    8.34    9.09   0
   0   4  38  183.94   11.84   0
  -4   9  14  119.58   13.06   0
  -1   4  -5   14.56    7.01   0
  -1   6  32  493.60   14.67   0
   1   2  20 1634.41   22.53   0
   1   2  29   12.77    7.72   0
  -3   8  40  237.98   13.16   0
  -2   7   9   -4.56    8.93   0
  -2   7  39    7.65   10.18   0
  -1   5  48  200.44   12.88   0
  -1   6  14  501.33   14.66   0
  -1   6  35    8.25   10.07   0
   1   0  34 1061.44   21.94   0
  -2   6  52  191.70   12.47   0
   0   4   8 1653.14   21.69   0
   0   4  41   -5.90   10.03   0
   1   1  36 1057.28   19.84   0
   1   2  17   19.07    7.51   0
   1   2  32 1395.14   21.34   0
  -4   9  11   -1.09   10.63   0
  -3   8   7   -3.34    9.19   0
  -2   7  42  128.54   12.56   0
  -1   4  55    7.16    9.43   0
  -1   5   0 1516.74   22.18   0
  -1   6  38  195.63   13.01   0
   1   2  35   -0.51    8.05   0
  -2   7   6  523.95   14.26   0
   0   4  44  577.37   16.07   0
   0   5  22  335.52   13.22   0
   0   5  25   -6.61    9.24   0
   0   5  28  779.55   17.38   0
   1   1  39   -1.30    8.10   0
   1   2  14 1763.31   23.15   0
  -4   9   8  459.62   15.19   0
  -2   7  45   -9.36   10.52   0
  -1   5  51   11.58   10.93   0
  -1   6   8  946.68   17.98   0
  -1   6  41   -5.54    9.54   0
   0   5  19   -0.07    8.91   0
   0   5  31   -1.99    9.49   0
  -3   8   4  350.62   13.72   0
  -2   6  -5   -0.79    7.73   0
   0   4   5    0.97    6.47   0
   1   2  38  417.61   13.80   0
   1   3  25   -1.92    8.38   0
   0   3  51    4.91    9.39   0
   0   5  16  850.49   16.47   0
   0   5  34  377.50   13.22   0
   1   3  22  434.38   12.62   0
  -2   7   3    1.89    8.91   0
   0   4  47    5.02    9.60   0
   0   5  37    0.54   10.17   0
   1   2  11   40.69    6.75   0
   1   3  19   37.16    7.34   0
  -1   5  -3   41.45    8.21   0
  -1   5  54   87.34   12.58   0
  -1   6   5   -0.67    8.50   0
   0   5  13    0.85    7.62   0
   1   2  41   10.02    8.30   0
   1   3  34  661.50   15.99   0
  -2   8  26  284.08   13.72   0
  -2   8  29   -2.50   11.04   0
   1   3  16 2261.22   25.10   0
  -3   8   1    3.04    9.20   0
  -2   8  32  281.68   13.62   0
  -1   6  47   -4.91   11.20   0
   1   3  37    6.47    8.60   0
  -3   9  21   16.92   10.15   0
  -3   9  24  282.04   12.94   0
  -2   8  17  -11.34   10.19   0
  -2   8  35   -8.21   11.21   0
  -1   4  -8 2806.10   32.85   0
  -1   7  22  247.57   13.09   0
  -1   7  25    1.65   11.32   0
  -1   7  28  212.58   12.96   0
   0   4  50  232.40   13.07   0
   0   5  10  785.06   15.85   0
  -3   9  18  281.12   13.39   0
  -2   7   0  775.29   17.20   0
  -1   7  19   13.79    9.97   0
  -1   7  31    0.12   10.36   0
   0   5  43    0.25   10.25   0
   1   2   8 3502.72   32.93   0
   1   3  13   13.75    6.97   0
  -1   7  34  251.18   13.16   0
  -9   8  10  160.71   11.94   0
  -3   5   4  843.36   16.13   0
  -1   3  -7   -3.10    5.09   0
  -8   8   8  373.00   13.59   0
  -7   8   3    0.61   10.16   0
  -6   8 -20  288.11   13.23   0
  -6   8 -14  161.43   10.47   0
  -6   8 -11    2.32    9.90   0
  -5   7 -33   -2.01    8.80   0
  -5   7   0  800.45   15.89   0
  -8   7  18  197.34   12.41   0
  -6   8 -23   -0.52    9.81   0
  -6   8  -8  625.70   15.96   0
  -4   5  15   30.73    7.04   0
  -4   6   5   -9.36    8.01   0
  -8   9 -11    3.65   10.85   0
  -7   7  16  675.94   17.13   0
  -6   8 -26  302.23   13.03   0
  -2   4   3    1.75    5.91   0
  -7   6  23   17.36    9.54   0
  -7   8   6  303.15   13.45   0
  -6   8  -5    7.10   10.43   0
  -5   7   3   -0.88    8.23   0
  -4   4  22  836.81   18.01   0
  -1   3  -4 2977.72   30.04   0
  -9   8  13    7.91    9.07   0
  -8   8  11    2.69    9.94   0
  -6   8 -29   -4.75    9.49   0
  -3   5   7   22.49    7.91   0
  -6   6  21    7.76    8.89   0
  -6   8  -2  304.98   12.54   0
  -5   6  16  762.05   16.30   0
  -5   7   6  242.41   11.71   0
  -4   6   8  996.14   17.00   0
  -3   3  21   -2.49    6.35   0
  -3   6 -18  480.06   13.69   0
  -3   6 -15   -3.81    7.59   0
  -8   9  -2  183.26   12.21   0
  -6   7  14  191.85   10.87   0
  -6   8 -32  242.06   11.81   0
  -6   8   1   12.37    9.86   0
  -5   5  23    2.57    8.16   0
  -3   6 -21    4.22    8.09   0
  -8   7  21    6.08    9.81   0
  -7   7  19   -4.99    9.56   0
  -4   5  18  471.08   13.31   0
  -4   7 -20  548.66   14.88   0
  -4   7 -17    8.73    8.96   0
  -4   7 -11    5.99    8.90   0
  -3   6  -9   10.18    7.23   0
  -2   4   6  864.32   15.79   0
  -1   3  -1   58.53    6.85   0
  -8   8  14  219.53   13.04   0
  -8   9   1    8.45   10.16   0
  -7   9 -19    0.80   10.28   0
  -7   9 -13    1.61   10.05   0
  -3   4  17   -2.98    5.83   0
  -3   6 -24  709.62   15.84   0
  -3   6  -6  508.38   13.76   0
  -2   5 -16 1995.21   23.86   0
  -2   5 -13    4.60    7.09   0
  -7   9 -22   85.89   10.79   0
  -6   8   4  270.11   13.07   0
  -5   7   9    4.27    9.40   0
  -4   7 -23   -8.86    7.77   0
  -3   5  10  800.55   15.42   0
  -2   5 -19    8.41    6.26   0
  -4   6  11    6.39    7.47   0
  -4   7 -26  211.46   11.36   0
  -4   7  -5   11.52    8.83   0
  -3   6 -27   -2.81    7.52   0
  -2   5 -22  366.64   12.23   0
  -8   9   4  277.55   12.92   0
  -7   9  -4  264.01   13.09   0
  -6   7  17    8.09   10.08   0
  -5   8 -16  561.78   15.60   0
  -3   6  -3   10.55    6.98   0
  -2   5  -7   22.44    6.64   0
  -6   6  24  589.09   16.10   0
  -5   8 -19    1.80    9.75   0
  -5   8 -10  273.95   12.95   0
  -4   7  -2  309.04   12.23   0
  -2   5 -25    3.74    6.90   0
  -8   8  17   -0.60    9.65   0
  -7   9  -1    2.80   10.31   0
  -6   8   7   -2.66    8.82   0
  -5   8 -22  166.69   11.54   0
  -5   8  -7    8.72    9.32   0
  -4   7 -29   14.33    8.16   0
  -3   6 -30  247.12   11.87   0
  -3   6   0 1189.51   18.64   0
  -2   4   9   -2.73    5.91   0
  -2   5  -4  799.64   15.57   0
  -1   3   2  687.64   15.00   0
  -7   7  22  141.48   11.47   0
  -5   8 -25    8.53    9.29   0
  -4   4  25   -4.52    7.03   0
  -7   8  15   23.75   10.51   0
  -5   8  -4  362.21   12.59   0
  -4   5  21   11.64    8.14   0
  -4   7   1   15.43    8.00   0
  -3   5  13   -0.33    6.35   0
  -2   5 -28  460.82   14.11   0
  -7   9   2  149.61   12.04   0
  -6   8  10  265.45   13.36   0
  -5   5  26  282.63   12.45   0
  -5   8 -28  239.26   13.04   0
  -2   5  -1    3.12    7.41   0
  -5   8  -1    0.51    8.50   0
  -3   4  20 1003.57   18.21   0
  -3   6   3   20.36    7.32   0
  -8   9  10  138.28   11.41   0
  -6   7  20  344.27   12.98   0
  -6   9 -12  233.58   13.13   0
  -5   6  22  296.22   12.57   0
  -4   7   4  765.39   15.66   0
  -1   4 -14  737.84   15.71   0
  -8   8  20  214.18   12.06   0
  -7   9   5    9.64    9.46   0
  -6   9 -21    7.28    9.94   0
  -6   9 -18  260.94   13.14   0
  -6   9  -9   15.72   10.01   0
  -5   8   2  306.64   13.26   0
  -3   3  24 1176.02   21.23   0
  -1   3   5   11.35    5.74   0
  -1   4 -17    2.38    5.30   0
  -1   4 -11   46.20    7.24   0
  -6   9  -6  133.12   11.34   0
  -3   6   6  551.92   14.05   0
  -2   4  12  844.75   15.84   0
  -2   5   2  907.12   15.84   0
  -1   4 -20  956.52   18.28   0
  -7   8  18  223.28   13.23   0
  -6   9 -24  264.55   12.08   0
  -4   6  17   -0.70    8.38   0
  -4   7   7    5.63    9.36   0
  -8   9  13    4.20    9.39   0
  -7   7  25   -3.94   10.11   0
  -7   9   8  298.66   13.48   0
  -6   9  -3    5.98    9.30   0
  -5   8   5    6.87    9.59   0
  -1   4 -23   22.74    7.50   0
  -6   9 -27    3.69    8.51   0
  -1   4  -5    8.19    6.00   0
  -6   7  23    5.81    9.93   0
  -6   9   0  517.64   14.81   0
  -4   5  24 1151.24   19.80   0
  -2   5   5   11.96    6.85   0
  -5   7  18  522.36   13.84   0
  -4   7  10  491.33   14.36   0
  -3   6   9   10.73    7.40   0
  -6   8  16  525.99   14.64   0
  -6   9   3    9.73   10.43   0
  -5   6  25   15.17    9.00   0
  -5   8   8  605.98   14.83   0
  -3   7 -16  539.41   14.66   0
  -3   7 -13   26.60    8.48   0
  -1   3   8 3416.15   31.62   0
  -1   4 -26  671.73   16.60   0
  -7   8  21    0.69   10.37   0
  -4   8 -15    7.89    9.28   0
  -3   4  23   24.67    7.44   0
  -3   7 -19    3.90    8.10   0
  -2   3  19    4.43    6.36   0
  -4   6  20  787.52   16.79   0
  -4   8 -18  289.07   12.79   0
  -3   7 -22  233.01   11.55   0
  -3   7  -7    9.94    7.73   0
  -2   5   8 2398.68   25.03   0
  -6   9   6  263.97   13.17   0
  -5   8  11    7.78    9.88   0
  -4   8 -21    1.87    9.21   0
  -4   8  -6  272.62   11.55   0
  -3   5  19   15.78    7.95   0
  -2   6 -14  368.58   12.43   0
  -2   6 -11    8.38    7.95   0
  -1   4   1   48.27    7.74   0
  -4   7  13   23.97    9.48   0
  -4   8 -24  434.73   14.98   0
  -4   8  -3   -2.91    9.08   0
  -3   6  12  866.23   16.02   0
  -2   6 -17   -3.20    6.76   0
  -6   8  19   -4.70    9.94   0
  -5   7  21   17.81    9.48   0
  -5   9 -14  140.48   11.11   0
  -3   7 -25   19.14    8.62   0
  -3   7  -1   13.38    9.12   0
  -2   6 -20  783.34   16.42   0
  -6   7  26  365.01   13.76   0
  -6   9   9   -9.00    9.95   0
  -5   9 -20  200.46   12.23   0
  -5   9 -17    3.72    9.17   0
  -5   9  -8  471.04   15.00   0
  -4   8   0  632.87   15.50   0
  -2   6  -5    9.11    6.90   0
  -7   8  24  372.76   14.69   0
  -5   9  -5    9.70   10.54   0
  -4   8 -27   -1.47    8.27   0
  -2   6 -23    7.87    7.51   0
  -5   9 -23   10.46    8.83   0
  -5   9  -2  248.48   13.03   0
  -4   5  27    9.49    7.74   0
  -2   5  11   16.62    6.75   0
  -2   6  -2  655.59   14.25   0
  -1   3  11   33.86    7.00   0
  -1   4   4 1346.91   19.09   0
  -7   9  17    1.64   10.67   0
  -5   6  28  549.81   15.51   0
  -4   6  23    5.32    8.35   0
  -4   8   3    1.08    8.39   0
  -3   3  27   -2.96    6.39   0
  -3   6  15    2.49    7.28   0
  -5   9 -26  220.14   11.22   0
  -5   9   1   -6.58   10.04   0
  -3   7   5   18.75    8.77   0
  -2   6 -26  440.64   13.59   0
  -2   6   1    1.17    8.41   0
  -6   8  22  157.24   11.60   0
  -4   8   6  265.77   12.82   0
  -3   5  22  359.77   12.52   0
  -5   7  24  460.93   14.00   0
  -1   5 -15   26.23    7.57   0
  -1   5 -12 1039.82   17.95   0
  -5   9   4  223.36   12.32   0
  -2   3  22  506.13   14.03   0
  -2   5  14  449.54   12.75   0
  -2   6   4 1006.88   17.46   0
  -1   4   7   19.00    6.67   0
  -1   5 -18  424.56   12.85   0
  -7   9  20  214.34   12.21   0
  -6   9  15   17.65   10.48   0
  -4   7  19    3.39    9.34   0
  -3   7   8  666.36   14.79   0
  -5   9   7   25.23   10.58   0
  -4   8   9    9.74    8.39   0
  -1   5 -21    7.59    7.16   0
  -1   5  -3   44.01    8.11   0
   0   3 -12 2537.33   28.92   0
  -2   6   7   -9.42    8.38   0
   0   3 -15    0.78    5.92   0
   0   3  -9    0.65    5.87   0
  -6   8  25   -2.62   10.28   0
  -4   6  26  430.22   14.08   0
  -3   7  11   -2.06    9.25   0
  -5   8  20  303.19   12.26   0
  -4   8  12  368.80   13.85   0
  -2   4  21    5.98    6.79   0
  -1   4  10 1197.56   18.08   0
  -1   5 -24 1038.81   19.27   0
  -1   5   0 1553.74   20.14   0
   0   3 -18 1349.51   22.75   0
  -6   9  18  145.36   12.37   0
  -5   7  27    0.42    9.16   0
  -5   9  10  191.04   12.02   0
  -4   5  30  374.65   13.22   0
  -3   5  25   -0.63    7.69   0
  -3   8 -11   -2.65    9.50   0
  -4   7  22  247.88   12.33   0
  -4   9 -13   -4.38    9.36   0
  -4   9 -10  198.01   11.79   0
  -3   8 -17    8.87    8.92   0
  -3   8  -5    1.82    9.53   0
  -2   6  10  440.54   13.28   0
   0   3  -3    2.49    6.28   0
  -4   9 -16  457.01   14.44   0
  -3   6  21   12.32    8.75   0
  -3   8 -20  293.39   12.77   0
  -1   5   3   -2.97    6.50   0
  -5   9  13   -1.94    9.92   0
  -4   8  15   -6.29   10.33   0
  -4   9 -19    1.96    9.14   0
  -4   9  -4  206.10   11.80   0
  -3   7  14  468.16   13.34   0
  -3   8  -2  287.82   11.82   0
  -2   7 -15    6.08    8.23   0
  -2   7 -12  613.35   14.35   0
  -2   7  -9    5.27    7.53   0
  -5   8  23   12.12   10.29   0
  -4   9  -1    1.74    9.82   0
  -3   8 -23    9.25    8.85   0
  -3   8   1    8.31    9.68   0
  -2   7 -18  497.19   14.12   0
  -6   9  21   -2.31    9.88   0
  -4   9 -22  132.40   11.09   0
  -3   4  29    1.32    7.73   0
  -2   7  -3    4.35    7.77   0
  -1   4  13   22.36    6.49   0
  -1   5   6  431.66   12.46   0
   0   3   0 2709.00   27.67   0
  -6   8  28  206.10   12.75   0
  -4   6  29   -3.66    8.79   0
  -4   9   2  279.26   13.26   0
  -2   6  13   -3.34    7.51   0
  -2   7 -21   -3.87    8.43   0
  -2   7   0  840.24   16.82   0
  -5  10  -3   -1.43    9.63   0
  -3   7  17   19.46    9.74   0
  -3   8   4  369.14   12.50   0
  -2   3  25   11.24    6.58   0
  -5   7  30  122.18   11.07   0
  -5  10   0  295.31   13.64   0
  -4   7  25   11.75    9.48   0
  -4   9   5    9.70   10.28   0
  -2   7 -24  400.66   13.95   0
  -2   7   3    9.28    9.40   0
  -3   5  28  485.92   14.12   0
  -3   6  24  738.92   15.70   0
  -3   8   7   10.14    9.81   0
  -2   4  24 1980.75   23.88   0
  -1   5   9   34.63    8.05   0
   0   3   3    0.48    5.61   0
  -5  10   3   -7.21    9.82   0
  -1   6 -13   17.33    8.24   0
   0   4 -13   -2.23    6.45   0
   0   4 -10  464.73   13.16   0
  -6   9  24  336.30   14.02   0
  -5   8  26  269.17   13.54   0
  -4   9   8  476.77   14.28   0
  -2   6  16  889.70   16.26   0
  -2   7   6  555.25   14.35   0
  -1   4  16 2303.92   24.92   0
  -1   6 -16  747.69   16.13   0
  -5   9  19   12.79   10.60   0
  -5  10   6  146.13   12.26   0
  -3   8  10  308.83   13.28   0
   0   4 -16 1700.28   23.38   0
  -4   8  21    7.45    9.95   0
  -1   6 -19    3.51    7.84   0
  -1   6  -1   15.45    7.38   0
   0   3   6 2113.03   24.36   0
  -4   9  11   -0.18   10.61   0
  -2   5  23   10.63    7.99   0
  -2   7   9  -11.44    8.83   0
  -1   5  12 1265.60   18.43   0
   0   4 -19    0.36    6.18   0
   0   4  -1    1.78    6.06   0
  -4   6  32  471.82   15.33   0
  -4   7  28  511.92   15.62   0
  -1   6 -22  273.22   11.59   0
  -1   6   2  379.60   11.83   0
  -3   6  27    6.83    8.84   0
  -3   8  13   15.14    8.62   0
  -2   6  19    5.15    7.76   0
  -1   3  20 1504.82   21.58   0
  -6   9  27    2.67    9.39   0
  -5   8  29   15.85   11.20   0
  -5   9  22  138.00   11.82   0
  -4   9  14  131.32   11.45   0
  -1   6   5    1.68    8.64   0
   0   4   2 1483.62   19.92   0
  -4   8  24  461.35   15.06   0
  -3   7  23    3.54    8.79   0
  -3   9 -12  210.15   11.92   0
  -3   9  -9   -7.34    9.47   0
  -2   4  27   -3.36    6.94   0
  -2   7  12  496.05   13.49   0
   0   4 -22  713.67   16.62   0
  -3   5  31    2.99    7.66   0
  -3   9 -15   14.75    9.28   0
  -1   5  15    3.43    6.92   0
   0   3   9    0.27    5.62   0
  -3   9 -18  145.05   11.23   0
  -3   9   0  454.66   14.28   0
  -2   3  28 1536.35   23.91   0
  -2   8 -13  -14.31    9.13   0
  -2   8 -10  264.82   11.70   0
  -2   8  -7   -0.51    7.96   0
  -1   6   8  940.48   17.27   0
   0   4   5    2.50    6.12   0
  -4   9  17   -1.34   10.27   0
  -4  10  -2  119.05   10.88   0
  -2   8 -16  547.40   14.84   0
  -2   8  -1    5.66   10.03   0
  -5   9  25   -1.00    9.73   0
  -4   7  31   -2.09    9.69   0
  -3   9 -21    2.80   10.04   0
  -3   9   3    2.26   10.24   0
  -2   5  26  764.91   15.50   0
  -2   7  15   13.49    8.21   0
  -2   8 -19    4.66    8.80   0
  -1   6  11   -1.22    8.87   0
   0   4   8 1703.86   21.36   0
   0   5 -11   -2.94    6.25   0
   0   5  -8 1098.53   17.80   0
  -4   8  27   -5.38   10.52   0
  -3   6  30  259.71   12.31   0
  -3   7  26  228.12   12.30   0
  -3   8  19    5.70   10.34   0
  -3   9   6  126.30   11.39   0
  -1   5  18  848.77   15.84   0
   0   3  12 2102.41   24.23   0
   0   5 -14  701.31   15.59   0
   0   5  -2  409.19   12.65   0
  -5   8  32  295.92   13.14   0
  -2   8   5   -0.68    8.49   0
  -1   7 -11    5.57    8.84   0
  -1   7  -8  813.81   17.08   0
   0   5 -17   -5.37    8.19   0
  -3   9   9    2.07   10.62   0
  -2   7  18  228.49   11.09   0
  -1   3  23    3.78    5.51   0
  -1   4  22  391.54   11.68   0
  -1   7 -14  185.87   11.17   0
   0   5   1    1.74    6.80   0
  -2   8   8  630.91   16.01   0
  -1   6  14  518.93   14.08   0
  -1   7 -17    7.73    8.76   0
  -1   7   1    5.99    9.36   0
  -5   9  28  145.57   12.12   0
  -2   6  25    8.93    7.62   0
   0   4  11    4.13    6.35   0
   0   5 -20  811.65   17.43   0
   0   5   4 1271.44   18.56   0
  -3   5  34  541.20   15.63   0
  -3   9  12  244.59   12.70   0
  -2   4  30  246.58   10.93   0
  -1   7   4  345.98   12.75   0
  -4   9  23    2.81    9.93   0
  -2   5  29    1.36    8.02   0
  -2   7  21    7.17    9.63   0
  -2   8  11   -9.23   10.66   0
  -1   7 -20  362.41   13.08   0
  -4   7  34  234.96   12.61   0
  -4   8  30  148.19   11.42   0
  -3   7  29   21.17   10.17   0
  -1   6  17    6.74    9.00   0
  -1   7   7   23.84    9.77   0
   0   3  15   -3.72    5.81   0
   0   5   7   -4.61    7.04   0
  -3   6  33   10.87    8.84   0
  -3   9  15    2.47   10.45   0
   0   4  14  362.66   11.94   0
  -2   8  14  153.19   11.83   0
  -1   4  25    2.08    7.29   0
  -3   8  25   -1.03   10.50   0
  -2   6  28  586.80   15.53   0
  -1   7  10  307.46   12.86   0
   0   5  10  796.10   15.27   0
  -4   9  26  227.35   13.27   0
  -2   3  31    4.45    6.35   0
   0   6  -9   -1.23    8.51   0
   0   6  -6  279.89   11.04   0
  -3   9  18  266.70   13.26   0
  -2   9  -8  316.88   12.75   0
  -2   9  -5    0.65    9.44   0
  -1   3  26  584.20   14.68   0
  -1   5  24  765.58   15.29   0
  -1   6  20  593.18   14.94   0
   0   6 -12  538.84   13.85   0
   0   6   0 1021.44   18.08   0
  -2   8  17    1.01    8.57   0
  -2   9 -11   -2.54    9.81   0
  -1   7  13    5.01    9.27   0
   0   3  18  579.63   13.82   0
   0   4  17   -0.24    7.65   0
   0   6 -15   -4.18    7.58   0
   1   3  -8 2866.12   29.28   0
  -4   8  33    1.80    9.61   0
  -3   7  32  407.40   14.60   0
  -2   5  32  868.66   17.50   0
  -2   9 -14  168.73   11.79   0
  -2   9   1    4.05    9.22   0
   0   5  13    1.61    7.12   0
   0   6   3   -3.02    7.77   0
   1   3 -11   44.97    7.18   0
  -3   8  28  244.86   13.15   0
  -2   9 -17    0.39   10.16   0
  -2   9   4  277.08   12.87   0
   0   6 -18  480.55   14.09   0
  -2   4  33    1.12    7.10   0
  -1   7  16  808.40   17.58   0
  -1   8  -9   -0.48    9.21   0
  -1   8  -6  284.03   12.67   0
  -1   8  -3   12.82   10.16   0
   0   6   6  493.43   13.39   0
   1   2  -1   63.71    6.81   0
   1   3   1   44.42    6.78   0
  -4   9  29    5.68    9.52   0
  -3   6  36  401.62   14.31   0
  -2   6  31   -0.43    8.95   0
  -2   7  27   -0.87    9.68   0
  -2   8  20  259.25   12.50   0
  -2   9   7    8.43   10.29   0
  -1   4  28  839.64   16.77   0
  -1   8 -12  240.85   12.49   0
   1   3 -14  752.01   16.69   0
  -1   5  27    0.47    8.24   0
  -1   8 -15    5.31    8.97   0
  -1   8   3   -1.05   10.25   0
   0   5  16  811.86   15.52   0
   0   6   9   12.97    7.81   0
   1   2   2  721.43   15.92   0
   1   3   4 1398.42   19.89   0
   1   4  -9    2.66    7.14   0
   1   4  -6  976.34   17.44   0
  -2   9  10  237.21   12.47   0
   0   4  20 1433.68   20.26   0
   1   4   0 1546.85   20.71   0
  -1   7  19   12.44    9.97   0
   0   2  19    4.35    5.96   0
   1   3 -17   -1.06    6.52   0
   1   4 -12 1097.03   18.74   0
  -3   7  35    2.11    9.66   0
  -3   8  31    7.25   10.60   0
  -3   9  24  249.56   13.23   0
   0   6  12  471.24   13.21   0
   1   2   5   12.09    6.76   0
   1   3   7   31.16    7.15   0
   1   4   3    1.70    6.52   0
  -2   9  13   -2.13    9.49   0
  -1   3  29    7.65    7.55   0
  -1   8   9   11.15    9.12   0
   0   5  19   -6.49    8.44   0
   1   4 -15   29.66    7.68   0
  -2   5  35    9.46    9.14   0
  -2   7  30  255.03   12.68   0
   0   7  -7    4.49    9.20   0
   0   7  -4  254.64   12.84   0
   1   4   6  410.48   12.51   0
  -1   8  12  317.70   13.32   0
   0   6  15    8.47    9.51   0
   0   7 -10  306.58   12.89   0
   0   7   2  305.35   12.88   0
  -2   6  34  245.08   12.50   0
  -2   9  16  275.81   12.42   0
  -1   5  30  230.24   11.53   0
  -1   7  22  222.86   11.26   0
   0   7 -13    1.48    8.46   0
   1   2   8 3470.00   31.71   0
   1   3  10 1201.43   18.16   0
   1   4 -18  453.22   14.12   0
   1   5  -7    3.38    8.18   0
   1   5  -4  882.17   16.92   0
  -3   9  27    5.23   10.60   0
  -2   8  26  273.21   13.52   0
  -1   4  31    7.29    7.76   0
   0   7   5    0.20    8.41   0
   1   3 -20  882.05   19.56   0
   1   4   9   37.94    7.33   0
   1   5 -10  586.83   14.85   0
  -1   8  15   -2.34   10.70   0
   0   5  22  314.59   11.42   0
   0   7 -16  618.46   15.60   0
   0   7   8  727.22   17.17   0
   1   5   2  388.60   12.04   0
  -3   8  34  211.27   12.43   0
  -2   9  19   -8.45   10.02   0
  -1   6  29    1.32    9.40   0
   0   3  24 1697.64   21.90   0
   0   6  18  315.34   12.02   0
   1   5 -13   24.79    8.05   0
   1   5   5   -5.19    8.12   0
   1   3  13   16.92    6.52   0
   1   4  12 1274.61   18.55   0
  -2   7  33    7.93    9.39   0
  -1   8  18  307.89   13.46   0
   0   7  11    2.60    8.63   0
   1   2  11   33.65    6.39   0
   1   5 -16  738.92   16.43   0
   1   5   8  995.16   17.43   0
  -2   8  29   -2.54    9.84   0
  -1   9  -7    0.85    9.17   0
  -1   9  -4  265.90   12.31   0
  -1   9  -1    1.63    9.46   0
   0   4  26  912.14   17.17   0
  -2   9  22   83.89   11.65   0
  -1   9 -10  134.43   10.48   0
   0   6  21    5.58    8.05   0
   0   7  14  189.48   12.27   0
  -2   6  37   -0.26    8.89   0
  -1   5  33   -7.12    8.49   0
  -1   9   5    0.99    9.79   0
   1   3  16 2311.75   24.77   0
   1   4  15    5.73    6.87   0
   1   5  11    4.10    7.94   0
  -1   7  28  227.69   12.64   0
  -1   8  21    8.51    9.70   0
  -1   9   8  243.35   13.09   0
   1   5 -19    5.29    7.38   0
   1   6  -5   14.88    8.83   0
   1   6  -2  447.22   13.86   0
  -3   8  37   -3.85   10.38   0
  -1   4  34  662.98   15.80   0
  -1   6  32  504.53   15.26   0
   0   7  17    0.19   10.06   0
   1   2  14 1708.86   22.10   0
   1   6  -8  815.06   17.16   0
  -1   9  11   -1.34    9.91   0
   0   3  27    4.90    5.76   0
   0   6  24  760.52   16.76   0
   0   8  -5   -1.89    9.41   0
   0   8  -2  132.81   11.19   0
   0   8   1   -7.02   10.08   0
   1   6 -11    8.83    8.63   0
   1   6   4  327.21   12.06   0
  -2   7  36  233.10   13.10   0
  -2   8  32  304.74   13.86   0
   0   8  -8  361.82   13.89   0
   1   4  18  851.66   15.74   0
   1   6   7   23.30    9.80   0
  -1   8  24  318.24   14.08   0
   0   4  29    5.45    7.47   0
   0   5  28  764.62   15.68   0
   0   8 -11   -0.04    9.15   0
   0   8   7    4.20   10.58   0
   1   3  19   26.24    7.71   0
   1   6 -14  185.88   11.09   0
   0   2  25    0.95    6.20   0
   0   7  20  239.46   11.84   0
   1   5  17   -3.88    7.97   0
   1   6  10  301.64   12.82   0
  -1   2  30  661.12   17.52   0
  -1   7  31    4.30   10.42   0
   0   8 -14  177.36   11.21   0
   0   8  10  249.82   12.59   0
  -1   5  36  650.37   15.98   0
   1   2  17   13.82    6.20   0
   1   4  21   15.81    8.56   0
   1   6 -17    5.34    8.57   0
   1   6  13    9.63    9.16   0
  -1   6  35    6.37    9.94   0
   0   8  13    4.27   10.03   0
  -2   8  35    1.09    9.80   0
   0   7  23  -13.75    9.31   0
   1   5  20  605.02   14.38   0
  -2   7  39   -3.28   10.07   0
   0   3  30  685.77   15.58   0
   0   5  31   -3.08    9.13   0
   1   3  22  390.45   11.71   0
   1   6  16  784.61   17.28   0
   1   7  -3    2.55   10.07   0
   1   7   0  520.61   15.40   0
   2   3  -4  792.13   15.49   0
   2   3   2  867.81   15.96   0
   2   4  -2  672.06   15.11   0
  -1   3  35    3.91    7.39   0
  -1   4  37    0.93    7.66   0
   0   8  16  246.68   12.98   0
   1   7  -6  275.04   12.98   0
   2   3  -7   20.17    6.27   0
   2   3   5    7.45    7.26   0
   2   4  -5    3.79    7.79   0
   2   4   4 1008.28   17.74   0
  -1   7  34  234.93   13.50   0
   0   6  30  208.06   12.21   0
   1   4  24  751.68   15.30   0
   1   7  -9   -2.81    8.84   0
   1   7   6  144.21   11.99   0
   2   4  -8 1007.63   18.25   0
  -1   8  30   72.55   10.97   0
   0   7  26  279.38   13.50   0
   1   5  23    3.26    8.18   0
   1   6  19   13.60   10.06   0
   1   7   9   13.40   10.01   0
   2   3 -10  793.90   16.44   0
   2   3   8 2298.72   24.31   0
   2   4   7   -4.68    7.32   0
   0   8  19    3.04   10.41   0
   1   7 -12  241.56   12.49   0
   2   2   0 4316.74   35.01   0
   2   4 -11    1.14    7.69   0
  -1   5  39    2.08    9.80   0
  -1   6  38  205.03   12.03   0
   0   2  28 1202.05   20.56   0
   1   7  12  279.84   13.24   0
   2   2   3    0.58    5.93   0
   2   3  11   13.02    8.15   0
   2   4  10  426.24   12.35   0
   2   5  -3   -2.15    8.93   0
   2   5   0  814.44   16.98   0
   0   5  34  382.66   13.61   0
   2   2  -6  834.32   16.57   0
   2   3 -13    5.35    6.62   0
   2   5  -6  218.32   11.72   0
   2   5   6  524.09   14.60   0
   0   8  22   93.92   11.12   0
   1   5  26  304.94   12.55   0
   1   6  22  237.04   11.40   0
   1   7  15    0.36   10.64   0
   2   2   6  876.36   16.15   0
   2   4  13    2.34    8.92   0
   2   5  -9   -2.73    8.57   0
  -1   7  37    4.92    9.59   0
  -1   8  33   11.34   10.48   0
   0   6  33    9.59   10.15   0
   2   2  -9    0.36    6.35   0
   2   3  14  446.07   12.85   0
   2   5   9    9.87    8.00   0
   0   3  33   -4.03    7.31   0
   0   4  35    7.00    8.15   0
   1   2  23    5.27    6.83   0
   2   2   9   -6.31    6.19   0
   2   5 -12  599.71   15.53   0
   1   7  18  320.02   13.52   0
   2   3 -16 1988.04   26.54   0
   2   4  16  891.82   16.33   0
   2   5  12  491.78   13.51   0
   0   8  25   -6.30   10.74   0
   1   6  25    0.95    9.04   0
   2   2  12  872.12   16.51   0
   2   4 -17    1.01    7.14   0
   0   7  32  358.76   14.41   0
   1   3  28  833.81   16.08   0
   1   8  -1    2.81    9.39   0
   1   8   2  147.62   11.26   0
   2   2 -12  849.58   18.13   0
   2   3  17    5.24    7.15   0
   2   5 -15   -0.97    9.23   0
   2   5  15    3.29    9.76   0
   2   6  -4  297.58   13.28   0
   2   6  -1   12.70   10.12   0
   2   6   2  292.21   13.66   0
  -1   6  41    4.35    9.69   0
   0   5  37    5.66    9.34   0
   1   4  30  232.57   10.66   0
   1   7  21   10.20   10.28   0
   1   8   5    2.11   10.70   0
   2   4  19    2.46    9.14   0
   2   6  -7   -0.27    9.68   0
   0   6  36  223.93   12.41   0
   1   8  -7    3.91    9.58   0
   2   6   8  590.75   15.00   0
  -1   7  40  303.45   13.32   0
   0   2  31    3.11    7.30   0
   1   6  28  200.31   12.87   0
   1   8  11   -7.02    9.90   0
   2   2  15    0.79    6.45   0
   2   3  20  718.07   15.58   0
   2   5  18  229.67   11.34   0
   2   6 -10  274.72   12.69   0
   2   6  11    2.35   10.20   0
   1   2  26  582.37   14.50   0
   1   7  24  281.17   13.71   0
   0   4  38  181.90   10.95   0
   1   5  32  521.76   15.47   0
   2   4  22  438.83   12.82   0
   2   6  14  150.54   12.29   0
   0   3  36  625.37   15.63   0
   0   7  35    2.67   10.88   0
   1   3  31   12.09    8.30   0
   2   2 -15   -0.45    6.11   0
   2   5  21    3.41    8.63   0
   2   6 -13   -6.14    8.63   0
   1   4  33   11.59    9.13   0
   2   1   1   61.30    7.88   0
   2   2  18 1196.31   18.39   0
   2   6  17   -4.53   10.24   0
   1   7  27   -0.16   10.15   0
   2   1   4 3127.66   31.25   0
   2   3  23   10.00    7.37   0
   0   5  40  299.98   13.28   0
   0   6  39    3.77   10.50   0
   2   1   7    3.04    5.90   0
   2   4  25    4.11    7.90   0
   2   5  24  575.01   15.80   0
   2   7  -2  143.54   12.02   0
   2   7   1    3.94    9.38   0
   2   7   4  285.49   13.02   0
   2   6  20  272.74   13.67   0
   2   7  -5    0.50    9.97   0
   1   1  21   32.94    6.80   0
   1   2  29    6.71    7.34   0
   1   5  35   -3.36    9.55   0
   2   1  10 2173.11   25.88   0
   2   2  21   -4.26    6.66   0
   2   7  10  227.10   13.03   0
   3   3   3   -1.69    8.28   0
   3   4  -1    9.70    8.56   0
   3   4   5   18.64    8.85   0
   0   7  38   59.02   11.20   0
   2   7  13   -1.46   10.57   0
   3   3  -3    5.98    7.98   0
   3   3   6  546.30   13.52   0
   3   4  -4  785.24   16.77   0
   3   4   8  665.76   15.87   0
   1   3  34  663.32   15.90   0
   1   4  36  638.76   16.07   0
   1   6  34  237.01   12.66   0
   2   5  27   17.81    9.80   0
   2   6  23    3.91   10.62   0
   3   3  -6  552.89   14.46   0
   3   3   9    6.46    7.75   0
   3   4  11    5.34    9.06   0
   0   2  34  298.75   12.65   0
   0   4  41    6.00    8.34   0
   2   1  13   53.19    7.89   0
   2   7  16  263.10   13.11   0
   3   3  12  868.56   16.82   0
   3   4  -7   10.37    8.68   0
   3   5   1    8.31   10.12   0
   3   4  14  445.31   14.24   0
   3   5  -2  289.66   13.36   0
   0   3  39    5.98    7.59   0
   0   6  42  204.32   12.66   0
   2   6  26  282.74   13.43   0
   2   7  19    4.11   10.86   0
   3   2   4  818.10   15.78   0
   3   3  -9    9.12    7.90   0
   3   3  15   10.97    8.54   0
   3   5  -5    3.91    9.29   0
   0   5  43    1.90    8.86   0
   1   5  38  187.38   12.50   0
   1   7  33    3.58    9.92   0
   3   2   7   27.43    7.05   0
   3   4  17   19.73    9.48   0
   3   5  13    1.15   10.17   0
   1   1  24 1824.52   25.27   0
   1   6  37   10.25   10.10   0
   2   1  16 2146.60   25.12   0
   3   2  10  819.68   15.72   0
   3   5  -8  639.23   16.15   0
   1   2  32 1358.87   21.27   0
   2   7  22   90.78   11.12   0
   3   2  -5   19.35    6.62   0
   3   3 -12  913.54   18.07   0
   3   3  18  500.39   13.46   0
   3   5  16  558.81   15.88   0
   1   4  39    7.86    9.50   0
   2   6  29   -3.85   10.19   0
   3   2  13    3.93    7.15   0
   3   4 -13   15.18    8.52   0
   3   4  20  586.73   14.75   0
   3   6   3   13.32   11.02   0
   1   3  37    1.25    8.33   0
   2   2  27    8.91    7.90   0
   3   2  -8 2370.61   27.30   0
   3   5 -11    3.41    9.16   0
   3   5  19    2.34   11.15   0
   3   6   0  470.41   15.17   0
   3   6   6  125.23   12.22   0
   2   1  19   -1.18    6.28   0
   2   5  33   -8.82   10.45   0
   3   2  16 2024.13   23.43   0
   3   3  21    8.54    8.13   0
   3   6  -3   -2.42   10.52   0
   3   6  12  219.90   13.23   0
   2   4  34  247.71   12.94   0
   3   4  23   -7.02    8.65   0
   3   6  -6  256.04   13.32   0
   1   5  41    3.34    9.72   0
   1   6  40  314.89   13.67   0
   3   3 -15    2.90    7.57   0
   3   5  22  184.76   12.37   0
   3   6  15  -10.93   10.28   0
   3   2 -11    7.69    7.10   0
   3   2  19    6.58    7.60   0
   3   3  24  756.04   16.46   0
   3   6  -9    9.54   10.78   0
   1   1  27    1.78    6.88   0
   3   4  26  207.99   12.57   0
   3   6  18  281.87   13.76   0
   1   2  35    3.97    7.84   0
   2   2  30  238.84   10.41   0
   2   5  36  243.39   13.07   0
   3   5  25  -15.32   10.61   0
   1   4  42  297.80   13.48   0
   2   3  35    5.56    9.29   0
   3   1   2  941.82   17.66   0
   3   1   5    9.77    6.53   0
   3   1   8 2972.10   29.16   0
   3   2  22  389.07   13.13   0
   3   6  21   -2.92   10.60   0
   2   4  37   -6.75   10.32   0
   2   6  35    2.41   10.00   0
   3   1  11   47.90    8.59   0
   3   3  27    8.45    9.54   0
   3   4  29    1.53   10.35   0
   3   5  28  273.84   13.82   0
   1   5  44  234.89   12.44   0
   1   6  43   -6.41   10.43   0
   3   1  14  797.36   16.24   0
   3   2 -14  431.18   13.98   0
   3   6  24  296.17   13.48   0
   4   3   1   12.86    8.98   0
   4   3   7    6.20    9.60   0
   4   4   3   -0.06    9.90   0
   4   4   9    4.31   10.02   0
   2   1  25   12.25    6.41   0
   3   1  -4 1358.20   20.97   0
   3   2  25   15.38    7.55   0
   4   3  10  472.74   13.60   0
   4   4   0  618.72   16.42   0
   4   4  12  347.26   14.05   0
   2   2  33   -2.49    7.07   0
   2   5  39    1.17   10.64   0
   4   3  -2  311.23   12.02   0
   4   3  13   11.90    8.67   0
   4   4  -3    8.72    9.53   0
   1   1  30  694.39   16.63   0
   3   1  17    2.67    6.78   0
   3   5  31   -1.69   10.49   0
   3   6  27   12.25   10.44   0
   4   3  -5   24.29    9.08   0
   4   3  16  540.96   15.20   0
   4   4  15    2.14    8.98   0
   4   5   5    7.14   10.35   0
   2   3  38  127.46   11.30   0
   2   4  40  360.10   14.00   0
   3   1  -7   27.76    7.30   0
   4   2   5   13.16    7.42   0
   4   2   8  998.99   18.37   0
   4   4  -6  272.10   12.85   0
   4   4  18  271.73   13.47   0
   4   5   2  249.90   13.80   0
   1   2  38  412.14   13.79   0
   4   2  -1    0.41    8.53   0
   4   2  11    6.38    7.82   0
   4   3  19   10.44    9.85   0
   4   5  -1   -0.38    9.52   0
   4   5  14  143.07   11.94   0
   3   1  20  985.38   17.32   0
  -6   8  13   -6.41    9.12   0
  -6   9   6  242.59   12.84   0
  -4   9 -10  202.67   12.34   0
  -1   5   0 1497.74   19.55   0
   0   4  -7    0.87    5.89   0
  -3   7   5   24.18    7.89   0
  -2   6   4  992.59   16.67   0
  -1   6 -10  568.28   13.38   0
   0   5 -26  296.89   11.50   0
   0   5 -23    5.68    7.36   0
  -3   6  12  896.99   17.30   0
  -3   8  -5   -2.60    9.74   0
   0   3   0 2709.25   27.43   0
   0   5 -29   -0.00    7.40   0
   0   5 -20  832.79   16.35   0
  -5   8  11    2.80    9.71   0
  -4   6  17    2.78    8.07   0
  -4   9  -7    4.99    9.82   0
  -3   5  16 2011.80   24.52   0
  -1   4   7   33.87    6.53   0
  -1   6  -7   -2.85    7.29   0
   0   5 -17    0.02    6.38   0
  -5   9   4  197.94   12.74   0
  -4   7  13    7.74    7.90   0
  -2   7  -3    2.76    7.81   0
   0   4  -4 1597.94   20.45   0
   1   3 -26  681.85   16.24   0
   1   3 -23   29.13    6.71   0
  -6   9   9    1.22    9.26   0
  -6  10  -1   -0.40    9.46   0
  -4   9  -4  228.57   12.21   0
  -3   8  -2  310.76   11.98   0
  -1   5   3   -6.46    6.77   0
   0   5 -14  689.18   14.27   0
   1   3 -20  979.57   18.17   0
  -2   6   7    5.36    8.50   0
  -5   7  18  517.38   15.92   0
  -2   4  15    1.67    6.36   0
  -2   8 -28  204.25   11.60   0
  -2   8 -25   -5.12    9.44   0
  -2   8 -22  151.55   10.96   0
  -1   6  -4  833.74   15.45   0
   1   3 -17   -3.06    6.22   0
  -4   9  -1  -13.64   10.39   0
  -3   8   1   -3.53   10.18   0
  -3   9 -27    1.65    8.85   0
  -3   9 -24  309.49   12.63   0
  -2   7   0  791.92   15.58   0
  -2   8 -31   -2.67    8.74   0
  -2   8 -19    6.56    8.81   0
  -5   8  14  215.69   12.38   0
  -5   9   7    1.61   10.32   0
  -5  10  -6  138.95   10.71   0
  -4   5  21    9.07    7.03   0
  -4   8   9   11.09    8.06   0
  -1   3  11   30.58    5.98   0
  -1   7 -26  373.23   13.50   0
  -1   7 -23   14.30    9.33   0
   0   4  -1    3.54    7.04   0
  -3   6  15    2.30    7.07   0
  -3   9 -15    5.83    9.55   0
  -2   8 -34  179.72   11.23   0
  -2   8 -13    2.37    9.49   0
  -1   7 -29    2.26    8.27   0
  -1   7 -20  346.66   13.05   0
   0   3   3   -0.55    5.42   0
   0   5  -8 1071.88   17.55   0
   1   3 -14  718.88   15.03   0
  -6   9  12  219.66   12.83   0
  -4   7  16  546.26   15.31   0
  -1   5   6  420.89   11.93   0
  -1   6  -1   13.30    7.52   0
  -1   7 -32  334.19   13.12   0
  -1   7 -17    8.16    7.72   0
  -5  10  -3   -4.84   10.42   0
  -4   9   2  251.13   12.71   0
  -3   4  20  946.25   18.85   0
  -3   9 -12  225.91   11.71   0
  -2   7   3   -0.38    8.89   0
  -2   8 -10  268.82   12.43   0
  -1   4  10 1176.31   18.10   0
  -3   5  19   13.14    7.32   0
   1   3 -11   46.32    7.18   0
  -3   9  -9    2.59    8.89   0
  -1   7 -11    7.63    9.18   0
   0   5  -5    5.33    7.76   0
  -4   8  12  370.26   13.77   0
  -2   8  -7    6.65    8.28   0
  -1   6   2  393.15   12.47   0
   0   4   2 1492.68   20.15   0
  -3   9  -6  252.30   12.65   0
   0   6 -27   -0.24    9.19   0
   0   6 -24  560.69   14.62   0
   0   6 -21    1.61    8.48   0
   1   4 -24 1063.64   18.90   0
   1   4 -21    6.97    8.06   0
  -5   8  17    1.58    9.07   0
  -2   7   6  553.22   14.73   0
  -1   7  -8  830.81   16.06   0
   0   6 -18  478.94   13.99   0
   1   4 -27    9.61    7.37   0
   1   4 -18  444.25   12.99   0
  -6   9  15   11.97   11.03   0
  -3   6  18  520.44   14.42   0
  -3   8   7   13.21    8.47   0
  -2   8  -4  282.60   11.90   0
  -1   5   9   30.03    7.30   0
   0   5  -2  418.57   12.39   0
   0   6 -30  139.76   10.46   0
   0   6 -15    2.44    8.20   0
  -5  10   3    8.11    9.69   0
  -3   7  14  454.46   13.25   0
  -3   9  -3   13.18    9.96   0
  -1   7  -5   10.65    9.38   0
   0   3   6 2031.42   23.67   0
   1   4 -15   27.08    7.64   0
  -4   7  19    2.39    8.94   0
  -2   4  18 1158.21   19.02   0
  -1   6   5    8.69    8.30   0
   0   6 -12  549.31   14.50   0
  -5   9  13    0.60    9.56   0
  -4   8  15    4.17   10.14   0
  -4   9   8  476.78   15.44   0
  -2   8  -1   -6.11   10.41   0
  -1   4  13   13.62    6.31   0
   1   4 -12 1061.54   17.89   0
  -3   9   0  452.29   15.11   0
  -2   5  17   -3.14    6.52   0
  -2   7   9  -10.78    9.29   0
   0   4   5    1.59    6.16   0
  -5  10   6  144.21   12.07   0
  -1   7  -2  441.28   13.02   0
   0   5   1   -0.60    6.92   0
  -4   6  23   -0.95    7.79   0
   1   4  -9    4.41    7.18   0
  -5   8  20  306.01   13.44   0
  -3   5  22  373.40   12.65   0
  -2   8   2  288.83   12.11   0
  -2   9 -20  213.06   12.37   0
  -2   9 -17   -0.21    9.36   0
  -1   5  12 1280.74   19.29   0
   0   6  -6  279.95   11.87   0
  -3   7  17   22.33    9.54   0
  -3   9   3   -3.13   10.06   0
  -1   6   8  949.47   16.78   0
  -1   8 -24  380.30   13.35   0
  -1   8 -21    0.14    9.05   0
  -1   8 -18  197.51   12.08   0
  -4   9  11   12.76    9.76   0
  -2   6  16  875.58   17.17   0
  -1   8 -27    7.46    9.47   0
  -1   8 -15   -1.58    9.62   0
  -5   9  16  482.16   15.62   0
  -4   8  18  303.38   13.65   0
  -3   4  23   28.44    7.47   0
  -3   6  21   13.99    8.60   0
  -2   7  12  516.83   14.45   0
  -2   9 -11   -6.59   10.27   0
   0   3   9   -4.36    5.67   0
   0   5   4 1267.55   18.47   0
   0   6  -3   -7.48    8.36   0
   1   3  -2  880.73   16.00   0
  -4   7  22  231.80   11.87   0
  -3   8  13    5.93    8.61   0
  -2   8   5   -6.46    8.56   0
   0   4   8 1662.38   20.86   0
   1   2  -1   62.53    6.84   0
   1   5 -25    8.50    7.80   0
   1   5 -22  285.03   11.87   0
   1   5 -19   -0.64    7.95   0
  -3   9   6  129.10   11.56   0
  -2   9  -8  341.19   13.07   0
  -1   7   4  363.39   13.41   0
  -1   8  -9    9.03   10.06   0
   1   5 -16  760.00   16.29   0
  -2   5  20  743.78   16.03   0
   0   7 -22  149.87   11.05   0
   0   7 -19    2.24    9.47   0
   1   5 -13   14.88    8.08   0
  -4   9  14  136.48   11.98   0
  -2   4  21   -1.04    6.68   0
  -2   9  -5  -12.66   10.38   0
  -1   6  11   10.31    7.93   0
   0   6   0 1029.78   17.28   0
   0   7 -25    7.39    9.27   0
   0   7 -16  649.02   15.88   0
   1   4  -3   38.61    7.01   0
  -1   5  15    9.07    6.74   0
  -1   8  -6  272.90   12.10   0
   0   5   7   -0.40    8.36   0
   0   7 -13  -10.55    9.35   0
   1   5 -10  574.93   14.27   0
  -3   7  20  544.30   14.80   0
   1   3   1   45.80    6.68   0
  -5   9  19    1.83    9.73   0
  -3   8  16  557.21   16.29   0
  -2   6  19   -1.18    8.54   0
  -2   9  -2  139.46   11.10   0
  -1   3  17   20.17    5.57   0
  -1   7   7   10.50    8.54   0
  -1   8  -3   -3.17    9.95   0
   0   7 -10  299.69   11.85   0
  -4   8  21    7.38   10.05   0
   0   4  11   -1.31    6.29   0
   0   6   3    4.79    7.91   0
   1   4   0 1551.95   20.51   0
   0   3  12 2051.07   24.29   0
   1   2   2  716.44   15.79   0
  -3   5  25    3.09    7.87   0
  -3   6  24  751.96   16.95   0
  -2   8  11  -12.89   10.12   0
  -2   9   1   -6.78    9.70   0
  -1   6  14  474.43   13.30   0
  -4   7  25   13.76    9.47   0
  -4   9  17   11.24    9.64   0
   0   5  10  800.39   15.83   0
   0   7  -4  279.20   12.29   0
  -1   7  10  296.94   12.02   0
   0   6   6  490.84   13.95   0
   1   3   4 1379.96   19.84   0
  -3   8  19    6.32   10.63   0
  -2   9   4  276.64   13.08   0
  -1   4  19   28.54    6.64   0
  -1   8   3    6.76   10.68   0
   1   4   3   -1.11    7.70   0
   1   6 -23    4.14    8.83   0
   1   6 -20  344.98   13.13   0
   1   6 -17    8.06    8.68   0
  -3   7  23    3.66    9.38   0
  -2   5  23    8.37    7.99   0
   0   7  -1    8.00    9.53   0
   1   5  -1   12.25    8.64   0
  -2   3  22  500.47   15.07   0
  -2   6  22  441.69   13.90   0
   1   6 -11    3.02    8.89   0
   2   2 -18 1080.85   20.75   0
   2   3 -19   10.08    7.21   0
   2   3 -16 1988.72   25.60   0
  -4   8  24  428.64   16.20   0
   0   4  14  381.41   11.60   0
   2   2 -15    1.42    6.12   0
  -4   9  20  215.00   13.19   0
  -3   9  15    4.59   10.14   0
  -2   9   7   -8.65   10.68   0
  -1   7  13   -3.41    9.96   0
  -1   8   6  143.67   11.91   0
   0   5  13    6.03    8.36   0
   0   6   9    0.16    9.34   0
   0   7   2  313.13   13.27   0
   1   6  -8  829.05   17.34   0
   2   3 -13    3.59    6.87   0
  -2   4  24 2010.05   25.83   0
   0   8 -20  192.65   11.83   0
   0   8 -17    6.61    9.79   0
   1   2   5   17.82    5.87   0
   1   4   6  415.65   12.56   0
   1   5   2  405.74   12.13   0
   2   2 -12  840.05   17.56   0
   0   3  15   -0.17    6.69   0
   0   8 -23    7.98    8.42   0
   0   8 -14  227.35   12.10   0
   1   3   7   34.46    6.70   0
   2   3 -10  777.87   16.17   0
  -3   6  27   -2.82    9.16   0
  -3   8  22  164.52   12.72   0
  -2   7  21    2.46    9.81   0
   0   8 -11   -0.32    9.87   0
   2   4 -20  795.76   17.00   0
   2   4 -17   -0.81    7.33   0
  -2   9  10  223.20   12.93   0
  -1   5  21   24.53    8.31   0
  -1   8   9    6.78   10.34   0
  -1   9  -4  276.47   12.36   0
   0   7   5   -3.94   10.43   0
   0   8  -8  362.58   14.03   0
   2   2  -9   -1.50    6.27   0
   2   4 -14  367.46   12.57   0
  -1   7  16  815.35   17.99   0
   1   5   5    3.60    8.97   0
   1   6  -2  430.57   13.25   0
   2   3  -7   23.69    6.20   0
   2   4 -11   -0.69    7.80   0
  -3   7  26  213.66   12.16   0
  -3   9  18  267.93   13.54   0
  -1   4  22  407.74   12.71   0
  -1   9  -1    4.54   10.19   0
  -4   9  23   12.29   11.33   0
  -2   5  26  772.28   16.91   0
  -2   6  25   -2.83    8.93   0
   0   4  17   -6.28    6.78   0
   0   5  16  862.36   16.22   0
   1   4   9   39.05    7.50   0
   2   4  -8 1020.62   18.06   0
   0   7   8  761.13   16.22   0
   0   8  -2  136.92   11.84   0
   1   6   1    5.17    8.21   0
   2   2  -6  849.00   17.03   0
   2   3  -4  758.91   15.25   0
  -2   9  13   -4.46    9.68   0
  -1   8  12  299.72   12.96   0
  -1   9   2  154.51   12.50   0
   1   2   8 3392.81   31.39   0
   1   3  10 1230.15   18.52   0
   1   7 -21   10.45    9.53   0
   1   7 -18  199.77   12.34   0
   1   7 -15   10.26    9.64   0
   2   4  -5    5.32    7.86   0
  -2   7  24  585.80   16.23   0
  -2   8  20  279.94   13.45   0
   1   5   8  952.09   16.88   0
  -3   8  25   -6.60    9.99   0
   0   6  15    7.54    8.33   0
   0   8   1   -7.48   10.07   0
   1   6   4  352.42   13.07   0
   1   7  -9    6.22    9.26   0
   2   5 -18  493.01   14.45   0
  -3   9  21   14.29   10.18   0
  -1   9   5    3.35   10.21   0
   1   7  -6  259.06   12.95   0
   2   5 -12  595.27   14.58   0
  -1   5  24  756.59   15.88   0
   1   4  12 1275.78   18.68   0
   2   5  -9    2.58    8.89   0
  -2   4  27    3.21    7.71   0
  -1   6  23   -1.91    8.05   0
  -1   8  15    8.83   10.05   0
   0   5  19   -5.18    7.59   0
   0   8   4  323.49   13.70   0
   1   5  11    0.43    9.38   0
  -3   7  29   11.19    9.21   0
  -1   9   8  234.91   13.02   0
   1   6   7   30.03   10.11   0
   2   5  -6  209.58   10.44   0
  -2   6  28  537.76   15.17   0
  -2   8  23   -2.21   10.79   0
  -1   3  23    7.63    6.64   0
   1   3  13   19.64    6.67   0
   2   3   2  870.10   15.95   0
   2   4   1   -2.80    7.19   0
  -2   3  25   13.72    6.40   0
  -1   4  25    3.17    7.50   0
   0   7  14  180.60   11.66   0
   0   8   7   -5.82   10.22   0
   1   7   0  520.30   14.28   0
   2   2   0 4194.88   34.43   0
   2   5  -3  -10.18    7.69   0
  -2   5  29    3.70    9.02   0
  -2   7  27   10.20    9.85   0
  -1   7  22  225.51   11.64   0
   1   2  11   25.10    6.50   0
  -3   8  28  232.27   13.00   0
  -3   9  24  269.36   14.10   0
  -2   9  19    8.85   10.21   0
  -1   8  18  277.60   13.88   0
  -1   9  11    5.42   10.23   0
   1   4  15    2.35    8.33   0
   1   6  10  291.19   13.09   0
   1   7   3   -5.39   10.47   0
   2   4   4 1018.08   17.88   0
   1   5  14  527.23   13.69   0
   2   3   5    9.73    8.01   0
   2   6 -16  521.40   15.32   0
   2   6 -13   -5.42    9.78   0
  -1   6  26  302.92   13.20   0
   0   8  10  257.54   13.11   0
   2   6 -10  273.50   12.59   0
  -1   5  27   -0.47    7.45   0
   0   6  21    5.03    9.82   0
   0   7  17    0.02    9.41   0
   1   7   6  145.51   12.31   0
   2   2   3    1.41    5.87   0
   2   5   3   15.30    9.27   0
   2   6  -7    5.12    9.51   0
  -2   8  26  300.11   14.22   0
   1   3  16 2307.05   25.28   0
   1   6  13    4.74   10.25   0
   1   8 -10  150.73   11.07   0
  -1   7  25    4.83   10.66   0
   1   8  -7    2.58    9.60   0
   2   4   7    0.61    7.22   0
   2   6  -4  306.72   13.65   0
  -2   9  22   98.29   12.05   0
   0   8  13   -5.65   10.51   0
   1   4  18  868.20   16.94   0
   1   5  17   11.39    8.96   0
   1   8  -4  272.42   13.59   0
   2   3   8 2284.32   24.94   0
  -3   9  27    3.11    9.82   0
  -2   6  31  -10.74    8.91   0
  -2   7  30  268.04   13.48   0
   1   2  14 1718.42   22.94   0
   1   7   9   15.86   10.99   0
   2   6  -1   -3.19   10.24   0
   0   7  20  241.37   13.09   0
   2   2   6  872.27   16.60   0
  -2   4  30  249.06   12.18   0
   0   2  19   -1.51    5.33   0
   1   6  16  808.91   17.76   0
   2   4  10  438.51   12.76   0
  -1   3  26  592.64   15.35   0
  -1   6  29    5.53    9.37   0
   0   8  16  257.09   13.69   0
  -2   5  32  836.10   18.25   0
  -1   8  24  309.06   14.37   0
   1   7  12  296.00   13.22   0
   2   3  11    0.16    8.29   0
   2   5   9    2.43    8.36   0
   3   3 -15    4.87    7.46   0
   3   3 -12  903.58   17.94   0
   3   3  -9   10.85    7.88   0
  -2   8  29   -2.96   11.00   0
  -1   5  30  224.60   11.86   0
  -1   7  28  221.34   13.26   0
   1   3  19   28.41    7.37   0
   1   5  20  633.67   15.01   0
   2   6   5   -1.72   10.32   0
   2   7 -14  181.55   12.86   0
   2   7 -11    3.30    9.83   0
   3   4 -16  558.86   15.85   0
   3   4 -13   13.48    8.55   0
   3   4 -10  488.53   14.29   0
   0   3  24 1729.62   23.21   0
   0   4  26  857.97   16.64   0
   1   4  21   17.52    9.06   0
   1   8   5   -3.83   10.25   0
   2   7  -8  336.71   13.43   0
   3   3  -6  539.65   13.81   0
   1   6  19   18.41    9.81   0
   2   2   9   -1.98    6.38   0
   2   4  13    4.65    7.85   0
   2   7  -5    5.26    9.71   0
   0   8  19    3.36   10.79   0
   1   7  15   -4.64   11.17   0
   2   5  12  518.18   14.11   0
   2   6   8  613.96   16.31   0
   2   7  -2  145.01   12.31   0
   3   2 -11    4.82    7.03   0
   3   3  -3   10.19    6.90   0
   3   4  -4  812.15   16.39   0
  -2   7  33    3.15   10.35   0
   1   2  17   18.58    6.58   0
   1   8   8  245.14   12.74   0
   3   2 -14  425.92   13.75   0
   3   2  -8 2416.52   27.84   0
  -2   6  34  236.22   12.71   0
  -1   8  27    9.79   11.39   0
   0   5  28  766.53   16.32   0
   0   6  27    3.27    8.63   0
   2   3  14  424.42   12.42   0
   2   7   1    1.61   10.47   0
   3   2 -17    9.48    6.94   0
   3   3   0 1209.38   19.65   0
   3   4  -1   12.04    7.86   0
   3   5 -14  195.43   12.21   0
   3   5 -11    3.96    8.93   0
   3   5  -8  641.52   16.47   0
  -1   6  32  514.06   15.83   0
   1   5  23   12.93    8.60   0
   3   2  -5   15.18    7.20   0
   3   5  -5    9.50    9.95   0
  -2   8  32  289.34   14.45   0
   1   3  22  413.88   13.20   0
   1   7  18  298.80   13.99   0
   1   8  11    1.24   10.38   0
   2   4  16  855.62   16.60   0
   2   5  15   -2.95    8.76   0
   2   6  11  -10.79    9.69   0
  -1   4  31   13.92    8.08   0
  -1   7  31    1.70   10.93   0
   0   8  22  108.22   11.97   0
   1   4  24  777.80   16.70   0
   2   1   4 3052.59   31.38   0
   2   2  12  858.76   16.21   0
   3   2  -2  914.62   17.62   0
   3   5  -2  304.74   13.62   0
  -1   5  33    6.83    9.10   0
   0   4  29   -2.06    7.09   0
   2   6  14  146.24   12.25   0
   2   7   7   12.16   10.34   0
   3   5   1   11.15    8.28   0
   0   3  27    4.62    7.36   0
   2   3  17    0.42    7.48   0
   3   3   6  525.44   14.56   0
  -1   3  29   14.31    7.14   0
  -1   8  30   69.84   11.52   0
   0   6  30  197.79   11.32   0
   1   5  26  309.43   13.07   0
   1   7  21    3.70   10.64   0
   2   4  19   -4.45    8.15   0
   2   5  18  241.17   11.85   0
   0   5  31   -8.65    8.06   0
   1   2  20 1566.02   21.72   0
   1   6  25  -13.22   10.40   0
   2   1   7    2.24    6.87   0
   2   7  10  232.28   13.13   0
   3   4   8  689.53   15.45   0
   3   6  -9   -3.39   10.07   0
   0   7  29   -9.19   10.44   0
   2   2  15   -5.68    6.71   0
   2   6  17    4.69   11.12   0
   3   2   4  770.71   15.66   0
   3   6  -3   10.94   10.00   0
  -1   6  35   -1.67    9.88   0
  -1   7  34  253.40   13.99   0
   3   3   9   11.92    7.68   0
   2   3  20  734.12   16.17   0
   2   5  21    1.88   10.54   0
   2   7  13   -3.41   10.88   0
   3   4  11  -10.97    9.17   0
   3   6   0  457.20   14.94   0
   1   7  24  292.45   13.80   0
   2   4  22  457.73   14.60   0
   3   2   7   17.47    8.28   0
   3   6   3   -0.60   10.66   0
   3   5  10  313.67   12.49   0
  -1   4  34  636.42   16.39   0
  -1   8  33    2.33   10.16   0
   0   4  32  564.00   14.82   0
   0   6  33   -5.55   10.62   0
   1   1  15    6.10    6.88   0
   2   1  10 2142.61   26.17   0
   2   6  20  275.16   12.90   0
   3   1 -10 1198.50   21.98   0
   3   1  -7   34.60    7.25   0
   3   3  12  886.53   16.73   0
  -1   5  36  624.56   16.83   0
   0   2  25   -0.48    6.89   0
   0   7  32  384.54   15.36   0
   2   2  18 1248.19   19.49   0
   2   7  16  267.43   13.79   0
   3   1  -4 1391.97   22.14   0
   3   4  14  447.76   14.49   0
   0   3  30  648.50   15.99   0
   0   5  34  359.45   13.97   0
   3   2  10  808.45   16.50   0
   3   5  13    3.84   10.93   0
   1   4  30  223.63   12.17   0
   1   7  27    0.67   10.90   0
   2   5  24  621.28   15.53   0
   3   1  -1   53.97    7.85   0
   1   3  28  814.25   16.95   0
   2   3  23    8.04    7.64   0
   2   4  25   -1.28    9.30   0
   2   6  23    7.19   11.31   0
   3   3  15   12.03    7.99   0
  -1   6  38  186.53   13.84   0
  -1   7  37    7.48   10.81   0
   2   7  19   -8.97   10.76   0
   3   4  17   12.34   10.46   0
   4   3  -8  681.15   16.51   0
   4   3  -5   21.16    8.93   0
   4   4  -9    0.73   10.13   0
   4   4  -6  270.60   12.89   0
  -1   3  32 1350.67   23.11   0
   1   6  31   10.66   10.84   0
   3   5  16  524.10   14.91   0
   3   6  12  222.72   12.99   0
   4   3 -11    3.02    8.27   0
   4   4  -3   -1.54    9.87   0
   0   6  36  201.09   13.69   0
   1   5  32  487.63   14.45   0
   2   1  13   40.69    7.08   0
   3   2  13   -3.51    7.30   0
   4   3   1    1.09    9.49   0
   4   4   0  642.47   16.55   0
   0   7  35   -2.97   11.27   0
   2   2  21    4.27    7.08   0
   2   5  27   10.46   10.82   0
   3   3  18  496.63   14.36   0
   0   4  35    6.26    8.76   0
   1   1  18 1184.00   20.89   0
   2   6  26  292.42   14.23   0
   2   7  22   79.39   11.63   0
   3   1   5    9.02    6.36   0
   3   4  20  542.11   15.79   0
   3   5  19  -11.81   11.34   0
   3   6  15   20.91   10.85   0
   4   4   3    2.35    8.33   0
   4   5  -7   17.62   11.21   0
   0   5  37   -8.00   10.27   0
   2   3  26  769.95   16.15   0
   2   4  28  600.39   15.99   0
   4   2  -7    1.64    7.77   0
   4   2  -4 1038.84   19.14   0
   4   5  -4  199.80   12.95   0
   4   5  -1    8.79   10.24   0
  -1   4  37    3.18    9.24   0
  -1   5  39    6.64    9.65   0
   1   2  26  576.71   14.37   0
   1   4  33   -0.15    9.75   0
   3   2  16 2032.63   24.17   0
   4   2 -10  445.71   14.13   0
   4   2  -1    9.07    8.31   0
   4   4   6  260.76   11.88   0
   4   5   2  267.98   14.03   0
   0   2  28 1201.08   21.24   0
   0   3  33    1.02    8.06   0
   1   3  31   17.97    8.34   0
   3   1   8 2929.00   29.42   0
   4   2 -13   -0.23    8.24   0
   1   6  34  270.88   13.30   0
   2   1  16 2139.92   25.44   0
   3   3  21   16.05    8.46   0
   3   6  18  300.26   13.53   0
   4   2   2  679.60   15.32   0
   4   5   5   12.67   10.47   0
   1   5  35    6.69    9.26   0
   2   2  24 2091.82   24.99   0
   2   5  30  244.02   12.30   0
   3   4  23   -4.88   10.66   0
   3   5  22  185.29   11.57   0
   0   6  39   -1.89   12.33   0
   1   7  33  -10.17   10.52   0
   2   6  29    5.52   10.20   0
   4   5   8  483.17   15.50   0
   0   7  38   59.86   11.09   0
   2   3  29   11.18    9.05   0
   3   1  11   47.67    8.65   0
   3   2  19   -1.05    9.14   0
   3   6  21   11.51   11.57   0
   4   4  12  344.47   13.08   0
   4   3  13    5.33    9.80   0
   0   4  38  177.72   11.75   0
   3   3  24  733.39   16.09   0
   3   5  25    5.41   10.82   0
  -1   3  35   -1.29    7.19   0
   0   5  40  282.73   13.87   0
   1   2  29   15.58    8.05   0
   1   4  36  624.75   15.80   0
   1   6  37    3.58   11.60   0
   2   1  19    0.03    7.71   0
   3   4  26  231.91   11.91   0
   4   4  15  -11.80    9.17   0
   1   3  34  676.50   16.62   0
   3   1  14  752.55   16.35   0
   4   2  11    3.49    7.88   0
   4   3  16  564.29   15.95   0
   4   5  14  120.22   12.09   0
   1   5  38  205.12   13.23   0
   2   2  27  -14.82    7.53   0
   3   2  22  368.06   13.50   0
   3   6  24  279.99   13.50   0
   0   3  36  657.34   16.83   0
   4   1  -6  432.45   14.05   0
   4   1  -3    1.73    7.53   0
   4   1   0 1621.81   23.15   0
   4   4  18  272.07   14.42   0
   0   2  31   -4.01    8.29   0
   3   3  27    3.97    9.61   0
   4   1  -9   32.32    8.76   0
   4   1   3   36.21    8.57   0
   4   2  14  357.76   12.58   0
   4   5  17    5.13   10.72   0
   0   6  42  183.90   12.72   0
   3   4  29    6.88   11.17   0
   4   3  19    0.33    9.96   0
  -1   2  30  673.61   18.64   0
   3   1  17    3.40    7.09   0
   3   6  27   -0.19   10.78   0
   2   1  22  514.32   13.72   0
   2   5  36  243.10   13.72   0
   2   6  35    0.34   10.70   0
   3   2  25    3.21    8.90   0
   4   1 -12 1166.84   22.32   0
   4   2  17    3.15    9.54   0
   4   4  21    9.41    9.82   0
   4   5  20  190.58   13.33   0
   1   1  24 1901.09   25.32   0
   1   4  39    3.71    9.07   0
   1   6  40  332.02   14.92   0
   5   3  -4  347.45   13.84   0
   5   3  -1    9.34    9.51   0
   5   3   2  307.10   13.83   0
   5   4  -2  236.52   14.22   0
   0   4  41   -3.29    9.37   0
   0   5  43   -0.26   10.24   0
   1   2  32 1409.73   22.21   0
   3   5  31    6.41   11.13   0
   4   1   9    8.91    7.20   0
   5   3  -7    2.71    9.64   0
   5   4  -5    7.89    9.93   0
   5   4   1   -0.40   10.31   0
   1   3  37    4.50    9.19   0
   1   5  41   -0.34   11.19   0
   2   4  37    1.32   10.95   0
   3   3  30  272.44   12.28   0
   4   4  24  456.11   16.17   0
   5   3   5  -10.52    8.95   0
   5   4   4  205.18   13.44   0
   2   3  35   -0.21    8.51   0
   3   1  20  985.45   17.81   0
   4   1  12 1050.10   18.92   0
   4   2  20  776.85   17.18   0
   4   5  23    2.19   10.80   0
   5   4   7  -11.34   10.49   0
   3   0   3   -0.85    6.04   0
   5   2  -6  532.97   16.47   0
   5   2  -3   11.49    9.27   0
   5   2   0  794.82   17.98   0
   5   2   3   -4.94    9.56   0
   2   0  11    0.86    6.28   0
   2   1  25   19.64    8.24   0
   2   5  39    1.83   11.95   0
   3   2  28  488.51   14.27   0
   4   3  25   29.00   11.28   0
   5   2   6  217.99   12.61   0
   5   3  11    1.54   10.41   0
   5   4  10  193.16   12.53   0
   5   5   3   -3.09   10.70   0
   0   3  39    0.56    8.65   0
   3   0   6  559.19   14.82   0
   3   5  34  207.84   13.65   0
   4   1  15   27.34    9.54   0
   5   5   6  132.71   11.57   0
   0   2  34  308.24   13.55   0
   1   6  43   -1.60   11.37   0
   3   3  33   11.61   10.74   0
   4   2  23   -2.35    9.74   0
   4   4  27    6.21   10.57   0
   4   5  26  251.10   13.89   0
   5   2   9    4.12    9.98   0
   5   4  13    3.04   10.08   0
   1   1  27    3.45    7.19   0
   1   4  42  331.30   14.52   0
   2   2  33    6.60    7.78   0
   3   0   9   -1.70    7.86   0
   3   1  23   38.08    8.15   0
   1   2  35   -5.92    8.52   0
   1   5  44  241.59   14.19   0
   2   0  14  358.87   12.62   0
   2   3  38  124.44   11.98   0
   3   2  31   11.54   10.03   0
   4   1  18  467.65   13.54   0
   4   3  28  498.32   15.07   0
   5   3  17    6.52   11.34   0
   4   4  30  165.93   12.91   0
   4   5  29    5.33   11.04   0
   5   2  15    3.37   10.52   0
   3   0  12 2640.22   28.70   0
   4   2  26  481.66   14.44   0
   5   1   1   20.85    9.07   0
   5   4  19   10.45   11.28   0
   3   1  26  781.68   16.43   0
   5   1  -2  417.05   14.32   0
   5   1   4  888.24   17.68   0
   5   3  20  324.00   13.83   0
   4   1  21   -5.61    8.26   0
   4   3  31   10.81   11.37   0
   5   1  -5   -0.78    8.59   0
   5   1   7   -0.38    8.01   0
   5   2  18  484.24   15.74   0
   2   0  17    3.06    6.50   0
   2   2  36  501.49   15.50   0
   3   0  15    3.33    6.89   0
   4   0  -2 1540.39   23.84   0
   4   0   1   -0.91    6.48   0
   5   4  22  139.31   12.68   0
   1   4  45   -9.36   12.08   0
   4   2  29    8.17   10.27   0
   4   4  33   -8.31   11.11   0
   5   1  -8  972.61   20.26   0
   5   3  23    7.79   11.03   0
   1   1  30  695.18   16.81   0
   2   3  41   -8.08   10.32   0
   2   4  43    0.08   10.51   0
   4   0  -5    0.13    7.48   0
   5   1  13   11.69    9.36   0
   5   2  21    5.59   10.22   0
   0   2  37   -0.96    8.65   0
   1   2  38  437.86   14.86   0
   1   5  47   -4.04   11.26   0
   3   1  29   -5.20    9.41   0
   4   1  24 1088.96   19.10   0
   5   4  25    1.65   11.23   0
   1   3  43    9.45    9.13   0
   2   1  31    0.85    7.35   0
   3   0  18 1470.71   21.55   0
   3   3  39    8.37   11.41   0
   4   3  34  232.61   13.71   0
   5   1  16  772.34   17.75   0
   2   0  20 3822.53   35.49   0
   2   5  45    2.31   11.50   0
   3   4  41    6.49   10.99   0
   4   0  -8 1642.80   26.33   0
   4   0  13   -3.11    8.58   0
   5   3  26  273.30   13.91   0
   6   3   0  407.66   16.14   0
   6   3   3   13.17   10.63   0
   4   2  32  492.34   16.17   0
   4   4  36  193.41   13.05   0
   5   2  24  443.78   14.48   0
   6   3   9  -11.26   11.41   0
   0   1  29   -1.67    6.93   0
   2   2  39   -7.63    9.94   0
   4   1  27    6.60    9.99   0
   5   1  19    1.22    9.78   0
   5   4  28  147.01   12.76   0
   6   2   1    8.86   10.39   0
   6   2   4  269.53   14.00   0
   3   0  21    5.66    8.41   0
   4   0  16 1689.53   22.61   0
   5   3  29   -7.01   11.75   0
   6   2  -2  288.16   13.97   0
   6   2   7   -5.83   10.76   0
   6   3  12  215.69   13.98   0
   2   4  46  175.60   13.02   0
   4   3  37   18.66   11.89   0
   5   2  27   -1.31   10.59   0
   6   2  10  298.94   14.48   0
   6   3  15   20.57   11.36   0
   1   1  33    7.12    8.01   0
   2   3  44  343.20   15.03   0
   4   0 -11    0.61    7.82   0
   5   1  22  271.02   13.28   0
   6   2  13  -10.66   10.80   0
   2   0  23   -2.31    6.72   0
   2   1  34  721.80   16.26   0
   3   3  42  217.48   14.19   0
   4   0  19    0.20    7.80   0
   4   2  35    3.67   10.92   0
   6   3  18  157.17   13.54   0
   1   2  41    7.30    8.86   0
   3   4  44  225.50   14.18   0
   4   1  30  385.51   13.55   0
   5   0   2  432.58   14.15   0
   5   0   5   -0.31    7.56   0
   6   2  16  510.10   17.03   0
   1   3  46  130.44   11.97   0
   3   0  24 1231.42   19.84   0
   5   0  -1    0.71    8.34   0
   5   2  30  123.38   12.70   0
   5   3  32  332.91   14.37   0
   6   1   5   18.17   10.40   0
   3   2  40  605.23   15.84   0
   4   0  22  813.55   17.19   0
   5   1  25   17.05    9.34   0
   6   1   2  450.57   15.42   0
   6   1   8  844.24   18.74   0
   2   2  42  548.82   16.26   0
   5   0  -4 1283.23   22.34   0
   5   0  14  706.26   16.08   0
   6   1  -1    4.33    9.49   0
   6   1  11    8.69    8.86   0
   1   0  22  475.99   14.53   0
   4   1  33   22.44   10.71   0
   6   1  14  184.65   12.86   0
   2   4  49   -0.21   10.33   0
   3   3  45   22.34   12.03   0
   5   0  17   -4.69    9.72   0
   5   1  28  588.40   16.49   0
   5   2  33    4.07   11.95   0
   5   3  35   -4.27   10.98   0
   6   2  22  145.32   12.24   0
   6   3  24  328.20   15.00   0
   3   0  27   -0.99    7.65   0
   2  -1  21   35.72   10.54   0
   3   0  24 1176.40   23.48   0
   5  -6  23   -5.82   10.59   0
   5  -1  30  405.22   18.15   0
   3  -2  26  591.96   17.17   0
   5  -5  28  776.17   20.56   0
   5  -3  32  867.90   22.08   0
   6  -7  22  232.51   16.38   0
   6  -3  33   -3.28   12.26   0
   7  -1  29   -2.32   13.94   0
   8  -7  27   -1.29   14.41   0
   8  -3  32  310.36   17.96   0
   4  -2  30  259.01   13.86   0
   6   0  27    3.63   13.39   0
   8  -8  22  102.36   14.40   0
   8  -4  33   -7.47   15.19   0
   3  -5  17    7.83    9.86   0
   6  -1  31    4.59   14.45   0
   7  -5  33    4.90   14.61   0
   5  -7  18  241.03   15.05   0
   6  -5  32  508.21   19.43   0
   7  -6  31    4.39   15.12   0
   7  -2  33   -6.28   15.37   0
   8  -2  31   -1.15   14.12   0
   4  -6  19    4.02   10.93   0
   4   0  28  744.20   20.94   0
   6  -4  34  225.05   15.67   0
   7  -8  21    9.43   14.83   0
   7  -4  35    9.50   15.69   0
   8  -6  32  297.87   18.01   0
   2  -2  22 2095.66   29.49   0
   4  -3  31   28.40   12.64   0
   5   0  29    7.37   12.38   0
   8  -5  34  208.29   16.26   0
   2  -4  15    2.36    9.13   0
   5  -6  26  313.11   16.57   0
   5  -4  33   -0.90   12.84   0
   6  -7  25    0.62   13.77   0
   2  -3  20 1528.30   25.30   0
   2   1  19    1.78    8.95   0
   3  -3  27    0.36    9.53   0
   3  -1  28 1575.19   25.69   0
   3   1  23   30.39   11.54   0
   6  -2  35   -1.96   14.31   0
   8  -8  25   12.69   13.84   0
   5  -5  31    2.00   11.51   0
   5  -1  33    4.40   13.49   0
   6  -3  36  427.65   17.58   0
   7  -7  29   -7.22   13.59   0
   7  -1  32  368.46   20.61   0
   8  -3  35   -6.53   14.41   0
   3  -2  29    6.85    9.88   0
   3   0  27  -12.53   10.34   0
   4  -5  27   -6.82   11.89   0
   5  -3  35    8.17   11.82   0
   2  -1  24 2041.15   28.63   0
   3  -5  20  697.15   19.40   0
   4  -2  33    4.43   10.74   0
   5  -7  21   -3.09   11.94   0
   6  -1  34  308.59   17.87   0
   7  -6  34  226.22   17.37   0
   7  -5  36  247.55   16.35   0
   4  -6  22  429.24   17.08   0
   6  -5  35   19.08   12.38   0
   6  -4  37    1.27   14.45   0
   7  -8  24  284.87   16.95   0
   7  -2  36  370.30   19.66   0
   8  -6  35   -3.57   14.28   0
   8  -2  34  179.06   16.15   0
   7  -4  38  223.14   17.57   0
   8  -5  37   -1.33   13.48   0
   4  -4  32  588.04   19.08   0
   5  -6  29   13.27   13.01   0
   6  -7  28  209.77   16.22   0
   2  -2  25    3.78   10.10   0
   4  -3  34  633.22   18.31   0
   4   0  31    4.71   11.78   0
   5  -4  36  605.97   20.47   0
   5   0  32  629.53   19.90   0
   2  -4  18 1165.88   22.95   0
   2  -3  23    0.71    9.92   0
   3  -3  30  665.01   18.89   0
   4   1  27    9.75   10.88   0
   5  -5  34  348.53   17.18   0
   6  -3  39   -5.06   15.27   0
   6  -2  38  155.02   17.12   0
   7  -7  32  390.62   17.96   0
   8  -3  38   97.79   15.94   0
   3  -1  31   -6.09    9.84   0
   5  -7  24  601.08   19.71   0
   5  -1  36  445.68   18.78   0
   3  -5  23   12.29   10.69   0
   3  -2  32 1449.82   24.75   0
   5  -3  38  119.42   13.47   0
   7  -8  27    7.67   12.60   0
   7  -6  37    1.57   14.67   0
   7  -5  39   -1.13   12.82   0
   7  -1  35   22.74   14.81   0
   2   1  22  532.07   17.69   0
   3   0  30  394.10   16.15   0
   4  -6  25   -2.12   11.39   0
   4  -2  36  485.04   17.08   0
   4  -1  35   17.24   12.48   0
   6  -5  38  172.89   15.50   0
   7  -3  40  214.21   16.49   0
   2  -1  27   -3.62    8.74   0
   3  -6  15   -0.59    9.51   0
   6  -4  40  353.36   17.68   0
   6  -1  37    6.80   14.02   0
   7  -4  41   19.95   15.12   0
   7  -2  39    9.40   14.80   0
   8  -2  37   12.04   12.77   0
   5  -6  32  522.53   19.38   0
   6  -7  31   -2.04   13.62   0
   4  -4  35    4.04   11.13   0
   4  -3  37   -7.36   12.50   0
   1  -2  18 1191.79   23.80   0
   1   0  19    0.38    8.70   0
   2  -4  21    9.12    9.38   0
   5  -5  37    1.36   13.22   0
   5  -4  39   16.97   11.91   0
   7  -7  35   -1.67   12.84   0
   1  -1  20 1610.23   26.43   0
   2  -3  26  595.59   17.24   0
   2  -2  28 1240.29   22.52   0
   3  -3  33   -4.55    9.87   0
   4   0  34  356.54   15.63   0
   5  -7  27    6.18   12.51   0
   5   0  35   -7.46   13.04   0
   6  -2  41    5.19   14.21   0
   7  -8  30   87.13   14.56   0
   2  -5  13    1.41    9.09   0
   3  -5  26  777.89   20.10   0
   3  -1  34  735.37   19.99   0
   4   1  30  408.18   18.11   0
   5  -3  41    3.94   13.33   0
   7  -6  40  334.47   17.79   0
   7  -5  42  152.81   16.27   0
   3  -6  18  482.43   17.29   0
   3  -4  31   24.46    9.95   0
   3  -2  35   -4.36   11.27   0
   4  -6  28  562.40   18.40   0
   5  -1  39  -17.72   13.61   0
   6  -5  41   14.76   14.02   0
   7  -3  43   -6.50   14.92   0
   4  -2  39   -0.55   11.06   0
   4  -1  38  227.11   15.57   0
   6  -7  34  231.91   16.80   0
   6  -4  43    1.12   14.40   0
   3   0  33   10.52   10.79   0
   3   1  29    7.64   10.21   0
   5  -6  35   12.29   13.67   0
   6  -1  40  290.45   17.19   0
   7  -4  44  220.02   16.87   0
   7  -2  42  245.72   17.18   0
   2   1  25   12.80    9.76   0
   7  -7  38   45.61   13.99   0
   1  -3  16 2084.53   31.06   0
   2  -4  24 2054.20   29.11   0
   4  -3  40  609.19   18.43   0
   5  -7  30  230.91   15.73   0
   5  -5  40  304.48   17.55   0
   5  -4  42  307.71   16.03   0
   1  -2  21   32.99    8.49   0
   2  -2  31    0.44   10.48   0
   3  -3  36  641.93   18.62   0
   7  -8  33    2.49   11.88   0
   1  -1  23   -0.63    8.00   0
   1   0  22  515.71   16.02   0
   2  -3  29    2.06    9.16   0
   3  -6  21   14.39   10.36   0
   3  -5  29    4.81   11.11   0
   4  -6  31   -7.19   12.41   0
   4   0  37    2.33   11.26   0
   5   0  38  286.65   17.29   0
   6  -3  45   -4.96   13.56   0
   6  -2  44  344.36   18.34   0
   7  -6  43  -14.15   13.64   0
   7  -5  45   13.56   14.18   0
   3  -4  34  629.84   17.67   0
   5  -3  44  369.82   16.64   0
   6  -5  44  255.37   16.85   0
   3  -2  38  435.50   15.70   0
   4  -2  42  521.74   18.95   0
   4   1  33   12.10   12.35   0
   5  -6  38  177.98   16.02   0
   5  -1  42  251.27   17.14   0
   6  -7  37    2.91   12.96   0
   7  -3  46  112.61   15.02   0
   4  -1  41    8.88   12.27   0
   7  -4  47   -9.85   13.83   0
   2  -1  33   -1.86    9.48   0
   4  -4  41   -6.50   13.20   0
   6  -1  43   -3.71   13.77   0
   7  -2  45   -8.57   13.84   0
   1  -3  19    3.55    7.32   0
   2  -5  19   14.64    9.35   0
   2  -4  27   -3.09    8.72   0
   3   1  32 1128.57   23.99   0
   4  -3  43    8.58   12.78   0
   5  -7  33   21.38   13.16   0
   5  -5  43   -3.71   13.49   0
   5  -4  45   13.03   13.95   0
   1  -2  24 1964.41   27.43   0
   2   1  28 1588.81   26.31   0
   3  -6  24  721.21   19.94   0
   3  -5  32  855.62   20.83   0
   3  -3  39    1.77   12.10   0
   1  -1  26 1361.41   23.79   0
   2  -2  34  303.55   13.67   0
   2   2  21   -0.17    8.73   0
   3  -4  37    2.05   12.03   0
   4  -6  34  236.04   15.50   0
   1   0  25    1.95    7.70   0
   1   1  21   30.62    8.66   0
   4   0  40  588.71   19.65   0
   5  -3  47   -5.71   13.97   0
   6  -5  47   10.48   13.41   0
   6  -2  47    4.50   14.47   0
   3  -2  41    4.42   12.03   0
   5  -6  41   15.92   13.11   0
   5   0  41    2.11   13.07   0
   6  -7  40  327.17   17.44   0
   2  -5  22  350.10   15.03   0
   4  -2  45    8.77   11.54   0
   5  -1  45   20.48   14.39   0
   6  -4  49    1.56   15.11   0
   1  -3  22  482.82   15.32   0
   2  -4  30  266.30   14.15   0
   2  -1  36 1076.14   22.03   0
   4  -4  44  550.97   19.84   0
   4  -1  44  412.39   17.95   0
   5  -7  36  263.73   16.21   0
   1  -2  27   -6.04    9.71   0
   3  -6  27   -5.78   10.82   0
   3   0  39    6.26   11.46   0
   4  -3  46  112.18   14.87   0
   5  -5  46  134.47   15.00   0
   5  -4  48  183.88   16.01   0
   6  -1  46  127.71   15.90   0
   2  -3  35   -2.57    9.51   0
   2  -2  37   -1.85   11.43   0
   2   1  31    4.87    9.75   0
   3  -5  35    9.95   10.27   0
   3  -3  42  316.30   15.56   0
   3   1  35   16.32   10.63   0
   4  -7  29   11.43   11.88   0
   4  -6  37   10.04   12.76   0
   1  -4  14  724.58   20.25   0
   1  -1  29    4.84    8.30   0
   3  -4  40  611.20   18.79   0
   1   0  28 1495.31   24.19   0
   1   1  24 1879.40   28.89   0
   2   2  24 2008.30   32.83   0
   5  -3  50  273.62   16.79   0
   5  -2  49   -4.29   12.97   0
   6  -7  43    3.13   12.32   0
   6  -5  50  125.66   14.95   0
   6  -2  50  162.13   16.75   0
   2  -5  25    1.97    8.74   0
   3  -2  44  429.27   17.13   0
   4   0  43    1.04   12.16   0
   5  -6  44  233.15   15.82   0
   2  -4  33    6.40   10.73   0
   3  -6  30  262.41   14.61   0
   4  -2  48  424.91   18.37   0
   5  -7  39    2.82   12.21   0
   5  -1  48  346.95   18.25   0
   5   0  44  289.72   16.81   0
   6  -4  52  181.84   15.73   0
   1  -4  17    2.71    8.57   0
   1  -2  30  743.25   18.45   0
   2  -1  39    2.15    9.74   0
   4  -4  47   -7.19   11.57   0
   4  -1  47  -16.20   13.93   0
   2  -3  38  416.09   16.03   0
   3  -5  38  130.49   13.95   0
   3   0  42  435.31   17.32   0
   4  -6  40  346.49   16.49   0
   4  -3  49  -10.87   13.61   0
   5  -5  49  -10.24   13.23   0
   5  -4  51   -2.95   13.60   0
   1  -1  32 2063.20   27.76   0
   2  -2  40 1049.26   20.86   0
   2   0  38  311.27   14.93   0
   3  -4  43    9.77   12.67   0
   3  -3  45   -3.16   10.75   0
   6  -1  49    2.89   14.00   0
   1   0  31    0.67    8.21   0
   2  -5  28  484.12   16.63   0
   2   1  34  692.18   18.08   0
   3   1  38  226.54   14.24   0
   1  -4  20  974.26   21.76   0
   1   1  27    5.44    7.44   0
   5  -6  47    4.01   12.53   0
   5  -3  53   -4.12   14.52   0
   5  -2  52  201.75   16.33   0
   2   2  27    2.15    8.76   0
   3  -6  33    1.89   11.29   0
   3  -2  47   -1.18   12.87   0
   5  -7  42  163.13   14.25   0
   6  -2  53    2.24   12.97   0
   1  -2  33    5.49    8.97   0
   4  -7  35   10.29   11.93   0
   4  -4  50  238.46   15.92   0
   4  -2  51  -12.93   13.47   0
   4   0  46  217.05   16.11   0
   2  -3  41    0.69   11.33   0
   2  -1  42  413.06   15.24   0
   3  -5  41    4.62   10.35   0
   4  -6  43   -4.42   12.26   0
   5  -1  51  -16.09   12.96   0
   0  -1  19   -1.58    7.23   0
   1  -4  23   31.14    9.95   0
   1  -1  35    1.76    8.83   0
   2  -5  31   -0.37   10.53   0
   2  -2  43    0.63   11.44   0
   3  -3  48  475.57   18.29   0
   3   0  45    5.08   12.07   0
   4  -3  52  301.47   16.76   0
   4  -1  50  290.98   16.02   0
   5  -5  52  268.31   15.44   0
   5  -4  54   95.72   14.45   0
   1   0  34 1172.96   21.14   0
   2   0  41   -2.11    9.48   0
   2   1  37   -0.46   10.13   0
   3  -4  46  140.72   12.49   0
   1   1  30  661.80   17.24   0
   3  -6  36  415.74   16.42   0
   3   1  41   -2.45   10.84   0
   1  -2  36 1076.27   21.15   0
   2   2  30  241.35   14.12   0
   5  -7  45    4.72   12.83   0
   5  -6  50  132.10   15.28   0
   5  -2  55  -16.10   14.56   0
   0  -1  22  514.81   15.59   0
   0   0  21   -2.01    7.36   0
   1  -4  26  780.54   19.01   0
   3  -2  50  269.01   14.73   0
   4  -7  38  192.24   14.60   0
   5  -3  56  158.64   15.80   0
   2  -5  34  528.12   17.68   0
   2  -3  44  417.26   16.45   0
   2  -1  45    8.18   10.13   0
   3  -5  44  343.67   14.77   0
   4  -6  46  151.91   14.07   0
   4  -4  53    6.89   13.03   0
   4   0  49   -9.74   11.99   0
   1  -1  38  335.42   13.59   0
   2  -2  46  376.11   16.27   0
   1   0  37    6.98    8.65   0
   1   1  33    9.24    9.49   0
   1   2  23    4.60    7.85   0
   2   0  44  924.24   20.93   0
   3  -6  39   -7.48   12.04   0
   3  -4  49   -9.88   13.53   0
   3  -3  51   -6.23   11.95   0
   3   0  48  300.86   16.36   0
   4  -3  55   -4.17   14.06   0
   4  -1  53   -1.44   13.69   0
   5  -4  57    9.09   13.16   0
   5  -1  54   81.45   14.87   0
   0  -1  25   -3.23    7.60   0
   0   0  24 5156.27   43.16   0
   1  -4  29   -5.45    9.80   0
   2   1  40  589.42   17.95   0
   1  -2  39   -9.32    9.45   0
   3   1  44  373.34   16.72   0
   4  -7  41    7.16   12.19   0
   0  -2  23   -2.46    7.30   0
   1  -3  37   13.70   10.57   0
   2  -5  37   -4.03   11.63   0
   2   2  33    7.43    9.52   0
   3  -5  47   12.20   13.17   0
   3  -2  53    6.57   13.03   0
   0  -1  28 1524.26   23.96   0
   0   0  27   -6.24    8.88   0
   1  -1  41    5.00   10.93   0
   2  -3  47  -12.66   12.52   0
   2  -1  48  480.88   17.10   0
   4  -6  49    1.65   12.25   0
   5  -2  58  198.43   16.06   0
   1  -4  32 1082.61   21.73   0
   1   0  40  897.71   19.80   0
   1   2  26  588.49   17.94   0
   2  -2  49  -14.10   11.87   0
   4  -4  56  131.87   13.96   0
   4   0  52  250.89   16.27   0
   0  -2  26 1379.82   23.32   0
   1   1  36 1083.97   20.68   0
   2   0  47  -14.53   11.65   0
   3  -6  42  240.56   15.13   0
   3  -3  54  150.17   14.96   0
   1  -2  42  404.31   14.91   0
   2   1  43   12.36   10.77   0
   3   0  51    8.60   12.05   0
   4  -3  58  185.95   14.39   0
   5  -1  57    2.45   12.13   0
   0  -1  31   -5.62    8.84   0
   0   0  30  181.32   11.85   0
   1  -3  40  573.21   17.02   0
   4  -7  44  211.33   13.76   0
   0  -2  29   -7.07    9.19   0
   1  -1  44  570.71   17.66   0
   1   2  29    9.90    8.65   0
   2   2  36  491.89   17.20   0
   3  -5  50  287.14   15.75   0
   3   1  47   -2.63   10.99   0
   0  -3  15    1.62    7.98   0
   1  -4  35   14.17    9.08   0
   2  -3  50  238.83   13.95   0
   2  -1  51   -0.14   11.78   0
   3  -2  56  304.50   15.97   0
   3  -1  55   10.65   12.71   0
   4  -6  52  201.54   15.07   0
   0  -3  18 1412.26   25.17   0
   1  -5  21    7.21    8.94   0
   1   1  39    2.30   10.00   0
   2  -2  52  287.38   15.20   0
   3  -6  45    0.15   11.53   0
   4  -4  59    7.10   12.82   0
   0  -3  21    0.61    8.11   0
   0  -1  34 1141.18   20.82   0
   0   0  33   -8.37    8.90   0
   1  -2  45   17.72   11.74   0
   2  -5  43   -7.60   11.91   0
   3  -4  55   -7.80   12.76   0
   0  -2  32  705.54   16.80   0
   1  -3  43   -7.12   11.65   0
   2   0  50  288.62   14.07   0
   2   1  46  186.46   13.87   0
   4  -7  47    3.19   12.92   0
   4  -3  61    0.50   13.62   0
   4   0  55   -4.99   12.67   0
   0  -3  24 1214.16   21.78   0
   1  -4  38  225.65   12.52   0
   1   2  32 1379.63   24.62   0
   3   0  54  138.28   13.87   0
   4  -1  59    0.49   12.60   0
   1  -5  27    6.95    9.40   0
   1  -1  47   -4.01   10.10   0
   2  -6  35   -3.43   11.40   0
   2  -3  53   -3.27   13.06   0
   2   2  39   -3.99    9.62   0
   3  -5  53    9.24   12.28   0
   0  -3  27    2.50    8.82   0
   0  -2  35    8.38   10.05   0
   0  -1  37   -4.97    9.55   0
   0   0  36  739.41   17.71   0
   1   1  42  410.24   15.85   0
   3  -6  48  240.78   15.30   0
   3  -2  59    8.29   12.66   0
   3   1  50  268.51   15.57   0
   1  -2  48  449.82   16.49   0
   2  -5  46   74.42   13.16   0
   2  -2  55   -0.11   12.70   0
   3  -1  58  152.70   13.67   0
   1  -5  30  377.75   15.13   0
   1  -4  41   -1.22   10.99   0
   1  -3  46  191.20   12.70   0
   1   2  35    4.33    9.12   0
   3  -4  58  165.48   14.15   0
   0  -3  30  376.34   13.52   0
   2  -6  38  156.11   14.16   0
   2   0  53    6.16   10.02   0
   2   1  49   -0.11   11.50   0
   3  -3  60  185.18   14.85   0
   0  -2  38  335.60   14.41   0
   0  -1  40  934.68   19.48   0
   0   0  39   -0.35    9.56   0
   1  -1  50  416.28   16.81   0
   4   0  58  107.64   13.03   0
   0  -3  33    5.33    9.56   0
   1  -5  33   10.78    9.48   0
   1   1  45   -0.42   10.81   0
   2  -3  56  282.35   15.94   0
   3  -5  56  158.99   13.87   0
   1  -4  44  383.55   15.92   0
   1  -2  51   -2.33   12.05   0
   2  -5  49    5.29   12.33   0
   3  -6  51    3.15   11.25   0
   1  -3  49   -5.97    9.99   0
   1   2  38  418.60   15.61   0
   2  -2  58  161.31   14.24   0
   3  -2  62   89.15   12.81   0
   3  -1  61   12.30   12.51   0
   0  -3  36 1019.43   20.67   0
   0  -2  41    5.75    9.40   0
   0  -1  43   -1.44   10.26   0
   0   0  42 1033.25   20.55   0
   1  -5  36  401.54   15.69   0
   2  -6  41    0.65   10.86   0
   3  -4  61   -4.53   13.16   0
   0   2  22 2009.58   30.09   0
   1  -1  53   16.25   12.00   0
   2   0  56  158.94   14.60   0
   2   1  52  442.99   17.27   0
   3  -3  63   12.92   12.32   0
   0   2  25   -1.13    7.46   0
   0   2  28 1220.52   22.68   0
   1  -4  47    8.89   11.74   0
   1  -2  54  190.49   15.15   0
   1   1  48  468.49   15.52   0
   2  -3  59   -9.28   12.94   0
   3   0  60  279.00   16.06   0
   0  -3  39    6.66    8.85   0
   0  -2  44  922.57   19.26   0
   1  -5  39    1.28   10.55   0
   1   2  41    3.95    9.83   0
   2  -6  44  331.93   14.95   0
   2  -5  52  209.29   13.79   0
   0  -4  19   -1.44    8.36   0
   0  -4  22  777.29   18.98   0
   0  -4  25   -2.44    9.00   0
   0  -1  46  166.06   11.80   0
   0   0  45   -5.65    9.33   0
   2  -2  61    3.94   12.14   0
   0  -4  28  716.45   18.10   0
   0   2  31    1.44    6.92   0
   3  -1  64  110.32   13.31   0
  -1  -1  24 1924.36   26.13   0
  -1   0  23    2.22    7.01   0
  -1   0  26 1311.22   21.92   0
   1  -5  42  230.76   13.94   0
   1  -4  50  270.52   15.42   0
   2   0  59    0.48   11.82   0
   2   1  55    2.53   11.87   0
  -1  -1  21   28.02    7.63   0
  -1  -1  27    0.12    7.29   0
  -1   0  20 1557.68   24.21   0
  -1   0  29   -5.37    8.44   0
   0  -4  31    6.18    9.41   0
   0  -2  47    7.49    9.83   0
   0   2  34  307.20   13.61   0
   1   1  51    5.57   11.03   0
   1   2  44  442.59   15.80   0
   2  -6  47    1.05   12.47   0
  -1  -1  18 1232.81   22.48   0
  -1  -1  30  695.64   16.24   0
   0  -1  49   -0.63    9.97   0
   0   1  44  530.62   15.55   0
   1  -3  55    2.87   11.02   0
   1  -2  57   16.09   10.60   0
   2  -5  55  -15.51   12.24   0
   2  -3  62   76.80   13.78   0
  -1   0  32 2084.36   25.85   0
  -1  -1  33   15.92    8.25   0
   0   2  37    7.76    9.54   0
   1  -5  45    7.19   10.93   0
   2  -2  64  223.64   14.86   0
  -1   0  35   -7.91    8.29   0
   0  -4  37   -0.45    9.53   0
   0  -2  50  275.36   14.23   0
   1  -4  53  -12.74   11.69   0
   1  -1  59  -17.89   12.19   0
  -1  -2  25   13.98    8.71   0
  -1  -1  36 1038.75   19.25   0
  -1   1  22  499.90   15.52   0
  -1   1  25   -2.41    6.92   0
  -1   1  28 1516.66   22.96   0
   0  -1  52  463.14   16.46   0
   0   0  51    5.59   10.89   0
   0   1  47    2.89    9.09   0
   1   0  58  256.10   15.62   0
   1   1  54  187.40   13.63   0
   1   2  47    2.24    9.43   0
   2  -6  50  168.30   12.46   0
   2   0  62  107.71   13.47   0
  -1  -2  22  504.36   14.63   0
  -1   0  38  313.97   13.32   0
  -1   1  31    0.96    7.59   0
   0   2  40 1055.33   20.85   0
   1  -3  58  189.05   13.55   0
   1  -2  60  243.82   14.99   0
   2  -5  58  177.56   13.11   0
   2   1  58  153.47   14.12   0
  -1  -2  19    5.30    7.59   0
  -1  -1  39    7.81    9.73   0
  -1   1  19    1.91    7.53   0
   1  -5  48  335.48   15.15   0
  -1   1  34 1117.11   19.75   0
   0  -2  53    9.92   11.88   0
  -1   0  41    2.73    8.83   0
   0   1  50  404.19   15.78   0
   1  -4  56  194.04   14.80   0
   1  -1  62   78.36   13.90   0
  -1  -1  42  423.11   14.19   0
  -1   1  37    8.93    8.02   0
   0  -4  43  -12.27   10.66   0
   0  -1  55    0.32   10.27   0
   0   0  54   58.84   10.66   0
   0   2  43    8.11    9.74   0
   1   1  57   15.09   11.81   0
   1   2  50  245.21   14.10   0
   2  -6  53   -2.98    9.83   0
  -1  -2  16 2072.12   29.00   0
   1  -5  51    2.75   11.65   0
   1  -3  61    0.76   12.11   0
   1   0  61    6.98   12.10   0
   2   0  65    2.64   12.21   0
  -1  -2  40  556.22   15.53   0
   2   1  61    6.11   10.96   0
  -1  -1  45    6.57    9.47   0
   0  -4  46  206.98   13.69   0
   0  -2  56  172.38   12.37   0
   0   1  53   14.20   11.72   0
   0   2  46  399.73   15.25   0
  -1  -2  43    9.61   10.53   0
   0   0  57   -9.84   12.20   0
   1  -4  59   10.57   12.13   0
  -1  -3  29   -0.93    8.98   0
  -1   0  47   -4.63   10.91   0
  -1   1  43    2.48    8.70   0
   1  -1  65    1.63   11.74   0
   1   2  53   -0.19   10.34   0
  -1  -3  26  759.25   18.15   0
  -1  -3  32 1074.30   20.74   0
  -1   2  27    2.67    7.73   0
  -1   2  30  677.95   16.91   0
   0  -4  49   -1.13   11.65   0
   1  -5  54  112.42   12.84   0
   1  -3  64  109.15   12.76   0
   1   0  64  139.25   14.27   0
   1   1  60  249.28   14.73   0
  -1  -3  23   26.94    8.57   0
  -1  -3  35   10.07    8.60   0
  -1  -2  46  222.89   13.05   0
  -1   2  33   10.88    8.66   0
   0  -2  59   -8.35   11.79   0
   0   2  49   -3.25   10.58   0
  -1  -3  38  229.40   13.04   0
  -1   0  50  424.00   16.01   0
  -1   1  46  158.35   11.39   0
  -1   2  24 1804.11   25.80   0
  -1   2  36 1075.87   20.34   0
   0   1  56  306.68   14.94   0
  -1  -3  20 1000.23   20.96   0
  -1  -1  51   -0.96   11.59   0
   0  -1  61   11.39   11.93   0
   0   0  60  277.47   14.80   0
   0   3  30  686.85   18.56   0
  -1  -3  41   -1.50   10.10   0
  -1   2  21   32.99    7.84   0
  -1   2  39    4.11    9.17   0
   0  -4  52  239.28   13.76   0
   0   3  27   -1.51    8.02   0
   0   3  33    0.75    8.52   0
   1   2  56  286.49   14.85   0
   0   2  52  267.19   14.31   0
   0   3  36  622.67   17.32   0
   1   1  63   10.32   12.78   0
  -1  -3  44  394.36   15.45   0
  -1   0  53  -10.35   12.11   0
  -1   2  42  432.87   14.93   0
   0  -5  41    4.01    9.63   0
   0   3  24 1676.26   28.94   0
  -1  -1  54  181.95   14.17   0
   0   1  59   -4.63   11.79   0
   0   3  39   -2.80    8.51   0
  -1  -3  17   -2.04    7.41   0
  -1  -2  52  439.46   14.95   0
   0  -5  44  272.15   15.11   0
   0  -4  55    1.55   10.85   0
   0  -1  64  160.41   13.23   0
  -2   0  31   -1.00    8.48   0
  -2   0  34  332.30   13.32   0
  -1  -3  47    1.53   10.98   0
  -1   2  45    0.20    8.58   0
   0   3  42  312.11   14.58   0
  -2   0  28 1249.08   20.05   0
  -2   0  37  -10.35    9.96   0
   0   2  55   16.69   11.30   0
  -2  -1  32 1415.93   21.98   0
  -2  -1  35    2.72    8.92   0
  -2   0  25    2.44    7.96   0
  -1  -2  55    6.99   11.41   0
  -1  -1  57    0.20   10.62   0
  -1   2  48  484.64   15.91   0
   0  -5  47    2.13   10.50   0
   0  -2  65    5.38   11.33   0
  -2  -1  29   -0.40    7.63   0
  -2  -1  38  439.55   14.89   0
  -2   1  30  744.99   16.96   0
  -2   1  33   11.24    8.03   0
  -2   1  36 1125.74   19.74   0
   0  -4  58   95.27   13.02   0
   0   1  62   68.02   13.14   0
  -2  -1  26  568.56   14.74   0
  -2  -1  41    7.28   10.39   0
  -2   0  43    5.78   10.42   0
  -2   1  27  -10.33    8.50   0
  -2   1  39    1.46    9.35   0
  -1  -4  33    6.49   10.41   0
  -2   0  22 2080.30   25.78   0
  -1  -4  30  383.77   14.36   0
  -1  -4  36  414.00   15.01   0
   0  -5  50  108.03   12.34   0
   0   2  58  152.10   13.33   0
  -2  -1  44  438.49   15.44   0
  -2   0  46  387.39   15.23   0
  -2   1  24 2007.02   25.47   0
  -2   1  42  436.84   13.96   0
  -1  -4  27    9.74    8.56   0
  -1  -4  39   -5.86    9.82   0
  -1  -3  53    3.21   11.12   0
  -1  -2  58  166.74   13.24   0
  -1  -1  60  263.63   15.16   0
  -1   2  51  -13.21    9.45   0
  -2   1  45    4.01   10.50   0
  -1  -4  42  251.70   13.71   0
  -2  -2  33   -7.02    9.32   0
  -2  -2  36  500.45   15.10   0
  -2  -1  47   -8.80   10.13   0
  -2   0  49    8.95   11.01   0
  -1   3  32 1400.28   23.21   0
  -1   3  35    2.65    8.27   0
   0   1  65    4.12   11.71   0
  -2  -2  30  242.56   11.35   0
  -2  -2  39   -2.54    8.56   0
  -2   0  19    8.89    6.63   0
  -1  -4  45   -2.04    9.97   0
  -1  -3  56  214.74   14.42   0
  -1   2  54  188.26   13.07   0
  -1   3  38  440.17   14.72   0
  -2  -2  27   -0.08    8.49   0
  -2  -2  42  549.28   16.29   0
  -2  -1  50  242.77   14.47   0
  -2   1  21   28.05    7.29   0
  -2   1  48  469.21   14.57   0
  -1  -2  61   -0.60   10.94   0
  -1  -1  63   -0.75   11.45   0
  -1   3  29    5.05    7.64   0
  -1   3  41    8.71    9.05   0
   0   2  61    6.94   10.61   0
  -2   0  52  280.06   14.31   0
  -1  -4  48  338.85   15.07   0
  -1   1  61    8.91   11.33   0
  -2  -2  24 2138.46   26.88   0
  -2  -2  45    9.62    8.83   0
  -2   1  51    4.45   10.31   0
  -1   3  26  604.24   16.65   0
  -1   3  44  439.87   15.10   0
  -2  -1  53   -0.67   11.05   0
  -1  -3  59    2.09   10.89   0
  -1   0  65    5.39   11.81   0
  -1   2  57   -8.47   11.22   0
  -2   0  55   -0.68   11.21   0
  -1  -4  51   -5.20   10.15   0
  -1  -2  64  125.75   12.17   0
  -1   3  47    4.42    9.39   0
  -2   0  16 3116.75   32.36   0
  -2   1  18 1265.05   20.99   0
  -2   1  54  176.33   13.09   0
   0   2  64  224.86   13.89   0
  -2  -2  21   -7.45    7.88   0
  -2  -1  56  303.50   14.69   0
  -1   1  64  142.84   12.33   0
  -1   3  23    5.58    6.88   0
  -2   0  58  156.98   12.81   0
  -2   2  23    0.12    6.56   0
  -2   2  50  281.80   13.87   0
  -1  -4  54   95.64   11.28   0
  -1   2  60  239.43   13.97   0
  -1   3  50  266.54   13.56   0
  -2  -3  34  531.05   15.85   0
  -2  -3  37    2.06    9.63   0
  -2  -3  40  621.01   17.24   0
  -2   1  57    4.96   11.14   0
  -2  -3  31    3.96    8.95   0
  -2  -3  43    0.35   10.47   0
  -2  -1  59   11.62   10.60   0
  -2   2  53   13.34    9.05   0
  -1   3  53    7.48   10.38   0
  -2  -3  28  494.49   15.20   0
  -2  -3  46   74.16   12.08   0
  -2  -2  18 1190.64   21.21   0
  -2   0  61   -4.10   11.75   0
  -1   2  63   13.59   10.66   0
  -3   0  36  668.67   16.55   0
  -3   0  39  -10.51   10.18   0
  -2  -3  49    6.35   10.88   0
  -2   1  15    0.36    6.34   0
  -2   1  60  251.52   13.58   0
  -2   3  34  717.35   16.98   0
  -2   3  37    5.02    8.85   0
  -2   3  40  605.50   16.26   0
  -3   0  33   -2.64    7.84   0
  -3   0  42  335.51   13.00   0
  -3   0  45    0.19   10.77   0
  -3   1  35    1.93    8.20   0
  -3   1  38  446.21   13.63   0
  -3   1  41   11.31    8.86   0
  -2  -1  62   98.92   12.13   0
  -2   0  13    0.98    6.08   0
  -2   2  56  135.96   11.85   0
  -2   3  43    5.54    9.46   0
  -1   3  56  310.33   14.61   0
  -3   0  30  670.52   15.38   0
  -3   1  32 1393.03   20.65   0
  -3   1  44  435.42   14.15   0
  -2  -3  25    1.30    8.37   0
  -2   3  31    6.94    6.84   0
  -2   3  46  218.56   12.14   0
  -3   0  48  502.50   16.33   0
  -3   1  29    5.90    8.76   0
  -3   1  47    2.77   10.78   0
  -2  -3  52  196.84   13.70   0
  -2   0  64  224.80   12.85   0
  -3   0  27   -5.50    8.53   0
  -2   2  59   -5.58   11.06   0
  -2   3  28 1508.96   22.98   0
  -2   3  49   -0.50    9.76   0
  -3  -1  46  137.25   10.89   0
  -3   0  51   -9.02    9.45   0
  -3   1  50  268.54   12.48   0
  -3   2  37   11.15    9.44   0
  -3   2  40  577.40   15.78   0
  -3   2  43    3.56   10.20   0
  -2  -3  55    8.53   11.17   0
  -1   3  59   -6.90   10.62   0
  -3   1  26  624.48   14.64   0
  -3   2  34  726.18   15.94   0
  -9   6  -9    5.57    9.56   0
  -9   6  -3   -8.59    9.64   0
  -7   3  32  366.37   14.04   0
  -7   5  15    0.19    9.27   0
  -9   4  26  209.75   11.96   0
  -9   6 -12  224.65   12.76   0
  -9   6   0  476.41   14.61   0
  -8   4  27   -0.01    9.88   0
  -6   4  23   -6.63    9.01   0
 -10   6  -1   -6.27    9.49   0
  -9   6 -15   10.42    9.00   0
  -9   6   3    5.28    9.98   0
  -8   6  -8  603.52   14.60   0
  -8   6  -2  292.40   12.94   0
  -6   5 -23    5.50    7.67   0
  -6   5  10  596.93   14.13   0
  -5   4  18  471.28   12.79   0
  -4   4 -20 1348.15   21.14   0
  -4   4   7    3.66    6.33   0
  -8   6 -14  166.70   11.25   0
  -8   6   1   -6.28    9.74   0
  -5   3  28  488.30   14.33   0
  -4   2  30  249.49   11.31   0
  -3   3  12 2615.48   26.84   0
  -9   6 -18  259.79   12.73   0
  -9   6   6  278.35   12.83   0
  -8   6   4  275.11   13.24   0
  -7   5  18  504.79   15.06   0
  -8   6 -17    7.85    8.85   0
  -7   4  28  533.51   15.63   0
  -6   5  13   29.34    9.50   0
  -5   5  -4 1236.32   18.90   0
  -4   3  23   31.56    6.79   0
  -9   6 -21    8.24    9.35   0
  -9   6   9   -1.88   10.06   0
  -8   6   7  -11.99   10.43   0
  -5   5 -10  771.48   15.32   0
  -5   5  -1    4.67    6.81   0
  -4   4  10  489.07   12.52   0
  -9   4  29   -4.06    9.60   0
  -9   5  22  144.69   12.16   0
  -8   6 -20  267.12   12.54   0
  -7   6 -10  294.93   12.62   0
  -6   4  26  495.17   14.90   0
  -5   5 -13    4.61    7.40   0
  -5   5   2  430.88   12.67   0
  -4   4 -23    2.24    6.75   0
  -3   2  25   11.80    6.80   0
  -8   4  30  141.72   11.87   0
  -8   5  23    4.73   10.46   0
  -7   6 -13    5.19    8.91   0
  -7   6  -1    3.56    8.31   0
  -6   3  33    4.42    9.04   0
  -9   6  12  209.33   11.76   0
  -8   6  10  295.54   11.93   0
  -7   6   2  466.21   13.42   0
  -6   5  16  791.25   15.97   0
  -5   5 -16  786.78   16.19   0
  -5   5   5    4.17    7.60   0
  -3   3  15    0.58    5.65   0
  -7   6 -16  760.76   16.85   0
  -7   6   5    7.73    9.54   0
  -4   4  13    5.07    6.46   0
  -9   5  25   -0.99   10.24   0
  -8   6  13    8.25   10.57   0
  -5   3  31   10.79    8.18   0
  -9   6  15    7.78   10.71   0
  -7   4  31   14.12    9.05   0
  -7   6   8  822.53   17.03   0
  -5   5 -19    1.56    7.47   0
  -5   5   8 1091.52   17.45   0
  -4   3  26  763.54   16.41   0
  -8   5  26  282.26   13.27   0
  -7   6 -19   22.74    8.89   0
  -6   5  19   -0.24    8.62   0
  -5   4  24 1134.33   19.15   0
  -7   5  24  455.58   13.86   0
  -6   4  29   -0.29    9.24   0
  -4   2  33    1.62    7.08   0
  -4   4  16 1761.95   22.18   0
  -9   6  18  177.44   11.96   0
  -8   4  33   -2.30    9.77   0
  -8   6  16  565.64   14.73   0
  -7   6  11    8.72    8.37   0
  -5   5  11   -4.90    7.35   0
  -2   2  17    1.09    5.76   0
  -7   6 -22  202.13   11.02   0
  -5   5 -22  305.78   11.78   0
  -9   5  28  152.12   11.17   0
  -6   6  -9    8.86    8.84   0
  -6   6  -3    1.62    7.74   0
  -6   6   0 1038.94   18.21   0
  -9   7 -10  226.67   12.48   0
  -9   7  -7   -8.10   10.33   0
  -9   7  -1    3.51    9.85   0
  -8   6  19   -2.33    9.97   0
  -7   6  14  179.61   11.04   0
  -6   6 -12  467.11   13.58   0
  -6   6   3    1.41    8.50   0
  -5   5  14  735.01   15.74   0
  -3   2  28 1556.72   23.30   0
  -9   7 -13    0.52    9.68   0
  -9   7   2  142.53   10.95   0
  -8   5  29    8.49    9.61   0
  -7   4  34  245.91   13.83   0
  -7   5  27   -2.88   10.14   0
  -9   7   5   -0.88   10.25   0
  -6   6 -15   -3.46    7.75   0
  -6   6   6  296.44   11.60   0
  -5   3  34  582.26   16.08   0
  -5   4  27   10.66    8.77   0
  -3   4  -1   48.59    7.57   0
  -9   7 -16  240.71   12.42   0
  -7   6  17    0.86   10.21   0
  -6   4  32  488.19   15.26   0
  -4   3  29   -0.65    7.57   0
  -3   4 -10 1163.17   19.17   0
  -3   4   2  909.20   16.69   0
  -2   3  -2  649.93   14.94   0
  -9   7   8  327.89   12.84   0
  -8   7  -9    3.42    9.95   0
  -8   7   0  511.93   14.19   0
  -6   6   9   -2.67    9.47   0
  -5   5  17    1.87    8.59   0
  -3   3  21    1.17    6.57   0
  -2   3   1   66.47    7.66   0
  -9   6  24  343.82   13.77   0
  -8   7 -12  302.52   13.09   0
  -8   7   3    8.05    9.31   0
  -6   5  25   11.17    9.33   0
  -6   6 -18  327.07   12.40   0
  -9   7 -19   -2.15    8.22   0
  -9   7  11   -7.93   10.59   0
  -4   5  -3   -6.09    6.33   0
  -4   5   0 1584.74   20.95   0
  -3   4 -13   14.12    5.63   0
  -3   4   5   10.30    6.21   0
  -8   5  32  322.63   13.97   0
  -8   7 -15   -2.72    9.82   0
  -7   5  30  129.73   11.65   0
  -6   6  12  581.07   14.29   0
  -4   5  -9   34.13    6.71   0
  -2   3   4 3027.17   29.80   0
  -9   7  14  204.70   12.29   0
  -8   7   9    6.92    9.74   0
  -6   6 -21    2.39    7.93   0
  -5   5  20  853.30   17.02   0
  -4   5   3   40.45    7.23   0
  -3   4   8 2967.70   27.92   0
  -8   6  25    6.98   10.45   0
  -8   7 -18  294.27   12.57   0
  -5   4  30  409.54   13.49   0
  -4   5 -12 1237.60   18.80   0
  -4   5   6  966.87   17.06   0
  -3   4 -16 2113.18   26.17   0
  -9   6  27    9.71    9.34   0
  -8   7  12  253.33   13.19   0
  -7   7  -5   18.57   10.06   0
  -6   6  15    4.16    8.15   0
  -2   3   7    0.84    5.51   0
  -9   7  17   -0.71   10.06   0
  -7   7  -8  758.29   17.17   0
  -7   7   1    6.12    8.31   0
  -6   4  35   -1.02    9.24   0
  -6   5  28  601.85   15.86   0
  -4   5 -15    3.95    7.07   0
  -3   3  24 1202.98   19.54   0
  -7   7 -11    0.96    9.03   0
  -7   7   4  275.81   12.00   0
  -4   3  32 1124.13   20.19   0
  -4   5   9    5.07    6.92   0
  -3   2  31    1.97    7.04   0
  -3   4  11   58.11    7.09   0
  -8   7  15    4.30    9.23   0
  -7   7   7    2.44    9.28   0
  -6   6  18  485.53   14.51   0
  -5   6  -8  966.91   17.54   0
  -5   6  -2  401.24   12.11   0
  -5   6   1   20.06    8.74   0
  -4   4  25    1.71    7.66   0
  -8   5  35    8.16   10.03   0
  -7   5  33    5.52   10.18   0
  -7   7 -14  181.94   11.71   0
  -5   6   4  927.53   16.93   0
  -3   4 -19   23.18    7.23   0
  -2   3  10 2102.93   24.65   0
  -9   7  20  210.77   11.33   0
  -7   7  10  309.18   13.38   0
  -5   6 -11   10.73    8.27   0
  -4   5 -18  840.71   17.04   0
  -4   5  12 1061.65   17.19   0
  -8   7  18  208.43   12.07   0
  -7   6  26  385.71   14.67   0
  -7   7 -17   10.10    8.74   0
  -5   6   7   -1.89    7.67   0
  -3   4  14  794.33   15.21   0
  -2   2  23    2.22    6.20   0
  -7   7  13    2.11    9.75   0
  -6   5  31    0.71    9.00   0
  -6   6  21    9.72    9.70   0
  -5   4  33   19.27    8.74   0
  -5   6 -14  508.02   13.93   0
  -9   8  -5    4.46    9.46   0
  -5   6  10  582.30   14.00   0
  -4   5  15   29.61    8.43   0
  -9   8  -8  222.36   12.45   0
  -9   8   4  268.78   12.83   0
  -8   6  31    5.92   10.63   0
  -7   7 -20  210.21   12.49   0
  -5   5  26  294.89   11.57   0
  -2   3  13   39.87    6.51   0
  -9   8 -11   -1.02    8.91   0
  -9   8   7   -5.74   10.01   0
  -7   7  16  684.84   16.83   0
  -5   6 -17    3.90    7.61   0
  -5   6  13   18.21    9.27   0
  -4   4  28  755.60   16.32   0
  -4   5 -21   14.61    7.36   0
  -3   3  27    0.34    6.85   0
  -3   4  17   -0.96    7.25   0
  -7   5  36  382.74   14.86   0
  -7   6  29    3.93   10.21   0
  -6   7   2  454.67   14.41   0
  -9   8  10  144.64   12.13   0
  -6   7  -7   17.26    8.01   0
  -6   7   5   16.70    9.72   0
  -4   3  35    8.37    8.34   0
  -4   5  18  446.82   13.36   0
  -3   4 -22  352.38   12.75   0
  -8   8  -7   -1.45   10.41   0
  -8   8  -4  306.98   13.36   0
  -8   8   2  137.80   11.83   0
  -7   7  19   13.38   10.04   0
  -6   7 -10  313.24   12.70   0
  -5   6  16  766.44   16.63   0
  -9   8  13   12.22   10.71   0
  -8   8   5    8.02   10.00   0
  -6   5  34  307.90   13.69   0
  -6   7   8  810.52   16.37   0
  -5   6 -20  620.03   15.56   0
  -2   3  16 2071.02   24.30   0
  -8   6  34  207.50   13.62   0
  -8   8 -10  250.09   13.11   0
  -6   7 -13   -1.29    8.96   0
  -5   4  36  424.63   14.31   0
  -5   5  29   -2.97    7.63   0
  -8   8 -13    2.68    9.63   0
  -6   6  27   -8.54   10.05   0
  -6   7  11    6.79    8.51   0
  -4   5  21    7.89    8.44   0
  -2   2  26 1319.67   21.81   0
  -8   7  27   -2.32   11.02   0
  -8   8  11   10.67   10.10   0
  -6   7 -16  796.44   17.55   0
  -5   6  19    8.97    9.17   0
  -6   7  14  177.46   11.48   0
  -4   4  31   -2.12    7.13   0
  -3   3  30  374.58   12.68   0
  -8   8 -16  224.45   11.71   0
  -3   5   1   -5.06    7.07   0
  -7   8  -3    3.15    9.74   0
  -7   8   3   18.92    9.87   0
  -6   5  37    4.60    9.70   0
  -6   6  30  179.94   12.11   0
  -6   7 -19   11.79    8.74   0
  -6   7  17    9.73    8.67   0
  -5   5  32  604.64   15.53   0
  -5   6  22  286.50   11.42   0
  -4   6  -1    5.54    8.08   0
  -4   6   2  692.91   15.06   0
  -3   4  23   32.15    6.89   0
  -3   5   4  783.01   15.70   0
  -8   6  37    4.74    9.69   0
  -8   7  30  127.33   12.00   0
  -8   8  17  -13.09    9.64   0
  -7   8  -6  144.49   11.22   0
  -7   8   6  301.60   13.29   0
  -4   6  -7    7.97    7.77   0
  -4   6   5    6.71    8.29   0
  -3   5  -8 2341.22   25.64   0
  -7   6  35    9.18    9.82   0
  -7   8  -9   14.65    9.73   0
  -7   8   9   -0.84   10.55   0
  -3   5   7   11.88    6.96   0
  -6   7  20  342.44   13.65   0
  -4   6 -10  433.97   12.88   0
  -4   6   8 1001.11   16.93   0
  -8   8  20  199.42   11.90   0
  -7   7  28  216.07   12.92   0
  -7   8  12  254.78   12.84   0
  -4   4  34  333.76   12.90   0
  -3   5 -11    5.49    5.90   0
  -3   5  10  819.03   15.39   0
  -2   4  -3    2.85    6.42   0
  -2   4   0 4201.38   33.40   0
  -2   4   3    3.51    6.81   0
  -5   7  -6  553.95   14.49   0
  -5   7   3   -4.75    7.91   0
  -4   6  11   -8.44    7.47   0
  -2   3  22  484.31   13.18   0
  -7   8 -15    3.03    8.67   0
  -7   8  15    2.53   10.30   0
  -6   6  33   -0.98    9.88   0
  -5   7   6  219.55   11.02   0
  -4   5  27   -0.28    7.25   0
  -4   6 -13    4.64    7.43   0
  -3   4  26  769.67   15.94   0
  -3   5  13    4.32    7.86   0
  -2   2  29   -0.31    6.68   0
  -2   4   6  837.73   15.58   0
  -8   7  33   -0.30    9.55   0
  -8   8  23    4.02    9.96   0
  -6   7  23   17.05    8.80   0
  -5   5  35   -1.75    8.75   0
  -5   7   9    3.55    8.10   0
  -4   6  14  353.97   11.72   0
  -3   3  33    2.81    6.86   0
  -3   5 -14  416.52   12.87   0
  -2   4  -9    1.00    5.21   0
  -2   4   9    1.06    5.97   0
  -7   6  38   84.91   11.43   0
  -7   7  31    6.02   10.41   0
  -7   8  18  191.63   12.97   0
  -5   6  28  590.98   15.33   0
  -5   7 -12  487.23   13.96   0
  -4   6 -16  868.65   17.05   0
  -3   5  16 2016.19   23.31   0
  -4   6  17    1.89    7.58   0
  -2   4  12  865.78   16.22   0
  -8   9  -2  176.49   12.42   0
  -8   9   1    3.27    9.60   0
  -6   8  -2  297.80   13.09   0
  -6   8   4  279.23   13.32   0
  -5   7  15    0.70    9.78   0
  -4   5  30  374.81   13.28   0
  -2   4 -12  815.54   16.81   0
  -8   9  -5    8.70    9.39   0
  -8   9   7    5.30   10.00   0
  -7   8  21   14.43   10.10   0
  -6   8  -5   -0.05    9.71   0
  -6   8   7   -1.13    9.77   0
  -5   7 -15    7.46    8.21   0
  -3   5 -17    7.84    6.50   0
  -2   3  25   14.40    6.77   0
  -8   9  -8  218.23   12.41   0
  -6   8  -8  583.07   15.57   0
  -6   8  10  290.39   13.41   0
  -4   4  37    6.26    8.14   0
  -4   6  20  820.46   16.52   0
  -3   4  29   -7.20    6.43   0
  -3   5  19    8.25    7.18   0
  -8   9  10  140.34   10.86   0
  -5   6  31    2.17    9.70   0
  -5   7  18  535.26   14.18   0
  -4   6 -19    0.31    7.56   0
  -2   4  15    5.07    6.12   0
  -8   9 -11   -0.86    8.48   0
  -8   9  13    8.28   10.00   0
  -7   7  34  249.82   13.66   0
  -7   8  24  397.77   14.22   0
  -6   7  29    6.03   10.01   0
  -6   8 -11    5.45    8.87   0
  -5   5  38  291.46   13.03   0
  -5   7 -18  234.28   11.65   0
  -6   8  16  564.40   15.65   0
  -5   7  21   -1.27    8.53   0
  -4   6  23    1.06    8.97   0
  -3   3  36  997.98   19.40   0
  -2   4 -15   -0.83    5.76   0
  -6   8 -14  169.35   11.14   0
  -4   5  33   10.73    8.82   0
  -3   5 -20  628.50   15.60   0
  -2   2  32  671.35   16.91   0
  -2   4  18 1192.23   18.19   0
  -1   3   2  709.24   15.64   0
  -1   3  -1   63.48    6.77   0
  -1   3   5   10.66    5.83   0
  -7   9  -1    1.92    9.44   0
  -7   9   5   -6.02   10.00   0
  -6   6  39    2.08   10.10   0
  -6   7  32  384.13   14.35   0
  -6   8  19    0.03   10.63   0
  -5   6  34  306.98   13.55   0
  -5   7  24  445.83   14.58   0
  -3   4  32 1096.96   19.23   0
  -2   3  28 1532.09   22.12   0
  -7   7  37    6.11    9.60   0
  -7   9  -4  285.99   13.32   0
  -6   8 -17    1.41    8.67   0
  -1   3   8 3366.21   30.98   0
  -7   9  -7   -3.46    9.17   0
  -7   9  11   -1.55   10.43   0
  -4   7   1   16.09    7.57   0
  -4   7   4  784.19   15.64   0
  -3   6   0 1123.93   17.74   0
  -3   6   3    8.24    7.16   0
  -3   6   6  532.94   14.04   0
  -1   2  21   29.70    6.80   0
  -6   8  22  156.61   12.54   0
  -4   7  -5   21.13    8.47   0
  -4   7   7   -0.15    7.85   0
  -1   3  11   35.34    7.07   0
  -7   8  30  136.62   11.12   0
  -7   9 -10  238.12   11.82   0
  -7   9  14  203.26   12.54   0
  -4   7  10  459.44   13.19   0
  -3   6  -6  520.35   13.79   0
  -3   6   9   12.69    7.51   0
  -2   4 -18 1088.35   20.39   0
  -5   8  -1    4.91    9.32   0
  -5   8   5    3.68    9.53   0
  -4   5  36  409.43   13.86   0
  -4   7  -8  665.24   15.67   0
  -4   7  13   14.86    9.66   0
  -7   9 -13    3.88   10.11   0
  -7   9  17    8.68   10.29   0
  -6   7  35    7.67   10.74   0
  -6   8  25   -7.25    9.81   0
  -5   8  -4  341.59   13.15   0
  -5   8   8  621.77   15.90   0
  -4   6  29    9.63    8.87   0
  -3   6  -9   15.07    7.94   0
  -5   6  37   13.44    9.91   0
  -5   8  11    2.33    9.95   0
  -4   7 -11   -2.63    8.23   0
  -4   7  16  542.57   14.96   0
  -3   4  35    8.96    9.00   0
  -3   5  28  482.19   13.75   0
  -3   6  15   12.77    8.11   0
  -2   4  24 2016.95   23.86   0
  -2   5  -1   -1.52    7.18   0
  -2   5   2  899.53   15.97   0
  -2   5   5   21.53    6.72   0
  -1   3  14 1704.04   22.12   0
  -7   8  33    8.23   10.62   0
  -5   8  -7   -5.01    7.81   0
  -2   3  31    3.75    6.67   0
  -2   5   8 2321.87   24.30   0
  -5   7  30  125.54   11.87   0
  -5   8  14  200.90   11.11   0
  -2   5  11   14.50    7.83   0
  -5   8 -10  307.95   12.68   0
  -4   7  19    6.33    9.68   0
  -3   6  18  502.97   13.23   0
  -2   5  -7   10.67    7.31   0
  -1   2  24 1883.76   25.46   0
  -7   9  23    6.04    9.93   0
  -6   9   0  464.57   14.62   0
  -6   9   6  257.54   12.68   0
  -5   8  17    2.76    9.04   0
  -4   6  32  502.14   14.97   0
  -4   7 -14  424.43   13.47   0
  -2   5  14  451.80   12.85   0
  -1   3  17   14.43    5.97   0
  -6   7  38   79.37   11.12   0
  -6   9  -3   -5.38    9.40   0
  -6   9   9   -8.54    9.90   0
  -4   5  39    4.06    9.67   0
  -3   5  31    9.43    8.37   0
  -6   9  -6  114.41   10.96   0
  -6   9  12  207.71   12.38   0
  -5   8 -13   -2.41    8.98   0
  -5   8  20  306.83   13.41   0
  -4   7  22  252.80   12.60   0
  -3   6 -15    6.84    8.16   0
  -3   6  21    9.99    9.12   0
  -2   4  27    2.19    6.29   0
  -6   8  31    4.34   10.86   0
  -5   6  40  293.15   13.61   0
  -5   7  33    6.56   10.23   0
  -2   5 -10  756.93   15.29   0
  -2   5  17    9.18    8.06   0
  -6   9  -9   10.19    9.71   0
  -6   9  15   15.63   10.81   0
  -4   7 -17   11.56    8.11   0
  -5   8 -16  502.54   14.71   0
  -5   8  23    1.51   10.03   0
  -4   7  25   18.41   10.24   0
  -3   4  38  213.51   11.71   0
  -6   9  18  158.92   12.41   0
  -4   6  35    6.09    9.14   0
  -3   6  24  754.58   15.48   0
  -2   3  34  739.14   16.43   0
  -2   5  20  746.14   15.49   0
  -6   7  41    3.33   11.01   0
  -6   9 -12  219.71   11.76   0
  -2   5 -13    4.56    6.61   0
  -1   4   4 1383.81   19.84   0
  -6   8  34  202.07   12.34   0
  -6   9  21   -4.29   10.19   0
  -5   7  36  361.64   13.83   0
  -3   5  34  551.94   14.39   0
  -3   6 -18  482.13   13.90   0
  -2   4  30  245.93   11.18   0
  -1   2  27    1.76    5.75   0
  -1   4   1   34.02    6.62   0
  -1   4   7   31.99    6.65   0
  -5   8  26  249.51   12.02   0
  -1   4  -2  899.39   16.31   0
  -1   4  10 1228.83   18.30   0
  -4   8   6  258.61   12.62   0
  -3   7   2  311.18   12.38   0
  -3   7   5    9.55    8.86   0
  -1   3  23    5.61    5.70   0
  -6   9  24  353.86   13.73   0
  -4   8   9    9.21   10.33   0
  -3   7   8  675.34   14.79   0
  -1   4  13   17.62    6.46   0
  -4   6  38  147.93   11.49   0
  -4   8  -3    1.39    9.42   0
  -4   8  12  379.24   14.21   0
  -3   7  -4  806.35   16.54   0
  -3   7  11    4.47    8.03   0
  -2   5 -16 1952.12   25.44   0
  -4   8  -6  268.65   12.77   0
  -4   8  15   -0.92   10.12   0
  -3   7  14  442.61   13.96   0
  -1   4  16 2306.79   24.93   0
  -6   8  37    6.62   10.36   0
  -6   9  27   10.46   10.81   0
  -5   7  39   -3.53   10.13   0
  -5   9   1    2.22   10.17   0
  -5   9   7   -1.44    9.45   0
  -5   9  10  188.35   12.16   0
  -4   7  31   -8.32    8.46   0
  -3   5  37    8.40    8.57   0
  -3   6  30  242.89   11.76   0
  -3   7  -7    6.63    8.64   0
  -2   6   4  965.51   17.19   0
  -2   6   7   -2.71    8.44   0
  -5   9  -2  247.33   12.19   0
  -5   9  13   -6.43   10.10   0
  -4   8  18  286.83   13.09   0
  -3   7  17   22.32    8.51   0
  -2   4  33    2.31    6.72   0
  -2   6   1   -6.75    7.05   0
  -2   6  10  441.12   13.36   0
  -1   4  -8 2808.11   28.63   0
  -4   8  -9    3.71    8.89   0
  -2   3  37    2.43    7.20   0
  -2   6  13    6.61    8.70   0
  -1   3  26  589.12   13.86   0
  -5   8  32  323.24   13.47   0
  -3   7 -10  479.87   13.95   0
  -3   7  20  581.91   15.10   0
  -1   4  19   22.87    6.80   0
  -5   9  -8  504.11   14.74   0
  -4   7  34  259.01   13.32   0
  -4   8  21    6.32    8.55   0
  -2   6  -5    1.09    6.59   0
  -2   6  16  901.10   16.90   0
  -1   2  30  668.28   16.35   0
  -5   9  19    8.67    9.64   0
  -4   6  41    2.21    9.64   0
  -4   8 -12  358.81   13.18   0
  -3   6  33    5.33    8.85   0
  -2   5  29   -0.26    8.26   0
  -1   4 -11   47.47    7.19   0
  -4   8  24  458.06   15.06   0
  -3   7  23   -1.46    9.64   0
  -2   5 -19   14.66    7.07   0
  -2   6  -8  986.71   17.77   0
  -5   7  42  227.75   12.46   0
  -5   8  35   -1.98    9.79   0
  -5   9 -11    3.97    8.95   0
  -5   9  22  138.21   11.85   0
  -3   7 -13   21.91    8.31   0
  -2   6  19   -9.42    7.58   0
  -3   5  40  621.16   15.99   0
  -2   4  36  488.35   14.03   0
  -1   3  29    6.76    7.14   0
  -4   8 -15    4.52    8.65   0
  -3   7  26  211.86   12.18   0
  -2   6  22  434.99   13.38   0
  -1   5   6  445.44   12.73   0
  -5   9  25   12.83   10.10   0
  -4   7  37    8.02    9.90   0
  -4   8  27   -6.50    9.54   0
  -2   5  32  854.57   17.08   0
  -2   6 -11   -0.90    7.44   0
  -1   4  25   -0.76    7.40   0
  -1   5   3    9.54    6.37   0
  -1   5   9   29.01    7.16   0
  -3   6  36  440.88   14.45   0
  -3   7 -16  532.50   14.94   0
  -1   5   0 1518.60   20.32   0
  -1   5  12 1310.47   18.80   0
  -5   8  38   94.22   12.32   0
  -1   4 -14  757.76   16.75   0
  -1   5  15    8.85    7.93   0
  -2   6  25    0.97    7.88   0
  -3   8   7    5.78   10.28   0
  -3   8  10  298.43   13.23   0
  -2   6 -14  359.32   12.46   0
  -1   2  33    8.56    6.99   0
  -4   9   2  272.24   12.64   0
  -4   9  11   -3.86   10.16   0
  -3   8  13    2.06   10.01   0
  -1   3  32 1386.92   21.31   0
  -1   5  -6  951.78   17.20   0
   0   3   3   -2.39    6.59   0
   0   3   6 2110.17   24.39   0
   0   3   9    3.58    5.83   0
  -4   7  40  241.94   13.16   0
  -4   9  -1   -4.59    9.50   0
  -4   9  14  131.73   11.57   0
  -3   8  -2  316.24   13.26   0
  -3   8  16  578.58   16.11   0
  -2   4  39    0.98    7.62   0
  -2   5  35    6.83    8.54   0
   0   2  19    0.53    5.90   0
   0   3  12 2146.29   24.61   0
  -4   8  33    3.19   10.28   0
  -4   9  17    4.90   11.00   0
  -3   6  39    0.78    9.61   0
  -3   7  32  419.63   14.16   0
  -2   7   3   12.29    8.63   0
  -2   7   6  539.96   13.90   0
  -2   7   9   -4.87    7.96   0
  -1   5  21   10.54    8.62   0
   0   3   0 2738.71   28.24   0
  -5  10   6  149.14   11.25   0
  -4   9  -4  214.08   11.58   0
  -3   8  -5   13.35    9.12   0
  -3   8  19    3.43   10.23   0
  -2   7  12  490.95   13.72   0
  -1   5  -9   11.05    6.97   0
   0   3  15    0.11    6.80   0
  -5  10   0  298.66   13.03   0
  -5  10   3    1.26   10.27   0
  -4   9  20  217.49   12.43   0
  -2   7  15   -0.52    8.56   0
  -4   9  -7    1.80    9.73   0
  -3   8  -8  637.84   15.84   0
  -3   8  22  184.52   12.62   0
  -2   6 -17    3.08    7.78   0
  -2   6  31   -6.77    9.25   0
  -2   7  -3   -2.97    7.59   0
  -2   7  18  231.64   12.40   0
  -1   4 -17   -3.20    6.61   0
   0   3  -3    4.01    5.30   0
  -5  10  -3   -4.15    9.01   0
  -1   4  31    5.51    6.72   0
   0   2  22 1974.98   25.25   0
   0   3  18  572.15   13.49   0
  -4   7  43    5.66   10.10   0
  -4   8  36  203.84   12.30   0
  -4   9  23   -3.36    9.48   0
  -3   7  35    7.31   10.29   0
  -2   5  38  145.12   10.41   0
  -2   7  -6  208.90   11.30   0
  -4   9 -10  183.58   11.87   0
  -3   6  42  232.52   13.53   0
  -3   8 -11   10.45    9.04   0
  -3   8  25   19.22    9.97   0
  -2   7  21   -3.12    8.36   0
  -1   3  35   -2.86    6.75   0
  -1   5 -12  999.39   18.19   0
  -4   9  26  208.14   12.24   0
  -1   6   5   -1.24    7.54   0
  -1   6   8  927.34   16.72   0
  -1   6  11   23.11    9.09   0
  -2   6  34  251.56   12.41   0
  -2   7  -9    1.06    8.40   0
  -2   7  24  575.11   15.60   0
  -1   6   2  388.93   12.16   0
  -1   6  14  505.77   14.12   0
   0   4   5   -0.36    6.15   0
   0   4   8 1643.38   20.91   0
   0   4  11    5.02    7.14   0
  -3   8  28  234.43   12.45   0
  -1   6  17    5.53    9.13   0
   0   4   2 1478.45   20.00   0
   0   4  14  373.15   12.23   0
  -4   8  39  -12.29    9.59   0
  -3   7  38  231.53   12.27   0
  -1   4  34  648.81   15.66   0
   0   2  25    2.02    5.89   0
  -3   8 -14  191.76   11.28   0
  -2   7  27   -6.55    9.74   0
  -1   5  30  231.30   11.33   0
  -1   6  -4  843.69   16.80   0
  -1   6  20  620.00   15.26   0
   0   4  -1    1.29    5.98   0
   0   4  17   -2.45    7.37   0
  -2   5  41   -1.53    8.74   0
  -2   7 -12  580.41   14.89   0
  -1   5 -15   23.10    7.25   0
   0   3  24 1667.04   21.65   0
  -2   6  37    1.29    9.56   0
   0   3  -9   -0.95    4.96   0
  -3   9   9    9.04   10.31   0
  -3   9  12  225.94   12.67   0
  -1   4 -20  883.41   19.54   0
  -1   6  -7   -1.22    8.01   0
  -1   6  23    9.68    8.02   0
   0   4  20 1442.83   19.70   0
  -3   9   3    4.05    9.25   0
  -3   9  15   20.67   10.37   0
  -2   8   8  592.21   15.99   0
  -3   7  41    2.83   10.27   0
  -3   9   0  469.42   14.90   0
  -3   9  18  291.09   13.40   0
  -2   7 -15   -2.01    9.05   0
  -2   8  11    2.39    8.41   0
  -2   8  14  175.61   12.06   0
  -1   4  37   -2.68    7.73   0
  -1   5  33   12.14    8.79   0
   0   3  27    1.37    6.89   0
  -3   9  -3    4.73    9.93   0
  -2   8  17   11.27   10.48   0
   0   2  28 1236.74   20.73   0
   0   4  -7   -2.12    6.76   0
  -3   9  21   -2.32   10.18   0
  -2   7  33   13.81   10.27   0
  -2   8  -1    0.92    9.82   0
  -1   6 -10  556.30   13.66   0
   0   5   7   -1.77    7.89   0
   0   5  10  800.11   15.85   0
  -2   6  40  377.87   13.93   0
  -2   8  20  273.59   12.93   0
   0   5   4 1286.30   18.69   0
   0   5  13   -3.72    7.17   0
  -3   9  -6  258.53   12.65   0
  -3   9  24  259.44   12.85   0
  -2   8  -4  285.04   12.93   0
  -1   5 -18  405.62   13.06   0
  -1   7   7   26.97    9.65   0
  -1   7  10  308.19   12.96   0
   0   3 -12 2480.95   29.72   0
   0   4  26  853.29   16.45   0
   0   5   1   -7.34    7.64   0
   0   5  16  846.70   16.67   0
  -3   8  37   -7.60    9.64   0
  -2   8  23   -8.46   10.16   0
  -1   5  36  638.18   15.63   0
  -1   7   4  341.74   13.09   0
  -1   7  13   -0.33    8.33   0
  -3   7  44  209.55   11.94   0
  -2   8  -7   -4.86    9.34   0
  -1   6 -13   17.49    7.90   0
  -1   7  16  810.80   16.46   0
   0   4 -10  461.99   13.15   0
   0   5  19    5.80    7.42   0
  -3   9  -9   -1.49    9.44   0
  -3   9  27    8.90    9.77   0
  -2   7  36  249.47   12.52   0
  -1   4  40  583.31   15.71   0
  -1   7  19   22.15   10.20   0
  -2   8  26  298.49   12.37   0
  -1   6  32  534.10   15.08   0
   0   2  31    3.20    6.91   0
   0   4  29    2.44    7.79   0
   0   5  22  301.74   12.23   0
  -1   7  22  220.26   12.43   0
   0   5  -5    0.17    7.49   0
  -3   8  40  230.72   12.00   0
  -2   6  43   -3.10    9.56   0
  -2   8 -10  283.18   12.53   0
  -1   7  -5   26.23    8.56   0
  -1   5  39   11.44    8.93   0
  -1   7  25   -0.36   10.21   0
  -2   7  39   -0.16    9.31   0
  -1   6 -16  701.98   15.99   0
  -1   6  35   -3.81    9.73   0
   0   3  33    0.96    7.06   0
  -1   7  -8  812.38   17.04   0
   0   4 -13   -0.21    6.47   0
   0   4  32  577.28   14.76   0
   0   5  -8 1070.86   17.76   0
   0   6   9    3.79    9.18   0
  -2   8 -13   -0.55    8.45   0
  -2   8  32  265.18   13.08   0
   0   5  28  787.63   16.63   0
   0   6   3   -1.93    8.74   0
   0   6  15   -0.03    8.12   0
   1   2   8 3437.50   31.44   0
   1   2  11   29.71    6.30   0
   1   3  10 1280.20   19.01   0
  -2   9  10  240.43   12.31   0
  -2   9  13   -0.05    9.69   0
   0   6  18  307.66   12.57   0
   1   2   5   12.18    5.98   0
   1   2  14 1673.51   22.04   0
   1   3   7   32.49    6.77   0
   1   3  13   14.68    6.56   0
  -2   9   4  272.31   13.10   0
  -2   9  16  270.31   13.20   0
   1   3   4 1377.92   19.43   0
   1   3  16 2277.04   24.33   0
  -2   7  42  151.39   12.65   0
  -2   9   1   -4.81    9.57   0
  -2   9  19    1.88    9.98   0
  -1   6  38  192.61   11.99   0
  -1   7 -11    8.92    8.62   0
   0   2  34  295.15   11.80   0
   0   5 -11    3.21    7.38   0
   0   6  21    0.44    8.15   0
   1   2   2  721.03   15.90   0
  -2   8  35   -6.13   10.38   0
  -1   5  42  320.26   13.09   0
  -1   8   9   24.84    9.88   0
  -1   8  12  285.03   13.13   0
   0   3  36  651.79   15.65   0
   0   4  35    0.39    8.00   0
   0   5  31   -6.36    7.41   0
   0   6  -3   -7.56    8.44   0
   1   3   1   46.38    6.77   0
   1   3  19   20.61    6.74   0
  -1   8  15   -0.05    9.08   0
   1   4   9   39.18    7.45   0
   1   4  12 1288.09   18.56   0
  -2  -4  20  779.74   18.44   0
  -1  -3  29   11.68    8.66   0
  -1  -2  25   12.12    8.00   0
   0  -6  36  305.66   15.56   0
   0  -4  37    0.98   11.62   0
   1  -5  42  243.73   15.54   0
   1  -4  41    6.90    9.99   0
   1  -1  26 1210.49   22.90   0
  -1  -6  29   -1.07   12.40   0
  -1  -5  31    4.91    9.98   0
  -1  -1  18 1232.23   21.53   0
   0  -3  36 1062.74   20.01   0
   0  -2  32  737.26   17.76   0
   1  -7  41  -10.05   12.21   0
   1  -6  43    7.45   12.82   0
   2  -7  45    7.42   11.18   0
   3  -6  48  228.90   14.56   0
   3  -5  47   -0.74   12.45   0
  -2  -5  21   -7.14   10.85   0
  -2  -4  23    3.77   10.50   0
  -1  -4  33   14.77   11.42   0
   0  -1  25    0.69    8.14   0
   2  -5  46   86.78   11.62   0
   2  -3  41    4.72   10.57   0
  -2  -2  18 1190.31   20.33   0
   1  -3  40  570.98   17.27   0
   2  -1  27   -0.99    7.54   0
   4  -6  49    1.31   12.35   0
  -2  -6  16  491.76   16.90   0
  -1  -3  32 1080.50   19.87   0
  -1  -2  28 1593.40   22.92   0
   0  -6  39  -12.16   11.16   0
   2  -4  45   -9.72   11.89   0
  -1  -7  27    1.39   11.16   0
  -1  -5  34  303.56   13.81   0
  -1  -1  21   30.60    8.86   0
   0  -7  37   -1.58   11.91   0
   1  -5  45    3.93   12.82   0
   1  -2  36 1125.40   21.43   0
   3  -4  46  128.16   13.35   0
  -2  -5  24  438.43   15.97   0
   0  -5  41    2.97   10.54   0
   2  -2  37   -2.43    9.63   0
   3  -3  42  322.67   15.23   0
  -2  -6  19   -1.04   10.98   0
  -2  -4  26  441.55   14.59   0
  -2  -3  25    9.70    8.59   0
  -2  -2  21    3.85    8.90   0
   1  -7  44  178.14   13.89   0
  -1  -4  36  417.01   16.17   0
   0  -3  39   15.85    9.32   0
   0  -2  35   -2.83    9.30   0
   1  -6  46  133.83   13.46   0
   1  -1  29    2.82    6.81   0
  -1  -3  35    6.45   10.65   0
  -1  -2  31    3.99    9.46   0
   0  -1  28 1532.41   23.94   0
   2  -5  49    9.31   12.78   0
   3  -6  51    2.03   11.76   0
  -2  -6  22  173.39   13.26   0
  -2  -5  27    7.30   11.10   0
  -1  -5  37    8.16   12.56   0
   0  -6  42  202.86   13.65   0
   1  -3  43   -5.41   11.09   0
   2  -6  50  146.61   14.34   0
   3  -5  50  278.71   16.14   0
  -2  -3  28  508.58   15.92   0
  -2  -2  24 2018.98   25.83   0
  -1  -1  24 1940.87   25.43   0
   0  -4  43   -8.43   11.89   0
   2  -3  44  439.77   15.45   0
  -2  -1  14 1688.49   25.12   0
   0  -5  44  292.97   14.44   0
   2  -4  48  432.81   17.42   0
  -3  -3   9   10.32    8.50   0
  -2  -6  25   -1.59   10.47   0
  -1  -7  33   -2.06   11.75   0
  -1  -4  39    4.13   12.11   0
   1  -2  39    2.59    8.37   0
   2  -1  30  698.58   19.18   0
  -3  -3  12  890.29   19.28   0
  -2  -5  30  103.30   12.74   0
   0  -3  42  445.63   16.07   0
   3  -4  49    0.23   11.75   0
  -3  -4  13   18.39    9.62   0
  -2  -1  17   11.47    8.34   0
  -1  -5  40  292.10   15.23   0
  -1  -3  38  222.13   12.53   0
  -1  -2  34  759.59   16.99   0
   0  -6  45    9.06   12.25   0
   1  -6  49   -8.87   11.07   0
   1  -1  32 2077.94   28.47   0
   2  -2  40 1066.12   22.15   0
  -3  -3  15    8.07    9.13   0
  -2  -3  31   -4.71    9.16   0
  -2  -2  27   -8.10    8.19   0
  -1  -1  27   -4.64    7.52   0
  -2  -6  28  222.19   14.17   0
   2  -5  52  189.59   14.27   0
  -3  -3  18  501.87   15.68   0
  -2  -5  33   -7.88   12.00   0
  -2  -1  20 1575.90   23.44   0
   0  -5  47   10.05   12.05   0
   1  -3  46  202.26   13.92   0
   2  -6  53   -3.15   11.34   0
   3  -5  53    5.79   12.44   0
  -3  -2   5   18.48    7.67   0
  -3  -2   8 2314.80   29.85   0
  -3  -2  11   10.28    8.23   0
  -1  -4  42  235.75   15.12   0
   2  -3  47   -7.65   10.84   0
  -3  -2  14  410.53   14.07   0
  -2  -4  35   -8.64    9.74   0
  -2  -3  34  545.72   16.51   0
  -2  -2  30  260.07   11.97   0
  -1  -6  41   -1.80   11.66   0
  -1  -2  37   12.25   10.40   0
   1  -4  50  268.77   15.32   0
   1  -2  42  426.54   15.63   0
   2  -4  51   15.26   11.97   0
  -3  -4  22  246.92   13.89   0
  -3  -3  21   18.44    8.34   0
  -2  -6  31   -5.27   11.71   0
  -1  -5  43  -21.04   11.59   0
  -1  -3  41    2.06    9.78   0
  -1  -1  30  718.98   16.55   0
   0  -6  48  201.09   14.80   0
   0  -3  45    7.59    9.82   0
  -3  -2  17    5.27    8.67   0
  -2  -1  23    1.74    7.53   0
   2  -1  33    4.52    8.95   0
  -3  -5  20  281.75   15.39   0
  -3  -3  24  766.47   18.25   0
   1  -1  35   -2.97    8.62   0
  -3  -4  25   25.08   10.53   0
  -3  -2  20  706.58   17.03   0
  -2  -4  38  161.06   13.90   0
  -2  -2  33   -3.54   10.27   0
   0  -5  50  124.78   13.30   0
   0  -4  49   -2.20   12.50   0
   2  -2  43   -0.23    9.59   0
  -2  -6  34  209.22   14.16   0
  -2  -3  37   -5.69    9.64   0
  -1  -6  44  196.13   13.81   0
  -1  -4  45    8.29   11.08   0
   1  -3  49   -4.33   11.33   0
   2  -5  55   -0.40   12.73   0
  -3  -5  23   -1.82   10.86   0
  -2  -1  26  583.89   15.17   0
  -1  -3  44  403.70   15.70   0
  -1  -2  40  581.99   16.75   0
  -1  -1  33    3.54    9.56   0
   1  -5  54   93.70   13.20   0
  -3  -4  28  505.74   16.76   0
  -3  -3  27   -1.95    8.85   0
   1  -4  53  -10.00   12.41   0
   2  -3  50  254.37   14.57   0
  -3  -5  26  271.76   15.33   0
   0  -1  37    6.49    9.22   0
   1  -2  45    0.80    8.85   0
   2  -4  54   80.55   12.86   0
  -2  -6  37    7.53   10.71   0
  -2  -4  41   -1.07   11.64   0
  -2  -2  36  472.12   14.49   0
  -2  -1  29    5.54    9.47   0
  -3  -3  30  245.32   13.65   0
  -2  -3  40  622.49   16.50   0
  -1  -4  48  351.55   15.72   0
  -1   0  20 1562.70   24.24   0
   1  -1  38  330.49   13.66   0
  -3  -5  29    5.43   12.52   0
  -3  -4  31    6.94    9.83   0
  -1  -1  36 1127.29   20.46   0
   0  -5  53    7.71   10.68   0
   2  -1  36 1088.12   22.88   0
  -3  -1  10 1188.54   21.59   0
  -3  -1  13   15.55    7.91   0
  -1  -5  49   -6.42   11.84   0
  -1  -3  47   -1.13   12.35   0
  -1  -2  43   -1.48    9.55   0
   1  -3  52  430.20   17.10   0
   2  -2  46  406.05   15.62   0
  -3  -2  29    3.83    9.92   0
  -2  -1  32 1432.52   21.94   0
  -1   0  23    2.32    6.83   0
   1  -5  57    1.94   12.50   0
   2  -5  58  187.96   14.13   0
  -3  -4  34  227.24   13.68   0
  -3  -1   7   28.12    7.67   0
  -2  -4  44  312.81   15.17   0
  -2  -3  43  -18.73   11.81   0
  -2  -2  39    5.56    9.17   0
   0  -3  51   -1.47   10.48   0
   0  -2  47   -1.58   10.54   0
   0  -1  40  930.33   19.54   0
  -3  -5  32  298.55   14.89   0
   1  -4  56  217.54   14.95   0
   1  -2  48  476.40   16.49   0
   2  -3  53   -1.78   11.57   0
  -3  -2  32  860.70   18.39   0
  -3  -1  22  395.54   12.90   0
  -1  -4  51    9.00   11.72   0
  -1  -1  39    0.40    9.34   0
   0   0  27   -0.53    6.41   0
   2  -4  57    7.29   11.17   0
  -2  -5  45  -13.94   11.78   0
  -2  -1  35   -7.25    9.90   0
  -2   0  13   -0.60    7.48   0
  -2   0  16 3125.36   33.11   0
  -1  -2  46  176.89   12.89   0
  -1   0  26 1268.60   21.00   0
   1  -1  41   -4.18    9.09   0
  -3  -5  35    8.64   11.71   0
  -3  -4  37    8.58   11.69   0
  -3  -1  25    3.04    9.17   0
  -2  -2  42  568.87   16.60   0
  -1  -3  50  264.89   13.53   0
  -2  -4  47   13.86   11.40   0
  -2  -3  46  101.32   12.70   0
  -2   0  19    2.38    6.81   0
   2  -1  39   -1.85    8.85   0
  -3  -2  35    1.33    9.21   0
  -2   0  22 2155.69   26.71   0
  -1   0  29   -5.49    8.53   0
   0  -3  54  144.93   13.50   0
   0  -1  43    2.94    9.75   0
   0   0  30  177.44   11.18   0
   1  -3  55  -10.44   11.85   0
   2  -2  49    2.25   11.15   0
  -4  -3  17   13.16    9.35   0
  -4  -3  20  555.17   16.32   0
  -3  -3  39   10.56   11.42   0
  -3  -1  28  819.68   16.99   0
  -1  -1  42  416.45   14.99   0
   0  -2  50  273.52   13.04   0
  -3  -5  38   73.66   11.32   0
  -3  -4  40  226.52   14.27   0
  -2  -1  38  433.73   14.01   0
  -2   0  25   -6.35    8.47   0
  -1  -4  54  113.91   12.73   0
   1  -4  59   -4.54   11.23   0
   1  -2  51   -1.02   10.50   0
   1   0  28 1479.95   26.08   0
  -4  -3  23    7.20    9.74   0
  -3  -1  31   28.06    9.91   0
  -2  -2  45   -2.20   10.78   0
  -1  -2  49    2.40   11.61   0
  -4  -3  26  213.26   12.92   0
  -4  -2  13    4.58    8.11   0
  -4  -2  16  854.02   18.55   0
  -4  -2  19    5.16    8.96   0
  -3  -2  38  131.96   10.96   0
  -2  -4  50  181.75   13.68   0
  -2  -3  49    3.36   12.18   0
  -1  -3  53   10.35   10.52   0
  -1   0  32 2014.79   25.87   0
   0  -4  58  110.14   13.43   0
   1  -1  44  555.59   16.68   0
  -4  -2  10  419.19   14.89   0
  -4  -2  22  436.13   14.64   0
  -3  -3  42  226.07   13.78   0
  -2   0  28 1248.38   20.12   0
   0   0  33   -3.16    8.02   0
  -4  -4  27   12.53   11.61   0
  -4  -2  25    4.88    9.78   0
  -2  -1  41    1.38   10.73   0
   0  -1  46  160.13   12.48   0
  -4  -3  29    4.95    9.34   0
  -3  -2  41   -6.49   11.22   0
  -3  -1  34  654.06   15.94   0
   0  -3  57    0.90   11.88   0
   0  -2  53    6.23   11.08   0
   1  -3  58  166.25   13.77   0
   1   0  31   -1.49    8.29   0
  -4  -2  28  595.74   16.70   0
  -2  -2  48  426.97   16.08   0
  -2   0  31    2.89    7.64   0
  -1  -4  57    3.05   11.37   0
  -4  -3  32  388.89   14.95   0
  -3  -3  45    5.85   11.06   0
   1  -2  54  186.71   13.93   0
  -3  -1  37   -2.93    8.95   0
  -2  -4  53   12.87   10.79   0
  -2  -3  52  220.69   13.39   0
   0   0  36  708.62   16.48   0
  -4  -4  33    7.70   10.28   0
  -4  -2  31    2.78    8.69   0
  -3  -2  44  334.24   15.27   0
  -3   0  18  557.29   14.45   0
  -3   0  21    5.55    7.20   0
  -2  -1  44  461.15   14.64   0
  -2   0  34  310.54   12.86   0
   1  -1  47   -6.38    9.80   0
  -4  -3  35   -7.72   10.95   0
  -4  -1  15    8.56    8.15   0
  -4  -1  18  852.44   18.03   0
  -4  -1  21    9.39    9.06   0
  -3   0  24 1783.76   23.35   0
   0  -1  49    3.24   10.24   0
  -4  -2  34  262.48   13.48   0
  -4  -1  24  797.73   17.52   0
  -3  -1  40  591.96   16.75   0
  -3   0  27    6.43    8.90   0
  -2  -2  51    1.98   11.48   0
   1   0  34 1108.61   21.82   0
  -4  -4  36  201.37   12.85   0
  -4  -1  12 1261.73   21.56   0
  -3  -3  48  237.39   13.33   0
  -1  -2  55   24.37   11.99   0
   0  -3  60  262.74   15.29   0
   0  -2  56  157.18   13.88   0
  -3   0  30  714.70   16.66   0
  -2  -3  55    1.57   11.52   0
  -2  -1  47    4.69   10.24   0
  -2   0  37    5.92    8.13   0
   0   0  39    0.75    7.37   0
   1  -3  61   -0.18   10.66   0
  -3  -2  47    6.10    9.80   0
  -3   0   9   -0.57    5.90   0
  -4  -4  39   -1.09   10.22   0
  -4  -1   9   30.29    8.01   0
  -3  -1  43    2.56   10.61   0
  -1   0  41    4.03    7.94   0
   1  -2  57    4.11   11.10   0
  -4  -3  41   -4.32   11.08   0
  -3  -3  51    5.50   11.45   0
  -3   0  33    5.05    8.18   0
  -2  -2  54   70.43   12.16   0
  -2   0  40 1035.78   19.52   0
  -1  -1  51   -6.20    9.33   0
   1  -1  50  404.72   15.53   0
   1   0  37    4.29    8.05   0
   0  -1  52  448.43   16.14   0
  -3  -2  50  302.78   14.70   0
  -2  -1  50  262.30   14.01   0
   0  -2  59    1.84   11.87   0
   0   0  42 1000.06   19.30   0
  -3  -1  46  110.62   12.29   0
  -2  -3  58  188.79   13.69   0
  -1  -2  58  150.89   12.98   0
  -1   0  44  543.07   16.00   0
  -4  -3  44  228.81   12.98   0
  -4  -2  43    0.35   10.69   0
  -2   0  43   -2.78    9.47   0
  -4  -1  39   14.44   10.76   0
  -3   0  39   -2.63   10.14   0
  -1  -1  54  192.51   13.42   0
   1   0  40  918.30   20.52   0
  -2  -2  57    4.53   11.46   0
   1  -1  53   -6.51   11.17   0
  -4   0  17   -1.11    7.97   0
  -4   0  26  826.72   16.74   0
  -3  -2  53    0.09   11.50   0
  -3  -1  49   -3.73   11.07   0
  -2  -1  53    6.01   11.59   0
   0  -1  55  -10.64   10.46   0
   0   0  45    8.59    9.12   0
  -5  -2  18  216.75   12.71   0
  -5  -2  21   -1.84    9.25   0
  -5  -2  24  573.89   16.43   0
  -5  -2  27    0.79    9.97   0
  -4  -2  46  163.39   12.85   0
  -4  -1  42  303.56   13.88   0
  -4   0  29    7.09    8.04   0
  -2   0  46  376.44   14.63   0
  -1   0  47    2.84   10.11   0
  -5  -2  30  266.62   13.77   0
  -4   0  14  355.82   13.10   0
  -4   0  32  603.85   16.04   0
  -3   0  42  308.24   12.82   0
  -2   1  21   38.83    7.30   0
  -2   1  24 1950.81   24.71   0
  -1  -2  61    5.99   11.73   0
  -1   1  22  487.84   14.60   0
   0  -2  62  120.86   12.99   0
  -5  -3  31   -0.08   10.37   0
  -2   1  18 1252.52   21.02   0
  -2   1  27   -2.98    7.05   0
  -1   1  19    1.75    7.03   0
  -5  -3  34  188.78   13.11   0
  -5  -2  33    6.53   10.58   0
  -4   0  35   -3.08    8.58   0
  -2   1  30  704.47   15.77   0
  -1  -1  57    5.12   10.87   0
   1   0  43   -4.44    8.92   0
  -5  -1  23    7.58    8.71   0
  -5  -1  26  296.03   13.28   0
  -4  -2  49    2.24   11.61   0
  -4  -1  45   -3.82    9.44   0
  -4   0  11    3.85    7.25   0
  -3  -2  56  189.89   13.78   0
  -3  -1  52  332.63   14.22   0
  -3   0  45   -5.95   10.14   0
   0   0  48  629.33   17.26   0
  -5  -3  37   -3.14   11.20   0
  -5  -2  36  225.03   13.35   0
  -5  -1  20  595.63   15.97   0
  -5  -1  29    7.97   10.33   0
  -4   0  38  161.83   12.12   0
  -2   1  15   11.04    6.39   0
  -2   1  33    9.48    7.71   0
  -1   0  50  431.95   15.36   0
   0  -1  58  256.16   14.38   0
  -5  -1  17    2.98    8.43   0
  -5  -1  32  533.35   15.69   0
  -3   1  20 1609.54   22.70   0
  -3   1  23    3.53    7.14   0
  -3   1  26  618.91   14.66   0
  -3   1  29   19.01    9.05   0
  -1   1  34 1080.25   19.64   0
  -5  -2  39    4.73   10.13   0
  -4  -1  48  216.45   13.50   0
  -2   1  36 1119.80   19.03   0
  -1  -2  64  114.77   11.96   0
  -5  -1  14  482.66   14.90   0
  -5  -1  35    2.56    8.64   0
  -4   0  41    6.94    9.02   0
  -3  -1  55  -12.46   11.11   0
  -3   0  48  490.98   15.03   0
  -3   1  17   10.52    7.96   0
  -3   1  32 1395.49   20.74   0
  -4   0   8 1638.87   24.48   0
  -3   1  35   -1.90    9.08   0
  -2  -1  59   -8.76   11.94   0
  -1  -1  60  257.95   13.95   0
  -1   1  37    1.30    7.19   0
   0  -2  65    4.34   10.88   0
   0   0  51   -5.01   10.93   0
   0   1  26 1274.81   22.67   0
  -5  -2  42  145.19   12.65   0
  -1   0  53   -1.03   10.31   0
   0   1  29   -0.05    7.45   0
  -4  -1  51   -5.13   10.98   0
  -4   0  44  574.19   15.64   0
  -3   1  14 1691.36   23.73   0
  -3   1  38  450.88   14.55   0
  -5   0  25   -7.80    8.94   0
  -1   1  40  933.23   18.08   0
   0  -1  61    5.75   11.32   0
   0   1  32 1970.47   27.12   0
  -5  -2  45   13.89   11.14   0
  -5   0  22  307.67   11.81   0
  -5   0  31    0.91    9.91   0
  -4   1  25    8.22    8.85   0
  -4   1  28  852.91   17.53   0
  -3  -1  58  175.20   12.96   0
  -5   0  19    0.16    8.49   0
  -4   0  47    2.27    9.55   0
  -4   1  22  401.65   13.44   0
  -4   1  31   12.82    9.72   0
  -3   1  41    0.57    8.64   0
  -2   0  55    0.89   10.78   0
   0   1  35    2.72    7.72   0
  -2  -1  62   85.28   11.84   0
  -1  -1  63   10.69   10.81   0
  -1   0  56  313.18   14.83   0
  -1   1  43    1.20    8.80   0
   0   0  54   48.27   11.08   0
  -5   0  16  816.31   17.48   0
  -4   1  19   27.87    7.43   0
  -3   0  54  156.28   12.64   0
  -3   1  11   28.98    7.53   0
  -2   1  45   -6.22    8.37   0
  -5   0  40  293.26   14.32   0
  -4   0   5    6.46    6.33   0
  -4   0  50  232.88   13.62   0
  -4   1  37    4.93    8.63   0
  -3   1  44  421.86   13.89   0
   0   1  38  313.84   12.82   0
  -3  -1  61    0.09   10.56   0
  -4  -1  57   12.14   11.43   0
  -4   1  40  605.56   15.40   0
  -2   0  58  132.23   12.39   0
  -2   1  48  468.42   15.46   0
  -1   1  46  156.31   11.61   0
  -5   0  13    0.19    7.64   0
  -5   0  43    2.31    9.02   0
  -3   1  47    4.02    8.89   0
   0   1  41   -0.64    8.53   0
  -5  -1  50  148.67   12.50   0
  -4   0  53   10.83   10.87   0
  -4   1  43    1.99   10.74   0
  -1   0  59   -5.63   10.17   0
   0   0  57   -4.62   10.54   0
  -5   0  46  153.92   12.44   0
  -4   1  13   15.32    7.56   0
  -6  -1  25   -5.07    9.04   0
  -6  -1  28  232.06   12.56   0
  -6  -1  31    5.13   10.22   0
  -6  -1  34  244.71   13.45   0
  -5   1  30  219.04   11.90   0
  -3   1  50  225.85   13.09   0
  -2   1  51    4.44   10.57   0
  -1   1  49    4.67    9.56   0
  -5   1  33    1.12    8.53   0
  -4   1  46  138.12   10.97   0
  -2   0  61   -6.02   11.09   0
   0   1  44  559.94   15.90   0
  -6  -1  37    2.51   10.69   0
  -5   0  49    5.97   10.68   0
  -5   1  36  656.21   15.63   0
  -4   0  56  141.93   12.45   0
  -6  -1  40  306.71   13.41   0
  -5   1  21    9.33    7.56   0
  -5   1  39   -6.35   10.56   0
  -6   0  30  200.73   12.53   0
  -4   1  10 1178.32   20.17   0
  -4   1  49    6.30    9.84   0
  -2   1  54  183.43   13.21   0
  -1   0  62   85.99   11.27   0
  -1   1  52  481.55   15.68   0
  -6  -1  43    8.60    9.66   0
  -6   0  24  759.65   17.39   0
  -6   0  27   -3.74    8.46   0
  -6   0  33    3.70    8.91   0
  -6   0  36  229.95   13.13   0
  -5   0  52  261.76   13.77   0
  -5   1  18  831.95   17.22   0
  -5   1  42  323.73   14.39   0
  -3   2  28 1587.16   21.54   0
  -3   2  31   12.57    7.49   0
  -3   2  34  734.60   16.59   0
   0   1  47   -0.22    8.64   0
  -4   0  59    1.01   10.48   0
  -3   2  25   10.60    7.27   0
  -3   2  37    2.93    9.40   0
  -2   2  29    0.99    7.84   0
  -6   0  21    4.24    8.74   0
  -6   0  39    1.50   11.11   0
  -5   1  45  -10.46   10.66   0
  -4   1  52  307.58   14.61   0
  -3   0  63    4.25   11.15   0
  -2   0  64  221.55   12.99   0
  -2   2  26 1376.78   20.68   0
  -5   0   7    0.97    7.78   0
  -5   1  15    7.10    7.88   0
  -4   2  27    4.87    8.50   0
  -4   2  30  236.50   10.95   0
  -4   2  33    4.63    7.95   0
  -3   1  56  323.25   14.40   0
  -3   2  22  530.73   13.69   0
  -3   2  40  558.17   15.42   0
  -2   2  38  308.65   12.36   0
   1   1  30  642.61   17.79   0
   1   1  33    9.52    7.54   0
  -5   0  55   -1.26   10.24   0
  -4   2  24 2122.99   24.83   0
  -4   2  36  491.82   13.88   0
  -2   1  57   -4.25   10.32   0
  -2   2  23    5.49    6.48   0
  -1   1  55    0.97    9.59   0
  -6   0  18  303.50   12.83   0
  -6   0  45    2.26   10.88   0
  -5   1  48  225.09   12.23   0
  -4   1  55    9.61   11.17   0
  -4   2  39   -0.99    8.66   0
  -3   2  19    6.80    7.26   0
  -2   2  41    8.74    9.06   0
  -4   2  21   -3.49    8.14   0
  -6   1  29    0.86    9.60   0
  -6   1  32  544.67   15.58   0
  -6   1  35    1.90   10.58   0
  -5   1  51   -2.09   11.13   0
  -4   1   7   35.08    6.36   0
  -3   1  59   14.00   11.51   0
  -2   2  20 3678.53   33.13   0
  -2   2  44  967.15   18.98   0
  -6   0  15   -6.05    8.76   0
  -6   1  26  297.85   12.61   0
  -5   1  12 1244.06   20.34   0
  -4   2  45    2.58   10.46   0
  -1   2  30  685.91   16.18   0
  -1   2  33    9.24    7.92   0
  -6   1  23    0.87    9.14   0
  -5   2  29   -6.52    9.34   0
  -5   2  32  905.36   17.34   0
  -5   2  35   -7.39   10.31   0
  -4   1  58  173.99   12.87   0
  -4   2  18 1187.37   19.31   0
  -3   2  16 2147.06   25.47   0
  -2   1  60  264.98   13.24   0
  -1   1  58  250.98   13.77   0
  -1   2  27    1.45    7.02   0
  -1   2  36 1092.07   19.91   0
  -5   2  26  760.05   15.94   0
  -5   2  38  142.55   10.49   0
  -3   2  49   -7.47   10.02   0
  -2   2  47    9.37    9.75   0
  -1   2  39    2.50    8.13   0
  -6   1  44  220.44   13.12   0
  -5   1  54  106.10   11.29   0
  -5   2  41   -2.09   10.40   0
  -2   2  17    2.63    6.01   0
  -6   1  20  627.02   15.78   0
  -5   2  23    8.51    7.69   0
  -3   1  62   90.64   11.47   0
  -1   2  42  431.71   14.23   0
  -6   1  47    0.60   10.12   0
  -5   2  44  349.83   13.33   0
  -4   2  15    5.64    7.40   0
  -3   2  52  452.41   15.45   0
  -2   2  50  280.68   13.32   0
  -5   1   9   31.87    8.16   0
  -5   1  57    4.99   10.29   0
  -4   2  51   -5.41    9.14   0
  -2   1  63    1.06   10.15   0
  -6   1  17   12.13    7.97   0
  -5   2  47   13.76    9.17   0
  -3   2  13   38.15    7.03   0
  -1   2  45   -2.38    8.93   0
  -7   0  35   -0.90    9.98   0
  -6   1  50  137.72   11.32   0
  -7   0  29    7.62    8.89   0
  -7   0  38   62.12   10.09   0
  -5   2  50  278.07   13.80   0
  -3   2  55    3.06   10.96   0
  -2   2  14  352.10   12.03   0
  -2   2  53  -14.30   10.42   0
  -6   2  37    8.26    8.93   0
  -6   2  40  362.42   14.68   0
  -1   2  48  456.70   15.01   0
  -6   1  14  495.40   14.45   0
  -6   2  25    4.82    7.90   0
  -6   2  43    2.45   10.02   0
  -5   2  53    7.21   11.12   0
  -7   1  31    9.68    9.49   0
  -7   1  34  237.81   12.99   0
  -7   1  37    7.74    9.96   0
  -6   2  46  169.62   12.36   0
  -2   2  56  156.51   12.49   0
  -1   2  51    5.48    9.60   0
  -7   1  28  214.98   12.11   0
  -7   1  40  323.93   14.00   0
  -6   2  22  452.59   13.26   0
  -5   1   6  422.79   13.48   0
  -5   2  14  431.29   12.53   0
  -4   3  32 1116.67   18.63   0
  -4   3  35    6.16    8.39   0
  -4   3  38  233.87   11.54   0
  -3   2  10 2091.61   25.95   0
  -7   1  43    0.09    9.67   0
  -6   2  49   -1.05   10.31   0
  -5   2  56  173.74   12.52   0
  -4   3  29    3.48    7.96   0
  -4   3  41    8.47    8.70   0
  -3   3  30  382.56   13.20   0
  -3   3  33    0.25    7.72   0
  -7   1  25   -9.86    9.61   0
  -5   3  37    1.64    9.67   0
  -4   2  60  185.64   12.43   0
  -4   3  26  772.61   15.88   0
  -4   3  44  387.27   14.46   0
  -3   3  42  445.54   14.54   0
   0   2  34  319.18   12.74   0
   0   2  37    2.34    7.28   0
  -6   1  11   17.91    7.88   0
  -6   2  19   -0.05    7.43   0
  -5   3  31    2.63    8.49   0
  -5   3  40  642.16   15.75   0
  -3   2  61    4.73   10.05   0
  -3   3  27    8.18    7.01   0
  -2   2  11    1.54    6.91   0
  -2   2  59    3.79    9.88   0
   0   2  31   -1.10    7.01   0
   0   2  40 1028.79   20.69   0
  -7   1  22  218.53   12.14   0
  -5   3  28  492.57   13.62   0
  -5   3  43    4.78    8.94   0
  -4   3  23   24.46    8.47   0
  -3   3  45   -6.65   10.01   0
  -5   2  11   12.12    7.64   0
  -5   3  25    3.87    8.54   0
  -5   3  46   96.23   12.15   0
  -3   3  24 1240.11   19.82   0
   0   2  28 1177.01   21.53   0
  -7   2  33   -3.54   10.38   0
  -7   2  36  244.74   12.63   0
  -7   2  39    2.76   11.18   0
  -3   3  48  283.99   13.99   0
  -2   3  37    7.84    8.85   0
  -7   2  30  237.48   12.67   0
  -7   2  42  144.33   11.95   0
  -6   2  16  863.80   16.82   0
  -5   3  49    3.23   10.48   0
  -4   3  20  984.56   17.76   0
  -2   3  31    9.37    8.17   0
  -2   3  40  584.22   15.86   0
  -7   2  27   -3.29   10.00   0
  -6   3  30  275.94   12.90   0
  -6   3  33    4.91    8.74   0
  -6   3  36  436.97   13.78   0
  -6   3  39    4.63    9.49   0
  -5   3  22  354.91   12.13   0
  -3   3  21    6.63    7.47   0
  -3   3  51   -3.14   10.56   0
  -2   2  62  114.71   11.25   0
  -2   3  43    3.50    9.12   0
   0   2  25    0.77    7.07   0
  -6   3  42  251.36   12.32   0
  -4   3  53    8.23   11.08   0
  -7   2  24  615.43   16.01   0
  -6   3  27   -6.07    8.32   0
  -6   3  45   -1.41    9.98   0
  -5   3  52  209.77   12.43   0
  -3   2   7    2.76    5.84   0
  -2   3  46  179.58   11.60   0
  -6   3  48  262.57   13.83   0
  -5   1   3    0.33    6.46   0
  -5   3  19   12.78    7.51   0
  -3   3  54  165.85   12.69   0
  -6   2  13    4.73    7.13   0
  -5   3  55   -4.99   10.50   0
  -4   3  17    3.54    6.81   0
  -4   3  56  205.68   13.23   0
  -2   3  49    7.16    9.70   0
  -7   2  21    2.45    8.98   0
  -6   3  51    4.28   10.97   0
  -5   2   8 2313.73   26.96   0
  -4   2   6  855.60   17.49   0
  -3   3  18 1433.17   20.45   0
  -5   3  16 1985.11   24.03   0
  -4   3  59    6.15   11.08   0
  -3   3  57   11.23    9.98   0
  -2   3  52  451.99   15.44   0
  -7   3  32  385.56   14.78   0
  -7   3  41   -2.80   10.80   0
  -7   2  18  225.47   11.86   0
  -7   3  29    4.74   10.75   0
  -7   3  44  221.62   12.75   0
  -4   3  14  774.90   15.61   0
  -7   3  47    1.98   10.29   0
  -6   2  10  434.41   13.65   0
  -6   3  18  505.22   14.47   0
  -3   3  15   -2.68    6.49   0
  -2   3  55    0.52   11.28   0
  -5   4  33    3.17    9.79   0
  -5   4  36  438.62   13.92   0
  -5   4  39   14.79    8.85   0
  -5   4  42  264.30   13.51   0
  -4   4  37    2.83    9.44   0
  -3   3  60  270.66   14.23   0
  -1   3  35   -1.82    7.69   0
  -1   3  38  422.88   14.05   0
  -1   3  41   -0.19    8.24   0
  -8   2  35    2.09    9.28   0
  -5   4  30  401.06   13.79   0
  -5   4  45    2.24   10.69   0
  -4   4  34  343.07   12.38   0
  -2   3  19    1.96    6.31   0
  -1   3  32 1388.17   22.00   0
  -1   3  44  448.42   15.31   0
  -8   2  32  279.88   13.26   0
  -6   4  38  152.74   13.03   0
  -4   4  31    1.26    8.11   0
  -4   4  46  211.99   13.40   0
  -8   2  29    1.97    9.35   0
  -7   3  23    5.47    8.33   0
  -6   4  32  490.40   14.99   0
  -6   4  35   -0.13    9.12   0
  -6   4  41    0.22    9.41   0
  -6   4  44  346.63   14.74   0
  -5   2   5   12.58    7.38   0
  -5   4  27   -1.30    9.50   0
  -5   4  48  365.36   15.08   0
  -3   2   4 2960.62   31.83   0
  -1   3  29    8.93    7.49   0
  -6   3  15   -2.14    7.17   0
  -4   3  11   39.50    8.44   0
  -4   4  49   -9.90   10.54   0
  -8   2  26  274.49   12.66   0
  -6   4  29    3.70    8.79   0
  -6   4  47    3.47   10.07   0
  -5   4  24 1150.74   19.13   0
  -4   2   3    2.03    6.58   0
  -4   4  25    2.63    8.88   0
  -3   4  35    6.97    9.24   0
  -3   4  38  242.99   11.48   0
  -3   4  41    1.51    9.40   0
  -7   3  20  589.80   15.75   0
  -6   4  26  498.83   14.93   0
  -6   4  50  170.02   12.29   0
  -4   4  52  244.74   13.29   0
  -3   3  12 2675.38   27.87   0
  -3   4  44  418.00   14.88   0
  -1   3  26  598.22   15.45   0
  -8   3  37   11.91   10.55   0
  -6   2   7    5.68    7.68   0
  -3   4  47   -0.62   10.46   0
  -2   3  16 2146.31   25.44   0
  -8   3  34  226.36   12.42   0
  -7   2  12  478.52   14.72   0
  -7   4  34  247.80   13.68   0
  -7   4  37    5.36   10.50   0
  -7   4  40  225.34   13.02   0
  -6   4  53    2.90   11.25   0
  -5   4  21    0.11    8.66   0
  -4   4  22  843.92   16.97   0
  -7   4  43   -3.52    9.94   0
  -6   4  23    0.78    8.27   0
  -4  -4  15    8.13    9.81   0
  -3  -3  30  263.89   11.47   0
  -3  -2  26  773.40   15.74   0
  -2  -5  39    5.00    9.55   0
  -2  -1  26  595.72   14.39   0
  -1  -2  37   -3.53    7.38   0
  -4  -5  10  173.07   11.82   0
  -4  -3  17   18.67    9.67   0
  -4  -2   4  996.05   18.40   0
  -4  -2   7   -2.83    7.94   0
   0  -1  31    1.67    7.26   0
   1  -2  39    0.64    7.65   0
  -4  -5  13    5.18    9.82   0
  -4  -4  18  279.12   13.28   0
  -4  -2   1    2.54    7.17   0
  -4  -2  10  420.06   13.49   0
  -3  -5  32  312.75   13.57   0
  -3  -1  19   34.01    8.20   0
  -1  -4  45    9.71   10.30   0
   1  -5  51   -1.72   10.27   0
  -4  -2  13   -6.52    8.40   0
  -2  -4  41    0.51   10.34   0
  -1  -5  46   93.41   10.80   0
   0  -3  45   -4.14    8.79   0
  -4  -5  16  458.66   14.82   0
  -4  -4  21    5.29    9.89   0
  -4  -2  -2  631.17   15.72   0
  -3  -4  34  244.39   11.85   0
  -3  -3  33    8.88   10.22   0
  -3  -2  29    0.27    7.82   0
   0  -5  50  134.75   12.15   0
  -3  -1  22  404.60   12.62   0
  -2  -5  42  231.33   12.33   0
  -2  -3  40  610.49   16.10   0
  -2  -2  36  467.61   13.44   0
  -2  -1  29    6.98    8.30   0
  -1  -3  44  419.31   14.45   0
   1  -3  46  188.55   11.68   0
  -4  -5  19   10.11   10.29   0
  -3  -5  35   -9.54   10.00   0
  -1  -2  40  590.42   15.60   0
   0  -4  49    2.74   10.65   0
   0  -2  41    2.70    8.47   0
  -2   0  13    3.11    6.75   0
  -1  -1  33    3.54    7.91   0
  -4  -5  22  138.97   11.19   0
  -3  -4  37    3.39   10.47   0
  -3  -2  32  904.31   17.53   0
  -4  -3  26  229.67   12.20   0
  -4  -2  22  446.93   13.40   0
  -3  -3  36  403.11   13.22   0
  -3  -1  25   -4.67    7.13   0
  -2  -4  44  310.66   13.51   0
  -1  -5  49   -1.72    9.78   0
  -1  -4  48  339.41   13.94   0
   0  -1  34 1157.45   20.45   0
  -2  -5  45    3.49   10.36   0
  -2  -1  32 1460.64   20.75   0
  -2   0  16 3178.74   30.89   0
   1  -1  32 1903.55   28.26   0
  -4  -5  25    8.65    9.11   0
  -3  -5  38   87.98   11.58   0
   0  -3  48  286.99   13.22   0
  -4  -3  29    8.60    9.82   0
  -4  -2  25   -3.80    9.09   0
  -4  -1   6  417.04   12.91   0
  -4  -1   9   35.27    6.99   0
  -1  -3  47    7.94   10.22   0
   0  -5  53   -9.48    9.39   0
  -4  -5  28  138.91   11.88   0
  -4  -4  30  143.69   11.39   0
  -4  -1   3    5.39    6.84   0
  -3  -4  40  248.56   13.15   0
  -3  -3  39   -4.67    9.98   0
  -3  -2  35    1.64    8.24   0
  -3  -1  28  841.48   15.90   0
  -2   0  19   -4.61    5.97   0
  -1  -2  43   12.45    9.13   0
  -1  -1  36 1064.44   18.32   0
   0  -4  52  220.77   12.86   0
   0  -2  44  962.55   19.02   0
  -4  -2  28  548.71   14.72   0
  -4  -1  18  840.02   15.68   0
  -4  -4  33   15.11   10.24   0
  -4  -3  32  388.46   13.10   0
  -4  -1   0 1544.11   22.74   0
  -3  -1  31   26.90    8.99   0
  -3   0   9   -0.58    6.63   0
  -2   0  22 2112.04   24.52   0
  -1  -4  51    0.29    9.69   0
  -4  -1  21   13.26    7.52   0
  -3  -2  38  154.42   11.20   0
  -3   0  12 2041.37   24.14   0
  -2  -3  46   87.63    9.68   0
   0  -1  37   -4.12    7.37   0
  -5  -3  10  300.21   12.75   0
  -5  -3  13   -3.09    9.57   0
  -4  -2  31   -4.27    9.53   0
  -3  -4  43    0.82   10.42   0
  -3  -3  42  220.09   12.59   0
  -3   0  15   -2.63    6.06   0
  -5  -4  11   -5.61   10.20   0
  -5  -3   7   10.24    8.79   0
  -5  -3  16  545.98   15.06   0
  -4  -1  24  821.38   16.17   0
  -3   0   3   -3.11    5.97   0
  -3   0  18  583.15   14.10   0
  -1  -3  50  272.83   13.51   0
   0  -3  51   -9.95   10.54   0
  -5  -4  14  111.11   10.48   0
  -5  -3  19    4.96    9.91   0
  -4  -4  36  209.81   11.87   0
  -4  -3  35   -7.84    9.10   0
  -4  -1  -3   33.33    7.46   0
  -2   0  25    0.73    6.13   0
  -1  -2  46  184.45   11.72   0
  -1  -1  39    6.83    8.14   0
   1  -1  35    0.17    6.60   0
  -5  -4  17   15.83    9.82   0
  -5  -2   9    0.52    8.25   0
  -5  -2  12  510.63   14.39   0
  -3  -1  34  673.02   14.79   0
  -3   0  21   -5.88    7.24   0
  -2  -4  50  161.10   11.81   0
  -5  -3  22  157.13   11.36   0
  -5  -2   6  496.95   14.29   0
  -5  -2  15    7.81    7.61   0
  -4  -2  34  241.88   12.49   0
  -4  -1  27    9.51    7.62   0
  -3  -2  41   -5.67    9.71   0
  -2  -2  45   -2.48    9.65   0
   0  -2  47    2.53    8.72   0
  -5  -2  18  234.57   10.80   0
  -4  -3  38  221.05   12.83   0
  -3  -4  46   95.85   10.99   0
  -3  -3  45   -2.13   10.55   0
  -2  -3  49   18.07   10.35   0
  -1  -4  54   94.66   11.72   0
  -5  -4  23    4.71   10.15   0
  -5  -3  25   10.29    9.39   0
  -5  -2   3    8.37    8.19   0
  -5  -2  21   -2.46    9.20   0
  -4  -4  39    6.66    9.76   0
  -3   0  24 1889.93   22.27   0
  -2   0  28 1219.18   18.65   0
  -4  -1  30  235.33   11.62   0
  -3  -1  37    4.66    8.50   0
  -1   0  29    1.42    6.92   0
   0  -1  40  903.55   18.44   0
  -4  -2  37   -3.32    9.97   0
  -4  -1  -6  841.90   19.03   0
  -2  -1  41    8.95    8.73   0
  -3  -2  44  363.60   13.31   0
  -3   0  27    2.31    6.85   0
  -1  -3  53   -0.16    9.42   0
  -1  -2  49    6.90    9.32   0
  -1  -1  42  413.91   13.70   0
  -5  -4  29   -3.14    9.90   0
  -5  -1  11   10.08    8.21   0
  -5  -1  14  509.98   13.94   0
  -4  -3  41   -7.96    9.61   0
  -4  -1  33   -2.15    9.44   0
  -4   0  14  361.96   11.30   0
  -4   0  17    0.58    7.63   0
  -2  -4  53    1.35    8.89   0
  -2  -2  48  439.63   15.00   0
  -5  -1   8  943.60   17.53   0
  -5  -1  17   14.25    8.53   0
  -4   0   8 1659.35   22.08   0
  -2  -3  52  210.69   12.73   0
   0   0  27   -0.06    6.60   0
  -4  -2  40  370.80   13.94   0
  -4   0  20 1429.87   19.54   0
  -3  -1  40  626.30   14.81   0
  -3   0  30  700.15   15.24   0
  -1   0  32 2002.81   24.92   0
  -5  -2  30  252.54   11.31   0
  -5  -1   5    0.95    7.40   0
  -4   0   5   -0.99    6.45   0
  -4   0  23    0.96    7.92   0
  -1  -4  57    0.04    8.84   0
  -5  -3  34  190.24   11.57   0
  -4  -3  44  196.54   11.88   0
  -4  -1  36  659.70   15.65   0
  -2  -1  44  447.16   14.28   0
  -5  -2  33    1.29   10.07   0
  -5  -1  26  311.48   12.23   0
  -4   0  26  885.16   16.67   0
   0  -1  43   -5.20    7.65   0
  -5  -1   2  389.05   12.60   0
  -4  -2  43    2.82   10.25   0
  -4   0   2 1442.08   21.52   0
  -3   0  33    1.37    7.17   0
  -1  -1  45   10.04    7.48   0
  -5  -1  29    2.01    9.30   0
  -2  -2  51    3.83    9.91   0
  -1  -3  56  216.95   12.70   0
  -1  -2  52  405.42   14.39   0
   0   0  30  173.69   10.56   0
  -5  -3  37   -2.36    8.77   0
  -4  -1  39    4.95    8.30   0
  -4   0  29    6.73    7.24   0
  -2  -3  55    2.45    9.44   0
  -1   0  35    4.93    7.18   0
  -5  -2  36  238.66   12.01   0
  -4  -3  47   11.20    9.57   0
  -2   0  37   -5.85    7.95   0
  -5  -1  -1   17.28    7.01   0
  -5  -1  32  520.27   14.61   0
  -3  -2  50  275.95   12.99   0
  -3   0  36  689.16   14.93   0
  -2  -1  47    0.71    8.80   0
  -6  -3  15    9.27    8.92   0
  -5  -3  40  232.27   11.90   0
  -4  -2  46  176.12   11.78   0
  -4   0  32  619.49   13.99   0
  -6  -3  21   -1.52    8.68   0
  -6  -2  14  155.40   10.62   0
  -6  -2  17   10.48    8.45   0
  -6  -2  20  263.84   12.55   0
  -5  -2  39   -9.78    9.67   0
  -5   0  13   -1.71    7.70   0
  -4  -1  42  328.80   13.22   0
  -4   0  -1   -2.06    5.98   0
  -6  -3  24  250.70   11.88   0
  -6  -2  11   -6.54    8.63   0
  -6  -2  23    1.40    9.48   0
  -5  -1  35    2.53   10.13   0
  -5   0  10  765.66   15.72   0
  -5   0  22  317.25   12.02   0
  -2  -2  54   60.96   11.11   0
  -1  -1  48  476.17   14.46   0
  -1   0  38  331.94   12.24   0
   0   0  33    1.51    7.12   0
  -5   0  25    3.61    8.34   0
  -4   0  35    3.18    7.75   0
  -2   0  40 1083.04   18.79   0
  -1  -2  55    1.16   10.57   0
  -6  -3  27    3.64    9.39   0
  -6  -2  26  266.30   12.57   0
  -5   0   7   -1.47    7.22   0
  -2  -3  58  181.26   11.19   0
  -6  -1  16  783.47   16.64   0
  -5  -2  42  154.84   11.53   0
  -5  -1  38  197.58   11.98   0
  -5   0  28  807.51   16.45   0
  -4  -2  49    1.43    9.49   0
  -4  -1  45    5.73   10.13   0
  -3  -2  53  -10.16    9.48   0
  -2  -1  50  257.43   12.48   0
  -6  -2  29   -4.96    9.07   0
  -6  -1  13   -1.59    8.16   0
  -6  -1  19   18.51    7.81   0
  -6  -1  22  234.61   11.74   0
  -4   0  38  193.98   11.37   0
  -3  -1  49   -8.85    9.46   0
  -3   1  14 1676.96   21.70   0
  -3   1  17   23.92    6.47   0
  -3   1  20 1562.40   20.61   0
  -6  -1  25    0.21    9.35   0
  -5   0   4 1250.11   19.75   0
  -5   0  31   -5.67    8.82   0
  -3   1  23    7.93    6.39   0
  -2   1  15    6.63    6.61   0
  -2   1  18 1262.95   19.75   0
  -4   0  -4 1519.21   23.99   0
  -3   1  11   25.86    6.35   0
  -2   0  43   -0.32    8.30   0
  -2   1  21   36.11    6.46   0
  -1   0  41   -3.42    7.56   0
  -6  -1   7   16.06    8.00   0
  -5  -2  45    5.50   10.01   0
  -5  -1  41    3.19    9.34   0
  -4   1  16 2232.21   24.24   0
  -4   1  19   26.60    7.88   0
  -3   1  26  574.82   13.45   0
  -2  -2  57    6.60   10.99   0
  -2   1  24 1958.26   23.89   0
  -1  -1  51    4.60    9.17   0
   0   0  36  686.43   16.62   0
  -5   0  34  375.09   12.31   0
  -4   0  41   -3.10    8.95   0
  -4   1  13   17.86    7.21   0
  -4   1  22  415.36   11.80   0
  -4   1  25    5.64    6.96   0
  -3  -2  56  184.64   11.49   0
  -3   1   8 3259.52   31.07   0
  -3   1  29   12.49    6.77   0
  -5  -1  44  253.78   12.86   0
  -5   0   1   -1.34    6.59   0
  -4   1  10 1184.40   18.66   0
  -4   1  28  859.48   16.37   0
  -3  -1  52  308.80   13.30   0
  -3   0  45   -2.53    8.75   0
  -2  -1  53    7.10    9.44   0
  -6  -1  34  249.23   12.48   0
  -6   0  18  336.60   12.54   0
  -5   0  37   -0.96    8.20   0
  -3   1  32 1399.65   20.04   0
  -6   0  15   -1.08    8.36   0
  -6   0  21    8.36    7.46   0
  -4   0  44  574.09   15.15   0
  -2   0  46  399.73   13.39   0
  -1   0  44  562.46   15.21   0
  -6  -1  37    0.41    9.80   0
  -6   0  12  450.81   13.31   0
  -6   0  27    0.07    9.15   0
  -4   1  31   16.20    7.39   0
  -3   1   5   10.65    6.22   0
   0   0  39    1.17    7.28   0
  -5   0  40  295.22   11.80   0
  -5   1  18  811.42   15.29   0
  -5   1  21    9.14    7.35   0
  -6   0   9    6.33    7.59   0
  -6   0  30  188.82   10.41   0
  -5  -1  47   16.39    9.00   0
  -5   1  24  804.09   15.40   0
  -4   1  34  668.44   15.25   0
  -3   0  48  493.93   14.62   0
  -2  -2  60  166.04   10.98   0
  -2   1  33    7.97    7.43   0
  -6  -1  40  325.96   13.17   0
  -5   0  -2  409.06   13.04   0
  -5   1  27   13.44    7.61   0
  -3  -1  55   -4.94    9.25   0
  -1   1  22  463.64   13.62   0
  -6   0  33    3.19    8.13   0
  -5   0  43   -3.99    9.62   0
  -5   1  30  250.81   11.36   0
  -2  -1  56  287.72   13.46   0
  -7  -2  22   76.22    9.96   0
  -6   0   6  485.39   13.68   0
  -5   1   9   38.13    7.61   0
  -4  -1  54   84.59   11.11   0
  -4   1   4 1355.53   20.12   0
  -4   1  37   -1.43    8.92   0
  -2   0  49   -5.14    8.94   0
  -2   1  36 1118.37   18.69   0
  -1   1  25    3.14    5.22   0
  -6   0  36  218.85   11.90   0
  -5  -1  50  142.82   10.99   0
  -5   1  33    3.04    9.25   0
  -1   0  47    4.62    7.98   0
  -7  -1  18  278.40   12.50   0
  -7  -1  21    2.89    8.53   0
  -7  -1  24  303.37   12.92   0
  -6  -1  43   -2.99    8.59   0
  -1   1  28 1384.46   21.02   0
  -7  -1  15    3.94    8.83   0
  -7  -1  27    7.20    8.97   0
  -5   0  46  152.76   11.20   0
  -5   1  36  663.43   15.69   0
  -4   0  50  254.34   12.90   0
  -4   1  40  623.42   15.04   0
  -3   0  51    3.25    8.23   0
  -7  -1  30   84.00   10.58   0
  -6   0   3   -2.57    7.20   0
  -6   0  39  -16.43    9.26   0
  -5   1   6  446.58   12.57   0
  -3  -1  58  194.74   11.84   0
  -3   1  41   -1.35    7.33   0
  -2   1  39   -1.01    7.86   0
  -1   1  31    4.22    6.29   0
  -6   1  17    6.55    8.32   0
  -6   1  23    5.09    7.70   0
  -6   1  26  303.13   12.30   0
  -7  -1  33    3.22    8.76   0
  -6   1  29   11.30    9.22   0
  -5   1  39   13.43    9.60   0
  -4  -1  57   -1.91    8.97   0
  -4   1   1   41.30    7.17   0
  -2   0  52  290.83   12.96   0
  -7   0  20  223.54   11.77   0
  -7   0  23   -4.14    8.89   0
  -6   0  42  206.49   11.50   0
  -6   1  14  505.52   12.90   0
  -5   0  49   10.90    9.50   0
  -7   0  17    3.32    8.32   0
  -7   0  26  282.71   12.78   0
  -6   1  32  529.71   13.65   0
  -4   0  53   -7.88    9.88   0
  -3   0  54  151.23   11.70   0
  -3   1  44  429.04   13.80   0
  -1   1  34 1121.01   19.32   0
  -7   0  14  170.88   11.01   0
  -7   0  29    3.90    8.73   0
  -6   1  11    7.63    6.70   0
  -5   1   3   -3.05    6.66   0
  -5   1  42  333.38   13.18   0
  -2   1  42  423.20   13.40   0
  -6   0  45   -7.10    9.34   0
  -6   1  35   -2.81    8.25   0
  -7   0  11   -1.09    8.39   0
  -4   1  46  110.02    9.70   0
  -3  -1  61    2.49    8.80   0
  -6   1   8  926.01   16.58   0
  -4   2  21   -5.13    7.58   0
  -4   2  24 2104.08   23.11   0
  -3   1  47    9.46    8.98   0
  -2   0  55    4.09    9.27   0
  -1   1  37   -2.09    6.73   0
  -5   1  45   -4.86    8.40   0
  -4   2  18 1198.04   17.91   0
  -4   2  27   -4.29    6.95   0
  -2   1  45    2.12    8.34   0
  -7   0  38   63.06   10.39   0
  -6   0  48  244.55   11.56   0
  -6   1  41   -0.29   10.11   0
  -5   2  20  734.05   15.34   0
  -5   2  23    2.00    7.35   0
  -5   2  26  794.97   15.23   0
  -4   0  56  124.76   11.70   0
  -4   2  30  231.60   10.20   0
  -3   0  57    2.91    9.86   0
  -7   1  22  221.68   11.87   0
  -7   1  25   -0.61    9.66   0
  -5   1   0 1513.55   21.94   0
  -5   2  17   11.21    7.71   0
  -5   2  29  -11.41    7.57   0
  -4   1  -2  872.90   17.90   0
  -4   1  49  -10.28   10.07   0
  -4   2  15   -4.67    5.91   0
  -4   2  33   -4.86    7.98   0
  -3   2  22  518.39   12.83   0
  -3   2  25   18.01    6.71   0
  -7   1  19   14.22    8.99   0
  -6   1   5    7.23    7.16   0
  -5   2  32  925.98   17.21   0
  -3   2  19    8.14    6.20   0
  -3   2  28 1574.49   20.61   0
  -1   1  40  935.34   18.16   0
  -7   1  16  767.41   16.67   0
  -6   1  44  241.11   12.57   0
  -5   2  14  411.81   12.38   0
  -4   2  12  840.00   15.96   0
  -4   2  36  475.23   13.86   0
  -3   1  50  251.67   12.20   0
  -7   1  34  242.30   12.10   0
  -5   2  35    5.57    8.15   0
  -3   2  16 2152.53   24.08   0
  -7   1  13   -0.22    7.84   0
  -6   2  22  444.13   12.65   0
  -6   2  25    6.07    7.51   0
  -6   2  28  598.58   14.51   0
  -4   0  59   -7.27   10.54   0
  -2   1  48  487.39   14.68   0
  -7   1  37    1.95    9.50   0
  -6   2  31    9.30    9.35   0
  -5   2  38  136.71   10.07   0
  -4   1  52  310.28   12.94   0
  -6   1   2  390.08   12.48   0
  -6   1  47  -10.34   10.44   0
  -4   2   9   -1.09    6.58   0
  -3   0  60  153.98   11.19   0
  -3   2  13   42.78    6.61   0
  -3   2  37   -1.42    7.64   0
  -1   1  43   -0.01    7.32   0
  -7   1  10  277.19   11.81   0
  -7   1  40  344.96   12.90   0
  -5   2  41    6.86    9.52   0
  -3   1  53   -3.64    9.55   0
  -8   0  22   90.05    9.49   0
  -8   0  25   -2.08    9.09   0
  -6   2  13    1.25    7.84   0
  -6   2  37  -12.49    9.73   0
  -8   0  19    0.12    8.90   0
  -6   1  50  131.39   11.42   0
  -5   1  -3   41.65    7.19   0
  -5   2   8 2269.28   24.47   0
  -3   2  40  588.47   14.90   0
  -2   1  51   -0.20    9.02   0
  -7   1  43    3.51   10.15   0
  -6   2  40  371.39   13.54   0
  -5   1  54  101.65   10.69   0
  -5   2  44  341.59   13.25   0
  -4   1  55    7.47   10.25   0
  -3   2  10 2123.64   24.62   0
  -2   2  29    0.22    6.90   0
  -7   2  27    6.53    9.20   0
  -6   2  10  439.52   12.58   0
  -4   2  45    3.05    8.88   0
  -2   2  20 3615.44   31.97   0
  -2   2  32  709.01   15.47   0
  -7   2  21   -6.48    9.07   0
  -7   2  30  268.39   11.34   0
  -3   2  43    5.88    8.51   0
  -8   1  24  314.29   12.50   0
  -8   1  27    5.69    8.94   0
  -8   1  30   72.00   10.54   0
  -7   2  18  247.63   11.77   0
  -7   2  33    3.01    8.26   0
  -6   1  -1   18.06    6.99   0
  -6   2  43    7.23    8.81   0
  -3   1  56  298.02   12.98   0
  -2   2  17    0.21    6.51   0
  -2   2  35    0.08    7.34   0
  -8   1  21    3.93    9.53   0
  -8   1  33   11.86    9.78   0
  -7   2  36  245.29   12.36   0
  -5   2   5   13.30    6.07   0
  -8   1  18  275.02   12.19   0
  -7   2  15    5.79    8.72   0
  -6   2   7   -1.93    7.04   0
  -5   1  57    0.59    8.98   0
  -4   1  58  184.81   11.78   0
  -4   2  48  446.75   14.68   0
  -7   2  39    3.76   10.09   0
  -3   2   7    3.21    5.46   0
  -3   2  46  202.42   11.10   0
  -2   2  38  343.03   12.17   0
  -8   1  15   -2.11    8.23   0
  -7   2  12  496.09   13.98   0
  -5   2  50  296.91   12.93   0
  -2   2  14  351.28   11.91   0
   0   1  35   -1.23    6.52   0
  -7   2  42  149.88   11.22   0
  -5   3  25   -0.25    8.55   0
  -6   2  49    5.35    9.39   0
  -5   3  22  388.35   12.50   0
  -5   3  31   11.57    7.88   0
  -4   2  51   -3.41    9.25   0
  -2   2  41    5.69    7.59   0
  -6   2   4  999.50   17.73   0
  -6   3  24  784.45   16.14   0
  -6   3  27    2.80    7.87   0
  -6   3  30  260.98   12.27   0
  -5   2   2  918.56   17.13   0
  -5   3  19    1.27    8.15   0
  -5   3  34  550.27   13.99   0
  -3   2  49   -5.87    9.27   0
  -8   2  26  289.42   12.64   0
  -8   2  29   -3.16    9.18   0
  -7   2   9    7.34    8.00   0
  -7   2  45    1.75    8.93   0
  -6   3  21   20.88    7.57   0
  -6   3  33    4.19    8.36   0
  -5   1  -6  859.04   18.53   0
  -5   2  53   -0.57    9.89   0
  -5   3  37    1.39    9.41   0
  -4   1  61    0.39    8.71   0
  -4   3  26  801.20   15.32   0
  -4   3  29   -2.57    7.13   0
  -8   2  23   -0.82    8.82   0
  -6   3  18  527.59   14.06   0
  -6   3  36  419.90   14.42   0
  -4   3  23   22.93    7.13   0
  -4   3  32 1105.68   17.86   0
  -8   2  20  275.95   11.92   0
  -5   3  16 1985.62   22.40   0
  -5   3  40  602.86   15.32   0
  -4   3  20 1034.05   16.85   0
  -8   2  17    0.85    9.02   0
  -7   3  26  217.20   11.87   0
  -7   3  29    8.68    9.48   0
  -6   3  39   -1.78    8.40   0
  -4   2  54   60.60   11.09   0
  -3   2   4 2910.12   29.91   0
  -7   2   6  516.14   14.09   0
  -7   3  23    3.15    7.86   0
  -7   3  32  396.25   12.80   0
  -5   3  13   -5.43    7.50   0
  -4   3  17   -0.76    6.32   0
  -3   2  52  423.41   14.18   0
  -7   3  35   -1.17    8.45   0
  -6   3  42  244.36   11.33   0
  -5   2  56  176.62   11.54   0
  -8   2  14  168.14   11.13   0
  -6   2   1   -0.79    6.95   0
  -4   2   0 4136.34   35.46   0
  -4   3  41    8.42    7.74   0
  -2   2  47    4.18    8.13   0
  -7   3  17    7.70    7.72   0
  -6   3  45   -2.01    9.79   0
  -5   2  -1    3.56    6.56   0
  -5   3  46   86.40   11.26   0
  -4   3  14  745.53   14.70   0
  -7   3  41    6.49    9.19   0
  -5   3  10  794.25   15.49   0
  -4   2  57    1.53   10.02   0
  -4   3  44  402.01   13.90   0
  -3   3  24 1222.93   18.87   0
  -3   3  33    4.37    7.82   0
  -1   2  27   -2.50    6.44   0
  -1   2  30  694.85   16.01   0
  -8   2  11   -1.29    8.75   0
  -7   3  14  434.17   13.27   0
  -3   2  55    1.82    9.55   0
  -1   2  24 1836.64   24.73   0
  -1   2  33    6.66    6.91   0
  -7   2   3    3.59    7.63   0
  -6   3   9    7.64    7.90   0
  -3   3  21   -2.24    6.14   0
  -3   3  36 1033.96   17.70   0
  -8   3  25   -8.17    8.87   0
  -8   3  34  205.54   12.07   0
  -5   3  49    6.16   10.13   0
  -4   3  11   52.42    6.91   0
  -1   2  36 1060.76   19.35   0
  -8   3  22  176.84   11.04   0
  -8   3  37   -5.25    9.60   0
  -7   3  11    5.30    8.47   0
  -4   3  47    6.09    8.54   0
  -3   3  18 1486.61   20.43   0
  -3   3  39   -1.50    6.94   0
  -1   2  21   28.46    5.73   0
  -8   3  19    2.74    9.07   0
  -7   3  47   -5.18    8.83   0
  -6   3  51   -0.31   10.19   0
  -9   2  22   68.21    9.40   0
  -8   3  40  237.91   11.30   0
  -6   2  -2  644.09   15.42   0
  -5   3  52  213.98   13.12   0
  -3   3  42  410.49   13.51   0
  -1   2  39    1.93    6.81   0
  -8   3  16  544.92   14.71   0
  -6   3   6  551.47   13.67   0
  -4   3  50  277.73   13.04   0
  -7   3   8  691.71   15.52   0
  -6   4  26  507.81   14.35   0
  -6   4  29  -12.82    9.06   0
  -6   4  32  506.97   14.68   0
  -4   3   8 2911.52   27.76   0
  -3   3  15    1.25    5.94   0
  -6   4  23   -1.07    9.08   0
  -6   4  35  -14.24    9.82   0
  -3   3  45    4.34    7.90   0
  -8   3  13    0.96    8.55   0
  -7   4  25   26.02    9.74   0
  -7   4  31    0.38   10.34   0
  -7   4  34  246.30   12.60   0
  -5   2  -4  756.72   16.54   0
  -5   4  27    0.07    8.71   0
  -5   4  30  407.38   12.54   0
  -5   4  33   16.71    9.05   0
  -4   2  -3    0.23    4.97   0
  -7   4  22  243.93   12.27   0
  -7   4  37    7.72   10.06   0
  -6   4  20  794.06   15.55   0
  -5   3   4  800.42   15.83   0
  -5   3  55    0.29    9.95   0
  -5   4  24 1133.31   17.88   0
  -5   4  36  426.45   13.70   0
  -4   3  53    0.19   10.13   0
  -9   3  27    3.85    9.81   0
  -6   4  41   -4.83    8.91   0
  -5   4  21    1.57    8.27   0
  -3   3  12 2682.12   26.99   0
  -9   3  24  271.69   12.12   0
  -7   3   5   22.17    8.10   0
  -7   4  19   -1.43    9.01   0
  -7   4  40  229.01   12.09   0
  -6   3   3    5.07    7.50   0
  -6   4  17    3.00    8.72   0
  -3   3  48  268.51   12.40   0
  -9   3  21    9.92    9.41   0
  -8   3  10  314.09   12.44   0
  -8   4  30  146.97   11.51   0
  -7   4  43    2.44   10.08   0
  -5   4  18  463.12   13.27   0
  -5   4  42  241.01   12.73   0
  -2   3  28 1512.08   21.41   0
  -2   3  31    6.19    7.20   0
  -8   4  33   -2.91    9.30   0
  -8   4  36  220.71   12.03   0
  -5   3  58  182.75   12.11   0
  -4   3   5    7.87    6.00   0
  -2   3  25   14.03    6.94   0
  -2   3  34  694.18   15.74   0
  -9   3  18  274.46   12.42   0
  -8   4  39   -3.26   10.20   0
  -6   4  14  380.10   11.85   0
  -4   3  56  216.50   12.18   0
  -4   4  28  760.37   16.13   0
  -2   3  37    3.16    7.53   0
  -8   4  21   12.32   10.02   0
  -7   4  46   98.83   11.35   0
  -5   4  15   30.00    7.82   0
  -5   4  45   12.71    8.26   0
  -4   4  25    5.56    7.01   0
  -4   4  37   -1.64    9.02   0
  -3   3  51   -1.40    8.92   0
  -8   3   7    1.02    8.53   0
  -7   4  13   20.93    8.96   0
  -4   4  22  818.12   16.08   0
  -3   3   9    1.18    5.56   0
  -2   3  40  579.54   14.95   0
  -9   3  15   -0.50    8.42   0
  -8   4  18  266.78   11.42   0
  -6   4  50  165.42   11.73   0
  -5   3   1    2.87    5.82   0
  -5   4  48  362.66   14.12   0
  -7   3   2  302.29   11.95   0
  -6   3   0 1191.14   19.36   0
  -4   4  19    1.20    7.86   0
  -8   4  15   -2.40    9.07   0
  -5   4  12 1039.63   17.04   0
  -4   4  43   -0.30    9.60   0
  -2   3  43   -0.14    7.87   0
  -9   4  26  242.90   12.48   0
  -9   4  29   -2.31    9.22   0
  -7   4  10  474.75   13.76   0
  -6   4  53    2.29   10.03   0
  -5   2  -7   15.14    6.81   0
  -5   4  51   -1.98   10.33   0
  -4   4  16 1726.18   21.69   0
  -4   4  46  214.76   12.49   0
  -9   4  23    7.69    9.87   0
  -8   4  12  368.10   13.50   0
  -4   2  -6  829.76   17.92   0
  -2   3  16 2087.07   24.62   0
  -9   4  20  189.81   11.39   0
  -5   4   9   -4.28    7.68   0
  -3   3   6  557.33   13.91   0
  -7   4   7    0.08    8.54   0
  -7   5  27    3.06    9.83   0
  -7   5  30  127.76   10.15   0
  -7   5  33   -4.05    9.11   0
  -7   5  36  395.32   13.93   0
  -5   4  54  103.58   12.26   0
  -9   4  17   10.70    9.64   0
  -7   3  -1   12.77    7.63   0
  -7   5  24  458.91   14.32   0
  -7   5  39   21.39    9.88   0
  -6   5  28  567.54   14.34   0
  -6   5  31    1.81    8.45   0
  -6   5  34  314.95   12.42   0
  -6   5  37   -1.39   10.49   0
  -4   4  13   -3.17    7.52   0
  -4   4  49    7.13    9.63   0
  -3   4  29    4.28    7.76   0
  -3   4  32 1096.79   18.73   0
  -8   4   9    2.39    8.97   0
  -8   5  29    4.86    9.78   0
  -8   5  32  337.73   13.43   0
  -8   5  35   -1.33   10.23   0
  -6   5  25   15.51    8.41   0
  -5   3  -2  882.19   16.65   0
  -3   4  35   11.59    7.10   0
  -8   5  26  270.95   11.99   0
  -8   5  38   95.45   11.00   0
  -7   5  21    1.93    8.30   0
  -7   5  42  229.97   12.54   0
  -6   3  -3    8.91    7.15   0
  -6   4   5   -0.58    7.25   0
  -6   5  22  279.11   12.42   0
  -3   4  38  206.80   11.20   0
  -9   4  14  126.46   11.05   0
  -4   4  52  230.96   12.86   0
  -3   4  41    7.79    8.73   0
  -2   3  13   42.38    6.41   0
  -7   5  18  511.62   13.85   0
  -7   5  45    3.48   10.15   0
  -6   5  19   -0.95    7.83   0
  -5   4   6  956.48   16.43   0
  -5   4  57    2.98    8.82   0
  -5   5  29   -5.83    9.27   0
  -5   5  32  612.23   15.69   0
  -7   4   4  805.86   16.78   0
  -6   5  46  116.10   11.48   0
  -5   5  26  306.07   11.60   0
  -5   5  38  317.59   13.36   0
  -3   4  20 1042.24   17.65   0
  -8   4   6  268.98   12.25   0
  -6   5  16  760.69   16.27   0
  -5   5  23    3.66    8.96   0
  -5   5  41   -0.85   10.28   0
  -3   4  44  390.76   13.70   0
  -9   4  11    6.91    8.35   0
  -9   5  25   -5.33   10.16   0
  -8   5  17    1.35    8.11   0
  -3   3   3    2.62    5.58   0
  -6   4   2  674.78   15.14   0
  -6   5  49  -12.39    9.67   0
  -5   5  20  848.88   16.69   0
  -5   5  44  279.29   13.49   0
  -3   4  17    0.21    6.93   0
  -9   5  22  133.54   10.95   0
  -3   4  47    0.44    8.80   0
  -8   5  14  228.46   10.89   0
  -6   5  13   18.39    7.84   0
  -2   3  10 2074.72   24.49   0
  -9   5  19   13.42    9.68   0
  -7   4   1    8.98    8.19   0
  -5   3  -5   15.82    6.89   0
  -5   5  17    2.71    7.40   0
  -5   5  47   -0.38    9.94   0
  -4   4   7    0.50    6.22   0
  -8   4   3   -5.40    8.59   0
  -3   4  14  765.97   15.47   0
  -1   3  29   11.63    6.60   0
  -1   3  35   -1.77    6.77   0
  -4   5  33   15.83    7.76   0
   1   3  19   21.83    8.25   0
   7  -1  -7   22.28    9.89   0
   7   0  -2  315.15   13.01   0
   4   5  14  141.45   13.09   0
   6   1   8  845.82   18.55   0
   8   0 -13   -2.01   11.33   0
   3   6  15    5.75   12.06   0
   5  -2  -5   12.75    7.89   0
   6  -1   1   23.88    9.10   0
   8   1 -11    4.11   10.87   0
   1   2  17   16.82    6.61   0
   1   4  21    7.46    8.78   0
   4   1  15   26.30    8.52   0
   4   2  17    6.30    8.77   0
   5   1  13   15.22   10.38   0
   5   3  14  217.99   12.95   0
   7   2   2  143.40   13.33   0
   3   4  20  573.61   17.30   0
   5   4  13   11.27   11.71   0
   6  -2  -7   -0.69    7.78   0
   6   2  10  276.46   13.12   0
   6   3   9   11.21   10.86   0
   7  -1  -4  372.38   14.32   0
   7   0   1    4.16   11.01   0
   8   0 -10  249.07   13.86   0
   2   5  21    2.98   10.71   0
   3   2  19   11.86    8.17   0
   3   5  19   -0.74   11.66   0
   4   4  18  287.10   14.89   0
   5   2  15    6.03    9.62   0
   8   1  -8  205.23   13.42   0
   3   0  12 2697.70   29.00   0
   4   3  19   -6.21   10.87   0
   5   0  11   -1.49    8.77   0
   2   1  16 2144.87   26.85   0
   2   4  22  433.63   14.38   0
   3   1  17    3.66    8.13   0
   6   1  11   23.40   11.16   0
   7   2   5  -10.48   10.81   0
   8   0  -7   -6.48   11.02   0
   2   6  20  265.70   14.85   0
   4   0  13    1.36    7.49   0
   4   5  17   20.30   11.65   0
   6  -1   4  867.85   18.15   0
   8   1  -5    5.24   10.20   0
   2   0  11   -2.61    7.35   0
   3   6  18  294.62   16.17   0
   5  -2  -2  959.17   19.41   0
   5   3  17    2.19   11.21   0
   6  -2  -4 1027.36   19.99   0
   6   0   9   -2.19    8.59   0
   6   3  12  200.74   13.46   0
   7  -1  -1    1.22    8.86   0
   7   0   4  269.42   13.87   0
   7   1   6  272.48   14.00   0
   6   2  13    8.89    9.63   0
   7  -2  -9    3.46    9.40   0
   1   5  23    6.71    9.88   0
   4  -1   8 2967.68   30.72   0
   4   1  18  473.85   14.72   0
   4   2  20  765.24   16.97   0
   5   1  16  772.50   16.95   0
   8  -1  -9    7.59   10.16   0
   8   0  -4  317.72   14.32   0
   8   1  -2  165.48   13.01   0
   2   3  23    7.85    9.24   0
   5   2  18  532.45   15.36   0
   3  -1   7    0.53    7.09   0
   3   4  23    0.74    9.24   0
   3   5  22  173.36   13.31   0
   4   4  21   -4.17   11.38   0
   7  -1   2  470.52   15.48   0
   3   2  22  388.57   14.13   0
   5   0  14  762.46   16.35   0
   6  -1   7    4.60    9.28   0
   6   1  14  184.69   11.78   0
   7  -2  -6  555.86   16.63   0
   7   1   9    5.14   11.18   0
   8  -1  -6  142.83   12.22   0
   8   0  -1    2.74   11.19   0
   1   4  24  761.96   18.32   0
   2   5  24  556.15   17.16   0
   4   5  20  215.43   13.76   0
   6  -2  -1    1.63    8.24   0
   6   0  12  564.78   16.08   0
   6   3  15    8.82   11.82   0
   8   1   1   11.46   10.48   0
   3   0  15    3.96    8.25   0
   3   3  24  751.99   18.08   0
   5  -2   1    5.39    7.47   0
   5   3  20  311.51   14.89   0
   6   2  16  551.33   15.80   0
   2   4  25   -2.43    9.83   0
   3   1  20 1036.35   19.09   0
   3   6  21    4.52   12.63   0
   4   0  16 1755.72   23.05   0
   7   2  11    1.82   10.97   0
   4  -2   0 4236.48   40.20   0
   5   1  19   -6.97   10.65   0
   7  -1   5   10.48   10.34   0
   8  -1  -3    0.11   10.05   0
   2   1  19    2.78    7.98   0
   4   2  23   -5.56    9.87   0
   5   2  21    5.25    9.77   0
   7  -2  -3    7.87    8.94   0
   7   1  12  251.70   14.37   0
   8   1   4  278.54   13.47   0
   0   4  23   -2.75    7.96   0
   4  -1  11   40.60    8.89   0
   4   1  21   10.32    8.60   0
   6   1  17    7.18   11.85   0
   3   4  26  219.10   13.69   0
   4   4  24  449.02   15.83   0
   5   0  17   -9.23    9.72   0
   6  -2   2  711.13   17.00   0
   6   0  15   -5.16    9.94   0
   6   3  18  169.04   13.38   0
   0   3  21    2.77    6.74   0
   3   5  25   -0.40   11.52   0
   5  -1  12 1049.99   18.50   0
   6   2  19   -9.52   11.50   0
   7   2  14  195.08   13.90   0
   8  -1   0  542.23   16.60   0
   2   0  14  365.78   12.63   0
   2   3  26  751.25   17.66   0
   4   5  23    2.77   11.88   0
   5  -2   4  842.67   17.96   0
   5   3  23   16.00   11.27   0
   5   4  22  123.64   13.22   0
   7  -2   0  781.01   18.11   0
   8   0   5   -2.24   11.41   0
   2   2  24 1915.40   24.75   0
   3  -1  10 2147.95   27.52   0
   7  -1   8  851.55   17.70   0
   2   5  27   -0.97   10.90   0
   3   3  27   -2.69    9.62   0
   4   0  19    5.32    8.60   0
   7   0  13    7.92   10.82   0
   7   1  15   13.75   11.81   0
   1   3  25    2.48    7.96   0
   3   0  18 1463.19   21.95   0
   4  -2   3    1.33    7.24   0
   5   2  24  431.70   15.86   0
   6   1  20  352.92   15.09   0
   8  -1   3    8.04   10.77   0
   1   4  27    6.84    9.05   0
   2   4  28  547.00   16.39   0
   3   1  23   14.87    8.21   0
   4   2  26  451.96   15.30   0
   6  -2   5    4.97    7.34   0
   6   3  21    5.38   11.25   0
   8   0   8  336.37   14.69   0
   4   1  24 1161.05   20.16   0
   4   4  27  -17.60   12.04   0
   5   0  20  858.25   18.27   0
   6   0  18  491.70   14.69   0
   6   2  22  138.65   13.27   0
   7  -2   3    0.06    9.37   0
   7   2  17    1.21   11.39   0
   4  -1  14  784.44   16.39   0
   5  -1  15   16.11    9.51   0
   7  -1  11   -1.61   10.53   0
   1   2  23    4.23    7.50   0
   3   4  29   12.48   11.44   0
   3   5  28  265.13   14.96   0
   4   3  28  508.16   16.73   0
   4   5  26  218.19   14.68   0
   5  -2   7   24.71    8.29   0
   5   4  25   -6.98   12.02   0
   7   1  18  200.46   13.96   0
   8  -2  -2  298.05   13.60   0
   8  -1   6  272.72   13.73   0
   2   1  22  492.54   13.83   0
   7   0  16  651.08   16.51   0
   8   0  11    6.14   11.53   0
   2   3  29   -6.85    9.36   0
   5   1  25   15.66    9.55   0
   5   2  27   -4.57   11.75   0
   6  -1  16  781.83   17.61   0
   6   1  23   17.78    9.99   0
   6   3  24  314.27   15.05   0
   7  -2   6  233.79   12.50   0
   8   1  13   -3.04    9.93   0
   2   0  17   -2.44    7.49   0
   3  -1  13   41.84    8.43   0
   3   3  30  272.55   14.02   0
   4  -2   6  898.53   18.70   0
   4   0  22  855.50   17.01   0
   6   0  21    5.29   10.43   0
   7   2  20  215.81   12.87   0
   8  -2   1   10.73   10.10   0
   8  -1   9    4.11   11.15   0
   2   2  27   -4.11    7.24   0
   2   5  30  239.68   13.96   0
   6   2  25   11.43   11.93   0
   3   0  21   -0.89    7.26   0
   3   1  26  787.85   17.35   0
   4   1  27   22.07   10.32   0
   4   4  30  137.33   13.86   0
   5  -1  18  450.36   14.31   0
   5   0  23  -10.63    8.94   0
   7   0  19   14.30   11.13   0
   7   1  21    5.59   11.37   0
   9  -1   1    4.13    9.56   0
   0   3  24 1725.88   26.65   0
   2   4  31    8.54    9.13   0
   4  -1  17   -1.09    7.29   0
   5  -2  10  812.64   17.41   0
   5   4  28  142.90   13.34   0
   8  -2   4  285.07   14.03   0
   4   3  31    5.28   11.74   0
   4   5  29    7.45   11.55   0
   6  -2  11   11.14    8.95   0
   7  -2   9   -5.76    9.88   0
   1   4  30  213.42   12.24   0
   3   4  32  393.35   15.98   0
   3   5  31   10.44   11.59   0
   6  -3  -3    4.97    8.19   0
   6   1  26  369.11   15.98   0
   7   2  23    2.78   10.94   0
   8  -1  12  274.33   13.75   0
   9  -1   4  259.84   14.13   0
   5   1  28  588.48   16.92   0
   6  -1  19   12.75    8.77   0
   5   2  30  112.28   11.29   0
   6   0  24  619.96   16.04   0
   8  -2   7    0.74   10.45   0
   3   2  31    1.44    9.37   0
   4   0  25   -3.64    8.12   0
   7   0  22  149.19   12.91   0
   7   1  24  410.19   15.40   0
   3  -1  16 2186.18   26.64   0
   3   3  33   17.09   10.80   0
   5  -3  -4  745.85   19.59   0
   5  -1  21   24.35    9.07   0
   5   0  26  279.17   12.34   0
   6  -3   0 1189.97   21.87   0
   7  -2  12  612.82   16.73   0
   9  -1   7    1.27    9.82   0
   2   3  32  829.46   18.69   0
   6  -2  14  356.77   13.62   0
   8  -1  15   -6.82   11.43   0
   2   0  20 3761.27   34.20   0
   3   0  24 1226.27   19.67   0
   3   1  29   -4.44    9.24   0
   4  -1  20  985.27   18.02   0
   4   1  30  413.24   14.05   0
   4   4  33    5.31   11.93   0
   5   3  32  330.20   14.95   0
   7  -3   1   16.28    8.85   0
   6  -1  22  276.14   12.41   0
   6   1  29   16.40   11.52   0
   7  -1  20  353.05   13.57   0
   8  -2  10  270.88   13.74   0
   2   4  34  250.59   13.31   0
   5   1  31   -5.53   11.01   0
   6  -3   3    9.22    8.22   0
   6   0  27   15.88   11.22   0
   8   0  20  204.53   12.57   0
   9  -1  10  118.11   11.61   0
   3   4  35  -18.59   11.05   0
   5  -3  -1    2.76    7.46   0
   6   2  31    6.97   11.14   0
   7  -2  15    8.17   10.23   0
   7   0  25   10.66   11.75   0
   7   1  27    3.92   11.49   0
   1   3  31   22.96    8.54   0
   7  -3   4  799.24   18.26   0
   8  -1  18  192.34   13.33   0
   9  -2   5   -2.50    9.59   0
   4   0  28  720.62   16.23   0
   5  -1  24 1120.04   19.83   0
   5   0  29   -1.36   10.10   0
   8  -2  13   -7.94   10.06   0
   0   3  27   -3.83    7.94   0
   1   4  33   -4.90    8.83   0
   7  -1  23   22.44   11.08   0
   9  -1  13    3.27    9.93   0
   3  -1  19    5.63    6.84   0
   3   3  36  396.37   15.57   0
   4  -1  23   28.99    8.85   0
   4   2  35  -10.84   11.49   0
   5  -3   2  931.47   20.20   0
   5   3  35    2.57   11.96   0
   6  -3   6  559.45   15.57   0
   6  -1  25    5.28   10.29   0
   8   0  23    8.14   10.91   0
   9  -2   8  303.91   15.06   0
   4   1  33   -3.59    9.04   0
   4   4  36  201.34   13.39   0
   6   1  32  353.02   14.29   0
   7  -3   7    9.96    8.96   0
   7  -2  18  521.35   15.92   0
   1   2  29    5.09    7.85   0
   2   3  35   14.19    9.72   0
   3   0  27   -1.78    7.54   0
   6   0  30  158.59   11.79   0
   7   0  28  202.46   13.69   0
   7   1  30  125.48   12.75   0
   8  -3   5    5.41    9.61   0
   2   0  23    1.60    6.42   0
   2   2  33    0.87    7.49   0
   4   3  37    4.57   11.60   0
   5   1  34  306.74   13.44   0
   6   2  34  186.73   13.35   0
   8  -2  16  532.09   16.71   0
   4  -2  15   -4.81    6.74   0
   5  -2  19   14.50    9.16   0
   9  -2  11   -1.38    9.77   0
   2   4  37   -4.16    9.99   0
   4   0  31    1.29    9.96   0
   5  -3   5   17.74    8.02   0
   5  -1  27   13.34   10.27   0
   5   0  32  621.82   16.82   0
   6  -3   9   17.17    7.39   0
   7  -3  10  472.77   14.85   0
   7  -1  26  359.44   14.94   0
   8   0  26  134.32   12.04   0
   3   4  38  195.36   13.59   0
   6  -1  28  566.99   16.56   0
   8  -3   8  618.29   17.12   0
   8  -2  19    1.12   11.13   0
   3  -1  22  532.47   13.86   0
   3   2  37    2.89   10.23   0
   4  -1  26  785.42   16.33   0
   4   2  38  169.67   13.45   0
   5   3  38  103.43   12.01   0
   6   0  33    1.59   12.03   0
   6   1  35   10.82   10.85   0
   7   0  31   -8.61   11.21   0
   9  -2  14  200.25   12.46   0
   2  -1  15    7.62    6.33   0
   3   3  39   -0.11   10.74   0
   4   4  39  -11.12   12.23   0
   6  -2  23   -4.64    9.95   0
   7  -3  13   18.68    9.73   0
   7   1  33   -3.03   10.11   0
   3   0  30  377.20   12.64   0
   4  -2  18 1235.26   20.21   0
   5   1  37    9.25   11.22   0
   8  -3  11   -4.86   10.18   0
   0   2  25   -1.45    6.65   0
   2   3  38  116.11   11.42   0
   4   3  40  217.04   13.42   0
   5  -2  22  374.85   12.66   0
   5   2  39    0.92   11.32   0
   7  -1  29   -2.42   11.47   0
   2   0  26 1396.83   20.92   0
   2   2  36  465.92   15.27   0
   3  -2  11   28.73    7.72   0
   5  -1  30  374.96   13.59   0
   5   0  35    8.04   11.22   0
   8  -2  22  139.62   13.10   0
   8  -1  27    7.63   10.77   0
   9  -2  17    0.13   10.05   0
   1   1  27    2.83    7.21   0
   1   2  32 1331.88   21.88   0
   4   0  34  335.39   14.08   0
   6  -1  31    6.81    9.49   0
   8  -3  14  224.61   13.25   0
   5  -3  11    7.37    7.98   0
   6  -3  15   -0.14    9.04   0
   6   1  38   71.09   13.16   0
   7  -3  16  551.30   16.17   0
   7   0  34  220.62   13.57   0
   1   0  19   -0.95    5.79   0
   4  -1  29   -5.11    8.17   0
   6  -2  26  513.31   15.29   0
   6   0  36  323.49   15.09   0
   3  -1  25   12.14    7.42   0
   4   2  41   -3.53   10.77   0
   9  -2  20  200.80   13.35   0
   2  -1  18 1260.22   20.64   0
   4  -2  21    6.29    7.26   0
   5  -2  25   -1.36    8.11   0
   7  -1  32  399.24   14.68   0
   8  -2  25   10.75   10.79   0
   9  -3  12  200.23   12.80   0
   3  -2  14 1675.01   23.88   0
   3   0  33   -2.99    7.85   0
   3   3  42  211.93   13.60   0
   5  -1  33   14.34   10.89   0
   7  -3  19   -4.34    9.97   0
   8  -3  17   -0.12    8.96   0
   8  -1  30  117.63   12.90   0
   1   3  37    1.55    8.64   0
   3   1  38  236.24   12.71   0
   4   3  43   -7.91   12.56   0
   5  -3  14  442.41   14.03   0
   5   0  38  313.85   14.53   0
   5   2  42  211.05   13.56   0
   6  -3  18  514.67   14.48   0
   2   0  29    0.98    8.08   0
   4   0  37  -15.21   10.46   0
   7   0  37   -3.23   11.83   0
   2   2  39    1.98    9.28   0
   2   3  41    0.58    9.66   0
   4  -3   4 1392.85   24.13   0
   6  -2  29   -1.93    8.97   0
   6   1  41   -6.86   11.71   0
   9  -3  15    7.36   10.51   0
   4  -1  32 1124.63   19.07   0
   6   0  39  -16.20   10.86   0
   8  -3  20  318.43   14.33   0
   1   1  30  673.69   16.09   0
   1   2  35   -1.18    8.03   0
   3  -1  28 1586.97   21.72   0
   4  -2  24 2073.13   24.66   0
   7  -3  22  265.45   13.26   0
   7  -2  30  125.98   10.96   0
   7  -1  35    5.32   10.81   0
   8  -1  33    9.52   10.58   0
   0   3  33   -2.47    8.07   0
   1   0  22  465.00   13.52   0
   2  -1  21   38.97    8.06   0
   3  -2  17   13.35    7.78   0
   4  -3   7   29.57    7.43   0
   4   1  42  246.79   13.87   0
   4   2  44  306.19   14.55   0
   5  -3  17    4.68    7.21   0
   6  -3  21    6.30    8.11   0
   9  -3  18  149.67   13.31   0
   3   0  36 1025.48   19.26   0
   3   2  43   -6.13   10.25   0
   5  -1  36  399.52   15.13   0
   6  -1  37   12.49   11.12   0
   2   1  37   11.96    8.83   0
   5   0  41   -5.80   11.64   0
   8  -3  23    6.72   10.29   0
   3   1  41    2.21    9.63   0
   3   3  45    6.73   11.04   0
   5   2  45    2.62   12.03   0
   6  -2  32  496.51   14.60   0
   7  -4   8  702.56   17.58   0
   2   0  32  725.08   16.42   0
   4  -3  10 1249.50   21.36   0
   4  -1  35   14.98    9.93   0
   4   0  40  581.19   15.55   0
   4   3  46  104.62   11.40   0
   6   0  42  200.67   13.90   0
   7  -3  25   10.97    9.15   0
   7  -2  33    5.23   10.88   0
   9  -3  21   -6.50   10.71   0
   4  -2  27    4.35    7.67   0
   5  -2  31   11.30    8.46   0
   7  -4  11    8.25    9.90   0
   7  -1  38   68.02   11.50   0
   2   2  42  531.41   15.88   0
   3  -2  20 1566.14   21.85   0
   3  -1  31   12.89    7.66   0
   6  -4   4  996.10   21.02   0
   2  -1  24 1997.55   24.84   0
   8  -3  26  264.86   14.53   0
   1   0  25   -3.62    7.51   0
   1   1  33    6.35    7.75   0
   1   2  38  404.91   14.21   0
   4  -3  13   21.02    6.80   0
   4   1  45    4.76   11.57   0
   4   2  47   -2.88   11.42   0
   5  -1  39    3.46    9.24   0
   5   1  46   92.80   12.51   0
   6  -4   7    0.26    7.86   0
   6  -2  35   -1.51   11.03   0
   6  -1  40  295.26   13.67   0
   7  -4  14  448.27   14.92   0
   9  -3  24  315.68   14.18   0
   0   2  31    5.22    6.90   0
   5   0  44  291.13   14.63   0
   7  -3  28  511.44   14.83   0
   8  -4  15   -9.78    9.73   0
   3   2  46   74.93   12.08   0
   5  -2  34  555.66   16.26   0
   6  -4  10  448.01   14.49   0
   7  -2  36  361.01   15.36   0
   3   1  44  388.18   14.38   0
   4  -2  30  246.35   11.23   0
   4  -1  38  239.69   12.95   0
   6   0  45   -4.63   11.08   0
   7  -1  41   -3.76   11.44   0
   8  -3  29   -9.84   10.60   0
   3  -2  23   10.72    6.91   0
   3  -1  34  745.60   16.67   0
   7  -4  17   10.70    9.45   0
   8  -4  18  265.07   13.24   0
   6  -4  13    9.96    8.46   0
   9  -3  27    9.20   10.77   0
   2  -1  27   -6.31    6.73   0
   5  -3  26  803.56   17.41   0
   5  -1  42  272.53   14.11   0
   6  -3  30  266.25   13.06   0
   6  -2  38  168.14   12.88   0
   6  -1  43    0.46   11.37   0
   8  -2  37    7.42   10.64   0
   2   2  45    1.96    9.66   0
   7  -4  20  565.81   15.94   0
   7  -2  39   -3.24   11.38   0
   8  -4  21   -3.29   11.65   0
   4  -2  33    9.83    9.46   0
   4   1  48  332.38   14.18   0
   5  -2  37    3.04    9.99   0
   5   1  49   -0.22   11.35   0
   6  -4  16  913.12   18.84   0
   8  -3  32  339.53   14.19   0
   0   1  26 1209.24   21.48   0
   1   1  36 1047.74   18.74   0
   3  -2  26  590.95   14.22   0
   4   2  50  154.58   13.04   0
   7  -1  44  204.82   13.07   0
   1   2  41    3.47    8.66   0
   3   2  49   -4.76   10.35   0
   4  -1  41   11.12    8.91   0
   6   0  48  191.19   12.85   0
   0   2  34  303.13   12.39   0
   2   1  43    3.63    9.39   0
   3  -1  37    5.44    7.98   0
   3   1  47   -3.97   10.12   0
   5  -3  29  -13.10    8.30   0
   6  -4  19   -4.80    8.52   0
   6  -3  33    5.09   10.15   0
   7  -4  23    8.59    9.83   0
   8  -4  24  432.76   15.10   0
   2  -1  30  728.14   16.12   0
   4  -3  22  417.74   12.69   0
   6  -2  41    6.62   10.90   0
   6  -1  46  119.19   12.93   0
   9  -4  22  143.01   12.19   0
   5  -1  45    4.00    9.66   0
   7  -2  42  226.10   13.21   0
   8  -3  35  -12.08   10.71   0
   2  -2  13    3.37    7.14   0
   3  -2  29   11.31    8.26   0
   5  -4   3   -2.10    7.14   0
   5  -4   6  423.83   14.20   0
   5  -4   9   37.46    9.07   0
   5  -2  40  631.38   16.70   0
   4   1  51   -0.90   10.84   0
   6  -4  22  462.60   13.81   0
   7  -3  37    5.49   11.26   0
   8  -4  27   -2.80   10.02   0
   9  -4  25    1.90    9.53   0
   3   0  45   -2.46    8.56   0
   4  -3  25    0.39    7.34   0
   4  -1  44  417.71   14.51   0
   5  -4  12 1315.08   21.94   0
   5  -3  32  888.32   17.48   0
   6  -3  36  450.34   15.10   0
   0   1  29   -1.38    7.09   0
   1   1  39    1.23    8.27   0
   4   0  49   -2.01   10.52   0
   4   2  53    4.51    9.66   0
   2  -2  16 3022.05   31.09   0
   2  -1  33    8.82    8.10   0
   5  -4  15    7.66    8.09   0
   6  -4  25    0.93    9.36   0
   6  -2  44  351.47   15.25   0
   7  -4  29   16.78   10.51   0
   1   2  44  427.79   14.41   0
   2   0  41    4.62    7.57   0
   3   1  50  278.52   14.01   0
   3   2  52  187.07   12.48   0
   5  -1  48  353.83   14.55   0
   6  -1  49   -1.44   11.05   0
   7  -2  45  -17.21   10.94   0
   8  -4  30  152.13   11.85   0
   9  -4  28  136.62   11.20   0
   0   2  37   -1.43    8.20   0
   3  -2  32 1387.41   20.26   0
   4  -3  28  836.64   16.98   0
   4  -2  39   -9.79    8.55   0
   5  -2  43   -5.05   11.27   0
   1  -1  20 1568.09   22.87   0
   2  -2  19   -1.59    6.35   0
   5  -3  35    3.92    8.87   0
   6  -3  39    1.50   10.76   0
   7  -3  40  238.15   12.98   0
   3  -3   9    1.88    5.74   0
   6  -4  28  559.52   16.07   0
   3   0  48  299.57   12.52   0
   4  -1  47    8.07    9.02   0
   4   1  54   83.64   11.50   0
   5  -4  21   21.45    8.28   0
   5   0  53   -5.20   10.43   0
   7  -4  32  397.18   13.64   0
   8  -4  33  -15.35   10.41   0
   1   1  42  404.77   13.85   0
   2  -1  36 1111.81   18.84   0
   3  -1  43  -12.13    8.54   0
   6  -2  47   16.62   11.33   0
   0   1  32 1894.95   25.11   0
   2  -2  22 2052.56   24.63   0
   2   2  51    3.66    9.95   0
   3  -2  35   -0.76    7.56   0
   4  -3  31   18.49    8.22   0
   4   0  52  214.60   12.93   0
   5  -3  38  134.26   11.90   0
   1  -1  23    2.98    6.08   0
   2   0  44  934.45   17.78   0
   3  -3  18  585.40   14.90   0
   4  -2  42  573.67   15.04   0
   5  -4  24  798.37   16.94   0
   5  -2  46   80.12   10.70   0
   5  -1  51   13.09   11.63   0
   6  -4  31  -11.65    8.45   0
   7  -3  43    0.63   10.88   0
   1   2  47    1.01    9.58   0
   2   1  49    0.12    9.65   0
   3   1  53   -0.02   10.31   0
   7  -5  15   10.14    8.76   0
   7  -4  35    9.12   10.99   0
   8  -4  36  200.15   13.38   0
   1   0  37    0.87    7.96   0
   2  -2  25    6.30    7.73   0
   8  -5  22  148.74   12.01   0
   3  -3  21    2.00    7.86   0
   4  -3  34  675.45   16.31   0
   1  -1  26 1336.81   20.22   0
   2  -1  39   -4.77    8.85   0
   3  -2  38  451.14   14.46   0
   3   0  51   -1.25   10.54   0
   5  -3  41   -1.92   10.90   0
   6  -2  50  160.49   12.49   0
   4  -2  45    5.51    9.91   0
   7  -5  21  -10.25    9.32   0
   8  -5  25    0.46    9.43   0
   0   1  35   -3.73    7.10   0
   1   1  45    7.14    8.71   0
   2  -2  28 1221.58   19.55   0
   2   0  47   -8.92    9.59   0
   3  -3  24 1815.78   22.72   0
   4   0  55   11.91   10.27   0
   5  -2  49  -10.80    9.83   0
   6  -3  45   -4.07    9.99   0
   8  -4  39    1.32    9.97   0
   7  -5  24  634.51   16.69   0
   1  -1  29   -0.70    7.51   0
   4  -3  37   -6.13    8.30   0
   8  -5  28  253.14   13.08   0
   1   0  40  878.92   16.97   0
   2   1  52  390.60   14.69   0
   3  -3  27   -3.66    8.25   0
   3  -2  41   16.28    9.10   0
   3   1  56  197.05   12.68   0
   4  -4  11   -3.88    7.18   0
   4  -4  14  369.62   12.89   0
   2  -2  31   -5.48    8.31   0
   4  -4   8 1710.04   25.26   0
   4  -4  17    3.48    8.06   0
   5  -4  33    6.26    9.67   0
   5  -3  44  318.65   12.99   0
   6  -5  11    4.97    8.13   0
   6  -5  14  502.63   15.17   0
   6  -5  17    7.07    8.99   0
   6  -2  53    4.06   10.44   0
   7  -5  27   13.54   10.02   0
   0   2  43    2.33    8.47   0
   3   0  54  139.10   11.73   0
   4  -2  48  437.79   15.05   0
   6  -3  48  237.45   13.46   0
   8  -5  31    3.99    9.91   0
  -1   2  30  658.32   17.70   0
   0   0  27    0.69    6.71   0
   4  -4  20 1463.30   21.05   0
   4  -3  40  610.52   15.69   0
   5  -2  52  217.83   13.65   0
   6  -5  20  623.13   16.20   0
   6  -4  40  361.37   14.52   0
   0   1  38  302.30   12.07   0
   1  -1  32 1984.13   23.86   0
   2   0  50  268.99   12.98   0
   3  -3  30  714.82   15.25   0
   4  -4   5    1.40    6.62   0
   4   0  58  119.12   12.06   0
   6  -5  23   -0.30    9.32   0
   7  -5  30  279.89   13.71   0
   1   1  48  430.45   14.32   0
   8  -5  34  212.35   13.07   0
   1   0  43    5.34    8.57   0
   2  -2  34  319.09   11.48   0
   3  -2  44  451.03   13.58   0
   5  -3  47    9.44    9.14   0
   2   1  55   -4.52    9.90   0
   3  -3  33   -6.28    8.89   0
   4  -1  56  213.03   13.52   0
   6  -5  26  288.83   11.85   0
   7  -5  33  -10.37   10.44   0
   0   0  30  180.97    9.82   0
   3  -1  52  414.56   13.68   0
   3   1  59    2.39    9.40   0
   4  -3  43    5.14    8.88   0
   4  -2  51   -2.71   11.01   0
   6  -4  43  -11.17    9.42   0
   6  -3  51   -4.38    9.88   0
   1  -1  35    3.30    6.89   0
   3   0  57    1.76   10.23   0
   4  -4  29   -3.31    8.67   0
   5  -4  39   12.81    9.76   0
   5  -2  55  -10.15   10.66   0
   6  -5  29    0.87    9.36   0
   8  -5  37    5.15    9.80   0
  -1   2  33    7.83    7.39   0
   0   1  41   -2.40    7.62   0
   2  -2  37    4.33    7.31   0
   7  -5  36  245.03   12.94   0
   7  -4  47    4.78   10.28   0
   2   0  53   -0.15   10.03   0
   3  -3  36  660.55   15.04   0
   3  -2  47    5.44    8.54   0
   5  -3  50  294.55   13.78   0
   1   0  46  158.16   10.60   0
   1   1  51    6.09    9.07   0
   2  -1  48  434.70   14.32   0
   4  -4  32  577.50   15.05   0
   6  -5  32  523.35   16.04   0
   6  -4  46  172.00   12.42   0
   0   0  33    1.25    6.13   0
   4  -3  46  123.85   10.62   0
   5  -4  42  304.27   13.71   0
   6  -3  54   76.75   11.42   0
   2  -2  40 1027.19   18.52   0
   3  -1  55   -0.24   10.28   0
   4  -2  54   64.51   10.73   0
   4  -1  59    4.44   10.82   0
   7  -5  39    0.98    9.98   0
   2   1  58  159.30   12.93   0
   3  -3  39    6.83    8.06   0
   4  -4  35    1.91    9.65   0
   5  -5  13   -1.38    7.70   0
   5  -5  16  829.88   17.89   0
   5  -5  19   -0.34    8.28   0
   5  -5  22  338.05   13.15   0
   5  -2  58  173.72   12.13   0
   6  -5  35    2.63   10.62   0
   3  -2  50  243.53   12.85   0
   5  -3  53   -5.92   11.06   0
   5  -5  25    1.51    7.55   0
   4  -4  14  366.01   13.49   0
   4   1  30  403.11   15.25   0
   5   1  31    7.30   10.85   0
   6  -6   6  521.45   16.85   0
   6  -5  17   18.65    9.80   0
   7   0  31    4.71   11.10   0
   8  -6  14  171.48   13.67   0
   8  -1  30  128.58   13.07   0
   9  -4  25   10.65   12.25   0
   9  -3  27   20.00   11.74   0
   2  -2  13   -1.39    7.44   0
   3  -1  25   18.02    9.04   0
   3   0  27    7.26    7.35   0
   4  -1  29    2.47    9.60   0
   5   0  32  588.57   17.55   0
   7  -1  32  361.27   16.17   0
   8  -3  29    8.40   11.19   0
   9  -6  15   13.06   12.10   0
   3  -4   4 1351.28   24.40   0
   3  -3  15    2.61    7.99   0
   4  -3  22  442.26   14.39   0
   5  -3  26  773.54   17.10   0
   8  -4  27    4.43   12.57   0
   2   2  24 1990.12   29.56   0
   5  -4  21   16.78    8.72   0
   6  -4  25   -9.07   10.45   0
   6   0  33    5.61   11.65   0
   7  -6  13    2.94   10.75   0
   4  -2  27    0.26    8.24   0
   4   0  31    7.54    8.16   0
   5  -5  13   -4.85    8.95   0
   6   1  32  374.17   17.60   0
   9  -5  23    1.44   11.75   0
   3   2  28  489.73   16.53   0
   4  -5   3    1.73    7.78   0
   6  -3  30  256.83   13.86   0
   7  -3  31  -10.01   11.06   0
   8  -6  17    1.02   11.01   0
   3   1  29    6.60    8.90   0
   5  -2  31    4.10    9.15   0
   6  -6   9    1.84    9.07   0
   9  -6  18  284.96   14.60   0
   2   1  25   12.97    6.57   0
   3  -2  23    8.52    8.66   0
   6  -5  20  612.66   16.17   0
   8  -5  25   -6.01   12.05   0
   9  -4  28  149.18   12.60   0
   7  -6  16  838.17   19.50   0
   7  -4  29    9.03   12.40   0
   7   0  34  210.60   15.76   0
   8  -3  32  317.10   14.56   0
   8  -1  33  -13.22   12.22   0
   2  -1  21   26.92    7.34   0
   5  -3  29    5.27    9.82   0
   7  -1  35   -0.98   11.51   0
   8  -4  30  155.35   13.76   0
   9  -7  10  234.13   13.91   0
   3  -4   7   28.10    7.54   0
   3  -3  18  599.96   15.66   0
   4  -3  25    7.03    9.26   0
   5  -5  16  844.57   18.43   0
   5  -4  24  820.69   17.43   0
   5   1  34  311.02   15.28   0
   6  -4  28  575.08   16.75   0
   9  -5  26  251.79   14.71   0
   2  -2  16 3074.66   32.21   0
   3  -1  28 1537.75   22.41   0
   3   0  30  387.69   13.76   0
   4  -5   6  434.58   14.62   0
   4   1  33   25.33    9.98   0
   5   0  35    2.43    9.62   0
   6  -6  12  453.18   15.00   0
   8  -6  20  276.56   14.26   0
   9  -6  21   14.68   11.02   0
   4  -2  30  243.48   12.67   0
   6  -2  35   -5.20    9.80   0
   6   0  36  303.44   14.79   0
   7  -3  34  256.72   14.91   0
   4   0  34  313.08   13.81   0
   6  -3  33   14.08    9.91   0
   9  -7  13   -2.98   10.18   0
   5  -2  34  548.12   15.62   0
   6  -1  37    6.39   11.56   0
   7  -6  19   21.99   11.27   0
   7  -5  27   11.94   11.70   0
   8  -5  28  253.22   13.77   0
   5  -1  36  386.40   14.28   0
   7  -4  32  392.21   15.00   0
   8  -7  12  301.52   14.47   0
   8  -3  35   -2.01   11.00   0
   2   2  27    0.96    7.87   0
   3  -4  10 1223.59   21.68   0
   3  -2  26  606.83   14.87   0
   3   1  32 1074.79   21.05   0
   4  -5   9   38.82    8.49   0
   5  -5  19    4.77    9.10   0
   6  -6  15   -0.63    9.49   0
   8  -6  23    9.60   11.31   0
   8  -4  33   15.28   11.15   0
   9  -6  24  279.52   14.81   0
   9  -5  29   -1.86   12.25   0
   5  -4  27    1.41    8.71   0
   5  -3  32  865.92   18.03   0
   6  -4  31   -0.79   10.50   0
   7  -1  38   83.42   12.65   0
   7   0  37    0.23   10.67   0
   8  -2  37   -0.66   11.13   0
   2   1  28 1562.24   24.62   0
   3  -3  21    4.53    8.34   0
   4  -3  28  803.53   16.95   0
   2  -1  24 1995.32   25.35   0
   5   0  38  294.93   14.82   0
   7  -6  22  225.29   14.05   0
   7  -3  37   17.29   11.95   0
   2  -2  19    1.60    6.51   0
   3  -1  31    6.16    7.74   0
   4  -2  33   -0.26    9.43   0
   5   1  37    3.70   11.07   0
   6  -3  36  428.99   14.78   0
   8  -7  15    4.04   10.87   0
   8  -5  31   -1.51   11.05   0
   3   0  33    1.06    7.47   0
   4   1  36  389.31   15.33   0
   6   0  39   -5.27   11.59   0
   7  -5  30  274.86   13.20   0
   7  -4  35    4.20   12.23   0
   4  -5  12 1292.33   22.01   0
   4  -4  23    7.59    7.75   0
   4   0  37    2.80    9.96   0
   5  -6   8  982.95   20.29   0
   5  -5  22  329.95   13.60   0
   5  -2  37    8.79    9.25   0
   6  -6  18  326.51   13.25   0
   6  -1  40  263.38   15.03   0
   8  -6  26  282.11   15.24   0
   8  -4  36  210.85   13.58   0
   8  -3  38   95.94   13.12   0
   9  -7  19    2.14   11.13   0
   9  -6  27   -5.03   10.84   0
   3  -4  13   14.18    6.77   0
   5  -4  30  206.96   13.04   0
   5  -1  39  -10.31   11.00   0
   3  -2  29   12.39    7.60   0
   5  -3  35    2.11   11.06   0
   6  -4  34  251.04   12.89   0
   8  -7  18  308.67   15.05   0
   2   0  29   -0.68    7.90   0
   3  -3  24 1789.93   23.80   0
   4  -3  31    8.19    9.45   0
   7  -6  25    9.88   11.29   0
   7  -1  41   -6.54   11.08   0
   3   1  35    8.76    9.31   0
   5  -6  11   11.08    8.53   0
   7  -7  14  202.75   12.90   0
   7  -3  40  243.05   14.65   0
   8  -5  34  216.61   13.57   0
   4  -5  15   -1.69    8.49   0
   6  -6  21  -10.34    9.81   0
   6  -3  39    8.34   11.48   0
   7  -5  33    4.43   11.92   0
   8  -6  29    1.55   11.37   0
   9  -7  22   91.46   11.27   0
   2  -2  22 2053.64   25.30   0
   2  -1  27    3.21    7.04   0
   2   2  30  240.89   12.43   0
   4  -4  26  842.78   17.85   0
   4  -2  36  466.21   15.26   0
   5   0  41   -1.69   11.27   0
   7  -4  38  203.95   13.96   0
   7  -2  42  217.83   13.94   0
   2   1  31    7.26    8.16   0
   3  -4  16 2194.46   26.63   0
   5  -2  40  629.37   17.49   0
   6   0  42  204.04   15.09   0
   8  -7  21    7.68   10.21   0
   8  -4  39   -1.97   11.59   0
   1   1  24 1897.07   27.46   0
   3   0  36  996.78   19.74   0
   4   1  39    2.28    9.91   0
   5  -4  33    0.61   10.45   0
   7  -6  28  242.93   14.12   0
   4   0  40  583.08   16.94   0
   5  -6  14  510.66   15.36   0
   5  -3  38  151.77   11.96   0
   5  -1  42  256.88   14.01   0
   6  -5  32  538.71   16.47   0
   6  -4  37    8.71    9.70   0
   6  -1  43   -5.39   10.74   0
   7  -7  17   -9.77   10.28   0
   3  -3  27  -12.64    8.74   0
   3  -2  32 1405.87   21.06   0
   4  -5  18  860.76   18.05   0
   4  -3  34  658.58   16.61   0
   8  -5  37   -7.54   11.42   0
   7  -5  36  248.53   14.05   0
   8  -6  32  294.07   14.19   0
   2   0  32  679.86   16.51   0
   4  -4  29   -2.30    9.45   0
   6  -3  42  219.65   14.18   0
   7  -3  43   -1.78   10.83   0
   8  -7  24  294.81   14.16   0
   2  -2  25   -2.45    7.81   0
   5  -6  17    5.96    8.43   0
   7  -7  20  242.88   12.99   0
   7  -4  41    3.25   11.90   0
   2  -1  30  724.97   15.82   0
   3   1  38  223.67   12.51   0
   4  -2  39   -1.90    8.84   0
   4  -1  41    7.01    8.86   0
   7  -6  31    3.17   10.93   0
   7  -2  45   -0.81   12.11   0
   2  -3  17   15.82    6.76   0
   4  -5  21   19.27    8.87   0
   5  -4  36  612.47   16.02   0
   5   0  44  290.75   14.60   0
   6  -6  27   -1.85   10.68   0
   6  -5  35    2.09   11.42   0
   6  -4  40  388.33   15.32   0
   1   2  26  568.74   16.88   0
   2   1  34  744.17   17.77   0
   5  -3  41    0.23   11.03   0
   6   0  45    9.04   12.27   0
   1  -1  20 1592.41   23.28   0
   3  -3  30  671.68   15.28   0
   3  -2  35    2.37    8.07   0
   4  -3  37   10.36    9.72   0
   5  -1  45   -0.56   11.43   0
   6  -1  46  114.10   13.04   0
   7  -7  23   -5.55   11.79   0
   7  -5  39    6.06   11.23   0
   8  -7  27   -2.90   11.36   0
   1   1  27   -1.96    6.90   0
   4   0  43    6.43   10.01   0
   4   1  42  257.79   13.98   0
   4  -4  32  593.61   15.19   0
   6  -3  45   -1.46   11.91   0
   7  -3  46  110.75   12.27   0
   2  -2  28 1262.11   20.31   0
   6  -2  47    4.27   11.59   0
   7  -6  34  226.77   12.96   0
   7  -4  44  199.67   13.01   0
   2  -3  20 1512.60   21.88   0
   2  -1  33    3.47    8.71   0
   2   0  35    5.12    8.28   0
   4  -5  24  810.54   16.86   0
   4  -2  42  518.33   16.14   0
   5  -4  39   11.75   10.86   0
   4  -1  44  385.19   13.78   0
   5  -6  23    7.37    9.35   0
   6  -4  43    4.96   11.83   0
   8  -7  30   91.11   12.08   0
   3  -4  25    4.43    8.41   0
   3  -3  33   -1.34    9.27   0
   3   1  41    2.54   10.38   0
   5  -5  34  368.93   14.49   0
   5  -3  44  339.50   14.98   0
   1  -1  23   -5.22    6.35   0
   3  -5   5   17.66    7.61   0
   3  -2  38  408.38   14.16   0
   4  -3  40  605.95   16.57   0
   5   0  47   -0.85   10.44   0
   6  -7  19   11.39    9.39   0
   7  -5  42  150.33   12.27   0
   3   0  42  416.10   14.68   0
   4  -4  35   -1.80    8.52   0
   5  -1  48  343.64   15.35   0
   6  -1  49   -0.34   10.56   0
   2  -3  23    6.10    6.74   0
   2   1  37   -1.88    8.31   0
   3  -5   8 2290.25   30.13   0
   4  -5  27    3.49    7.92   0
   4   0  46  193.02   13.32   0
   6  -6  33   -4.83   10.94   0
   7  -4  47   -2.45   11.56   0
   1  -2  15   11.26    6.01   0
   1   1  30  701.20   16.91   0
   1   2  29    9.58    7.47   0
   2  -2  31    7.06    7.35   0
   5  -6  26  294.33   13.48   0
   5  -4  42  318.95   14.59   0
   6  -3  48  221.45   13.26   0
   7  -7  29   -5.10    9.98   0
   8  -7  33    5.55   10.03   0
   3  -5  11    8.23    7.46   0
   4  -2  45   -4.58   10.73   0
   6  -7  22  242.16   13.15   0
   6  -5  41    4.22    9.94   0
   6  -4  46  147.39   13.35   0
   6  -2  50  157.95   13.02   0
   2  -1  36 1037.36   18.44   0
   2   0  38  345.96   13.02   0
   3  -4  28  809.24   16.52   0
   4  -6  10  410.04   14.21   0
   5  -5  37   -0.63    9.83   0
   1  -1  26 1317.42   20.87   0
   3  -3  36  672.21   15.61   0
   3  -1  43    0.81    9.61   0
   4  -1  47    0.13    9.29   0
   5  -3  47    6.36   11.14   0
   5  -2  49    0.89   10.98   0
   7  -5  45    5.92   11.11   0
   1  -2  18 1260.55   20.92   0
   2  -3  26  606.17   15.12   0
   3  -5  14  437.66   14.15   0
   3  -2  41    4.67   10.05   0
   4  -6  13   -2.04    8.38   0
   4  -4  38  162.38   11.06   0
   4  -3  43   10.00    9.14   0
   5  -6  29   11.36   10.07   0
   6  -6  36  201.23   13.14   0
   6  -7  25    0.44   10.00   0
   7  -7  32  384.69   15.22   0
   2  -4   9   -1.93    6.50   0
   2  -2  34  324.63   11.89   0
   3   0  45    0.83    9.77   0
   3   1  44  389.15   14.62   0
   5  -1  51    9.34   11.57   0
   5   0  50  114.63   12.68   0
   2   1  40  577.87   16.00   0
   3  -5  17    8.60    8.16   0
   3  -4  31    9.15    8.11   0
   4  -6  16  887.53   18.75   0
   5  -4  45  -11.40    9.38   0
   6  -5  44  241.76   13.40   0
   6  -3  51    7.12   10.97   0
   2  -4  12  843.59   18.33   0
   4   0  49   10.85    9.92   0
   5  -5  40  303.98   14.60   0
   6  -4  49    0.84   11.35   0
   1  -2  21   33.69    7.05   0
   1  -1  29   -1.23    7.91   0
   1   1  33    7.93    6.38   0
   1   2  32 1338.57   23.67   0
   2  -3  29    4.84    8.05   0
   3  -3  39   -0.94    8.37   0
   4  -4  41    7.23   10.39   0
   5  -6  32  534.51   15.76   0
   6  -7  28  217.18   12.44   0
   6  -2  53    6.67   10.47   0
   2   0  41   -2.03    7.57   0
   3  -5  20  704.26   16.50   0
   3  -1  46  202.08   12.39   0
   4  -6  19    0.11    8.57   0
   4  -3  46  121.14   11.69   0
   4  -1  50  269.69   14.38   0
   5  -3  50  261.34   13.90   0
   5  -2  52  223.91   14.20   0
   6  -6  39   -0.23    9.99   0
   7  -7  35    5.27   10.96   0
   2  -4  15   -2.18    6.04   0
   3  -2  44  441.46   13.86   0
   2  -2  37    1.97    9.03   0
   3  -4  34  630.82   15.36   0
   1  -2  24 1941.92   24.28   0
   1   0  34 1085.38   19.38   0
   2  -4  18 1203.15   20.24   0
   4  -6  22  452.56   14.42   0
   5  -5  43    3.80   11.05   0
   5  -4  48  208.88   13.35   0
   6  -7  31    7.39   10.44   0
   6  -5  47   12.09   10.14   0
   2  -3  32 1417.24   20.99   0
   3  -5  23    3.85    8.39   0
   3   0  48  279.91   13.46   0
   5  -6  35  -14.50   10.80   0
   1  -1  32 2068.74   24.86   0
   3  -3  42  318.69   12.61   0
   4  -4  44  578.72   16.46   0
   5  -1  54  107.00   12.33   0
   6  -4  52  185.63   12.95   0
   7  -7  38   64.07   11.70   0
   1   1  36 1046.98   19.65   0
   2  -4  21   -9.06    7.62   0
   2   1  43   11.66    8.73   0
   4  -6  25   -2.04    8.95   0
   4   0  52  218.30   13.71   0
   5  -7  21    3.19    9.83   0
   2   0  44  934.54   19.00   0
   3  -5  26  789.47   17.09   0
   3  -4  37   11.41    9.64   0
   3  -2  47    1.42   10.18   0
   4  -3  49    5.05    9.15   0
   5  -3  53   -2.19   10.78   0
   1  -2  27   -2.57    6.77   0
   1   2  35   -2.89    7.86   0
   2  -2  40 1043.39   18.30   0
   3  -1  49   -4.19    8.69   0
   4  -1  53    5.79   10.37   0
   5  -2  55   -8.04   10.81   0
   6  -7  34  255.68   13.73   0
   2  -3  35   -2.64    8.70   0
   4  -5  39   10.82    8.84   0
   5  -7  24  584.82   16.83   0
   5  -6  38  188.16   11.57   0
   5  -5  46  133.27   12.22   0
   5  -4  51    6.50   11.39   0
   6  -5  50  130.68   12.20   0
   0   0  21    1.53    6.64   0
   1   0  37    9.67    6.92   0
   4  -6  28  573.41   15.67   0
   1  -1  35   -2.35    7.19   0
   3  -5  29   -0.59    8.87   0
   3  -3  45   -1.41    8.96   0
   4  -4  47   16.43   10.78   0
   1  -2  30  745.52   16.19   0
   3  -4  40  575.04   15.63   0
   3   0  51   -2.16    9.72   0
   6  -7  37    1.20   10.29   0
   1   1  39    1.52    7.93   0
   4  -6  31    5.79    9.59   0
   4  -3  52  295.21   14.20   0
   4  -2  54   57.11   10.67   0
   5  -7  27    4.02    9.74   0
   5  -1  57    3.41    9.80   0
   0   0  24 5008.07   40.00   0
   0   1  26 1178.09   20.59   0
   2  -3  38  450.98   13.93   0
   2  -2  43    4.41    8.20   0
   2   0  47    2.82    9.50   0
   2   1  46  218.14   12.20   0
   4  -5  42  303.83   12.74   0
   5  -6  41   -2.16    9.67   0
   3  -5  32  827.55   17.52   0
   3  -1  52  428.61   15.41   0
   4   0  55    1.37   10.81   0
   5  -5  49    3.78   10.61   0
   1  -3  19    9.01    6.26   0
   1  -1  38  331.44   12.51   0
   1   0  40  935.76   18.36   0
   3  -3  48  499.88   16.11   0
   4  -1  56  202.80   13.49   0
   5  -7  30  256.19   12.54   0
   5  -4  54   81.25   12.12   0
   5  -2  58  178.28   13.20   0
   1  -2  33    9.28    7.32   0
   2  -4  30  235.57   10.89   0
   3  -4  43    9.85    9.86   0
   4  -6  34  254.24   13.30   0
   4  -4  50  245.45   13.37   0
   6  -7  40  321.10   13.49   0
   1  -3  22  500.05   13.23   0
   2  -1  48  431.31   14.77   0
   0   1  29    1.65    6.68   0
   2  -3  41   -3.29    9.17   0
   4  -5  45   -2.17    9.34   0
   5  -6  44  229.90   12.55   0
   0  -1  19    1.03    6.06   0
   1   1  42  384.61   13.70   0
   2  -4  33    2.17    8.46   0
   2  -2  46  369.55   13.11   0
   3   0  54  154.96   12.41   0
   4  -3  55   -9.49   10.18   0
   4  -2  57    4.59   11.30   0
   5  -7  33    1.33   10.11   0
   0   2  28 1194.49   22.74   0
   1  -3  25   15.31    7.11   0
   1  -2  36 1106.23   18.85   0
   2   0  50  262.42   13.10   0
   4  -6  37  -10.38   10.50   0
   0  -1  22  529.27   13.83   0
   1  -1  41   -2.92    7.42   0
   1   0  43    0.21    8.74   0
   2   1  49   -6.23    8.73   0
   3  -4  46  126.16   11.78   0
   3  -3  51    3.22   10.37   0
   3  -1  55  -10.60   10.66   0
   5  -4  57   -9.87   10.36   0
   6  -7  43    8.22   10.65   0
   1  -3  28 1593.79   21.77   0
   4  -4  53    6.75   10.51   0
   4  -1  59    8.21   11.52   0
   5  -7  36  240.64   13.61   0
   0  -1  25   -0.27    7.32   0
   0   1  32 1976.05   25.82   0
   2  -4  36  495.43   14.31   0
   2  -3  44  454.76   14.38   0
   4  -5  48  202.91   12.88   0
   2  -2  49   -8.64    9.89   0
   2  -1  51   -7.71   10.00   0
   3  -6  15    0.27    7.99   0
   3  -6  18  499.54   14.79   0
   4  -6  40  345.79   14.50   0
   1  -3  31    4.51    8.40   0
   1  -2  39    0.15    7.63   0
   3  -6  21   19.47    8.29   0
   4  -3  58  168.48   12.58   0
   0  -1  28 1566.98   21.90   0
   0   2  31    2.38    6.99   0
   1   1  45    5.92    8.31   0
   4  -2  60  182.01   12.29   0
   5  -7  39    2.31   10.57   0
   1   0  46  150.09   10.80   0
   2  -5  16 1987.09   26.01   0
   2  -5  19   10.17    7.81   0
   2  -4  39    6.59    9.18   0
   2   0  53   -1.44    9.98   0
   3  -6  24  745.37   17.25   0
   3  -4  49   -0.64    9.37   0
   3  -3  54  135.78   12.31   0
   3   0  57   -0.82   10.50   0
   0   1  35    3.22    7.66   0
   2  -5  13   -0.08    7.23   0
   2  -5  22  358.36   12.87   0
   2  -3  47   -0.02    9.71   0
   3  -1  58  149.57   11.89   0
   4  -5  51    6.67   10.42   0
   4  -4  56  113.15   11.83   0
   1  -3  34  716.14   15.32   0
   3  -6  27   -3.02    7.86   0
   4  -6  43    3.02   10.59   0
   0  -1  31    2.05    6.69   0
   2  -5  25    3.76    8.32   0
   2  -2  52  236.32   12.71   0
   2  -1  54  200.80   12.88   0
   3  -5  44  352.83   14.52   0
   4  -7  26  200.23   12.15   0
   5  -7  42  149.65   12.26   0
   2  -4  42  542.25   15.15   0
   3  -6  30  261.79   12.50   0
   0   2  34  295.00   12.34   0
   1  -3  37    6.63    8.61   0
   2  -5  28  498.17   13.64   0
   3  -4  52  298.91   13.04   0
   3  -2  59   -3.84   11.24   0
   4  -7  29   13.01    9.74   0
   0  -1  34 1178.18   18.69   0
   0   1  38  304.62   12.18   0
   1   0  49   -1.98    8.70   0
   1   1  48  457.55   14.48   0
   2  -3  50  243.52   13.03   0
   3  -6  33   17.21    9.54   0
   3  -3  57   -0.83   10.30   0
   4  -6  46  174.01   11.87   0
   0  -2  17    0.86    5.93   0
   0  -2  20 3797.59   33.13   0
   0  -2  23    3.09    7.42   0
   1  -2  45    4.84    8.26   0
   2  -5   7   11.31    7.25   0
   2  -5  31    0.92    8.81   0
   2   0  56  150.57   13.44   0
   4  -7  32  396.81   14.46   0
   4  -5  54   98.57   10.83   0
   4  -4  59   14.53   10.28   0
   0  -2  14  365.32   12.60   0
   0   0  39    5.73    8.02   0
   2  -4  45   -1.11   10.03   0
   3  -5  47   -4.07   10.70   0
   3  -1  61   -1.06   10.59   0
   5  -7  45    7.28    9.59   0
   0  -2  26 1413.69   20.32   0
   1  -4  17   -4.69    7.00   0
   1  -4  20 1036.27   18.69   0
   1  -4  23   28.37    8.25   0
   1  -3  40  600.96   14.50   0
   3  -6  36  424.45   14.78   0
   0  -1  37    6.42    7.09   0
   0   2  37   -1.27    7.68   0
   1  -1  50  394.90   14.21   0
   2  -5  34  562.62   14.45   0
   2  -1  57    4.59   10.58   0
   3  -4  55    7.23   10.34   0
   4  -7  35    1.63    9.19   0
   0  -2  29   -3.13    6.84   0
   0   1  41   -8.34    7.76   0
   1  -4  14  738.23   16.83   0
   2  -3  53    1.20   10.81   0
   4  -6  49    0.03   10.74   0
   0   0  42  976.26   18.25   0
   1  -2  48  463.41   13.75   0
   1   0  52  455.34   14.77   0
   3  -6  39   -3.24   10.16   0
   3  -5  50  287.17   13.87   0
   3  -3  60  166.74   12.09   0
   3  -2  62   78.71   11.03   0
   4  -5  57    6.50   10.10   0
   0  -2  32  749.67   15.14   0
   0  -1  40  951.91   17.73   0
   1  -3  43   -3.98    8.16   0
   1   1  51   -0.17    8.80   0
   2  -4  48  439.46   13.83   0
   4  -7  38  195.40   12.00   0
   1  -4  11   46.48    7.50   0
   0  -2  35   -0.13    8.06   0
   1  -1  53   11.84   10.38   0
   2   0  59    3.12   10.28   0
   0   1  44  547.11   15.06   0
   1  -4  35    6.70    9.14   0
   1  -2  51   -0.75   10.61   0
   2  -1  60  248.84   13.31   0
   3  -6  42  242.28   13.04   0
   3  -4  58  168.03   11.81   0
   4  -7  41    2.45   10.44   0
   0  -1  43    2.40    8.43   0
   0   0  45    0.24    8.65   0
   1  -3  46  213.84   11.28   0
   2  -4  51   -4.16   10.41   0
   2  -3  56  312.21   12.94   0
   3  -5  53    1.51   10.06   0
   0  -2  38  338.25   12.37   0
   1   0  55   -7.64    9.70   0
   1  -4  38  221.52   12.04   0
   1   1  54  164.50   12.40   0
   3  -6  45    2.90   10.22   0
   4  -7  44  212.62   12.15   0
   0  -2  41  -10.83    8.60   0
   1  -3  49    0.28    8.74   0
   1  -2  54  183.71   12.65   0
   1  -1  56  321.57   13.79   0
   2  -2  61   -6.12   10.38   0
   3  -4  61    9.00   10.13   0
   0  -3  24 1201.22   19.28   0
   0  -3  27   -0.95    7.83   0
   0   0  48  595.01   15.75   0
   0   1  47   -1.91    8.29   0
   1  -4  41   -1.25    8.14   0
   2  -5  46   92.91   11.01   0
   2  -4  54   47.17   11.24   0
   2  -3  59   19.01   10.19   0
   2   0  62  104.48   10.76   0
   3  -5  56  190.76   12.31   0
  -1   1  22  461.12   13.96   0
  -1   1  25    2.30    6.26   0
   0  -3  30  360.19   12.69   0
   2  -1  63    3.19    9.64   0
   3  -6  48  215.42   12.66   0
  -1   0  23   -1.22    5.70   0
  -1   0  26 1301.36   19.75   0
  -1   0  29   -4.10    7.07   0
  -1   1  28 1385.33   21.12   0
   4  -7  47    5.07   10.19   0
  -1   0  20 1544.19   22.36   0
  -1   1  31   -0.76    6.65   0
   0  -3  33   -2.41    7.41   0
   0  -2  44  963.32   17.33   0
   1  -4  44  380.07   14.11   0
   1  -3  52  429.20   14.89   0
   1   0  58  255.38   13.23   0
   2  -6  23   -5.09    8.00   0
   2  -6  26  449.73   13.95   0
   2  -6  20  813.45   17.87   0
   2  -6  29    0.38    8.82   0
   2  -5  49    3.23   10.23   0
   3  -7  31   -4.81   10.02   0
  -1   1  34 1146.58   19.55   0
   0  -3  15    5.33    5.67   0
   0  -3  36 1024.34   17.72   0
   0   0  51    0.21    7.98   0
   0   1  50  411.92   13.82   0
   1  -1  59    2.01   10.24   0
   2  -6  32  493.78   14.94   0
   2  -4  57   -6.13    9.86   0
   2  -2  64  223.72   12.36   0
   3  -6  51   -0.01    9.86   0
   0  -2  47    3.99    9.17   0
   1  -4  47   -5.30    9.89   0
   2  -6  17    2.48    7.68   0
   2  -6  35    3.56    9.46   0
   2  -3  62   77.44   11.50   0
   3  -7  34  245.77   12.70   0
  -1  -1  27    0.90    7.46   0
   0  -3  39   -2.71    7.92   0
   1  -5  27   11.14    8.51   0
  -1  -1  24 2002.79   23.70   0
  -1  -1  30  733.73   15.01   0
  -1   1  37    0.65    6.18   0
   1  -5  21   17.07    7.98   0
   1  -5  24 1083.98   18.52   0
   1  -5  30  397.15   13.53   0
   1  -3  55    4.67    9.44   0
   2  -6  38  174.35   11.48   0
   2  -5  52  232.12   12.48   0
   3  -7  37    3.82   10.01   0
  -1  -1  21   24.65    6.64   0
  -1  -1  33    8.15    6.97   0
  -1   2  27   -1.76    5.82   0
  -1   2  30  700.68   16.80   0
   0  -3  12 2608.66   29.48   0
   0  -3  42  407.57   13.93   0
   1  -5  33    8.09    9.25   0
   1   0  61    2.41    9.28   0
   0  -2  50  258.33   12.87   0
   0   0  54   44.48   10.27   0
   0   1  53    0.24    8.77   0
   1  -5  18  451.49   13.62   0
   1  -5  36  396.12   14.02   0
   1  -4  50  281.31   13.69   0
   2  -6  41   -1.45   10.23   0
   2  -4  60  181.91   12.64   0
   3  -7  40  231.36   12.10   0
  -1  -1  18 1265.55   20.17   0
  -1  -1  36 1142.95   18.23   0
  -1   1  40  905.20   16.97   0
  -1   2  33    9.02    6.98   0
   1  -1  62   76.75   11.52   0
   0  -3  45   -1.85    9.40   0
   1  -5  39    5.59    8.91   0
   1  -3  58  166.65   11.84   0
   2  -5  55  -13.24    9.79   0
  -1  -1  39    5.48    7.40   0
  -1   2  36 1062.78   19.62   0
   0  -1  55   -3.26    8.09   0
   2  -6  44  310.19   13.26   0
   3  -7  43   12.39    9.79   0
  -1   0  44  537.54   14.67   0
  -1   1  43    2.13    7.92   0
   0  -2  53   -6.18    9.99   0
   1  -5  15   30.22    7.34   0
   1  -4  53   10.12    9.02   0
  -1  -1  15    2.31    6.77   0
  -1  -1  42  439.65   13.74   0
   0  -3  48  277.81   12.97   0
   0   0  57   -8.95    9.59   0
   1  -2  63    5.13    9.99   0
  -1  -2  28 1562.31   21.07   0
  -1  -2  31   -1.76    7.80   0
  -1   2  39   -5.21    7.41   0
   0  -4  25   -0.99    7.87   0
   0  -4  28  721.63   15.22   0
   0  -3   9   -1.16    5.16   0
   0   1  56  318.14   12.97   0
   1   0  64  131.01   11.57   0
   2  -6  47    0.11    9.45   0
   3  -7  46  100.97   10.86   0
  -1  -2  25   17.35    6.65   0
  -1  -2  34  720.29   15.00   0
  -1   0  47   -6.55    8.80   0
  -1   1  46  151.09   10.50   0
   0  -4  22  823.82   16.56   0
   1  -3  61    5.19   10.25   0
   1  -1  65   -2.34   10.41   0
   2  -5  58  178.81   11.34   0
  -1  -2  22  543.15   13.88   0
  -1  -2  37    3.00    8.28   0
  -1  -1  45   -2.58    7.82   0
   0  -4  37    2.13    7.75   0
   0  -2  56  159.23   11.86   0
   1  -4  56  237.64   12.87   0
  -1   2  42  407.39   13.32   0
   0  -4  40  570.62   15.21   0
   0  -3  51   -7.83    8.71   0
   2  -6  50  155.57   11.53   0
  -1  -2  40  590.47   14.28   0
   0  -4  19    0.82    6.14   0
   0   0  60  288.59   13.52   0
  -1  -2  19   -1.28    6.06   0
  -1   0  50  425.21   14.01   0
  -1   1  49   -0.56    8.48   0
   0  -4  43    5.70    9.55   0
  -1  -2  43   -5.82    8.01   0
   0  -3  54  155.98   11.85   0
   0  -1  61    4.90   10.30   0
   1  -4  59  -13.62   10.18   0
   1  -3  64  102.26   10.81   0
  -1   2  45    6.86    7.43   0
   0  -4  16 1716.07   23.34   0
   0  -2  59    1.66    9.28   0
   2  -6  53    0.63    9.17   0
  -1  -2  46  210.35   11.51   0
   0  -4  46  212.05   11.13   0
  -1  -2  16 2111.30   24.68   0
  -1   0  53   -2.48    9.52   0
  -1   1  52  470.59   14.35   0
   0  -4  49   -2.16    9.80   0
   0  -3  57   -1.71    9.85   0
   0   0  63    0.07    9.07   0
   1  -5  54   95.52   10.99   0
  -1  -3  32 1087.45   17.73   0
   2  -4  21    0.71    7.24   0
   4  -7  20  599.44   16.61   0
   5  -8  19    3.70   10.94   0
   5  -7  27    6.85   10.91   0
   5  -6  32  502.90   15.35   0
   7  -6  37    7.79   11.90   0
   3  -7   7    6.48    8.54   0
   7  -9  22   89.31   12.46   0
   7  -5  39    3.52   11.82   0
   1  -4   8 2874.94   32.45   0
   2  -5  16 1971.64   25.44   0
   3  -5  26  804.55   17.81   0
   3  -2  32 1400.44   22.33   0
   4  -6  28  570.75   16.35   0
   5  -3  38  115.97   11.79   0
   5  -2  37   -3.83   10.01   0
   6  -6  36  212.99   12.96   0
   6  -3  39    1.36   10.45   0
   7  -8  30   68.31   11.18   0
   7  -7  35  -15.89   11.21   0
   3  -1  31    6.63    8.22   0
   4  -4  35   11.79   10.31   0
   2  -6   5    1.99    8.55   0
   2  -3  26  623.29   14.81   0
   3  -6  21    3.18    9.55   0
   4  -5  33   10.64   10.85   0
   5  -5  37   10.43   10.66   0
   6  -9  18  287.95   14.52   0
   1  -3  16 2131.58   26.17   0
   2  -1  27    3.41    7.56   0
   3  -7  10  462.76   15.15   0
   3  -4  31   16.71    9.55   0
   4  -2  36  453.56   14.39   0
   5  -8  22  171.44   12.49   0
   6  -7  34  272.27   14.82   0
   2  -2  28 1273.34   20.82   0
   3  -3  33   -1.12    8.13   0
   4  -7  23    0.20    8.78   0
   4  -3  37   -2.27    9.91   0
   5  -7  30  238.52   13.71   0
   5  -6  35    1.16   11.74   0
   7  -4  41   -4.73   11.60   0
   1  -4  11   49.92    8.19   0
   1  -1  20 1556.18   23.92   0
   2  -4  24 2029.58   24.56   0
   2  -6   8  972.23   19.58   0
   2  -5  19    9.69    7.49   0
   4  -1  35   17.40    8.89   0
   6  -9  21    1.06   11.31   0
   6  -6  39    8.67   11.84   0
   7  -8  33    5.67    9.94   0
   3  -7  13   24.31    9.12   0
   3  -5  29    9.50    8.39   0
   4  -6  31    4.93    9.16   0
   7  -7  38   46.34   12.35   0
   7  -5  42  131.89   13.68   0
   1  -2  21   42.43    8.18   0
   5  -8  25    0.74   11.14   0
   1  -3  19   10.44    7.80   0
   2  -3  29   13.37    8.96   0
   2   0  26 1339.84   23.38   0
   3  -2  35    3.66    8.92   0
   3   0  30  371.57   14.02   0
   4  -8  15    5.88   10.03   0
   4  -7  26  210.73   12.99   0
   4  -5  36  616.30   16.96   0
   4  -4  38  200.22   11.70   0
   5  -5  40  293.07   14.92   0
   5  -3  41   12.67   10.65   0
   6  -3  42  229.44   13.49   0
   2  -6  11   -1.11    8.32   0
   3  -4  34  685.62   16.99   0
   5  -7  33    2.15   11.54   0
   5  -2  40  600.59   17.75   0
   6  -7  37   -4.00   10.78   0
   6  -4  43   -0.93   10.76   0
   1  -4  14  736.45   16.13   0
   2  -4  27   -5.80    7.72   0
   3  -7  16  533.97   15.70   0
   3  -1  34  723.45   17.46   0
   5  -6  38  193.79   13.30   0
   5  -4  42  309.37   14.43   0
   3  -3  36  673.53   15.74   0
   4  -3  40  603.02   16.49   0
   4  -2  39    0.40    9.48   0
   7  -4  44  203.40   13.91   0
   2  -2  31    4.88    7.23   0
   2  -1  30  683.59   15.87   0
   3  -5  32  890.17   17.63   0
   4  -8  18  260.47   13.43   0
   4  -6  34  237.79   12.35   0
   5  -8  28  235.56   13.79   0
   6  -6  42  206.65   13.80   0
   1  -1  23   -2.08    7.23   0
   2  -6  14  371.11   13.52   0
   6  -5  44  237.22   13.72   0
   7  -5  45   -2.43   12.57   0
   3  -7  19    5.97    9.53   0
   1  -5   3   36.03    8.61   0
   1  -3  22  505.26   13.54   0
   1  -2  24 2008.07   24.65   0
   4  -5  39    2.94    9.56   0
   4  -4  41   14.07   10.43   0
   4  -1  38  222.17   12.49   0
   5  -7  36  240.62   14.03   0
   6  -9  27   13.67   10.05   0
   6  -8  35   -1.16   10.80   0
   6  -7  40  322.12   14.66   0
   2  -4  30  220.07   11.99   0
   2  -3  32 1450.05   20.92   0
   3  -4  37    0.92    9.49   0
   4  -8  21    3.76    9.71   0
   5  -5  43    0.71    9.70   0
   5  -3  44  336.16   15.02   0
   1  -5   6  940.56   19.64   0
   2  -6  17    1.83    8.53   0
   3  -2  38  400.63   13.38   0
   5  -9  20  180.51   12.47   0
   5  -6  41    8.97   10.57   0
   6  -4  46  170.68   12.40   0
   6  -3  45    3.67   10.28   0
   3  -5  35   -2.35    9.84   0
   3  -3  39   -1.91    9.78   0
   4  -6  37    3.93    9.36   0
   5  -8  31  -10.83   10.33   0
   5  -4  45   -6.73   10.88   0
   5  -2  43    5.87   10.23   0
   2  -2  34  326.39   12.76   0
   2   0  29    1.84    7.28   0
   3  -7  22  245.69   12.00   0
   3   0  33    0.83    8.33   0
   4  -3  43    8.54   10.56   0
   6  -6  45   -5.42   11.26   0
   1  -5   9    9.38    7.24   0
   3  -1  37    4.18    8.35   0
   4  -8  24  440.73   15.41   0
   4  -2  42  559.75   16.48   0
   7  -4  47    3.97    9.91   0
   1  -3  25   16.44    7.21   0
   1  -1  26 1305.63   20.98   0
   2  -6  20  798.61   17.48   0
   2  -5  28  503.47   14.47   0
   2  -1  33   10.84    6.96   0
   4  -5  42  311.44   14.70   0
   5  -9  23    1.76   10.61   0
   5  -7  39   10.38   11.34   0
   6  -5  47   -5.70   10.48   0
   1  -2  27    2.26    6.81   0
   2  -3  35   -7.05    9.20   0
   6  -7  43    4.52    9.96   0
   1  -5  12 1050.43   19.73   0
   2  -4  33   -8.35    8.15   0
   3  -7  25    5.69   10.00   0
   3  -6  33   14.68   10.30   0
   3  -4  40  590.01   16.08   0
   5  -8  34  202.41   13.03   0
   5  -6  44  253.18   13.95   0
   5  -5  46  139.38   12.82   0
   3  -5  38  157.34   11.78   0
   4  -6  40  366.08   14.67   0
   1  -4  23   29.31    7.43   0
   2  -6  23    3.48    9.18   0
   3  -2  41    6.19    9.43   0
   4  -8  27   -3.20   10.56   0
   4  -1  41    2.87    8.86   0
   5  -9  26  218.39   13.59   0
   5  -3  47   10.80   10.81   0
   6  -4  49   10.96   12.42   0
   1  -5  15   27.79    8.18   0
   1  -3  28 1557.94   22.01   0
   2  -5  31   -2.41    9.62   0
   5  -4  48  202.55   13.16   0
   0  -2  14  361.73   12.20   0
   4  -3  46  114.26   12.38   0
   5  -7  42  155.43   12.76   0
   1  -2  30  724.32   16.26   0
   1   0  25   -0.87    6.69   0
   3  -7  28  482.74   14.50   0
   4  -5  45    8.07   10.83   0
   4  -2  45   -5.49   10.04   0
   6  -5  50  134.56   12.11   0
   0  -3   9   -0.89    6.65   0
   1  -5  18  429.87   13.83   0
   1  -4  26  759.77   16.44   0
   2  -3  38  413.79   13.84   0
   2  -1  36 1113.62   19.83   0
   2   0  32  702.60   17.02   0
   3  -6  36  407.06   15.12   0
   3  -1  40  587.07   15.98   0
   4  -8  30  132.59   12.06   0
   2  -6  26  462.46   13.70   0
   3  -5  41   -7.35   11.14   0
   3  -4  43    9.92   10.63   0
   4  -7  38  198.94   12.47   0
   4  -6  43    4.02   10.83   0
   5  -9  29    5.69    9.42   0
   5  -6  47   -1.53   10.66   0
   0  -3  12 2573.13   29.58   0
   0  -2  17    3.27    5.91   0
   1  -3  31    1.84    8.83   0
   2  -5  34  562.59   14.74   0
   3  -7  31    0.79   10.05   0
   1  -5  21   13.90    8.39   0
   3  -2  44  431.64   14.82   0
   5  -7  45    3.16   10.60   0
   5  -3  50  280.57   14.50   0
   1  -4  29    5.05    8.28   0
   1  -2  33    5.26    8.52   0
   2  -7  15   -2.62    8.45   0
   2  -6  29    2.06    8.89   0
   3  -6  39    0.59   11.08   0
   4  -8  33   -6.90   10.03   0
   5  -4  51  -11.72   11.06   0
   6  -4  52  174.84   12.25   0
   0  -2  20 3743.47   33.35   0
   0  -1  19   -2.37    6.02   0
   2  -4  39    0.90    8.34   0
   4  -7  41    4.63   10.31   0
   4  -5  48  216.86   13.22   0
   4  -3  49   -7.01   10.38   0
   1   0  28 1452.08   22.67   0
   2  -3  41   12.39    8.39   0
   4  -6  46  174.76   12.78   0
   2  -5  37    4.54    9.42   0
   2  -1  39    2.05    8.38   0
   3  -7  34  252.14   13.45   0
   3  -5  44  351.90   13.26   0
   3  -4  46  125.61   10.73   0
   3  -1  43    1.80    8.94   0
   4  -4  50  232.13   13.45   0
   4  -2  48  439.43   15.39   0
   5  -5  52  257.56   14.13   0
   1  -3  34  723.95   15.67   0
   2   0  35   -3.05    7.54   0
   3  -8  23   -5.18    9.57   0
   1  -4  32 1087.35   18.89   0
   2  -7  21    0.37    9.12   0
   4  -8  36  202.30   12.91   0
   0  -2  23   -6.19    6.44   0
   0  -1  22  521.57   13.74   0
   2  -4  42  534.53   15.76   0
   3  -6  42  242.71   13.61   0
   3  -3  48  465.87   15.71   0
   0  -3  21   -4.75    6.57   0
   1  -5  27   16.64    7.75   0
   1  -2  36 1132.91   18.54   0
   2  -2  43   -8.41    8.87   0
   3  -8  26  253.09   12.67   0
   3  -2  47    0.46    9.79   0
   4  -7  44  219.34   12.70   0
   1  -6  13   18.50    8.00   0
   2  -7  24  426.16   14.56   0
   2  -5  40  602.19   16.20   0
   3  -7  37    8.73    9.63   0
   4  -5  51    6.14   10.15   0
   5  -3  53   -5.46   10.12   0
   0  -4   7   -0.40    6.35   0
   0  -4  10  462.19   14.06   0
   1  -3  37    6.61    8.92   0
   1   0  31   -2.89    7.30   0
   3  -5  47  -11.69    9.24   0
   3  -4  49    5.57   10.47   0
   4  -6  49    1.49   10.03   0
   4  -3  52  313.78   14.25   0
   0  -4  13   -0.51    5.80   0
   0  -3  24 1231.11   19.53   0
   0  -2  26 1392.75   19.99   0
   1  -6  16  756.75   17.21   0
   1  -4  35    8.41    9.44   0
   2  -1  42  439.20   14.28   0
   4  -8  39    0.82   10.69   0
   4  -4  53  -14.83   11.04   0
   0  -4  16 1728.37   23.74   0
   0  -1  25   -2.70    6.23   0
   3  -8  29   -4.68   10.36   0
   3  -6  45    6.13   11.09   0
   4  -2  51    4.48   11.40   0
   1  -6  19    5.13    8.18   0
   2  -7  27    7.53    9.77   0
   2  -4  45    0.37   10.38   0
   2   0  38  330.16   13.05   0
   3  -1  46  218.99   12.12   0
   0  -4  19   -8.97    7.58   0
   1  -2  39    3.11    7.56   0
   3  -7  40  212.71   12.09   0
   3  -3  51   -2.21   10.97   0
   4  -7  47   -7.39    9.54   0
   0  -3  27  -11.14    8.27   0
   0  -2  29    5.64    7.90   0
   1  -6  22  256.92   12.10   0
   1  -1  38  318.02   12.42   0
   2  -5  43    9.79    8.88   0
   2  -2  46  389.03   14.19   0
   3  -8  32  324.69   14.70   0
   3  -2  50  232.61   13.23   0
   0  -1  28 1562.15   21.74   0
   1  -4  38  216.18   11.26   0
   1  -3  40  601.92   14.77   0
   2  -7  30  120.92   11.11   0
   2  -3  47   -3.75    8.83   0
   3  -5  50  272.94   13.87   0
   4  -6  52  185.25   12.60   0
   4  -5  54   84.78   10.97   0
   1   0  34 1141.69   19.99   0
   1  -6  25    4.23    9.16   0
   3  -6  48  245.21   13.08   0
   4  -3  55    0.32    9.94   0
   0  -3  30  353.44   11.83   0
   1  -2  42  414.69   13.80   0
   2  -4  48  403.38   14.77   0
   2  -1  45    9.23    9.03   0
   3  -8  35    1.87   11.17   0
   4  -4  56  125.50   12.74   0
   0  -2  32  740.55   15.30   0
   1  -5  36  400.77   14.18   0
   2  -7  33   -4.97   10.03   0
   2  -5  46   98.14   11.51   0
   0  -1  31   -3.23    6.42   0
   1  -6  28  573.77   15.61   0
   1  -4  41   -4.11    8.53   0
   1  -3  43   11.30    9.70   0
   2   0  41    6.00    7.60   0
   3  -1  49   -3.22    9.53   0
   1  -1  41   -0.69    7.08   0
   2  -2  49  -12.66    9.75   0
   3  -5  53   -2.69   10.45   0
   3  -3  54  149.33   12.01   0
   0  -3  33   11.30    7.40   0
   1   0  37   -5.77    7.46   0
   3  -2  53   -2.97    9.75   0
   0  -2  35   -0.77    8.05   0
   1  -6  31   -9.03    9.41   0
   1  -5  39   -8.12    9.37   0
   2  -7  36  373.99   14.38   0
   2  -6  44  321.62   14.09   0
   3  -8  38   80.84   11.02   0
   3  -6  51    2.16   10.43   0
   0  -5  14  710.20   16.47   0
   2  -4  51    1.18   10.51   0
   0  -5  11    5.75    7.38   0
   0  -5  17   -1.61    7.64   0
   0  -1  34 1130.84   18.28   0
   1  -4  44  406.87   13.37   0
   2  -5  49    9.30   10.15   0
   2  -1  48  473.36   14.83   0
   4  -4  59   -1.61    9.99   0
   4  -3  58  157.45   12.38   0
   0  -5  20  804.18   17.19   0
   0  -3  36 1001.84   17.70   0
   1  -3  46  201.79   11.20   0
   0  -5  23    3.38    8.30   0
   1  -6  34  304.55   12.31   0
   1  -1  44  573.06   15.16   0
   2  -7  39    1.34   10.05   0
   2   0  44  949.32   19.71   0
   3  -5  56  177.74   12.90   0
   0  -4  34  360.39   12.81   0
   0  -2  38  318.66   11.49   0
   1  -5  42  241.65   11.69   0
   1   1  30  683.67   17.41   0
   2  -6  47    2.25   10.49   0
   2  -2  52  266.87   12.20   0
   3  -3  57    3.78   10.67   0
   0  -5  26  297.60   12.41   0
   0  -1  37    4.85    7.65   0
   1   0  40  893.03   18.00   0
   3  -4  58  170.05   12.40   0
   0  -3  39   11.35    8.97   0
   1  -6  37   13.76    9.78   0
   1  -4  47    9.78   10.71   0
   2  -4  54   75.27   11.10   0
   3  -2  56  318.11   13.87   0
   1  -3  49    2.97   10.26   0
   2  -7  42  218.23   12.41   0
  -1  -2  16 2128.64   25.32   0
  -1  -2  19    6.07    7.00   0
   0  -5  29   -0.43    8.90   0
   0  -4  37    7.72    8.13   0
   0  -2  41   -3.41    8.66   0
   0   0  33    2.91    6.04   0
   1  -5  45   11.87   10.11   0
   2  -1  51    3.92    9.01   0
  -1  -2  22  515.30   13.60   0
   1  -1  47   -1.30    9.14   0
   2  -6  50  162.28   12.44   0
   4  -3  61    3.93    9.21   0
  -1  -1  15    3.20    6.64   0
  -1  -1  18 1249.50   19.80   0
   0  -5  32  588.36   15.66   0
   0  -3  42  420.60   14.29   0
   0  -1  40  926.95   16.80   0
   1  -7  26  366.43   13.67   0
   1  -6  40  280.46   13.14   0
   1   1  33    6.50    7.40   0
   2  -3  56  301.15   14.01   0
   2  -2  55   -1.46   10.34   0
  -1  -2  25    7.79    6.82   0
  -1  -1  21   26.02    6.77   0
   1  -4  50  279.50   13.30   0
   1   0  43    1.26    8.02   0
   2  -7  45   -5.34   10.49   0
   3  -3  60  160.65   12.31   0
  -1  -3  14  758.24   16.34   0
  -1  -3  17    3.43    6.01   0
  -1  -3  20  970.43   17.29   0
  -1  -1  24 1958.65   23.32   0
   0  -4  40  624.43   14.94   0
   0   0  36  720.95   15.79   0
   1  -7  29    1.48    9.36   0
   2  -5  55   -1.62    9.94   0
   2  -4  57    9.41   10.44   0
   3  -4  61   -1.50   10.46   0
  -1  -2  28 1542.23   20.59   0
   0  -5  35   -1.47    9.46   0
   0  -2  44  955.43   18.34   0
   1  -5  48  339.40   14.38   0
   1  -3  52  414.95   13.69   0
   3  -2  59   -3.70   11.08   0
  -1  -3  11   54.22    7.51   0
  -1  -1  27   -2.52    6.47   0
   1  -7  32  387.51   13.99   0
   1  -6  43    0.79   10.05   0
  -1  -2  31    2.48    7.75   0
   0  -3  45   -4.51    8.32   0
   1  -1  50  418.94   14.19   0
   2  -8  37   -4.10    8.52   0
   2  -6  53   14.77   10.65   0
   2  -1  54  165.75   11.88   0
  -1  -3  29   -0.51    8.37   0
  -1  -1  30  743.90   15.36   0
   0  -4  43   -0.96    8.46   0
   1  -4  53    8.98   10.21   0
   1   1  36 1066.79   20.47   0
   2  -3  59   15.42   10.01   0
   0  -6  21   -1.89    8.05   0
   0  -5  38  289.64   11.86   0
   0   0  39   -2.53    6.67   0
   0   1  26 1273.81   21.73   0
   1  -7  35   12.92    9.18   0
   1   0  46  166.41   10.39   0
   2  -2  58  138.66   11.85   0
  -1  -3   8 2845.30   31.91   0
  -1  -3  32 1068.28   18.13   0
  -1  -2  34  707.31   14.78   0
   0  -6  24  547.39   15.42   0
   0  -2  47   -8.80    8.17   0
   1  -5  51    9.44    9.53   0
   1  -3  55    3.34   10.04   0
   1  -2  54  181.51   12.60   0
   2  -5  58  171.75   12.62   0
  -1  -1  33    9.84    6.94   0
   0  -6  27   -4.08    8.30   0
   0  -3  48  289.57   13.30   0
  -1  -4  18  445.23   13.51   0
  -1  -4  21    6.91    6.74   0
  -1  -4  24 1081.09   18.86   0
  -1   0  20 1543.97   22.03   0
  -1   0  23    1.91    5.84   0
   0  -4  46  209.32   11.23   0
   0   1  29   -2.57    6.45   0
   1  -7  38   72.42   10.19   0
  -1  -4  15   27.42    7.88   0
  -1  -4  27   10.17    8.45   0
  -1  -3  35   11.48    7.84   0
  -1  -2  37    0.38    7.50   0
  -1   0  26 1315.45   20.04   0
   0  -6  30  149.48   11.43   0
   0   0  42 1023.54   18.46   0
   1  -1  53   -0.76    9.14   0
  -1  -1  36 1116.95   17.77   0
   1  -4  56  237.13   12.30   0
   1   1  39    1.43    7.00   0
   2  -1  57    1.75   10.77   0
  -1  -4  12  999.17   19.35   0
  -1  -4  30  414.91   12.70   0
  -1   0  29    1.81    6.10   0
   0  -6  33    9.37    9.33   0
   0  -2  50  286.96   11.90   0
   0   1  32 1991.50   25.75   0
   1  -7  41    5.44    9.70   0
   1  -5  54  101.96   10.75   0
   1   0  49    7.77    8.31   0
   2  -3  62   90.64   10.92   0
  -1  -3  38  224.25   10.84   0
  -1  -2  40  579.97   14.94   0
   0  -4  49  -13.30   10.10   0
   0  -3  51    6.08   10.06   0
   1  -2  57   -5.18   10.33   0
   2  -2  61    0.22   10.37   0
  -1  -4  33    8.50    7.89   0
  -1  -1  39   -4.31    8.41   0
  -1   0  32 2037.99   23.95   0
   0  -6  36  301.59   12.81   0
   0  -1  49   -5.99    7.95   0
   0   0  45   -3.92    8.03   0
  -1  -4   9    3.46    7.09   0
  -1  -3  41   -1.91    8.17   0
   0   1  35   -0.41    6.84   0
   1  -7  44  191.72   11.32   0
   1  -4  59   -0.08   10.13   0
   1  -1  56  339.57   13.73   0
  -1  -2  43   -1.78    8.10   0
  -1   0  35   -1.63    6.68   0
   0  -6  39    7.54    9.24   0
   0  -4  52  241.83   13.04   0
   0  -2  53   -0.36    8.54   0
   1  -5  57   -0.62    9.79   0
  -1  -1  42  404.73   12.43   0
   0  -3  54  152.10   12.30   0
   1   0  52  456.45   15.38   0
  -1  -3  44  396.65   13.99   0
   0  -1  52  443.75   13.44   0
   1  -2  60  254.42   12.81   0
  -1  -5  22  281.46   11.85   0
  -1  -5  25   11.17    8.49   0
  -1  -5  28  542.60   14.95   0
  -1  -2  46  213.58   11.52   0
   0  -6  42  216.28   11.91   0
   0  -5  50  106.76   11.52   0
   0   0  48  620.37   15.44   0
   0   1  38  319.68   11.91   0
   2  -2  64  205.62   13.34   0
  -1  -5  19    0.92    7.74   0
  -1  -4  42  264.11   12.63   0
  -1  -1  45    5.97    8.63   0
  -1  -5  31    4.58    7.86   0
   0  -4  55    7.14    9.87   0
  -1  -5  34  321.42   12.90   0
  -1  -3  47    0.51    8.60   0
   0  -6  45   -7.53    9.33   0
   0  -3  57   14.25   10.57   0
   1  -1  59    4.66    9.81   0
  -1  -4  45    8.83   10.26   0
  -1  -2  49    6.54    9.66   0
   0  -1  55   -0.69   10.04   0
   0   1  41    2.51    7.32   0
  -2  -2  24 2023.15   23.65   0
  -2  -2  27    2.53    7.82   0
  -1  -5  37    9.92    9.19   0
  -1  -1  48  446.69   13.84   0
   0  -5  53   -0.11    9.01   0
   0   0  51    3.84    8.86   0
   1  -3  64  105.56   10.77   0
   1  -2  63    8.88   10.45   0
   1   0  55    1.30    9.10   0
  -2  -2  30  243.65   10.35   0
  -2  -1  23   -1.98    7.38   0
  -2  -1  26  593.74   13.63   0
  -2  -1  29    8.12    7.91   0
  -1   1  25    0.27    6.25   0
  -2  -2  33    3.91    7.29   0
  -2  -1  20 1562.53   21.09   0
  -2  -1  32 1413.68   20.05   0
  -1  -5  40  273.17   13.03   0
  -1   0  44  525.48   13.59   0
  -1   1  28 1407.55   20.58   0
   0  -6  48  174.29   11.68   0
   0  -4  58  118.03   11.34   0
  -2  -3  25    3.19    7.80   0
  -2  -3  28  504.53   13.84   0
  -2  -2  36  504.46   14.12   0
  -1  -4  48  329.69   13.55   0
  -1  -2  52  443.08   14.43   0
  -1   1  31    1.06    5.74   0
   0  -3  60  268.84   12.80   0
   0   1  44  546.58   14.87   0
  -2  -3  22  369.70   12.31   0
  -2  -1  35    1.86    7.06   0
  -1   1  34 1126.44   18.74   0
   0  -1  58  264.73   13.02   0
   1  -1  62   80.66   11.03   0
  -2  -3  19   14.08    7.56   0
  -2  -2  15    2.48    6.48   0
  -2  -2  39    5.47    8.97   0
  -2  -1  17   14.94    6.15   0
  -1  -5  43    2.98    9.44   0
  -1  -3  53   -4.34   10.54   0
  -1   0  47    4.81    8.45   0
   0   0  54   50.51    9.79   0
  -2  -1  38  436.97   12.55   0
  -2  -3  37    6.95    7.68   0
  -2   0  25    1.18    7.17   0
  -2   0  28 1262.56   19.01   0
  -1  -4  51    5.19    9.23   0
  -1   1  37    3.60    6.13   0
  -2  -3  16 2012.88   24.62   0
  -2  -2  42  554.85   14.06   0
  -2  -1  41    3.22    8.98   0
  -2   0  31   -8.61    6.42   0
  -1  -5  46  101.17   10.86   0
  -1  -2  55  -16.32    9.11   0
   0  -3  63  -15.35   10.49   0
   0  -2  62  113.45   10.81   0
   0   1  47   -1.79    7.77   0
  -2  -3  40  607.00   14.50   0
  -2  -1  14 1631.35   21.96   0
  -2   0  22 2118.45   23.84   0
  -2   0  34  323.90   11.03   0
  -1   0  50  424.99   13.84   0
  -1   1  40  939.55   17.52   0
  -2  -4  26  422.16   13.57   0
  -2  -4  29   -0.53    8.68   0
  -2  -2  12  819.02   16.17   0
  -2  -2  45   -9.86    9.61   0
  -2   0  37    7.70    7.76   0
  -1  -4  54   86.13   11.08   0
  -1  -3  56  214.96   11.93   0
   0  -1  61   -1.13    9.32   0
  -2  -4  23   -2.93    7.94   0
  -2  -4  32  467.80   14.12   0
  -2  -3  43   -1.73   10.03   0
  -2  -1  44  431.33   12.92   0
  -2   0  19    0.51    5.77   0
  -1  -6  35    7.54    8.70   0
  -1  -5  49    4.45    9.41   0
   0   0  57   -3.95    8.85   0
   1  -1  65   -0.78    9.60   0
  -2  -4  35   -4.50    7.94   0
  -2  -3  13   -0.35    6.93   0
  -1  -6  38   82.02   11.00   0
  -1  -2  58  166.09   11.72   0
  -1   1  43   -1.18    7.77   0
  -2  -4  20  768.62   16.68   0
  -2  -4  38  170.86   11.32   0
  -2  -3  46   73.44   10.99   0
  -2  -2  48  451.33   14.35   0
  -1  -1  57   -0.46    9.55   0
   0  -2  65   -4.67   10.09   0
   0   1  50  411.86   13.71   0
  -2  -1  47  -12.22    7.93   0
  -2   0  16 3115.71   29.95   0
  -1  -6  41   -0.22    9.98   0
  -1  -3  59  -10.17    9.84   0
  -1   0  53   12.39    9.11   0
  -2  -4  41    3.17    9.72   0
  -2   0  43    0.42    7.37   0
  -1  -4  57   13.44    8.65   0
  -2  -4  17   -4.54    7.14   0
  -2  -3  49    7.89   10.32   0
  -2  -2   9    2.07    6.30   0
  -1   1  46  166.37   10.51   0
   0  -1  64  146.30   11.03   0
  -2  -2  51    1.85    8.37   0
  -2  -1  50  252.29   11.37   0
   0  -5  41   -6.57    8.82   0
  -2  -6  19    3.84    9.81   0
  -2  -4  26  437.01   14.11   0
  -2  -3  25    2.37    7.57   0
  -2  -2  21    2.76    7.94   0
   1  -1  29    4.37    6.46   0
  -2  -1   8 3297.90   32.91   0
  -1  -4  36  416.05   14.37   0
   0  -2  35   -6.25    7.99   0
  -1  -3  35   10.91    8.95   0
  -1  -2  31   -3.02    7.98   0
   0  -1  28 1438.25   21.72   0
   2  -5  49   -1.50    9.72   0
   3  -6  51   -2.13    9.31   0
  -2  -6  22  147.94   11.26   0
  -2  -1  11   26.95    6.37   0
  -1  -6  35    9.47   10.41   0
  -1  -5  37    4.36   10.46   0
  -1  -1  24 2013.59   24.37   0
   0  -6  42  196.19   11.99   0
   1  -3  43    1.78    9.01   0
   2  -6  50  155.67   12.45   0
   2  -3  44  411.50   14.62   0
  -2  -4  29    2.98    9.72   0
  -2  -3  28  514.09   13.96   0
  -2  -2  24 2138.52   24.12   0
  -3  -3   6  542.69   14.37   0
  -2  -1  14 1729.94   22.97   0
   1  -5  48  326.84   13.82   0
   2  -4  48  429.45   15.20   0
  -3  -4   4  761.25   17.06   0
  -3  -4   7   10.86    8.26   0
  -3  -4  10  470.27   14.04   0
  -3  -3   3    9.92    7.16   0
  -3  -3   9    9.08    7.88   0
  -2  -6  25    0.08    9.87   0
  -1  -4  39    3.08   10.35   0
   1  -4  47    2.40    9.81   0
   1  -2  39    2.81    8.01   0
  -3  -3   0 1131.53   20.20   0
  -3  -3  12  881.12   17.38   0
  -2  -5  30  116.47   11.39   0
  -1  -7  33   11.82    8.84   0
   0  -3  42  430.41   13.76   0
  -3  -4  13   12.71    7.96   0
  -2  -7  17    0.95    8.67   0
  -2  -4  32  459.75   14.27   0
  -2  -1  17   16.05    7.16   0
  -1  -6  38   64.46   10.97   0
  -1  -5  40  317.80   13.51   0
  -1  -3  38  224.18   11.97   0
  -1  -2  34  731.33   16.01   0
   0  -6  45    2.24   10.66   0
   0  -2  38  327.02   12.51   0
   1  -6  49   15.07   10.49   0
  -3  -4  16  549.96   14.93   0
  -3  -3  15    3.21    7.02   0
  -2  -3  31   -3.58    7.92   0
  -2  -2  27   -2.82    7.09   0
  -1  -1  27   -2.14    6.38   0
   0  -1  31    0.36    7.36   0
   1  -1  32 2001.16   27.02   0
  -2  -7  20  199.78   11.46   0
  -2  -6  28  216.68   11.63   0
   2  -5  52  206.26   13.62   0
  -3  -5  11    5.28    9.12   0
  -3  -4  19    2.73    9.06   0
  -3  -3  18  492.23   13.25   0
  -3  -2   5    8.97    6.97   0
  -3  -2   8 2372.71   26.51   0
  -2  -5  33    7.30    9.92   0
  -2  -1  20 1576.05   21.21   0
   0  -4  46  203.87   11.14   0
   1  -3  46  187.89   11.71   0
   2  -6  53    2.86   10.09   0
  -3  -5  14  199.71   11.62   0
  -3  -2  11    6.48    6.36   0
  -3  -5  17   -4.33    9.76   0
  -3  -2   2  897.13   17.93   0
  -3  -2  14  426.06   12.18   0
  -2  -4  35    0.63    8.58   0
  -2  -3  34  564.75   14.91   0
  -2  -2  30  233.19   10.54   0
  -1  -6  41    5.19   10.10   0
   1  -5  51    8.19   10.70   0
  -3  -4  22  234.90   10.98   0
  -1  -5  43  -10.96    9.92   0
  -1  -3  41   -1.61    8.36   0
  -1  -2  37   -5.18    7.45   0
  -1  -1  30  735.99   15.84   0
   0  -3  45    0.21    9.39   0
   1  -4  50  307.70   13.75   0
   1  -2  42  431.45   14.03   0
   2  -4  51   -6.60    9.80   0
  -3  -5  20  298.38   12.99   0
  -3  -2  -1    2.59    6.86   0
  -2  -5  36  363.27   14.15   0
  -2  -1  23    7.03    6.57   0
   0  -2  41   -7.09    8.68   0
  -3  -4  25   22.12    9.60   0
   0  -1  34 1151.33   19.66   0
  -3  -2  20  723.03   14.81   0
  -2  -4  38  149.09   11.72   0
  -2  -2  33    6.89    8.64   0
   0  -4  49   14.50   10.48   0
  -3  -5  23   -0.50   10.30   0
  -2  -3  37   14.01    8.39   0
  -1  -6  44  187.23   11.82   0
  -1  -4  45   13.36   10.72   0
   0  -5  50  117.00   12.09   0
   1  -1  35   -0.94    6.71   0
  -3  -3  27    9.31    7.89   0
  -3  -2  23   10.18    8.40   0
  -2  -1  26  595.99   13.64   0
  -1  -5  46  127.58   11.19   0
  -2  -5  39    9.01    9.96   0
   1  -5  54   98.19   11.38   0
   1  -3  49    3.53    9.23   0
  -3  -6  18  141.84   10.76   0
  -2  -6  37   -6.47    9.58   0
   0  -3  48  262.08   12.90   0
  -3  -3  30  261.62   12.07   0
  -3  -2  26  782.25   15.94   0
  -2  -4  41    0.21   10.07   0
  -2  -2  36  486.16   14.22   0
   1  -4  53    0.81   10.02   0
  -3  -6  21    3.92    9.55   0
  -3  -5  29   -7.30    9.58   0
  -3  -4  31    8.75    8.33   0
  -2  -3  40  645.29   15.18   0
  -2  -1  29   13.42    7.04   0
   0  -1  37    3.87    7.53   0
   1  -2  45   11.45    8.52   0
  -3  -1   7   27.60    7.24   0
  -3  -1  16 2250.68   24.74   0
  -1   0  20 1522.96   22.30   0
   0  -5  53   -0.50   10.38   0
   0  -4  52  222.07   13.12   0
  -3  -6  24  333.53   12.63   0
  -3  -2  29    2.04    8.30   0
  -2  -5  42  238.09   11.94   0
  -1  -5  49    5.74    9.87   0
  -3  -5  32  293.09   12.88   0
  -3  -4  34  262.51   12.41   0
  -3  -3  33   21.44    8.37   0
  -3  -1   4 1340.38   21.31   0
  -3  -1  19   36.92    6.94   0
  -1  -2  43    3.43    7.61   0
   1  -1  38  323.47   12.51   0
  -3  -6  27    4.10    8.79   0
  -2  -4  44  318.42   13.44   0
  -2  -2  39    3.32    8.07   0
  -2  -1  32 1433.21   19.67   0
  -1   0  23   -0.59    6.53   0
  -3  -1  22  422.28   11.89   0
  -2  -3  43    8.37    8.50   0
   0  -3  51   -3.00    9.46   0
   1  -5  57    6.19    9.08   0
   1  -3  52  403.36   14.64   0
  -3  -3  36  425.94   14.24   0
  -3  -2  32  848.68   16.11   0
  -2  -5  45   -1.40   10.21   0
  -2   0  13   -1.31    6.48   0
  -4  -3  11    1.58    7.81   0
  -4  -3  14  429.31   13.52   0
  -4  -3  17   23.25    8.81   0
  -3  -4  37   15.29   10.37   0
  -3  -1   1   43.91    7.23   0
  -3  -1  25    2.30    7.53   0
  -2   0  16 3159.75   30.27   0
   0  -1  40  921.93   17.90   0
   1  -4  56  216.34   12.15   0
  -4  -4  12  356.17   13.26   0
  -4  -4  15   -2.06    8.49   0
  -4  -3   8  656.28   15.59   0
  -4  -3  20  566.17   14.94   0
  -2  -1  35   -0.55    8.34   0
  -2   0  19    0.21    6.98   0
  -1  -1  39    8.54    7.97   0
   1  -2  48  467.81   14.74   0
  -4  -4  18  282.60   12.44   0
  -4  -3   5    9.77    8.41   0
  -3  -2  35    8.27    8.78   0
  -2  -4  47    5.51    9.86   0
  -1  -3  50  283.20   13.22   0
  -1  -2  46  203.97   10.64   0
   0  -4  55   -0.84   10.42   0
   0   0  27   -1.46    5.95   0
  -4  -4  21   -0.23    9.31   0
  -4  -3  23  -11.64    9.11   0
  -4  -2  13    2.37    7.80   0
  -4  -2  16  894.29   17.03   0
  -3  -3  39  -12.81    9.78   0
  -3  -1  28  828.76   15.55   0
  -2  -3  46   94.56    9.86   0
  -4  -4  24  419.42   14.10   0
  -4  -2  10  427.64   12.89   0
  -4  -2  19   -6.34    7.77   0
  -3  -4  40  234.98   12.82   0
  -2   0  22 2098.61   23.93   0
  -4  -3  26  199.06   11.98   0
  -4  -2   7   -0.85    7.09   0
   0  -3  54  145.12   11.63   0
   1  -1  41   -1.98    7.18   0
  -4  -4  27   10.22    9.50   0
  -3  -2  38  140.24   10.53   0
  -3  -1  31   13.01    8.77   0
  -2  -1  38  402.91   12.19   0
  -2   0  25   -3.18    6.15   0
  -1  -4  54   77.22   10.92   0
   0  -2  50  275.85   13.55   0
  -4  -5  19    9.20    9.19   0
  -3  -3  42  246.71   12.88   0
  -2  -4  50  146.58   11.87   0
  -2  -2  45    1.43    9.45   0
  -1  -1  42  411.01   12.48   0
   0  -1  43    0.17    7.83   0
   0   0  30  175.49    9.68   0
  -4  -5  22  124.74   11.00   0
  -4  -2   4  980.37   18.19   0
  -3  -4  43   16.94    9.68   0
  -2  -3  49    1.28    9.83   0
  -1  -3  53   -2.11    9.65   0
  -1  -2  49    3.54    9.92   0
  -4  -5  25    6.28    9.44   0
  -4  -4  30  154.01   11.73   0
  -4  -2  28  551.45   14.19   0
  -3  -1  34  658.94   15.22   0
  -2   0  28 1246.22   18.61   0
   0  -4  58  122.00   10.82   0
  -3  -2  41   -3.91    9.52   0
  -1   0  32 1890.04   23.17   0
  -4  -5  28  147.19   10.57   0
  -4  -4  33    9.77    9.40   0
  -4  -1  15    9.64    7.48   0
  -4  -2   1   -0.42    6.82   0
  -4  -2  31    7.47    7.83   0
  -4  -1  12 1292.02   19.53   0
  -3  -4  46   96.19   11.32   0
  -3  -3  45   -4.12   10.29   0
  -3   0  15    0.20    5.69   0
  -3   0  18  579.10   13.37   0
  -2   0  31   -0.34    7.21   0
  -1  -1  45   -0.86    8.71   0
  -4  -3  35   -5.66    9.17   0
  -4  -1  24  796.53   16.00   0
  -3  -1  37   -4.13    7.77   0
  -3   0  12 2030.34   23.82   0
  -3   0  21   -1.14    6.24   0
  -2  -4  53    3.37    9.42   0
   0  -3  57   -5.53    9.38   0
   0   0  33    0.65    6.40   0
  -4  -2  34  247.37   11.93   0
  -4  -1   9   31.06    6.49   0
  -3   0  24 1857.54   22.28   0
  -1  -2  52  426.05   14.28   0
  -1   0  35   -7.74    7.28   0
   0  -2  53    4.52    8.90   0
   0  -1  46  148.64   10.35   0
  -4  -1  27    9.08    8.15   0
  -3  -2  44  332.83   12.28   0
  -1  -3  56  238.37   12.54   0
  -4  -3  38  195.48   12.12   0
  -4  -1   6  436.70   12.75   0
  -3   0  27    5.92    7.86   0
  -2   0  34  310.44   10.80   0
  -4  -2  37   -1.42    9.36   0
  -4  -1  30  238.98   10.99   0
  -3  -3  48  241.78   11.90   0
  -3  -1  40  600.86   14.19   0
  -2  -2  51    1.28    9.85   0
  -1  -1  48  443.61   14.16   0
   0   0  36  712.60   16.15   0
  -4  -3  41    1.51    9.60   0
  -3  -2  47   -6.71    9.79   0
  -2  -3  55   -1.68   10.09   0
  -1   0  38  315.95   11.96   0
  -4  -1   3   -0.40    6.33   0
  -4  -1  33    6.35    7.91   0
  -2  -1  47   -0.40    9.06   0
  -5  -3  19   -0.99    9.96   0
  -4  -2  40  352.56   12.33   0
  -3  -3  51   -3.84    9.71   0
  -3  -1  43    3.99    8.17   0
  -3   0  33   -3.71    8.21   0
  -1  -2  55    4.24    9.88   0
   0  -2  56  154.46   12.63   0
   0  -1  49   -0.29    8.03   0
  -5  -3  16  526.57   14.75   0
  -5  -3  22  173.11   11.14   0
  -4  -1  36  644.15   15.28   0
  -1  -3  59    2.79   10.11   0
  -5  -3  25    5.54    9.35   0
  -5  -2  18  242.16   11.47   0
  -5  -2  21   -2.76    8.92   0
  -4  -3  44  240.16   11.88   0
  -2  -2  54   56.04   10.74   0
  -5  -3  28  244.86   11.89   0
  -5  -2  24  618.60   14.52   0
  -4  -2  43    8.59    9.60   0
  -4   0  17    0.58    7.13   0
  -4   0  20 1443.51   19.90   0
  -3  -2  50  283.92   13.12   0
  -3   0  36  660.82   14.86   0
  -2   0  40 1045.47   18.07   0
  -1   0  41   -0.18    7.74   0
   0   0  39    2.20    7.11   0
  -5  -4  23    0.74    9.04   0
  -5  -2  12  473.71   13.67   0
  -5  -2  27    6.30    7.75   0
  -4  -1  39   -0.76    9.98   0
  -4   0  23   -4.04    6.79   0
  -3  -1  46  131.21   10.46   0
  -1  -1  51    8.97    9.13   0
  -5  -4  26  198.19   11.54   0
  -5  -3  31    4.84    9.94   0
  -5  -2  30  267.80   12.22   0
  -4   0  26  863.68   15.55   0
  -2  -3  58  175.93   12.09   0
  -2  -1  50  242.14   11.12   0
  -5  -4  29    6.08    8.42   0
  -5  -2   9    0.45    7.49   0
  -4  -3  47    0.94    9.44   0
  -4   0  11   -0.50    6.69   0
  -4   0  29    1.95    8.34   0
  -5  -3  34  191.94   11.60   0
  -5  -1  17    6.34    8.18   0
  -5  -1  20  622.98   14.89   0
  -5  -1  23   -3.67    8.05   0
  -4  -2  46  172.03   11.75   0
  -3   0  39    3.93    7.38   0
  -2   0  43   -0.43    8.30   0
  -1  -2  58  159.73   12.00   0
  -5  -1  14  510.43   13.72   0
  -4  -1  42  332.39   12.02   0
  -4   0  32  573.80   13.50   0
  -2  -2  57    0.23   10.26   0
  -1   0  44  566.46   14.87   0
  -5  -3  37    4.79    9.14   0
  -4   0   8 1674.59   22.08   0
   0   0  42 1023.77   19.43   0
  -5  -1  11   20.24    7.59   0
  -4   0  35   -8.59    8.21   0
  -3   0  42  321.90   12.25   0
  -2  -1  53    5.49    9.38   0
  -1  -1  54  185.00   11.79   0
  -4  -2  49    2.39    9.44   0
  -4  -1  45   10.14   10.05   0
  -2   1  21   32.32    6.48   0
  -2   1  24 1968.95   23.70   0
  -5  -2  39    7.09    9.39   0
  -2   0  46  377.01   13.34   0
  -2   1  18 1201.19   19.12   0
  -2   1  27   -5.65    6.80   0
  -5  -1   8  960.48   17.59   0
  -5  -1  35    6.43    7.96   0
  -4   0  38  193.54   10.22   0
  -2   1  15    4.98    6.43   0
  -4   0   5   -2.14    6.54   0
  -3   1  20 1578.61   20.56   0
  -3   1  23    2.64    6.31   0
  -1  -2  61    7.32    8.84   0
  -1   0  47    7.99    8.07   0
  -5  -2  42  152.14   10.94   0
  -5  -1  38  186.27   11.55   0
  -4  -1  48  214.51   12.23   0
  -3   1  17   13.27    6.19   0
  -3   1  29   13.82    7.88   0
  -2  -2  60  167.97   11.48   0
  -1   1  25   -2.12    6.10   0
   0   0  45   -0.16    8.25   0
  -5   0  25    1.26    8.45   0
  -4   0  41    7.46    8.03   0
  -2  -1  56  326.72   13.21   0
  -1   1  28 1464.83   21.71   0
  -5   0  16  854.04   16.27   0
  -5   0  28  779.69   15.39   0
  -3   1  14 1702.06   21.74   0
  -3   1  32 1407.13   19.95   0
  -2   0  49   -1.21    8.86   0
  -1  -1  57    6.10    8.86   0
  -5  -2  45    6.51    9.40   0
  -5  -1   5    2.82    6.85   0
  -5  -1  41  -10.00   10.15   0
  -5   0  31   -4.41    9.08   0
  -3   0  48  500.72   14.52   0
  -1   1  31   -1.46    6.48   0
  -5   0  13   -5.35    7.37   0
  -4   0  44  576.68   14.91   0
  -3  -1  55   -5.30   10.37   0
  -3   1  35   -0.15    7.76   0
  -2   1  36 1068.30   18.09   0
  -5   0  34  383.18   12.29   0
  -4  -1  51    4.26    8.98   0
  -4   1  22  411.26   11.63   0
  -4   1  25    4.80    6.77   0
  -4   1  28  877.86   16.39   0
  -3   1  11   27.27    7.08   0
  -1   0  50  390.94   13.68   0
  -6  -2  20  255.47   12.11   0
  -6  -2  23   -1.11    8.48   0
  -6  -2  26  292.13   12.00   0
  -4   0   2 1417.93   21.54   0
  -4   1  19   21.82    6.68   0
  -1   1  34 1108.85   18.86   0
  -6  -3  27    6.07    8.84   0
  -6  -2  17   -1.07    9.44   0
  -6  -2  29   -6.09    9.59   0
  -5   0  10  787.97   15.76   0
  -5   0  37    3.64    8.10   0
  -4   1  16 2271.32   24.28   0
  -4   1  31   15.26    7.56   0
  -2  -1  59    0.93    9.82   0
  -2   0  52  249.56   12.25   0
  -2   1  39   -0.60    7.61   0
  -6  -2  32  281.98   12.57   0
  -6  -1  25   -1.00    9.36   0
  -4   0  47    4.89    8.12   0
  -4   1  34  651.93   14.60   0
  -3   0  51    2.01    9.75   0
  -6  -2  35    0.30    9.79   0
  -6  -1  19   12.73    8.81   0
  -6  -1  22  219.29   10.63   0
  -6  -1  28  215.12   11.75   0
  -5  -1  47    3.04    9.78   0
  -5   0  40  316.12   12.79   0
  -4  -1  54  104.28   10.52   0
  -3  -1  58  183.12   11.74   0
  -1   1  37   -1.72    6.85   0
  -6  -1  31   15.88    9.45   0
  -4   1  13   12.18    6.09   0
  -4   1  37   -0.92    8.35   0
  -6  -1  16  811.20   16.62   0
  -6  -1  34  230.80   11.94   0
  -3   1   8 3233.47   30.66   0
  -2   1  42  409.03   13.17   0
  -1   0  53    4.52    8.75   0
  -5   0   7    1.55    6.00   0
  -5   0  43    5.97    8.26   0
  -4   0  50  254.01   11.92   0
  -6  -1  13   -1.67    8.14   0
  -5  -1  50  136.37   11.59   0
  -5   1  24  814.46   15.82   0
  -5   1  27   19.13    8.26   0
  -4   1  40  586.52   13.91   0
  -3   0  54  152.24   11.66   0
  -3   1  44  445.38   13.36   0
  -2   0  55    0.35    9.42   0
  -1   1  40  927.06   17.74   0
  -6   0  24  766.48   16.29   0
  -6   0  27    4.96    9.42   0
  -5   1  21   24.20    7.00   0
  -5   1  30  237.04   10.41   0
  -2  -1  62   72.03    9.92   0
  -6   0  21    7.62    8.09   0
  -5   0  46  160.77   10.91   0
  -5   1  33  -13.95    7.88   0
  -4   0  -1    1.72    5.86   0
  -4   1  43   12.32    9.26   0
  -3  -1  61    1.78    8.99   0
  -2   1  45    5.28    8.20   0
  -6   0  18  314.63   12.17   0
  -5   1  36  650.68   15.46   0
   0   1  29    1.44    5.72   0
  -6  -1  43    0.88    9.11   0
  -6   0  36  234.81   11.84   0
  -5   0   4 1261.34   19.90   0
  -3   1  47    6.96    8.92   0
  -1   1  43   -4.51    7.38   0
  -6   0  15   -6.97    7.92   0
  -5   0  49   17.08    9.33   0
  -5   1  39    0.01    9.35   0
  -3   0  57    5.45    9.07   0
  -3   1   5    8.68    5.28   0
   0   1  32 1899.40   26.35   0
  -6   0  39   -4.50    9.19   0
  -2   0  58  152.12   11.53   0
  -2   1  48  468.23   13.89   0
  -5   1  12 1246.92   18.90   0
  -4   0  56  129.41   11.58   0
   0   1  35   -1.07    6.49   0
  -6   0  12  450.22   13.19   0
  -6   0  42  199.79   11.60   0
  -5   1  42  332.53   11.96   0
  -3   1  50  233.73   12.05   0
  -5   0  52  267.06   12.79   0
  -1   1  46  160.31   10.39   0
  -6   1  29    8.80    9.20   0
  -5   1  45   -1.79    9.44   0
  -3   0  60  187.16   12.84   0
  -6   0  45   -5.44    9.58   0
  -6   1  32  528.50   14.46   0
  -5   1   9   37.35    7.39   0
  -4   2  27    3.48    7.48   0
  -4   2  30  248.03   11.12   0
  -3   2  25   15.04    6.57   0
  -3   2  28 1586.19   20.39   0
  -3   2  31   14.54    7.57   0
  -2   1  51   -2.57    8.82   0
   0   1  38  295.54   11.92   0
  -6   0   9    0.12    7.25   0
  -6   1  20  609.12   14.30   0
  -6   1  35    1.87    9.50   0
  -5   0   1    1.23    6.65   0
  -4   0  59    7.55    9.98   0
  -4   2  24 2140.26   22.97   0
  -4   2  33    7.59    7.95   0
  -3   1  53    1.97    9.87   0
  -7  -1  24  270.50   12.18   0
  -7  -1  27   -6.75    8.51   0
  -7  -1  30   79.86    9.50   0
  -6   1  38  212.19   12.27   0
  -5   1  48  192.14   11.88   0
  -4   1   4 1340.12   19.92   0
  -4   1  52  303.98   13.03   0
  -4   2  21    2.81    6.54   0
  -4   2  36  480.83   13.73   0
  -7  -1  21   13.34    8.78   0
  -7  -1  33    4.23    9.21   0
  -6   0  48  251.79   12.61   0
  -6   1  17    8.15    8.03   0
  -3   2  19    6.24    5.97   0
  -3   2  37    2.41    6.85   0
  -6   1  41    3.73    9.47   0
  -5   2  29    5.21    8.68   0
  -4   2  18 1198.76   17.82   0
  -4   2  39  -10.08    8.25   0
  -2   2  29    1.75    6.86   0
  -7   0  26  280.84   11.87   0
  -7   0  29    5.05    8.95   0
  -7   0  32  375.60   13.30   0
  -5   2  23   11.70    7.80   0
  -5   2  26  755.21   14.80   0
  -5   2  32  908.46   16.24   0
  -3   2  40  586.80   14.54   0
  -2   1  54  182.93   11.25   0
  -2   2  32  699.01   15.25   0
  -7   0  23    2.82    8.45   0
  -7   0  35   -4.81    9.03   0
  -6   1  14  491.27   12.78   0
  -5   1   6  431.77   12.52   0
  -5   1  51    5.82    9.00   0
  -5   2  35   -3.62    7.84   0
  -4   1  55    7.90    9.83   0
  -3   1  56  288.55   13.32   0
  -3   2  16 2143.99   23.81   0
  -2   2  35    3.42    7.43   0
  -7   0  20  250.48   11.82   0
  -7   0  38   63.58   10.54   0
  -5   2  20  712.60   14.23   0
  -5   2  38  135.07   10.81   0
  -4   2  15    0.88    5.98   0
  -3   2  43    9.36    7.02   0
  -2   2  20 3656.63   32.26   0
  -7   0  17    2.68    8.55   0
  -6   1  11   14.12    7.74   0
  -6   1  47    3.50    9.28   0
  -5   2  17    6.84    7.64   0
  -5   2  41   -8.24    8.10   0
  -4   2  45    1.99    9.04   0
  -3   2  13   51.17    7.41   0
  -7   1  28  227.81   12.08   0
  -7   1  31   12.12    9.37   0
  -6   2  28  564.00   14.31   0
  -6   2  31   -3.01    8.67   0
  -5   2  44  363.20   13.20   0
  -4   1   1   42.84    6.81   0
  -4   1  58  190.53   11.67   0
  -4   2  12  850.39   15.46   0
  -3   2  46  199.56   10.24   0
  -2   2  41    3.74    6.85   0
  -7   0  14  191.41   10.88   0
  -7   1  25    4.46    9.26   0
  -6   1  50  141.02   11.02   0
  -6   2  25   -0.44    7.53   0
  -6   2  34  266.69   11.14   0
  -5   2  14  426.41   12.34   0
  -4   2  48  460.08   14.29   0
  -3   1  59    4.33    9.76   0
  -2   2  17   -1.93    5.35   0
  -7   1  22  208.04   11.66   0
  -7   1  37    0.70   10.10   0
  -6   2  22  431.33   12.31   0
  -6   2  37    3.63    8.24   0
  -5   1   3    2.36    6.62   0
  -7   1  40  343.78   13.04   0
  -6   1   8  949.60   17.33   0
  -6   2  40  386.69   13.53   0
  -5   1  57    5.71    9.92   0
  -5   2  47   -1.34    8.16   0
  -3   2  49   -6.56    8.69   0
  -2   2  44  929.41   18.00   0
  -7   1  19    8.80    9.03   0
  -4   2  51    3.02    9.79   0
  -7   1  43    3.19    9.28   0
  -6   2  43   -1.83   10.07   0
  -4   1  61    2.72    8.91   0
  -4   2   9    3.33    6.52   0
  -3   2  10 2129.96   24.61   0
  -7   1  16  800.09   16.64   0
  -2   2  14  365.71   11.93   0
  -2   2  47    1.99    7.96   0
  -6   2  46  162.96   11.37   0
  -3   2  52  445.57   14.01   0
  -1   2  27    0.28    6.15   0
  -1   2  30  673.26   15.55   0
  -1   2  33   11.12    6.57   0
  -4   2  54   55.12   10.43   0
  -1   2  36 1082.93   19.42   0
  -7   1  13    1.42    9.00   0
  -7   2  33   -3.46    9.26   0
  -6   1   5    1.02    7.30   0
  -5   2  53    2.40    9.39   0
  -1   2  24 1846.83   24.64   0
  -7   2  24  607.74   15.26   0
  -7   2  36  264.16   11.41   0
  -6   2  13    0.46    6.46   0
  -6   2  49    3.12    8.80   0
  -2   2  50  273.30   12.48   0
  -1   2  39    3.04    7.24   0
  -7   2  39   10.35    9.91   0
  -5   1   0 1526.84   22.21   0
  -5   2   8 2300.87   24.43   0
  -5   3  28  478.04   13.60   0
  -5   3  31    0.56    7.71   0
  -4   3  29    3.17    6.94   0
  -4   3  32 1109.34   17.65   0
  -5   3  25   -2.34    7.12   0
  -5   3  37   -0.21    7.92   0
  -4   3  26  770.04   14.84   0
   3   3  21    8.55    9.68   0
   8  -4  -6  263.45   13.99   0
   8   0  11   -0.12   12.09   0
   9  -2   2  142.14   12.15   0
   4  -3   1   45.32    8.17   0
   6  -3   6  546.95   15.02   0
   6  -1  16  763.26   18.38   0
   6   0  18  486.07   15.46   0
   2   0  14  353.56   13.42   0
   4   0  19    2.58    7.86   0
   5  -3   5   12.01    7.35   0
   5   2  21    1.47   11.50   0
   7   0  16  637.37   17.07   0
   3  -1  13   44.40    7.91   0
   5   3  20  298.10   15.06   0
   6   2  19    7.89   12.15   0
   7  -2  12  635.39   17.02   0
   9  -3   0  494.54   16.81   0
   1   2  17   14.67    7.30   0
   3   2  22  357.58   14.26   0
   4   3  22  251.89   14.33   0
   5   0  20  824.64   17.82   0
   7  -3   7    5.69    8.91   0
   8  -4  -3    1.19   10.20   0
   8  -3   5   -2.48   11.04   0
   8  -1  12  265.23   13.62   0
   9  -1   7    1.74   11.41   0
   3   0  18 1426.90   21.83   0
   5  -4  -6  888.53   21.07   0
   5  -2  13   -0.67    7.80   0
   6  -4  -2  688.15   17.62   0
   6   3  18  171.00   14.16   0
   7  -4  -1   12.10    9.26   0
   8  -2  10  269.82   13.09   0
   8   1  13    1.38   11.28   0
   4   2  23    7.71   10.57   0
   5  -1  18  478.41   14.47   0
   6  -2  14  372.19   13.60   0
   7   1  18  207.28   14.03   0
   8   0  14  226.34   15.12   0
   1   3  19   29.92    8.84   0
   4  -1  17    0.39    7.72   0
   7  -1  17    9.07   11.53   0
   7   2  17    2.62   12.37   0
   2   2  21   -3.33    6.70   0
   6  -3   9   19.04    8.02   0
   6   0  21   14.79   10.91   0
   7   0  19    6.33   12.37   0
   9  -4  -5   -0.11    9.97   0
   9  -3   3   16.58   11.04   0
   4  -2  12  876.65   17.57   0
   6  -1  19    3.02    9.33   0
   8  -1  15    3.82   12.22   0
   9  -1  10  157.32   12.95   0
   7  -4   2  318.68   14.04   0
   7  -3  10  486.19   15.82   0
   7  -2  15    0.16    9.70   0
   8  -2  13  -10.89   12.04   0
   3  -2   8 3254.09   34.37   0
   3   3  24  720.29   18.55   0
   4  -3   4 1351.98   22.70   0
   5   2  24  416.18   16.48   0
   5   3  23   -6.95   13.39   0
   6  -4   1    6.07    8.50   0
   6   2  22  163.48   13.40   0
   4   0  22  792.61   17.24   0
   5  -4  -3   47.62    9.11   0
   5   0  23    0.12   10.12   0
   8   0  17    4.03   12.05   0
   9  -4  -2  260.92   14.00   0
   2   3  23    5.38    8.51   0
   5  -2  16 2047.33   25.14   0
   6  -2  17    9.12    8.92   0
   6   3  21    5.43   11.14   0
   9  -3   6  275.00   15.14   0
   3  -1  16 2237.64   27.24   0
   4   3  25    1.33   11.27   0
   5  -1  21    6.53    9.67   0
   7   2  20  228.30   14.83   0
   8  -4   3   -8.58   10.50   0
   9  -2  11   -2.18   11.24   0
   3   2  25    7.05    9.27   0
   7   0  22  156.84   14.19   0
   8  -3  11   11.86   11.07   0
   9  -1  13    0.39   10.33   0
   2   0  17    0.42    6.39   0
   3   0  21    0.68    7.30   0
   4  -1  20 1011.16   19.16   0
   4   2  26  429.38   14.65   0
   6  -1  22  301.05   13.93   0
   6   0  24  586.42   17.68   0
   7  -4   5   19.30    9.76   0
   7  -2  18  496.69   16.67   0
   8  -1  18  215.29   13.07   0
   9  -4   1    0.25   10.01   0
   4  -2  15   -1.33    7.30   0
   6  -4   4 1038.92   20.45   0
   6   2  25  -13.83   11.85   0
   8   0  20  228.50   14.09   0
   9  -3   9    2.74   10.64   0
   5  -4   0 1598.74   25.94   0
   8  -4   6  266.64   13.66   0
   2   2  24 1920.09   26.80   0
   4  -3   7   30.04    7.86   0
   5   2  27    0.80   10.16   0
   5   3  26  273.64   14.93   0
   6  -2  20  793.40   18.12   0
   9  -4   4  221.87   13.38   0
   9  -2  14  191.91   12.73   0
   2   1  22  482.79   14.63   0
   4   0  25   -7.51    9.53   0
   4   1  27    8.07   10.12   0
   5  -2  19   24.01    9.74   0
   5   0  26  283.00   12.94   0
   6   3  24  309.07   14.82   0
   7  -1  23    5.42   12.20   0
   3  -2  11   24.75    7.06   0
   3   3  27   -0.22    9.72   0
   7  -4   8  692.73   17.64   0
   7   0  25  -15.20   12.45   0
   8  -2  19   10.18   11.99   0
   8  -1  21   12.32   10.62   0
   1   3  22  392.77   14.89   0
   5  -1  24 1110.26   19.60   0
   7  -2  21  -10.00   11.45   0
   9  -3  12  208.79   13.34   0
   4   3  28  477.29   16.51   0
   6  -4   7    5.93    8.77   0
   6  -1  25    6.13    9.68   0
   6   0  27   -0.42    9.93   0
   8  -4   9    5.92   10.28   0
   8   0  23    7.94   11.88   0
   3  -1  19    2.41    7.11   0
   4   2  29    3.28   10.28   0
   9  -4   7    6.49   11.10   0
   9  -2  17   -5.65   11.33   0
   2   3  26  743.16   18.25   0
   3   0  24 1248.19   20.83   0
   3   2  28  470.63   15.49   0
   4  -1  23   25.13    8.40   0
   5  -4   3    1.06    7.42   0
   6   2  28  221.06   13.89   0
   4  -2  18 1187.49   19.64   0
   6   1  29   -5.98   11.73   0
   7   1  27    1.41   11.59   0
   2   0  20 3760.39   35.22   0
   5   2  30  127.48   13.23   0
   6  -2  23   -1.43    9.08   0
   7  -4  11    2.26   10.02   0
   7  -1  26  402.40   16.32   0
   8  -1  24  420.78   16.20   0
   9  -3  15   21.43   11.53   0
   5  -2  22  370.10   13.94   0
   5   0  29   -4.80   10.78   0
   5   3  29    9.57   11.12   0
   6  -3  18  530.89   14.87   0
   6   3  27   -2.97   10.47   0
   7  -3  19    4.50   10.65   0
   7   0  28  201.74   14.47   0
   8  -2  22  140.83   12.26   0
   9  -4  10  188.68   13.90   0
   4   0  28  729.04   17.04   0
   4   1  30  382.66   14.67   0
   6  -4  10  458.09   14.93   0
   7  -2  24  422.80   14.85   0
   5  -1  27    9.43    9.03   0
   5   1  31    7.47   11.01   0
   6  -1  28  563.70   16.86   0
   6   0  30  160.55   13.80   0
   9  -2  20  201.07   12.73   0
   3  -2  14 1699.99   23.74   0
   2  -1  15    2.09    6.60   0
   2   1  25   15.37    7.99   0
   2   2  27   -0.02    7.07   0
   3   3  30  269.68   13.61   0
   5  -4   6  439.89   14.38   0
   3   1  29    1.39    9.05   0
   4  -1  26  763.34   17.39   0
   4   3  31    3.31   10.78   0
   6   2  31    4.34   12.14   0
   7  -4  14  459.68   14.40   0
   7   1  30  109.19   13.22   0
   8  -5   4  353.14   15.10   0
   9  -4  13    1.34   11.03   0
   1   2  23    6.88    7.10   0
   3  -1  22  529.58   14.06   0
   4  -2  21   -2.36    8.69   0
   6  -2  26  483.31   14.79   0
   6   1  32  356.87   15.42   0
   7  -3  22  261.55   13.95   0
   7  -1  29   18.80   12.36   0
   8  -4  15   -5.21   11.08   0
   8  -2  25   -6.79   10.65   0
   8  -1  27    3.43   10.86   0
   3   0  27   -5.78    8.57   0
   3   2  31   -0.70    9.28   0
   6  -4  13   -2.21    9.16   0
   6  -3  21   14.22    8.93   0
   7  -5   3    3.84    9.85   0
   7  -2  27    3.05   11.51   0
   9  -2  23    6.52   11.03   0
   5  -2  25    4.68    8.54   0
   5   2  33   -2.39   10.79   0
   7   0  31    2.44   11.01   0
   1   3  25   -1.66    7.71   0
   2   3  29   -2.02    9.06   0
   8  -3  23   -4.22   11.74   0
   4   0  31  -10.26    9.85   0
   4   1  33   10.77   10.44   0
   5  -4   9   43.99    8.66   0
   5  -1  30  416.14   14.04   0
   6  -1  31    9.21    9.88   0
   7  -4  17   20.76   10.49   0
   8  -5   7    0.77   10.07   0
   9  -4  16  474.55   16.18   0
   2   0  23    3.58    6.51   0
   5  -3  20  714.71   16.82   0
   5   1  34  298.69   13.26   0
   8  -4  18  306.78   14.67   0
   1   1  21   31.08    6.67   0
   3  -2  17   17.80    7.09   0
   7  -5   6  536.27   16.19   0
   8  -2  28  222.34   13.97   0
   8  -1  30  115.18   12.84   0
   9  -5   8  476.60   16.24   0
   6  -2  29   10.55   11.02   0
   6   2  34  202.07   15.04   0
   7  -3  25    3.46    9.55   0
   7  -1  32  362.65   15.91   0
   7   1  33    3.26   10.93   0
   2  -1  18 1245.46   21.21   0
   4  -1  29    2.24    8.08   0
   6  -4  16  930.65   18.23   0
   6   1  35    6.58   11.48   0
   7  -2  30  136.76   12.82   0
   8  -5  10  297.55   13.87   0
   2   2  30  241.07   12.02   0
   3  -1  25    6.68    7.50   0
   3   3  33    7.93   10.06   0
   4  -2  24 2028.99   24.59   0
   4   2  35    4.61   10.15   0
   5  -2  28  493.30   15.06   0
   8  -3  26  262.11   14.80   0
   9  -4  19    3.16   11.84   0
   5  -4  12 1301.13   21.69   0
   7  -5   9    4.85   10.19   0
   7  -4  20  578.61   16.47   0
   9  -5  11    1.46   11.72   0
   5   2  36  377.40   16.10   0
   6  -1  34  326.75   14.50   0
   8  -4  21   -4.04   11.63   0
   5  -3  23   13.88    9.03   0
   5  -1  33   20.86    9.29   0
   8  -2  31   -5.28   11.72   0
   1   2  26  565.18   16.00   0
   4  -4   2 1413.71   25.20   0
   5   1  37   -4.54   10.91   0
   7  -3  28  490.91   16.28   0
   8  -5  13  -12.67    9.85   0
   8  -1  33   16.92   12.13   0
   2   3  32  860.66   19.96   0
   3  -2  20 1576.09   22.56   0
   6  -5   5    6.71    7.95   0
   6  -4  19    0.25    8.21   0
   6  -3  27   -9.73   10.57   0
   6  -2  32  506.91   16.04   0
   7  -1  35   -3.34   11.50   0
   2   0  26 1327.85   20.79   0
   7  -5  12  490.74   15.60   0
   7  -2  33    0.23   11.57   0
   8  -3  29   -3.21   11.69   0
   9  -5  14  137.11   11.89   0
   9  -4  22  139.35   13.28   0
   9  -3  27    9.45   11.04   0
   1   3  28  803.22   19.26   0
   3  -3   9    1.07    6.59   0
   4  -3  19   26.33    8.67   0
   4  -2  27    3.59    8.65   0
   4  -1  32 1103.05   20.02   0
   5  -4  15   -1.62    8.28   0
   6   1  38   71.25   12.39   0
   6   2  37    1.94   10.46   0
   7  -4  23    6.04   10.40   0
   8  -4  24  434.04   16.33   0
   5  -2  31    8.81    8.85   0
   1   1  24 1816.99   25.34   0
   2  -1  21   23.97    7.05   0
   3   1  35    5.74    9.18   0
   4  -4   5   -4.40    6.80   0
   4   2  38  154.11   12.96   0
   6  -5   8  985.69   20.38   0
   8  -5  16  568.86   16.98   0
   2   1  31    2.07    8.09   0
   5  -3  26  773.49   17.44   0
   5  -1  36  435.01   15.33   0
   5   2  39   -4.91   12.48   0
   6  -4  22  456.55   14.90   0
   6  -1  37   -5.33    9.90   0
   7  -3  31    0.36   11.77   0
   8  -2  34  185.66   13.91   0
   9  -5  17   -0.77   11.09   0
   1   0  19   -1.18    5.81   0
   2   2  33    3.30    8.57   0
   6   0  39   -2.80   10.67   0
   7  -5  15    9.95    9.21   0
   9  -4  25    7.40   10.62   0
   3   2  37    5.70    9.35   0
   5   1  40  290.20   14.85   0
   6  -3  30  258.85   12.50   0
   6  -2  35  -10.30   11.04   0
   7  -1  38   65.03   12.18   0
   3  -2  23   10.38    6.91   0
   4   1  39   -3.71   10.33   0
   5  -4  18  884.82   17.98   0
   7  -2  36  369.12   14.80   0
   8  -4  27    2.69   10.91   0
   8  -3  32  349.55   14.29   0
   4  -4   8 1702.04   25.31   0
   4  -3  22  429.68   12.98   0
   6  -5  11   11.37    9.03   0
   8  -5  19    0.66    9.44   0
   2  -2  13    2.00    6.86   0
   4  -2  30  252.24   11.58   0
   4  -1  35   19.79    8.70   0
   5  -2  34  569.55   15.47   0
   6   1  41   -2.46   11.01   0
   9  -5  20  219.13   12.84   0
   1   2  29    9.79    7.72   0
   7  -5  18  245.38   13.38   0
   8  -2  37   15.10   11.88   0
   9  -4  28  146.24   12.89   0
   2  -1  24 2003.30   25.12   0
   3  -1  31    6.20    7.73   0
   5  -3  29   13.61    8.51   0
   5   0  41    3.66   11.53   0
   6  -1  40  309.72   15.03   0
   7  -3  34  240.02   12.69   0
   4   2  41    2.01   11.99   0
   5  -1  39    8.36   11.16   0
   6  -5  14  514.40   15.32   0
   6  -3  33   -0.93   10.23   0
   8  -5  22  186.10   13.01   0
   1   1  27    4.50    7.00   0
   4  -4  11    4.68    7.29   0
   5  -4  21   14.65    9.05   0
   6  -2  38  169.23   13.58   0
   7  -2  39    7.42   11.98   0
   7  -1  41    6.19   11.25   0
   8  -3  35    5.05   10.35   0
   2   1  34  685.22   15.95   0
   3  -2  26  606.88   14.96   0
   4  -3  25   -7.11    8.32   0
   4   0  40  580.50   16.78   0
   9  -5  23    2.42   10.30   0
   1   0  22  475.96   13.69   0
   2   2  36  463.37   14.87   0
   5   1  43    1.51   11.12   0
   7  -5  21   -0.76    9.84   0
   2  -2  16 3107.20   32.02   0
   3   2  40  617.36   17.00   0
   4  -2  33    9.34    8.08   0
   4   1  42  247.17   13.85   0
   5  -2  37   13.27    9.09   0
   4  -1  38  224.84   11.60   0
   5  -3  32  902.91   18.37   0
   6  -5  17   11.79    9.05   0
   6   1  44  193.67   13.97   0
   7  -3  37    7.20   11.34   0
   8  -5  25   11.82   10.73   0
   3  -1  34  696.09   16.49   0
   4  -4  14  362.64   13.03   0
   6  -3  36  436.73   15.70   0
   6  -1  43   -0.65   11.17   0
   2  -1  27    1.93    7.52   0
   5  -1  42  252.29   13.63   0
   5   0  44  281.17   14.64   0
   8  -3  38   85.12   12.19   0
   9  -5  26  251.93   13.79   0
   3  -3  18  560.58   14.79   0
   5  -5   7   -0.76    8.15   0
   6  -2  41    9.28   11.78   0
   6   0  45    4.45   10.96   0
   7  -5  24  636.84   17.10   0
   7  -2  42  238.09   14.17   0
   3  -2  29   10.26    8.66   0
   3   0  39    7.25    9.28   0
   3   1  41    6.87    9.29   0
   4  -3  28  852.75   16.88   0
   4   0  43   -6.69   11.01   0
   4   2  44  305.42   14.55   0
   6  -5  20  627.81   15.54   0
   8  -5  28  252.80   14.50   0
   1   0  25    3.30    7.12   0
   1   1  30  684.01   16.34   0
   2  -2  19    3.21    6.14   0
   2   1  37    5.26    8.63   0
   4  -4  17    4.01    7.73   0
   4  -2  36  504.71   14.33   0
   5  -5  10  808.68   18.63   0
   5  -3  35   -9.06   10.52   0
   5  -2  40  647.21   16.32   0
   5   1  46  126.79   12.62   0
   7  -3  40  238.00   14.42   0
   2   2  39   -2.32    9.72   0
   4  -1  41   14.51   10.21   0
   4   1  45   11.29   10.96   0
   7  -4  35    1.30   10.93   0
   9  -5  29    2.49   10.00   0
   3   2  43    6.82   10.07   0
   6  -3  39  -12.62   10.04   0
   7  -5  27    5.47    9.02   0
   3  -3  21   -3.80    6.60   0
   3  -1  37    8.64    7.97   0
   6  -5  23   -1.92    9.50   0
   2  -1  30  720.99   15.48   0
   4  -3  31   13.95    8.12   0
   5  -5  13   -0.02    7.73   0
   5   0  47  -11.62   11.30   0
   6  -2  44  344.55   14.13   0
   7  -2  45    2.90   11.11   0
   3  -2  32 1407.98   20.40   0
   4  -4  20 1426.80   21.15   0
   6  -4  34  253.22   12.06   0
   6   0  48  183.96   12.82   0
   8  -5  31   -5.32   10.06   0
   0   2  25   -0.63    6.99   0
   2  -2  22 2075.55   24.88   0
   3   0  42  399.19   14.40   0
   4  -2  39   -7.31   10.30   0
   5  -4  30  223.98   12.47   0
   3   1  44  362.60   14.43   0
   4   0  46  204.22   12.85   0
   5  -5  16  881.12   18.21   0
   5  -3  38  131.52   10.81   0
   5  -2  43   -0.29    9.30   0
   7  -5  30  263.30   12.46   0
   7  -3  43    2.53   11.49   0
   8  -4  39   -2.09   10.79   0
   1   2  35   -1.70    7.76   0
   2   1  40  571.62   15.75   0
   3  -3  24 1805.19   23.51   0
   4  -1  44  404.38   14.79   0
   6  -5  26  318.69   13.39   0
   6  -3  42  251.65   13.77   0
   1   1  33    6.27    6.61   0
   5   1  49    0.79   11.09   0
   8  -6  23    3.55   11.33   0
   1  -1  20 1563.81   23.11   0
   4  -3  34  659.93   15.38   0
   4   1  48  327.64   14.09   0
   6  -4  37   10.02   10.60   0
   8  -5  34  209.26   13.18   0
   2  -1  33    6.06    7.34   0
   2   2  42  533.66   15.78   0
   3  -2  35    4.45    8.60   0
   3   2  46   67.63   12.20   0
   5  -5  19    5.52    8.41   0
   6  -2  47   -7.65   10.47   0
   7  -6  19    9.73    9.79   0
   2  -2  25   -0.35    6.64   0
   5  -4  33   11.65    8.66   0
   5   0  50  128.66   12.02   0
   7  -5  33   -6.50   11.07   0
   3  -3  27   -6.10    7.85   0
   4  -2  42  544.93   15.45   0
   5  -3  41    2.75   11.28   0
   5  -2  46   96.20   12.29   0
   6  -5  29   14.59    8.62   0
   7  -4  41    7.79   11.37   0
   7  -3  46  101.02   12.52   0
   9  -6  27    9.66    9.08   0
   3   0  45   -6.11    9.51   0
   8  -6  26  286.77   14.15   0
   3   1  47    5.00    9.58   0
   4   0  49   -0.04   10.28   0
   5  -5  22  326.99   13.03   0
   6  -3  45    6.53   10.00   0
   7  -6  22  220.89   12.77   0
   8  -5  37    2.06   10.19   0
   0   2  28 1172.77   21.86   0
   1  -1  23   -7.89    7.29   0
   4  -3  37   -0.26    8.31   0
   6  -4  40  331.08   14.99   0
   1   1  36 1053.11   19.49   0
   1   2  38  413.55   14.08   0
   2  -2  28 1247.52   19.65   0
   2  -1  36 1098.02   18.91   0
   2   1  43   -0.03    9.08   0
   3  -1  43   -4.12    9.74   0
   5  -4  36  642.41   16.40   0
   6  -5  32  548.57   16.31   0
   7  -5  36  233.95   13.75   0
   2   0  41    0.16    8.35   0
   3  -3  30  686.20   15.97   0
   3  -2  38  418.68   13.16   0
   4   1  51    9.03   10.55   0
   5  -1  51    0.10   11.34   0
   6  -2  50  167.82   12.13   0
   7  -6  25    7.12    9.98   0
   8  -6  29    2.62    9.78   0
   3  -4   7   27.14    7.90   0
   5  -5  25   -5.38    8.86   0
   5  -3  44  360.20   14.51   0
   6  -6  15    1.03    9.21   0
   2   2  45    3.15    8.83   0
   3  -4  10 1227.03   21.61   0
   4  -2  45  -11.62    9.07   0
   5  -2  49   10.04   10.71   0
   5   0  53    4.66   10.11   0
   4  -3  40  595.60   15.73   0
   6  -3  48  245.51   13.45   0
   1  -1  26 1323.23   20.14   0
   2  -3  11   27.42    6.29   0
   3  -4  13   15.11    7.15   0
   3   0  48  281.18   12.32   0
   6  -6  18  306.56   13.18   0
   6  -5  35  -13.00   10.34   0
   6  -4  43  -16.72   10.28   0
   7  -6  28  224.94   13.14   0
   7  -5  39    8.95   10.31   0
   8  -6  32  301.47   14.12   0
   2  -2  31    4.78    7.19   0
   3   1  50  282.08   14.00   0
   4  -4  32  595.21   15.60   0
   4   0  52  219.32   13.29   0
   5  -5  28  808.30   17.55   0
   5  -4  39    7.87    9.02   0
   2  -1  39    7.70    7.58   0
   3  -4  16 2284.06   27.22   0
   3  -3  33   -0.92    7.72   0
   3  -2  41    7.97    8.16   0
   0   2  31   -0.46    6.89   0
   1   1  39   -2.29    7.93   0
   1   2  41    4.76    9.05   0
   2   0  44  929.91   18.55   0
   2   1  46  187.58   11.71   0
   5  -3  47   17.51   10.85   0
   6  -6  21    3.08    8.98   0
   6  -2  53    9.89    9.65   0
   7  -4  47    7.87   11.51   0
   2  -3  17   18.24    6.44   0
   4  -5   9   35.44    8.35   0
   4  -2  48  416.12   14.80   0
   5  -1  54   89.13   11.71   0
   7  -6  31   -2.28   10.42   0
   1  -1  29   -5.82    6.56   0
   3  -4  19   24.49    6.78   0
   4  -5  12 1301.47   22.11   0
   4  -3  43   18.73    9.79   0
   4   1  54  107.15   10.99   0
   5  -5  31    2.26    9.16   0
   5  -2  52  189.99   12.74   0
   6  -4  46  158.07   12.88   0
   6  -3  51    2.29   10.89   0
   8  -6  35   -2.34    9.69   0
   2  -2  34  311.28   11.50   0
   4  -5  15    8.47    7.51   0
   4  -4  35    0.57    9.05   0
   5  -4  42  331.93   14.46   0
   6  -6  24  782.73   17.78   0
   0   1  29    0.93    6.48   0
   1   0  37   -5.82    6.88   0
   2  -3  20 1535.45   21.47   0
   3  -3  36  634.51   14.96   0
   3   0  51   -1.53   10.34   0
   2  -1  42  402.72   13.76   0
   3  -2  44  444.83   13.67   0
   4  -5  18  843.66   17.57   0
   4  -1  53   -3.98   10.63   0
   0   0  21   -3.09    6.45   0
   4   0  55   -4.94   10.86   0
   5  -5  34  365.56   14.01   0
   5  -3  50  263.98   14.12   0
   6  -6  27   13.13    9.65   0
   7  -6  34  222.96   13.58   0
   1  -1  32 2056.16   24.43   0
   1   1  42  395.70   13.62   0
   2  -3  23    4.24    6.58   0
   2   0  47    6.20    9.19   0
   3   1  53    0.06   10.50   0
   4  -5  21   14.25    8.54   0
   0   2  34  314.14   12.31   0
   1  -2  15    5.51    6.04   0
   2  -2  37   -0.79    8.39   0
   2   1  49    0.17    9.30   0
   4  -4  38  179.80   10.62   0
   4  -3  46  132.80   10.75   0
   4  -2  51   -2.30    9.09   0
   5  -4  45    2.06   10.59   0
   5  -1  57    1.90   11.00   0
   6  -4  49   -4.82   10.47   0
   1   2  44  420.35   14.21   0
   3  -3  39    0.18    8.05   0
   5  -2  55   -7.30   10.58   0
   6  -6  30  215.56   12.43   0
   0   1  32 1989.40   25.61   0
   1  -2  18 1219.56   19.97   0
   1   0  40  906.29   17.58   0
   2  -3  26  586.56   14.45   0
   4  -5  24  790.90   17.11   0
   7  -6  37    9.39    9.81   0
   3  -2  47    0.26    8.55   0
   1  -2  21   25.81    6.74   0
   1  -1  35   -8.04    8.16   0
   3  -1  52  418.59   15.10   0
   3   0  54  143.61   12.08   0
   4  -1  56  210.70   12.85   0
   2  -2  40 1081.79   18.86   0
   4  -5  27   21.36    8.82   0
   4  -4  41    0.66    8.44   0
   5  -6  17    6.25    8.93   0
   5  -3  53  -13.29   10.06   0
   6  -6  33   -9.29    9.55   0
   1   1  45    7.56    8.47   0
   2  -3  29    8.74    7.00   0
   2   0  50  265.43   12.93   0
   3  -3  42  322.89   12.49   0
   4  -3  49    9.74    9.17   0
   4  -2  54   55.07   11.00   0
   4   0  58  106.69   11.99   0
   5  -4  48  210.78   13.42   0
   6  -4  52  188.47   12.50   0
   7  -6  40  324.65   14.30   0
   1  -2  24 1952.98   23.65   0
   3  -4  31   10.47    7.83   0
   3   3   9   11.03    8.31   0
   4   3   4  770.79   16.63   0
   4   5  -1    0.14   11.72   0
   5   0  -7    5.68    7.69   0
   5   3  -4  333.88   13.15   0
   1   5  14  476.77   15.38   0
   4   4   3   16.73   11.05   0
   6   0 -18  328.23   13.43   0
   6   2 -14  171.42   12.81   0
   6   3 -18  277.47   13.18   0
   1   4  15    9.20    8.71   0
   1   7   9    5.31   10.74   0
   2   7   4  276.68   14.44   0
   3   5   7   -2.59   11.07   0
   4   1   3   38.56    8.15   0
   4   2   5    6.68    9.70   0
   6   1 -13    3.47    9.35   0
   0   5  16  817.37   18.73   0
   0   6  15   -6.41   10.69   0
   2   5  12  488.24   15.81   0
   4  -1  -7   24.08    7.25   0
   5   4  -5    3.00   10.22   0
   6   3 -15    4.85   10.74   0
   1   6  13   -2.51    9.48   0
   5  -1 -12 1236.52   21.97   0
   5   3  -1    4.81   10.82   0
   6   0 -15    0.39    8.82   0
   6   2 -11   13.33   10.47   0
   1   8   5   11.51   10.29   0
   2   2  12  880.83   17.45   0
   3   0   3   -0.95    6.15   0
   3   2  10  827.95   16.91   0
   4   5   2  258.28   14.21   0
   5   2   0  775.75   17.01   0
   0   3  15    2.07    7.35   0
   2   3  14  428.95   13.86   0
   3   4  11    2.25   10.69   0
   4   3   7    7.76   10.13   0
   6   1 -10  308.45   13.51   0
   6   3 -12  233.65   13.81   0
   2   6  11   -1.06   11.96   0
   3   1   8 2932.62   29.56   0
   4   4   6  257.92   14.47   0
   5   4  -2  270.16   14.26   0
   0   4  17   -5.64    7.78   0
   2   7   7    3.28   11.43   0
   3   3  12  865.92   17.54   0
   6   0 -12  456.35   14.91   0
   6   2  -8  651.11   16.08   0
   4   1   6  986.38   18.63   0
   5   1   1   13.50    9.24   0
   5   3   2  317.45   14.45   0
   5   5  -6  135.01   11.60   0
   1   7  12  297.70   15.46   0
   2   1  10 2168.14   27.01   0
   5  -1  -9   30.70    8.18   0
   5   2   3    7.08   10.42   0
   6   1  -7   20.81   10.37   0
   1   5  17    4.12    9.74   0
   2   5  15   13.13   10.92   0
   4   5   5   12.88   11.28   0
   1   6  16  784.26   19.40   0
   2   4  16  846.66   17.87   0
   4  -1  -4 1410.60   23.25   0
   5   4   1   -7.06   10.27   0
   5   5  -3  -11.05   12.19   0
   6   0  -9    5.87    8.98   0
   6   2  -5    2.86    9.09   0
   1   4  18  858.08   18.70   0
   4   3  10  470.53   14.62   0
   4   4   9    3.22   11.16   0
   5   0  -1    1.19    7.43   0
   0   6  18  328.28   15.34   0
   2   7  10  248.71   15.26   0
   3   2  13   -7.40    9.26   0
   3   4  14  452.45   15.63   0
   3   6   9   10.79   12.53   0
   6   1  -4  376.90   14.57   0
   0   5  19   -5.29    8.82   0
   2   6  14  169.42   13.89   0
   4   0   4 1696.32   23.45   0
   5   1   4  875.78   18.43   0
   5   3   5    8.36    9.71   0
   2   2  15   -1.06    8.37   0
   3   3  15   -2.40    9.52   0
   4   5   8  502.57   16.57   0
   5   2   6  217.47   12.62   0
   5   4   4  226.78   14.20   0
   6   3  -3    7.10   11.48   0
   7   1 -18  291.73   13.67   0
   7   2 -19   -6.58   10.48   0
   3   1  11   51.51    8.13   0
   4   1   9    8.46    8.91   0
   4   2  11    5.71    8.50   0
   5  -1  -6  433.61   14.06   0
   5   5   0  328.24   13.94   0
   6  -1 -14  509.57   15.46   0
   6   0  -6  489.12   15.20   0
   7   2 -16  244.78   14.55   0
   1   7  15    3.07   10.91   0
   7   1 -15    4.18    9.86   0
   4   4  12  367.17   15.14   0
   6   1  -1   -2.84   10.16   0
   2   5  18  237.72   13.76   0
   3   6  12  242.12   14.17   0
   4   3  13   25.61    9.70   0
   6   2   1   -3.35   11.35   0
   7   2 -13    7.03   10.16   0
   2   4  19    5.88    9.99   0
   2   7  13   -0.79   12.09   0
   4  -1  -1   46.50    8.24   0
   5   5   3   -5.78   11.08   0
   6  -1 -11    1.55    8.39   0
   6   3   0  461.65   15.31   0
   7   1 -12  303.92   14.19   0
   1   3  19   24.62    8.31   0
   1   6  19    0.91   11.30   0
   2   1  13   48.11    8.72   0
   4   5  11   -2.52   11.40   0
   5   1   7    4.06    8.24   0
   5   2   9   -1.25   10.57   0
   5   4   7   16.43   10.60   0
   7   2 -10  226.99   13.79   0
   0   3  18  556.34   15.82   0
   2   6  17    5.85   10.73   0
   3   2  16 2064.09   25.31   0
   3   5  16  555.38   15.83   0
   5  -1  -3    1.81    7.75   0
   7   0 -14  182.54   11.98   0
   4   0   7   -2.60    7.11   0
   7   1  -9    0.96   10.83   0
   1   4  21   17.18    9.33   0
   3   3  18  476.59   14.19   0
   4   1  12 1056.07   19.11   0
   6  -1  -8 1005.54   19.74   0
   6   3   3    8.59   11.17   0
   4   4  15    3.12   11.71   0
   5   3  11   -7.75   11.28   0
   5   5   6  125.47   12.54   0
   7   0 -11    0.92    9.82   0
   7   2  -7    3.78   10.15   0
  -1   4  19   21.97    7.62   0
   2   2  18 1223.25   20.48   0
   3   0   9   -1.78    6.54   0
   3   1  14  776.14   16.30   0
   3   6  15    3.45   12.41   0
   4   3  16  568.26   16.48   0
   5   4  10  208.02   13.58   0
   6   0   0 1029.60   18.73   0
   7   1  -6  139.29   12.08   0
   5   1  10  600.26   15.93   0
   2   5  21    9.21    9.16   0
   2   7  16  254.80   14.88   0
   5   2  12  588.34   15.55   0
   7   0  -8  740.56   17.74   0
   7   2  -4  271.80   13.64   0
   2   4  22  412.96   15.08   0
   3   5  19    5.72   11.11   0
   4  -1   2  929.73   18.68   0
   5  -1   0 1666.26   23.67   0
   6  -1  -5    9.86    8.41   0
   6   2   7    6.49   10.78   0
   6   3   6  254.16   13.24   0
   1   5  23    0.63    9.53   0
   1   6  22  208.86   13.81   0
   2   6  20  268.12   14.71   0
   7   1  -3   -6.50   10.97   0
   3   2  19   24.35    9.52   0
   4   0  10  487.21   13.50   0
   4   2  17  -11.34    8.63   0
   5   3  14  209.09   13.41   0
   6   0   3   -0.09    9.34   0
   7   2  -1    8.84   11.48   0
   4   1  15   32.79    9.48   0
   4   4  18  292.19   13.08   0
   5   0   8 1092.27   18.74   0
   5   4  13   -5.41   10.94   0
   7   0  -5   -7.82    9.87   0
   4   3  19    1.21   10.14   0
   1   3  22  382.62   12.79   0
   2   1  16 2174.03   26.19   0
   5   1  13   21.61    9.68   0
   5   2  15   13.20   10.85   0
   6  -1  -2  401.73   13.88   0
   6   1   8  818.15   17.18   0
   6   3   9    1.98   10.58   0
   7   1   0  519.49   15.84   0
   1   4  24  763.12   17.58   0
   2   7  19   11.59   11.32   0
   3   1  17   -1.58    8.00   0
   6   2  10  270.16   12.58   0
   0   4  23    5.21    7.83   0
   2   3  23   16.71    8.08   0
   2   5  24  557.38   17.04   0
   3   0  12 2701.45   29.14   0
   5  -1   3   42.82    7.63   0
   7   0  -2  332.92   13.16   0
   3   4  23   14.58   10.56   0
   3   5  22  157.37   12.88   0
   5   3  17   -3.40   11.60   0
   5   4  16  465.53   16.32   0
   0   3  21    0.82    6.94   0
   2   6  23    7.21   10.58   0
   7   1   3   -2.23   11.10   0
   2   0  11    3.62    6.23   0
   2   4  25   -1.64   10.07   0
   4   0  13   -4.61    8.06   0
   4   2  20  784.77   16.91   0
   5   0  11   -0.91    7.77   0
   6  -1   1   22.92    9.14   0
   6   1  11   11.25   10.10   0
   6   3  12  221.59   13.89   0
   7  -1  -7   24.80    9.17   0
   0   5  25   -0.03    8.40   0
   1   6  25    7.78   10.34   0
   3   2  22  367.20   13.75   0
   3   6  21   15.54   10.91   0
   4   1  18  485.88   14.65   0
   4   5  20  186.52   13.33   0
   6   2  13   -8.49   10.97   0
   7   0   1    1.48    9.97   0
   1   5  26  284.62   13.47   0
   4   3  22  262.18   12.72   0
   5   1  16  795.76   16.78   0
   5   2  18  491.69   14.66   0
   5  -1   6  994.34   18.61   0
   7  -1  -4  357.77   14.64   0
   7   1   6  262.92   13.92   0
   3   5  25    5.40   11.61   0
   5   3  20  316.72   13.45   0
   5   4  19    5.35   10.41   0
   6  -1   4  916.48   18.43   0
   6   3  15   15.29   11.66   0
   7   0   4  285.05   13.57   0
   8   1  -5    2.48   10.70   0
   2   1  19    4.61    6.73   0
   2   5  27    7.64   11.21   0
   3   1  20 1009.47   18.20   0
   3   4  26  207.75   13.52   0
   5   0  14  759.29   16.94   0
   6   1  14  185.84   11.65   0
   8   0  -7   -1.80   10.18   0
   1   3  25    1.19    8.16   0
   1   4  27    7.82    9.11   0
   2   3  26  761.51   16.75   0
   3   0  15    3.34    6.86   0
   4   2  23   12.35    9.97   0
   5  -2  -5   14.00    7.15   0
   6   2  16  535.32   15.29   0
   2   6  26  278.51   15.21   0
   3   6  24  272.75   14.83   0
   4   0  16 1737.05   23.39   0
   4   5  23   -3.90   11.04   0
   5   2  21   -1.15   10.75   0
   6  -2  -7    3.78    8.34   0
   8   1  -2  160.31   12.50   0
   2   4  28  559.45   16.76   0
   3  -1   7   -2.27    7.12   0
   4   1  21    9.96    9.19   0
   4   3  25   21.07   11.18   0
   5   1  19    1.92    8.88   0
   8   0  -4  333.96   13.72   0
   0   4  26  809.18   19.20   0
   3   2  25   -4.14    9.41   0
   7   0   7   -6.66    8.82   0
   7   2  11   -1.48   10.30   0
   5   3  23    2.83   11.56   0
   5   4  22  148.13   12.54   0
   6  -1   7    6.76    9.14   0
   6   3  18  156.12   12.26   0
   7  -1   2  444.25   15.14   0
   8   1   1    3.81   10.30   0
   1   2  23    7.12    7.58   0
   1   5  29    3.47   11.05   0
   2   0  14  369.64   12.68   0
   5  -2  -2  937.77   19.64   0
   6  -2  -4 1065.67   20.69   0
   6   1  17   20.35    9.50   0
   8   0  -1   -2.76   10.13   0
   3   5  28  260.40   15.32   0
   5   0  17   -0.43    9.45   0
   6   2  19   -3.32   10.32   0
   0   3  24 1731.55   26.11   0
   1   1  18 1195.73   21.57   0
   3   4  29    1.27   11.93   0
   4   4  27   -3.87   11.59   0
   7   0  10  312.09   14.44   0
   7   2  14  179.48   13.49   0
   8   1   4  265.86   14.20   0
   3   1  23   25.14    8.29   0
   4  -1  11   49.65    7.76   0
   4   2  26  465.93   15.99   0
   4   5  26  238.12   14.24   0
   6   0  15   -4.56    9.01   0
   8   0   2  135.33   12.84   0
   3  -1  31    1.67    7.32   0
   4  -1  35    6.53    8.43   0
   7   0  40  240.90   12.43   0
   9  -2  20  195.47   12.84   0
   8  -3  14  188.52   11.79   0
   2  -1  24 1888.27   23.38   0
   3  -2  17   13.92    7.50   0
   5  -3  11    5.03    6.59   0
   6  -3  18  516.04   14.34   0
   7  -3  19   -1.47    9.36   0
   8  -2  28  216.79   12.69   0
   4   0  43    0.60    8.65   0
   5  -1  39    4.02   10.30   0
   5   0  44  272.34   12.91   0
   6  -2  32  496.83   15.19   0
   7  -1  38   74.96   11.16   0
   8  -3  17   -4.70   10.82   0
   3   2  49   -2.83   10.35   0
   4  -2  27    4.49    7.36   0
   4   2  50  161.24   12.22   0
   5  -3  14  449.18   13.70   0
   5  -2  31    1.16    8.25   0
   6  -1  40  287.87   14.39   0
   2   1  43   -1.45    8.61   0
   3   3  51    0.43   10.33   0
   4   1  48  320.31   14.01   0
   6  -3  21   13.02    9.23   0
   7  -2  33  -17.47   10.94   0
   0   1  29    1.06    5.38   0
   0   2  37    3.07    7.25   0
   3  -2  20 1584.76   22.06   0
   3  -1  34  740.92   16.32   0
   4  -1  38  203.63   11.12   0
   6   0  45   -2.58    9.92   0
   7  -3  22  252.42   11.59   0
   8  -3  20  309.03   13.58   0
   8  -2  31    3.56   10.84   0
   2  -1  27   -5.04    7.71   0
   3   1  47   12.73   10.46   0
   5  -3  17    7.34    7.09   0
   5   1  49    2.37    9.55   0
   6  -2  35    3.26    8.74   0
   1   1  39   -1.47    7.92   0
   4  -2  30  261.09   11.17   0
   5  -2  34  569.48   14.85   0
   5  -1  42  270.98   13.64   0
   5   0  47    1.20   10.51   0
   7  -3  25    9.72   10.44   0
   7  -1  41    1.83    9.88   0
   8  -3  23   11.48   10.08   0
   1   0  31   -2.05    7.14   0
   6  -1  43   16.96   10.63   0
   7  -2  36  377.49   14.58   0
   3  -2  23    3.52    6.84   0
   4  -1  41   10.01   10.08   0
   8  -2  34  179.36   12.87   0
   3  -1  37    5.45    9.12   0
   3   2  52  193.42   12.20   0
   4   1  51    5.72   10.88   0
   4   2  53   -9.63    9.97   0
   6   0  48  176.44   12.56   0
   2  -1  30  705.82   15.20   0
   2   1  46  196.64   11.81   0
   6  -2  38  148.31   11.11   0
   7  -3  28  496.88   14.59   0
   8  -3  26  270.97   12.90   0
   0   1  32 1946.26   25.77   0
   3   0  45    2.97    8.29   0
   3   1  50  287.86   14.13   0
   4  -3   7   31.58    7.70   0
   4  -3  10 1251.41   21.01   0
   4  -2  33    5.82    8.03   0
   5  -2  37   -1.43    8.79   0
   7  -1  44  213.05   12.62   0
   9  -3  21    0.92    9.94   0
   2   0  41    2.24    8.64   0
   4  -3   4 1402.06   23.80   0
   5  -1  45   -1.96   10.92   0
   7  -2  39   11.07   10.63   0
   2   2  51    1.00    9.93   0
   4  -3  13   17.60    6.65   0
   5  -3  26  778.57   16.81   0
   6  -3  30  261.21   12.67   0
   6  -1  46  121.94   11.98   0
   8  -3  29    2.13    9.85   0
   9  -3  24  304.15   14.22   0
   1   0  34 1090.19   19.20   0
   1   1  42  411.30   13.58   0
   1   2  47   -0.71    8.67   0
   2  -1  33   -2.90    8.24   0
   3  -1  40  578.88   15.34   0
   4  -1  44  381.31   13.40   0
   6  -2  41   -0.87   11.33   0
   3  -2  29    8.79    8.59   0
   4  -2  36  474.48   13.77   0
   5  -2  40  631.63   16.79   0
   9  -3  27    0.55   11.17   0
   3   0  48  295.27   13.62   0
   3   2  55    1.08   11.13   0
   4  -3  19   18.28    7.26   0
   4   1  54  109.09   11.47   0
   5  -3  29   -3.63    9.38   0
   6  -3  33    9.87    9.68   0
   7  -4  11    5.67    8.64   0
   7  -2  42  240.38   12.98   0
   8  -3  32  330.49   14.16   0
   2   1  49    4.19    9.36   0
   7  -4  14  466.02   14.88   0
   8  -4  15    0.36    9.96   0
   0   1  35    0.03    7.10   0
   1  -1  20 1526.31   22.55   0
   2   0  44  924.65   18.28   0
   3   1  53   -3.63    9.83   0
   4  -3  22  418.66   13.05   0
   6  -1  49    4.75   10.89   0
   4   0  52  232.49   13.29   0
   6  -2  44  317.00   14.33   0
   8  -4  18  280.26   13.36   0
   0   2  43    2.20    7.59   0
   1   0  37    3.59    6.70   0
   2  -2  13   -1.94    6.76   0
   2  -1  36 1108.71   18.31   0
   3  -2  32 1420.29   20.14   0
   3  -1  43  -11.02    9.47   0
   4  -2  39    4.99    8.47   0
   4  -1  47   -9.88    8.81   0
   5  -2  43   -5.93   10.22   0
   6  -4  10  447.02   14.20   0
   6  -3  36  437.23   15.35   0
   7  -4  20  584.89   16.13   0
   8  -3  35    1.94   10.76   0
   1   1  45    0.69    8.78   0
   2  -2  16 3113.01   31.59   0
   2   2  54   59.92   10.05   0
   4  -3  25    3.80    8.47   0
   6  -4   7    2.20    7.56   0
   6  -4  13   -5.49    8.43   0
   6  -4  16  925.55   18.46   0
   7  -3  37    7.19    9.64   0
   7  -2  45    3.64   10.38   0
   8  -4  21    4.13    9.88   0
   1  -1  23    3.44    6.00   0
   7  -4  23    2.88    9.63   0
  -1   2  33   11.71    6.56   0
   2  -2  19    4.21    7.32   0
   3   0  51    4.28   10.38   0
   5  -1  51   -8.87   10.44   0
   6  -4  19   -2.23    9.04   0
   8  -4  24  426.77   14.73   0
   0   0  24 4756.70   40.36   0
   3  -2  35    5.47    8.95   0
   5  -3  35   10.93    8.54   0
   6  -2  47    3.54   11.06   0
   8  -3  38   84.82   10.84   0
   0   1  38  310.09   12.07   0
   2   0  47   10.13    9.18   0
   2   1  52  389.69   14.64   0
   4  -2  42  546.98   14.72   0
   6  -4  22  441.42   13.42   0
   6  -3  39    0.16    8.87   0
   7  -3  40  241.70   13.42   0
   8  -4  27    5.56   10.60   0
   1  -1  26 1231.46   19.53   0
   1   0  40  895.07   17.78   0
   2  -2  22 2137.50   24.84   0
   3   1  56  217.14   12.51   0
   4   0  55    9.56   10.94   0
   5  -2  46   97.47   11.00   0
   6  -4  25   -4.35    9.27   0
   7  -4  29   16.06   10.22   0
   1   1  48  445.07   14.33   0
   4  -3  31   23.82    7.97   0
   5  -3  38  135.77   11.76   0
   8  -4  30  162.07   11.83   0
   0   0  27    1.71    5.46   0
   2  -2  25    2.19    6.45   0
   3  -2  38  411.91   12.79   0
   6  -4  28  568.78   15.51   0
   6  -3  42  222.32   13.09   0
   7  -3  43   -0.62   10.60   0
   1  -1  29    4.73    6.10   0
   3   0  54  132.30   12.07   0
   4  -2  45   -0.37   10.06   0
   5  -4  15   11.71    8.05   0
   6  -2  50  168.15   12.40   0
   7  -4  32  386.34   14.26   0
   9  -4  28  134.51   11.47   0
   4  -3  34  659.25   15.51   0
   5  -4  12 1283.93   20.45   0
   5  -2  49   -2.93   10.42   0
   8  -4  33   -6.61   10.08   0
   2  -2  28 1205.66   18.69   0
  -8   3   1    1.18    8.84   0
  -6   3  -3    3.03    7.53   0
  -5   1  48  225.26   13.60   0
  -5   3   1    4.50    7.22   0
  -2   1  36 1083.02   19.96   0
  -8   3  25   -2.02    9.39   0
  -7   3  -4  765.43   16.98   0
  -7   3  29   17.31    8.91   0
  -6   3  30  274.84   12.95   0
  -5   2  41   11.25   10.69   0
  -5   3  25   -4.02    7.76   0
  -3   2  31   10.81    7.84   0
  -9   3  12  231.19   13.02   0
  -9   3  15   12.65   10.50   0
  -8   3  -2  294.57   13.34   0
  -8   3  28  248.34   13.41   0
  -7   3  32  391.19   15.14   0
  -6   2  43   -2.56   10.29   0
  -5   3  28  515.88   14.29   0
  -3   1  44  445.50   14.88   0
  -9   3   9   -5.82    9.54   0
  -6   1  50  131.81   11.36   0
  -5   3  -2  925.81   17.84   0
  -4   2  39    9.15    7.94   0
  -4   3  14  763.74   16.01   0
  -9   3   6  112.96   10.71   0
  -9   3  21    8.30    9.84   0
  -8   3  31   -2.26   10.63   0
  -6   3  -6  529.91   14.49   0
  -6   3  33    3.15    8.88   0
  -4   3  11   44.99    7.36   0
  -4   3  17   -4.13    6.74   0
  -1   1  25   -0.16    6.08   0
  -5   1  51    4.08   10.63   0
  -5   3  31    4.22    8.66   0
  -4   1  49    7.24    9.74   0
  -4   3   8 2882.62   28.22   0
  -4   3  20 1008.30   17.06   0
  -2   1  39    6.00    7.40   0
  -9   3   3    4.59    8.68   0
  -7   3  35   10.92    9.03   0
  -5   2  44  347.12   13.30   0
  -3   2  34  706.94   15.33   0
  -4   3   5   12.23    5.40   0
  -4   3  23   26.01    7.15   0
;
_shelx_hkl_checksum              97074
loop_
_space_group_symop_operation_xyz
'x, y, z'
'-y, x-y, z'
'-x+y, -x, z'
'y, x, -z+1/2'
'x-y, -y, -z+1/2'
'-x, -x+y, -z+1/2'
'x+2/3, y+1/3, z+1/3'
'-y+2/3, x-y+1/3, z+1/3'
'-x+y+2/3, -x+1/3, z+1/3'
'y+2/3, x+1/3, -z+5/6'
'x-y+2/3, -y+1/3, -z+5/6'
'-x+2/3, -x+y+1/3, -z+5/6'
'x+1/3, y+2/3, z+2/3'
'-y+1/3, x-y+2/3, z+2/3'
'-x+y+1/3, -x+2/3, z+2/3'
'y+1/3, x+2/3, -z+7/6'
'x-y+1/3, -y+2/3, -z+7/6'
'-x+1/3, -x+y+2/3, -z+7/6'
'-x, -y, -z'
'y, -x+y, -z'
'x-y, x, -z'
'-y, -x, z-1/2'
'-x+y, y, z-1/2'
'x, x-y, z-1/2'
'-x+2/3, -y+1/3, -z+1/3'
'y+2/3, -x+y+1/3, -z+1/3'
'x-y+2/3, x+1/3, -z+1/3'
'-y+2/3, -x+1/3, z-1/6'
'-x+y+2/3, y+1/3, z-1/6'
'x+2/3, x-y+1/3, z-1/6'
'-x+1/3, -y+2/3, -z+2/3'
'y+1/3, -x+y+2/3, -z+2/3'
'x-y+1/3, x+2/3, -z+2/3'
'-y+1/3, -x+2/3, z+1/6'
'-x+y+1/3, y+2/3, z+1/6'
'x+1/3, x-y+2/3, z+1/6'
loop_
_atom_site_label
_atom_site_type_symbol
_atom_site_fract_x
_atom_site_fract_y
_atom_site_fract_z
_atom_site_U_iso_or_equiv
_atom_site_adp_type
_atom_site_occupancy
_atom_site_site_symmetry_order
_atom_site_calc_flag
_atom_site_refinement_flags_posn
_atom_site_refinement_flags_adp
_atom_site_refinement_flags_occupancy
Ba1 Ba 0.0000 0.0000 0.2500 0.00759(2) Uani 1 6 d S T P
Mg2 Mg 0.0000 0.0000 0.0000 0.00639(7) Uani 1 6 d S T P
O3 O 0.11331(15) 0.82114(14) 0.12927(2) 0.01391(11) Uani 1 1 d . . .
C4 C 0.0000 0.0000 0.13034(3) 0.00705(11) Uani 1 3 d S T P
loop_
_atom_site_aniso_label
_atom_site_aniso_U_11
_atom_site_aniso_U_22
_atom_site_aniso_U_33
_atom_site_aniso_U_23
_atom_site_aniso_U_13
_atom_site_aniso_U_12
Ba1 0.00656(2) 0.00656(2) 0.00965(3) 0.000 0.000 0.00328(1)
Mg2 0.00542(10) 0.00542(10) 0.00834(16) 0.000 0.000 0.00271(5)
O3 0.0180(3) 0.0150(3) 0.01585(18) -0.00361(18) -0.00596(18) 0.0135(3)
C4 0.00680(16) 0.00680(16) 0.0076(2) 0.000 0.000 0.00340(8)
loop_
_atom_type_symbol
_atom_type_description
_atom_type_scat_dispersion_real
_atom_type_scat_dispersion_imag
_atom_type_scat_source
C C 0.0033 0.0016 'International Tables Vol C Tables 4.2.6.8 and 6.1.1.4'
O O 0.0106 0.0060 'International Tables Vol C Tables 4.2.6.8 and 6.1.1.4'
Mg Mg 0.0486 0.0363 'International Tables Vol C Tables 4.2.6.8 and 6.1.1.4'
Ba Ba -0.3244 2.2819 'International Tables Vol C Tables 4.2.6.8 and 6.1.1.4'
loop_
_geom_angle_atom_site_label_1
_geom_angle_atom_site_label_2
_geom_angle_atom_site_label_3
_geom_angle
_geom_angle_site_symmetry_1
_geom_angle_site_symmetry_3
O3 Ba1 O3 137.57(2) 25_455 35_445
O3 Ba1 O3 123.67(2) 25_455 36
O3 Ba1 O3 92.811(18) 35_445 36
O3 Ba1 O3 67.01(3) 25_455 34_545
O3 Ba1 O3 92.811(18) 35_445 34_545
O3 Ba1 O3 92.811(18) 36 34_545
O3 Ba1 O3 92.811(18) 25_455 27
O3 Ba1 O3 67.01(3) 35_445 27
O3 Ba1 O3 137.57(3) 36 27
O3 Ba1 O3 123.67(2) 34_545 27
O3 Ba1 O3 92.811(18) 25_455 26_445
O3 Ba1 O3 123.67(2) 35_445 26_445
O3 Ba1 O3 67.01(3) 36 26_445
O3 Ba1 O3 137.57(2) 34_545 26_445
O3 Ba1 O3 92.811(18) 27 26_445
O3 Ba1 O3 176.633(14) 25_455 34_655
O3 Ba1 O3 43.81(2) 35_445 34_655
O3 Ba1 O3 57.13(2) 36 34_655
O3 Ba1 O3 116.36(2) 34_545 34_655
O3 Ba1 O3 85.233(14) 27 34_655
O3 Ba1 O3 84.558(13) 26_445 34_655
O3 Ba1 O3 43.81(2) 25_455 27_545
O3 Ba1 O3 176.633(13) 35_445 27_545
O3 Ba1 O3 84.558(13) 36 27_545
O3 Ba1 O3 85.233(14) 34_545 27_545
O3 Ba1 O3 116.36(2) 27 27_545
O3 Ba1 O3 57.13(2) 26_445 27_545
O3 Ba1 O3 135.05(2) 34_655 27_545
O3 Ba1 O3 57.13(2) 25_455 26_345
O3 Ba1 O3 85.233(14) 35_445 26_345
O3 Ba1 O3 176.633(13) 36 26_345
O3 Ba1 O3 84.558(13) 34_545 26_345
O3 Ba1 O3 43.81(2) 27 26_345
O3 Ba1 O3 116.36(2) 26_445 26_345
O3 Ba1 O3 122.30(2) 34_655 26_345
O3 Ba1 O3 97.293(14) 27_545 26_345
O3 Ba1 O3 116.36(2) 25_455 25_565
O3 Ba1 O3 84.558(13) 35_445 25_565
O3 Ba1 O3 85.233(14) 36 25_565
O3 Ba1 O3 176.633(14) 34_545 25_565
O3 Ba1 O3 57.13(2) 27 25_565
O3 Ba1 O3 43.81(2) 26_445 25_565
O3 Ba1 O3 60.27(2) 34_655 25_565
O3 Ba1 O3 97.293(14) 27_545 25_565
O3 Ba1 O3 97.293(14) 26_345 25_565
O3 Ba1 O3 85.233(14) 25_455 36_455
O3 Ba1 O3 57.13(2) 35_445 36_455
O3 Ba1 O3 116.36(2) 36 36_455
O3 Ba1 O3 43.81(2) 34_545 36_455
O3 Ba1 O3 84.558(13) 27 36_455
O3 Ba1 O3 176.633(13) 26_445 36_455
O3 Ba1 O3 97.293(14) 34_655 36_455
O3 Ba1 O3 122.30(2) 27_545 36_455
O3 Ba1 O3 60.27(2) 26_345 36_455
O3 Ba1 O3 135.05(2) 25_565 36_455
O3 Ba1 O3 84.558(13) 25_455 35_435
O3 Ba1 O3 116.36(2) 35_445 35_435
O3 Ba1 O3 43.81(2) 36 35_435
O3 Ba1 O3 57.13(2) 34_545 35_435
O3 Ba1 O3 176.633(13) 27 35_435
O3 Ba1 O3 85.233(14) 26_445 35_435
O3 Ba1 O3 97.293(14) 34_655 35_435
O3 Ba1 O3 60.27(2) 27_545 35_435
O3 Ba1 O3 135.05(2) 26_345 35_435
O3 Ba1 O3 122.30(2) 25_565 35_435
O3 Ba1 O3 97.293(14) 36_455 35_435
O3 Mg2 O3 180.00(5) 29_445 17_554
O3 Mg2 O3 86.80(2) 29_445 30_455
O3 Mg2 O3 93.20(2) 17_554 30_455
O3 Mg2 O3 93.20(2) 29_445 18_544
O3 Mg2 O3 86.80(2) 17_554 18_544
O3 Mg2 O3 180.00(5) 30_455 18_544
O3 Mg2 O3 86.80(2) 29_445 28
O3 Mg2 O3 93.20(2) 17_554 28
O3 Mg2 O3 86.80(2) 30_455 28
O3 Mg2 O3 93.20(2) 18_544 28
O3 Mg2 O3 93.20(2) 29_445 16_444
O3 Mg2 O3 86.80(2) 17_554 16_444
O3 Mg2 O3 93.20(2) 30_455 16_444
O3 Mg2 O3 86.80(2) 18_544 16_444
O3 Mg2 O3 180.00(4) 28 16_444
O3 Mg2 Ba1 98.346(17) 29_445 13_444
O3 Mg2 Ba1 81.654(17) 17_554 13_444
O3 Mg2 Ba1 40.848(17) 30_455 13_444
O3 Mg2 Ba1 139.152(17) 18_544 13_444
O3 Mg2 Ba1 48.928(18) 28 13_444
O3 Mg2 Ba1 131.072(18) 16_444 13_444
O3 Mg2 Ba1 81.654(17) 29_445 25
O3 Mg2 Ba1 98.346(17) 17_554 25
O3 Mg2 Ba1 139.152(17) 30_455 25
O3 Mg2 Ba1 40.848(17) 18_544 25
O3 Mg2 Ba1 131.072(18) 28 25
O3 Mg2 Ba1 48.928(18) 16_444 25
Ba1 Mg2 Ba1 180.0 13_444 25
O3 Mg2 Ba1 48.926(18) 29_445 13_554
O3 Mg2 Ba1 131.074(18) 17_554 13_554
O3 Mg2 Ba1 98.346(17) 30_455 13_554
O3 Mg2 Ba1 81.654(17) 18_544 13_554
O3 Mg2 Ba1 40.850(17) 28 13_554
O3 Mg2 Ba1 139.150(17) 16_444 13_554
Ba1 Mg2 Ba1 77.081(2) 13_444 13_554
Ba1 Mg2 Ba1 102.919(2) 25 13_554
O3 Mg2 Ba1 131.074(18) 29_445 25_445
O3 Mg2 Ba1 48.926(18) 17_554 25_445
O3 Mg2 Ba1 81.654(17) 30_455 25_445
O3 Mg2 Ba1 98.346(17) 18_544 25_445
O3 Mg2 Ba1 139.150(17) 28 25_445
O3 Mg2 Ba1 40.850(17) 16_444 25_445
Ba1 Mg2 Ba1 102.919(2) 13_444 25_445
Ba1 Mg2 Ba1 77.081(2) 25 25_445
Ba1 Mg2 Ba1 180.0 13_554 25_445
O3 Mg2 Ba1 40.850(17) 29_445 13_544
O3 Mg2 Ba1 139.150(17) 17_554 13_544
O3 Mg2 Ba1 48.928(18) 30_455 13_544
O3 Mg2 Ba1 131.072(18) 18_544 13_544
O3 Mg2 Ba1 98.348(17) 28 13_544
O3 Mg2 Ba1 81.652(17) 16_444 13_544
Ba1 Mg2 Ba1 77.081(1) 13_444 13_544
Ba1 Mg2 Ba1 102.919(1) 25 13_544
Ba1 Mg2 Ba1 77.081(2) 13_554 13_544
Ba1 Mg2 Ba1 102.919(2) 25_445 13_544
O3 Mg2 Ba1 139.150(17) 29_445 25_455
O3 Mg2 Ba1 40.850(17) 17_554 25_455
O3 Mg2 Ba1 131.072(18) 30_455 25_455
O3 Mg2 Ba1 48.928(18) 18_544 25_455
O3 Mg2 Ba1 81.652(17) 28 25_455
O3 Mg2 Ba1 98.348(17) 16_444 25_455
Ba1 Mg2 Ba1 102.919(1) 13_444 25_455
Ba1 Mg2 Ba1 77.081(1) 25 25_455
Ba1 Mg2 Ba1 102.919(2) 13_554 25_455
Ba1 Mg2 Ba1 77.081(2) 25_445 25_455
Ba1 Mg2 Ba1 180.0 13_544 25_455
C4 O3 Mg2 139.05(6) 1_565 16_554
C4 O3 Ba1 100.69(4) 1_565 25_455
Mg2 O3 Ba1 110.49(2) 16_554 25_455
C4 O3 Ba1 87.72(4) 1_565 25_565
Mg2 O3 Ba1 100.89(2) 16_554 25_565
Ba1 O3 Ba1 116.36(2) 25_455 25_565
O3 C4 O3 119.923(5) 1_545 2_665
O3 C4 O3 119.923(5) 1_545 3_455
O3 C4 O3 119.921(5) 2_665 3_455
O3 C4 Ba1 56.88(3) 1_545 25_445
O3 C4 Ba1 149.01(6) 2_665 25_445
O3 C4 Ba1 69.45(3) 3_455 25_445
O3 C4 Ba1 69.45(3) 1_545 25
O3 C4 Ba1 56.88(3) 2_665 25
O3 C4 Ba1 149.01(6) 3_455 25
Ba1 C4 Ba1 99.033(17) 25_445 25
O3 C4 Ba1 149.01(6) 1_545 25_455
O3 C4 Ba1 69.45(3) 2_665 25_455
O3 C4 Ba1 56.88(3) 3_455 25_455
Ba1 C4 Ba1 99.032(17) 25_445 25_455
Ba1 C4 Ba1 99.032(17) 25 25_455
loop_
_geom_bond_atom_site_label_1
_geom_bond_atom_site_label_2
_geom_bond_distance
_geom_bond_site_symmetry_2
Ba1 O3 2.8079(6) 25_455
Ba1 O3 2.8079(6) 35_445
Ba1 O3 2.8079(6) 36
Ba1 O3 2.8079(6) 34_545
Ba1 O3 2.8079(6) 27
Ba1 O3 2.8079(6) 26_445
Ba1 O3 3.0872(7) 34_655
Ba1 O3 3.0872(6) 27_545
Ba1 O3 3.0872(6) 26_345
Ba1 O3 3.0872(7) 25_565
Ba1 O3 3.0872(6) 36_455
Ba1 O3 3.0872(6) 35_435
Mg2 O3 2.0589(6) 29_445
Mg2 O3 2.0589(6) 17_554
Mg2 O3 2.0589(6) 30_455
Mg2 O3 2.0589(6) 18_544
Mg2 O3 2.0589(6) 28
Mg2 O3 2.0589(6) 16_444
Mg2 Ba1 4.02147(8) 13_444
Mg2 Ba1 4.02147(8) 25
Mg2 Ba1 4.02147(8) 13_554
Mg2 Ba1 4.02147(8) 25_445
Mg2 Ba1 4.02149(7) 13_544
Mg2 Ba1 4.02149(7) 25_455
O3 C4 1.2791(6) 1_565
O3 Mg2 2.0589(6) 16_554
O3 Ba1 2.8079(6) 25_455
O3 Ba1 3.0872(6) 25_565
C4 O3 1.2791(6) 1_545
C4 O3 1.2791(6) 2_665
C4 O3 1.2791(6) 3_455
C4 Ba1 3.2943(4) 25_445
C4 Ba1 3.2943(4) 25
C4 Ba1 3.2944(4) 25_455
