#------------------------------------------------------------------------------
#$Date: 2019-12-26 21:24:38 +0200 (Thu, 26 Dec 2019) $
#$Revision: 246104 $
#$URL: file:///home/coder/svn-repositories/cod/cif/2/31/17/2311787.cif $
#------------------------------------------------------------------------------
#
# This file is available in the Crystallography Open Database (COD),
# http://www.crystallography.net/. The original data for this entry
# were provided by IUCr Journals, http://journals.iucr.org/.
#
# The file may be used within the scientific community so long as
# proper attribution is given to the journal article from which the
# data were obtained.
#
data_2311787
loop_
_publ_author_name
'Fulle, Kyle'
'Sanjeewa, Liurukara D.'
'McMillen, Colin D.'
'Kolis, Joseph W.'
_publ_section_title
;
 Crystal chemistry and the role of ionic radius in rare earth
 tetrasilicates:
 Ba<sub>2</sub>RE<sub>2</sub>Si<sub>4</sub>O<sub>12</sub>F<sub>2</sub> (RE
 = Er<sup>3+</sup>-Lu<sup>3+</sup>) and
 Ba<sub>2</sub>RE<sub>2</sub>Si<sub>4</sub>O<sub>13</sub> (RE =
 La<sup>3+</sup>-Ho<sup>3+</sup>).
;
_journal_issue                   'Pt 5'
_journal_name_full
'Acta crystallographica Section B, Structural science, crystal engineering and materials'
_journal_page_first              907
_journal_page_last               915
_journal_paper_doi               10.1107/S2052520617009544
_journal_volume                  73
_journal_year                    2017
_chemical_formula_sum            'Ba2 F2 Lu2 O12 Si4'
_chemical_formula_weight         966.98
_space_group_crystal_system      triclinic
_space_group_IT_number           2
_space_group_name_Hall           '-P 1'
_space_group_name_H-M_alt        'P -1'
_atom_sites_solution_primary     direct
_atom_sites_solution_secondary   difmap
_audit_creation_method           SHELXL-2014/7
_cell_angle_alpha                107.73(3)
_cell_angle_beta                 101.81(4)
_cell_angle_gamma                93.01(4)
_cell_formula_units_Z            1
_cell_length_a                   5.451(3)
_cell_length_b                   7.1227(18)
_cell_length_c                   8.8937(18)
_cell_measurement_reflns_used    1958
_cell_measurement_temperature    298(2)
_cell_measurement_theta_max      25.9920
_cell_measurement_theta_min      2.4718
_cell_volume                     319.5(2)
_computing_cell_refinement       'CrystalClear (Rigaku/MSC, 2008)'
_computing_data_collection       'CrystalClear (Rigaku/MSC, 2008)'
_computing_data_reduction        'CrystalClear (Rigaku/MSC, 2008)'
_computing_molecular_graphics    'DIAMOND (Bradenburg, 1999)'
_computing_publication_material  'SHELXL-2014/7 (Sheldrick, 2014)'
_computing_structure_refinement  'SHELXL-2014/7 (Sheldrick, 2014)'
_computing_structure_solution    'SHELXL-2014/7 (Sheldrick, 2014)'
_diffrn_ambient_temperature      298(2)
_diffrn_detector_area_resol_mean 14.6199
_diffrn_measured_fraction_theta_full 0.985
_diffrn_measured_fraction_theta_max 0.985
_diffrn_measurement_device_type  'Rigaku AFC8S'
_diffrn_measurement_method       '\w scans'
_diffrn_radiation_type           MoK\a
_diffrn_radiation_wavelength     0.71073
_diffrn_reflns_av_R_equivalents  0.0397
_diffrn_reflns_av_unetI/netI     0.0417
_diffrn_reflns_Laue_measured_fraction_full 0.985
_diffrn_reflns_Laue_measured_fraction_max 0.985
_diffrn_reflns_limit_h_max       5
_diffrn_reflns_limit_h_min       -6
_diffrn_reflns_limit_k_max       8
_diffrn_reflns_limit_k_min       -8
_diffrn_reflns_limit_l_max       10
_diffrn_reflns_limit_l_min       -10
_diffrn_reflns_number            2710
_diffrn_reflns_point_group_measured_fraction_full 0.985
_diffrn_reflns_point_group_measured_fraction_max 0.985
_diffrn_reflns_theta_full        25.241
_diffrn_reflns_theta_max         25.241
_diffrn_reflns_theta_min         3.026
_diffrn_source                   'fine-focus sealed tube'
_exptl_absorpt_coefficient_mu    21.860
_exptl_absorpt_correction_T_max  1.0000
_exptl_absorpt_correction_T_min  0.2726
_exptl_absorpt_correction_type   multi-scan
_exptl_absorpt_process_details   'REQAB, CrystalClear'
_exptl_crystal_colour            colourless
_exptl_crystal_density_diffrn    5.026
_exptl_crystal_description       block
_exptl_crystal_F_000             424
_exptl_crystal_size_max          0.145
_exptl_crystal_size_mid          0.136
_exptl_crystal_size_min          0.127
_refine_diff_density_max         2.604
_refine_diff_density_min         -3.567
_refine_diff_density_rms         0.456
_refine_ls_extinction_coef       0.0255(18)
_refine_ls_extinction_expression Fc^*^=kFc[1+0.001xFc^2^\l^3^/sin(2\q)]^-1/4^
_refine_ls_extinction_method     'SHELXL-2014/7 (Sheldrick 2014'
_refine_ls_goodness_of_fit_ref   1.066
_refine_ls_hydrogen_treatment    undef
_refine_ls_matrix_type           full
_refine_ls_number_parameters     101
_refine_ls_number_reflns         1148
_refine_ls_number_restraints     0
_refine_ls_restrained_S_all      1.066
_refine_ls_R_factor_all          0.0368
_refine_ls_R_factor_gt           0.0359
_refine_ls_shift/su_max          0.000
_refine_ls_shift/su_mean         0.000
_refine_ls_structure_factor_coef Fsqd
_refine_ls_weighting_details
'w=1/[\s^2^(Fo^2^)+(0.0790P)^2^+31.2028P] where P=(Fo^2^+2Fc^2^)/3'
_refine_ls_weighting_scheme      calc
_refine_ls_wR_factor_gt          0.0983
_refine_ls_wR_factor_ref         0.0990
_reflns_Friedel_coverage         0.000
_reflns_number_gt                1116
_reflns_number_total             1148
_reflns_threshold_expression     'I > 2\s(I)'
_cod_data_source_file            rm5005sup1.cif
_cod_data_source_block           Lu
_cod_database_code               2311787
_shelx_shelxl_version_number     2014/7
_shelx_space_group_comment
;
The symmetry employed for this shelxl refinement is uniquely defined
by the following loop, which should always be used as a source of
symmetry information in preference to the above space-group names.
They are only intended as comments.
;
_shelx_estimated_absorpt_t_min   0.144
_shelx_estimated_absorpt_t_max   0.168
_shelx_res_file
;

    P-1.res created by SHELXL-2014/7


TITL P-1 in P-1
CELL 0.71073   5.4506   7.1227   8.8937 107.733 101.811  93.010
ZERR    1.00   0.0026   0.0018   0.0018   0.032   0.041   0.044
LATT  1
SFAC O F SI BA LU
UNIT 12 2 4 2 2

L.S. 20
FMAP 2
PLAN -20
ACTA
SIZE 0.127 0.136 0.145
OMIT -3 50.5
WGHT    0.074200    0.254800
EXTI    0.025481
FVAR       0.39626
BA1   4    0.757824    0.257693    0.045735    11.00000    0.01332    0.01262 =
         0.01206    0.00439    0.00274    0.00243
LU1   5    0.163195    0.147843    0.700581    11.00000    0.00872    0.01089 =
         0.00914    0.00436    0.00240    0.00125
SI1   3    0.384538    0.177483    0.368344    11.00000    0.01087    0.01118 =
         0.00677    0.00319    0.00211    0.00103
SI2   3    0.678430    0.439976    0.709679    11.00000    0.00511    0.01369 =
         0.00855    0.00606    0.00299    0.00230
O1    1    0.613167    0.313326    0.517312    11.00000    0.00895    0.01705 =
         0.00935    0.00315   -0.00326   -0.00163
O2    1    0.166677    0.088821    0.437679    11.00000    0.01559    0.01375 =
         0.01150    0.00238    0.00714   -0.00249
O3    1    0.251575    0.325561    0.273816    11.00000    0.01201    0.01226 =
         0.01355    0.00864   -0.00488    0.00069
O4    1    0.507465    0.015525    0.249663    11.00000    0.01449    0.01439 =
         0.01054    0.00285    0.00012    0.00017
O5    1    0.447791    0.413974    0.792694    11.00000    0.01040    0.01212 =
         0.01332    0.00444    0.00535   -0.00107
O6    1    0.931182    0.377203    0.801706    11.00000    0.01139    0.01568 =
         0.01333    0.00796    0.00073    0.00409
F1    2    0.146402    0.097547    0.923349    11.00000    0.03183    0.02434 =
         0.02157    0.01706    0.01684    0.01811

HKLF 4

REM  P-1 in P-1
REM R1 =  0.0359 for    1116 Fo > 4sig(Fo)  and  0.0368 for all    1148 data
REM    101 parameters refined using      0 restraints

END

WGHT      0.0742      0.2548

REM Highest difference peak  2.604,  deepest hole -3.567,  1-sigma level  0.456
Q1    1   0.1414  0.2403  0.6372  11.00000  0.05    2.60
Q2    1   0.8160 -0.0556  0.2233  11.00000  0.05    2.48
Q3    1   0.7400  0.3533 -0.0170  11.00000  0.05    1.83
Q4    1   0.7719  0.1651  0.1123  11.00000  0.05    1.83
Q5    1   0.0275  0.0681  0.5432  11.00000  0.05    1.67
Q6    1   0.0382  0.0509  0.6073  11.00000  0.05    1.45
Q7    1   0.5464  0.2983 -0.0785  11.00000  0.05    1.36
Q8    1   0.9146  0.4377  0.5458  11.00000  0.05    1.33
Q9    1  -0.0493  0.2198  0.6162  11.00000  0.05    1.29
Q10   1   0.9630  0.1927  0.1438  11.00000  0.05    1.28
Q11   1   0.4058  0.2282 -0.2235  11.00000  0.05    1.26
Q12   1   0.4243 -0.0436  0.6384  11.00000  0.05    1.26
Q13   1   0.3121  0.2388 -0.2172  11.00000  0.05    1.19
Q14   1   0.8918  0.3747  0.1564  11.00000  0.05    1.19
Q15   1   0.4389 -0.0125  0.1859  11.00000  0.05    1.14
Q16   1   0.3645  0.2687  0.2975  11.00000  0.05    1.13
Q17   1   0.6135  0.1561 -0.0391  11.00000  0.05    1.11
Q18   1   0.1598 -0.0190  0.4924  11.00000  0.05    1.11
Q19   1   0.0634 -0.0455  0.6565  11.00000  0.05    1.08
Q20   1   0.4159  0.4203 -0.0180  11.00000  0.05    1.07
;
_shelx_res_checksum              52407
_shelx_hkl_file
;
   0   0   2  582.91   16.04
   0   0  -2  548.41   15.79
   0   0  -2  571.17   13.46
   0   0   2  569.96   13.43
   0   0   3 2346.93   65.35
   0   0  -3 2275.07   64.74
   0   0  -3 2670.91   72.34
   0   0   3 2673.19   72.48
   0   0   4 1080.03   32.31
   0   0  -4 1074.75   34.42
   0   0  -4 1090.30   30.26
   0   0   5 1243.71   37.39
   0   0  -5 1219.28   40.79
   0   0  -5 1258.75   35.10
   0   0   6    9.83    1.63
   0   0  -6   15.65    6.73
   0   0  -6    7.35    1.67
   0   0   7  177.81   18.96
   0   0  -7  165.58   12.15
   0   0  -7  202.14   10.05
   0   0   8 1160.50   47.22
   0   0  -8 1081.54   46.57
   0   0  -8 1238.57   48.50
   0   0   9  709.74   35.06
   0   0  -9  705.87   36.72
   0   0  -9  806.44   37.94
   0   0  10   68.84    8.80
   0   0 -10   80.45    8.97
   0  -1  10  104.81   13.56
   0   1 -10  124.31   12.34
   0  -1   9  942.86   46.85
   0   1  -9 1075.10   54.22
   0   1  -9 1161.58   53.50
   0  -1   8   59.66   13.16
   0   1  -8   51.29    7.94
   0   1  -8   62.17    5.61
   0  -1   7  127.44   11.06
   0   1  -7  142.50   11.85
   0   1  -7  133.13    8.58
   0  -1   6 2416.72   71.45
   0   1  -6 2574.59   79.28
   0   1  -6 2634.14   72.63
   0  -1   5   -1.11    2.63
   0   1  -5    4.37    5.45
   0   1  -5    3.61    1.06
   0  -1   4   27.74    3.86
   0   1  -4   13.49    6.00
   0   1  -4   16.02    3.27
   0  -1   3 3496.18   97.86
   0   1  -3 2830.07   80.95
   0  -1   2  292.36   11.47
   0   1  -2  250.70   11.85
   0  -1   1  902.58   26.33
   0   1  -1  792.56   23.90
   0   1   0  627.69   14.78
   0  -1  -1  261.44    6.10
   0  -1  -1  263.93    7.13
   0   1   1  242.85    6.55
   0   1   2 1359.44   36.95
   0  -1  -2 1378.52   38.17
   0  -1  -2 1259.63   34.76
   0   1   2 1301.71   35.90
   0   1   3  646.90   22.44
   0  -1  -3  640.64   23.43
   0  -1  -3  626.81   15.25
   0   1   3  617.36   14.94
   0   1   4   11.04    1.98
   0  -1  -4   12.85    3.34
   0  -1  -4    8.86    2.49
   0   1   4    9.39    2.71
   0   1   5 1400.48   40.01
   0  -1  -5 1311.69   41.85
   0  -1  -5 1392.23   39.47
   0   1   5 1396.70   39.43
   0   1   6 2127.46   86.58
   0  -1  -6 1981.32   83.69
   0  -1  -6 2171.41   88.21
   0   1   6 2191.49   88.91
   0   1   7   97.68    8.44
   0  -1  -7  100.79    9.58
   0  -1  -7   97.66    7.89
   0   1   8   95.27    9.73
   0  -1  -8   95.86    7.86
   0  -1  -8  102.43    6.48
   0   1   9  997.48   48.89
   0  -1  -9  983.56   50.06
   0  -2  10   56.55   16.23
   0   2 -10   84.00    8.13
   0  -2   9 1581.32   76.65
   0   2  -9 1815.85   88.18
   0  -2   8   31.17    5.80
   0   2  -8   33.01    6.66
   0   2  -8   32.56    8.20
   0  -2   7   77.44    7.53
   0   2  -7   74.35    8.21
   0   2  -7   86.13    6.19
   0  -2   6  784.61   28.68
   0   2  -6  824.27   32.46
   0  -2   5    2.54    3.28
   0   2  -5    1.63    6.94
   0  -2   4 2751.88   79.03
   0   2  -4 2576.73   77.66
   0  -2   3  134.07    7.51
   0   2  -3  103.97   10.00
   0  -2   2  212.89    9.44
   0   2  -2  156.81    8.95
   0  -2   1 1965.46   56.05
   0   2  -1 1674.79   48.69
   0  -2   0 1418.12   39.71
   0   2   0 1502.94   41.87
   0   2   1   40.22    1.71
   0   2   1   34.48    2.54
   0  -2  -2 1269.23   34.51
   0   2   2 1326.52   37.26
   0  -2  -3 1926.69   53.13
   0  -2  -3 1986.78   55.22
   0   2   3 2035.58   56.39
   0  -2  -4 1146.51   34.16
   0  -2  -4 1151.68   33.35
   0   2   4 1166.47   33.47
   0   2   5   68.03    3.65
   0  -2  -5   63.22    5.16
   0  -2  -5   73.21    4.60
   0   2   5   79.96    4.41
   0   2   6  997.61   28.99
   0  -2  -6  910.30   29.09
   0  -2  -6  984.52   30.28
   0   2   6 1033.06   31.30
   0   2   7  438.50   17.45
   0  -2  -7  437.78   19.25
   0  -2  -7  443.55   19.18
   0   2   7  437.77   18.40
   0   2   8  920.91   44.43
   0  -2  -8  929.99   46.10
   0   2   9    8.62    2.71
   0  -2  -9   15.43    2.64
   0  -3  10  526.16   57.21
   0   3 -10  630.32   37.31
   0   3 -10  602.89   30.11
   0  -3   9  134.74   12.18
   0   3  -9  128.76   12.64
   0  -3   8   12.14    4.68
   0   3  -8    3.65    4.62
   0   3  -8    7.29    2.11
   0  -3   7 2894.77  121.74
   0   3  -7 2637.52  113.71
   0  -3   6  684.90   24.98
   0   3  -6  623.04   26.11
   0  -3   5   49.14    6.06
   0   3  -5   39.61    6.58
   0   3  -4 1463.84   47.37
   0  -3   3 2196.40   63.93
   0   3  -3 1830.55   56.57
   0  -3   1  342.30   11.56
   0   3  -1  316.24   11.18
   0  -3   0 1042.50   30.98
   0   3   0  950.16   27.55
   0   3   1 2209.24   60.16
   0   3   1 2165.93   60.57
   0  -3  -2 1684.92   45.64
   0   3   2 1561.41   44.39
   0  -3  -3  682.49   19.10
   0  -3  -3  787.02   21.72
   0   3   3  757.17   23.03
   0  -3  -4 1298.99   35.64
   0  -3  -4 1630.64   44.40
   0   3   4 1489.26   42.91
   0  -3  -5 2274.63   91.32
   0   3   5 2245.40   91.59
   0  -3  -6    5.61    1.17
   0  -3  -6    2.93    0.56
   0   3   6    3.26    1.73
   0   3   7    3.22    1.44
   0   3   8 1027.42   63.24
   0  -4  10 1330.61   84.57
   0   4 -10 1115.70   73.24
   0   4 -10  963.22   58.93
   0  -4   9  661.54   34.79
   0   4  -9  730.74   41.22
   0  -4   8 1183.24   51.13
   0   4  -8  960.83   45.58
   0  -4   7  157.04   11.53
   0   4  -7  122.46   11.74
   0  -4   6 1232.05   53.79
   0   4  -6 1191.26   55.60
   0  -4   5 2075.38   62.40
   0   4  -5 1807.64   59.39
   0  -4   4  960.33   32.61
   0   4  -4  710.82   28.49
   0  -4   3 1007.95   32.84
   0   4  -3  818.27   29.84
   0   4  -1 3258.01   92.08
   0  -4   0  183.03    7.46
   0   4   0  185.13    7.09
   0   4   0  178.33    8.39
   0  -4  -1   36.62    3.22
   0   4   1   35.68    2.49
   0   4   1   44.13    6.15
   0  -4  -2 2475.54   67.50
   0   4   2 2268.99   64.80
   0   4   3  148.97   11.78
   0   4   4  328.86   23.17
   0   4   6   58.82    4.89
   0   4   7  983.48   60.86
   0  -5  10  114.70   11.58
   0   5 -10   96.22   12.12
   0  -5   9  125.33   13.38
   0   5  -9  137.40   16.85
   0  -5   8 1561.54   65.22
   0   5  -8 1313.98   59.35
   0  -5   7 1175.27   39.87
   0   5  -7 1250.60   47.27
   0  -5   6   30.89    5.12
   0   5  -6   24.36    5.57
   0  -5   5 1299.38   56.66
   0   5  -5 1189.54   55.61
   0  -5   4 1984.46   60.15
   0   5  -4 1751.06   58.18
   0  -5   3   21.06    3.59
   0   5  -3   19.26    6.85
   0  -5   2  270.21   13.17
   0   5  -2  181.95   12.02
   0  -5   1  844.10   27.40
   0   5  -1  662.64   23.35
   0  -5   0   22.16    3.09
   0   5   0   21.79    3.44
   0   5   0   28.19    7.71
   0  -5  -1 1510.08   62.58
   0   5   1 1185.68   48.68
   0   5   1 1089.99   46.83
   0  -5  -2  102.05    4.94
   0   5   2  110.04   16.96
   0   5   3    2.89    1.60
   0   5   4 1587.62   62.71
   0   5   5  146.44    9.70
   0  -6   9  143.85   12.91
   0   6  -9  126.57   15.15
   0  -6   8  212.98   15.71
   0   6  -8  181.76   16.83
   0  -6   7  711.65   32.34
   0   6  -7  726.64   37.15
   0  -6   6  243.59   19.22
   0   6  -6  254.75   22.88
   0   6  -5  935.71   38.02
   0  -6   4  304.31   16.96
   0   6  -4  306.84   21.22
   0  -6   3   74.79    6.40
   0   6  -3   65.02    8.73
   0   6  -2 2323.50   98.56
   0  -6   1  128.62    8.61
   0   6  -1  176.54   11.73
   0   6  -1   90.57   19.35
   0  -6   0   14.10    2.64
   0   6   0   19.75    3.27
   0   6   0    7.25    3.44
   0  -6  -1 2255.31   65.56
   0   6   1 1967.47   56.87
   0   6   1 2039.54   62.97
   0  -6  -2  227.01   11.67
   0  -6  -2  251.61   10.08
   0   6   2  216.63   13.31
   0   6   3  401.38   21.41
   0   6   4  256.42   19.93
   0   6   5  176.32   13.21
   0   7  -8 1689.50  108.94
   0  -7   7    2.35    3.36
   0   7  -7    9.07    6.18
   0  -7   6   15.38    3.42
   0   7  -6   25.40    6.79
   0  -7   5 2648.69  104.03
   0  -7   4   42.54    5.43
   0   7  -4   33.13    6.67
   0  -7   3  454.39   21.47
   0   7  -3  327.24   19.70
   0   7  -2  605.59   29.00
   0   7  -2  627.04   30.41
   0   7  -1   45.22    5.74
   0   7   0 1005.97   47.05
   0   7   0 1018.79   50.50
   0  -7  -1    6.49    1.42
   0   7   1   12.09    1.91
   0   7   1    6.78    2.88
   0   7   2  113.48   13.45
   0   7   3  840.23   53.83
   0   8  -7   79.29   12.39
   0   8  -6  933.08   63.45
   0  -8   5   -0.08    2.64
   0   8  -5    1.77    5.31
   0  -8   4    6.77    2.25
   0   8  -4   12.52    4.34
   0   8  -3  919.75   50.44
   0   8  -3 1032.10   55.44
   0   8  -2  345.32   21.38
   0   8  -2  367.73   30.60
   0  -8   1    7.23    2.51
   0   8  -1    3.79    2.75
   0   8   0  206.17   13.96
   0   8   0  185.00   27.71
   1   8   0    4.09    2.22
   1   8   0   -0.62    2.14
   1   8  -1  281.33   19.50
   1   8  -1  283.83   30.98
   1   8  -2  541.83   36.02
   1   8  -2  555.81   37.46
   1   8  -3   28.72    6.18
   1   8  -3   16.58    3.36
   1   8  -4 1088.07   59.26
   1   8  -4 1177.16   60.77
  -1  -8   5    3.22    3.52
   1   8  -5    3.98    5.23
   1   8  -5   -0.70    2.48
  -1  -8   6   12.70    4.04
   1   8  -6    6.02    2.28
   1   8  -7 1403.61   91.92
   1   8  -7 1350.99   84.79
  -1  -7  -2  552.54   33.73
   1   7   2  578.90   37.87
  -1  -7  -1   33.69    6.08
   1   7   1   50.10   15.73
   1   7   0  146.40    9.45
   1   7   0  150.13   10.94
  -1  -7   1 1737.80   80.82
   1   7  -1 1452.09   67.97
   1   7  -1 1530.26   72.59
  -1  -7   2    9.50    3.11
   1   7  -2    2.19    2.93
   1   7  -2    8.30    2.07
  -1  -7   3    8.24    4.51
   1   7  -3    6.53    5.54
   1   7  -3    2.60    1.71
   1   7  -4  695.49   34.26
   1   7  -4  727.05   32.54
  -1  -7   5  394.28   22.57
   1   7  -5  350.84   23.52
   1   7  -5  344.64   31.75
  -1  -7   6  291.22   27.58
   1   7  -6  247.10   19.77
   1   7  -6  253.38   30.67
  -1  -7   7    6.88    3.86
   1   7  -7    6.57    5.48
   1   7  -8  243.67   22.29
   1   6   4    1.32    1.61
  -1  -6  -3   47.34    5.24
   1   6   3   48.11   12.99
  -1  -6  -2 1543.57   69.75
   1   6   2 1601.76   74.73
  -1  -6  -1    8.21    1.37
  -1  -6  -1   11.42    2.74
   1   6   1    9.54    2.86
  -1  -6   0  184.79   14.40
   1   6   0  190.35   14.26
   1   6   0  163.45   18.29
  -1  -6   1  258.11   19.56
   1   6  -1  230.75   17.54
   1   6  -1  208.72   18.60
  -1  -6   2  142.33   12.25
   1   6  -2  128.29   11.45
   1   6  -2  132.32   13.46
  -1  -6   3 1558.16   50.55
   1   6  -3 1362.56   45.96
   1   6  -3 1260.42   40.69
  -1  -6   4  374.94   27.81
   1   6  -4  319.78   25.84
   1   6  -4  308.92   26.50
   1   6  -5   96.67   11.42
  -1  -6   6 1837.67   74.89
   1   6  -6 1569.13   67.28
  -1  -6   7 1469.60   62.12
   1   6  -7 1194.28   53.96
  -1  -6   8  281.28   19.07
   1   6  -8  295.78   21.73
  -1  -6   9  359.42   26.24
   1   6  -9  299.20   24.85
   1   5   5  509.55   26.99
  -1  -5  -4   38.76    3.01
   1   5   4   32.20    8.16
  -1  -5  -3 1381.18   52.93
   1   5   3 1320.51   52.54
  -1  -5  -2   18.63    3.27
  -1  -5  -2   14.86    2.47
   1   5   2   20.94    4.97
  -1  -5  -1  216.47   11.31
   1   5   1  212.96   10.77
   1   5   1  193.05   10.71
  -1  -5   0 2308.19   94.67
   1   5   0 2094.25   85.88
   1   5   0 2068.78   85.47
  -1  -5   1 1437.09   42.95
   1   5  -1 1324.55   39.87
   1   5  -1 1324.69   39.81
  -1  -5   2  277.44   12.98
   1   5  -2  307.05   15.36
   1   5  -2  270.65   12.25
   1   5  -3 1136.08   37.77
   1   5  -3 1044.53   32.62
  -1  -5   4 2336.20   98.11
   1   5  -4 1962.19   84.16
  -1  -5   5  854.85   39.11
   1   5  -5  729.73   35.76
  -1  -5   6   12.08    4.34
   1   5  -6   17.65    6.45
  -1  -5   7 1306.52   45.75
   1   5  -7 1111.02   42.30
  -1  -5   8  280.90   16.48
   1   5  -8  272.73   18.87
  -1  -5   9 1860.22   88.92
   1   5  -9 1724.23   85.82
  -1  -5  10   24.52    5.29
   1   5 -10   30.45    7.18
  -1  -4  -6 1478.40   71.75
   1   4   6 1663.98   81.23
  -1  -4  -5  629.73   29.85
   1   4   5  679.21   32.95
  -1  -4  -4  203.51   14.39
  -1  -4  -4  234.03   16.13
   1   4   4  193.54   14.32
  -1  -4  -3 1047.16   43.06
  -1  -4  -3 1126.68   46.28
   1   4   3  966.20   40.92
  -1  -4  -2 1922.35   77.81
  -1  -4  -2 1963.83   79.74
   1   4   2 1887.40   77.62
  -1  -4  -1  484.81   15.45
   1   4   1  458.72   20.97
   1   4   1  437.37   20.73
  -1  -4   0   20.43    2.62
   1   4   0    5.89    2.79
   1   4   0   11.24    2.39
  -1  -4   1  694.34   22.10
   1   4  -1  673.72   21.55
   1   4  -1  661.19   20.85
  -1  -4   2  746.27   24.09
   1   4  -2  688.03   26.44
   1   4  -2  672.20   24.84
  -1  -4   3  847.03   27.83
   1   4  -3  771.41   26.52
   1   4  -3  707.23   22.68
  -1  -4   4   51.04    5.80
   1   4  -4   59.33    7.23
  -1  -4   5  382.34   18.67
   1   4  -5  319.45   17.83
  -1  -4   6 2423.56  103.10
   1   4  -6 1838.54   80.41
  -1  -4   7  189.05   13.55
   1   4  -7  164.43   13.86
  -1  -4   8   27.75    5.00
   1   4  -8   19.77    5.63
  -1  -4   9 1244.54   61.12
   1   4  -9 1228.05   63.14
   1   4  -9 1033.84   47.16
  -1  -4  10  204.34   16.07
   1   4 -10  167.21   18.88
   1   4 -10  154.78   14.06
  -1  -3  -7  306.74   17.27
  -1  -3  -6  531.24   23.76
  -1  -3  -6  528.97   21.13
  -1  -3  -6  487.79   21.08
  -1  -3  -5  404.78   14.47
  -1  -3  -5  445.56   14.08
   1   3   5  445.99   15.62
  -1  -3  -4 1170.09   48.42
  -1  -3  -4 1203.01   49.11
  -1  -3  -4 1189.28   49.68
   1   3   4 1219.91   50.84
  -1  -3  -3   78.30    5.54
  -1  -3  -3   67.93    3.53
  -1  -3  -3   65.49    4.18
   1   3   3   69.99   13.36
  -1  -3  -2   61.06    3.94
  -1  -3  -2   55.14    3.01
  -1  -3  -2   58.40    3.71
   1   3   2   62.51   10.05
  -1  -3  -1 1830.08   50.81
  -1  -3  -1 1695.89   47.78
   1   3   1 1695.44   47.76
  -1  -3   0 3187.67   87.37
   1   3   0 2884.15   79.26
   1   3   0 3057.27   84.47
  -1  -3   1   34.87    3.15
   1   3  -1   37.87    3.21
   1   3  -1   39.63    4.55
  -1  -3   2  818.43   25.08
   1   3  -2  847.78   26.33
   1   3  -2  806.35   23.70
  -1  -3   3 3113.95   87.77
   1   3  -3 2646.45   75.38
  -1  -3   4  153.19    9.32
   1   3  -4  124.88    7.99
  -1  -3   5  924.34   33.03
   1   3  -5  684.94   25.64
  -1  -3   6 1014.37   35.71
   1   3  -6  780.81   29.65
  -1  -3   7   37.14    5.95
   1   3  -7    3.12    5.34
  -1  -3   8 2336.68   73.89
   1   3  -8 1914.08   54.75
  -1  -3   9    7.08    4.86
   1   3  -9    6.78    4.58
   1   3  -9    6.04    1.24
  -1  -3  10   14.92    6.76
   1   3 -10    1.29    4.25
   1   3 -10    2.72    0.95
   1   2   8  100.21    7.15
  -1  -2  -8   72.32    8.01
  -1  -2  -8   84.63    9.07
   1   2   7 1361.37   61.82
  -1  -2  -7 1270.17   61.18
  -1  -2  -7 1274.24   58.93
   1   2   6  694.85   21.00
  -1  -2  -6  617.70   21.87
  -1  -2  -6  669.73   21.64
   1   2   6  683.77   21.98
   1   2   5   79.16    6.41
  -1  -2  -5   83.98    6.45
  -1  -2  -5   72.63    6.70
   1   2   5   86.95    5.34
   1   2   4  668.96   19.29
  -1  -2  -4  659.67   20.51
  -1  -2  -4  681.43   20.84
   1   2   4  705.16   21.57
  -1  -2  -3 2811.81   77.88
  -1  -2  -3 2774.44   76.41
  -1  -2  -3 2845.70   79.05
   1   2   3 2829.30   78.62
  -1  -2  -2  106.91    5.73
  -1  -2  -2  105.71    3.71
  -1  -2  -2   91.36    5.73
   1   2   2   92.30    4.01
  -1  -2  -1  346.21    9.84
  -1  -2  -1  327.58    8.79
  -1  -2  -1  315.44    8.80
   1   2   1  311.61    8.72
  -1  -2   0 2951.76   80.50
   1   2   0 2952.20   80.59
  -1  -2   0 3105.54   84.50
   1   2   0 3169.55   86.63
  -1  -2   1   12.26    3.05
   1   2  -1    3.15    2.72
  -1  -2   1   16.64    4.13
   1   2  -1   18.69    4.72
  -1  -2   2 3321.04   91.64
   1   2  -2 2973.14   82.34
   1   2  -2 2975.00   80.79
  -1  -2   3  154.26    6.95
   1   2  -3  130.71    6.88
  -1  -2   4   53.70    5.14
   1   2  -4   50.09    5.64
  -1  -2   5 3772.33  130.18
   1   2  -5 3454.47   98.81
  -1  -2   6  467.83   19.64
   1   2  -6  373.52   18.58
  -1  -2   7   67.72    7.41
   1   2  -7   46.94    6.99
   1   2  -7   49.91    3.50
  -1  -2   8 2117.14   67.57
   1   2  -8 1972.16   64.20
   1   2  -8 2011.79   57.39
   1   2  -9  575.00   28.98
   1   2  -9  563.81   22.26
  -1  -2  10  147.38   16.10
   1   2 -10  195.22   15.90
  -1  -1  -9  928.59   60.58
   1   1   8   35.87    8.35
  -1  -1  -8   23.04    4.56
  -1  -1  -8   34.42   10.20
   1   1   7    2.18    0.66
  -1  -1  -7    2.62    2.65
  -1  -1  -7    4.23    0.94
   1   1   6 1031.01   42.80
  -1  -1  -6  950.97   41.75
  -1  -1  -6 1041.22   43.35
   1   1   5   52.05    4.82
  -1  -1  -5   43.60    4.39
  -1  -1  -5   50.34    3.32
   1   1   4 2512.89   69.69
  -1  -1  -4 2432.11   68.81
  -1  -1  -4 2554.78   70.99
   1   1   4 2502.40   69.60
   1   1   3  778.41   22.35
  -1  -1  -3  745.74   22.41
  -1  -1  -3  769.67   22.40
   1   1   3  755.97   22.07
   1   1   2  554.09   13.38
  -1  -1  -2  568.69   14.65
  -1  -1  -2  543.72   13.70
   1   1   2  577.02   14.39
  -1  -1  -1 4705.84  156.30
  -1  -1  -1 4200.77  139.68
  -1  -1  -1 5018.40  166.83
   1   1   1 5011.36  166.56
  -1  -1   0  206.40    7.08
   1   1   0  200.87    6.60
  -1  -1   0  192.42    9.32
   1   1   0  181.29    6.06
  -1  -1   1  213.24    6.91
   1   1  -1  217.24    7.13
  -1  -1   1  198.43    5.35
   1   1  -1  186.70    5.39
  -1  -1   2 3796.22  127.11
   1   1  -2 3709.92  101.31
  -1  -1   3  963.22   28.97
   1   1  -3  898.74   26.67
  -1  -1   4 1223.45   38.33
   1   1  -4 1151.93   34.66
  -1  -1   5  223.71   11.50
   1   1  -5  216.61   10.25
  -1  -1   6 1036.80   35.84
   1   1  -6  833.32   28.63
  -1  -1   7  763.98   36.37
   1   1  -7  801.85   37.04
   1   1  -7  803.85   32.92
  -1  -1   8  765.21   30.53
   1   1  -8  839.87   30.55
   1   1  -8  859.80   25.52
  -1  -1   9  152.67   12.07
   1   1  -9  222.68   14.98
   1   1  -9  214.98   11.07
  -1  -1  10  106.11   26.67
   1   1 -10  137.81   15.00
   1   0   9  174.65   15.77
  -1   0  -9  181.84   16.05
  -1   0  -9  211.84   12.17
   1   0   8   33.52    6.59
  -1   0  -8   27.37    5.04
  -1   0  -8   36.79   10.90
   1   0   7 2012.41   60.15
  -1   0  -7 1891.80   60.59
  -1   0  -7 2005.03   58.44
   1   0   6   20.87    5.21
  -1   0  -6   23.54    4.55
  -1   0  -6   23.79    6.50
   1   0   5   51.91    4.56
  -1   0  -5   35.70    4.17
  -1   0  -5   43.55    3.08
   1   0   4 3043.70   84.03
  -1   0  -4 2769.11   77.76
  -1   0  -4 3116.31   85.14
   1   0   3  454.92   12.32
  -1   0  -3  436.97   12.70
  -1   0  -3  444.59   11.45
   1   0   2   24.30    6.07
  -1   0  -2   32.76    5.28
  -1   0  -2   18.46    4.29
   1   0   1 1262.32   34.88
  -1   0  -1 1205.41   33.61
  -1   0  -1 1235.90   34.18
   1   0   0  199.30    5.24
  -1   0   0  193.59    5.21
  -1   0   1  907.43   25.29
   1   0  -1  924.75   25.91
  -1   0   2  560.40   14.42
   1   0  -2  524.77   13.14
  -1   0   3   76.22    4.41
   1   0  -3   83.78    4.17
  -1   0   3   81.29    2.69
  -1   0   4 2677.55   77.63
   1   0  -4 2798.32   77.59
  -1   0   4 2712.56   73.22
  -1   0   5 1576.22   49.27
   1   0  -5 1927.67   55.30
   1   0  -5 1837.48   50.45
  -1   0   6    5.85    4.01
   1   0  -6   19.14    5.27
   1   0  -6   19.70    2.93
  -1   0   7  341.44   19.39
   1   0  -7  410.19   29.48
   1   0  -7  381.76   17.91
  -1   0   8 1763.70   56.01
   1   0  -8 2118.66   64.63
  -1   0   9   89.02    9.40
   1   0  -9  114.73    9.01
   1   0 -10   19.68    4.11
   1  -1  10 1119.76   70.51
  -1   1 -10 1074.44   70.47
   1  -1   9    4.34    3.31
  -1   1  -9    0.78    4.09
  -1   1  -9    1.60    1.41
   1  -1   8   38.35    8.41
  -1   1  -8   28.04    6.43
  -1   1  -8   26.97    7.95
   1  -1   7 1428.02   45.40
  -1   1  -7 1394.44   48.07
  -1   1  -7 1404.78   41.52
   1  -1   6   30.22    7.31
  -1   1  -6   48.11    7.00
  -1   1  -6   27.92    5.94
   1  -1   5 1033.52   32.19
  -1   1  -5  967.68   31.84
  -1   1  -5 1038.15   29.89
   1  -1   4   68.30    6.02
  -1   1  -4   54.79    4.64
   1  -1   3   45.09    4.34
  -1   1  -3   49.23    4.37
   1  -1   2 2613.91   72.15
  -1   1  -2 2740.85   75.97
   1  -1   1 1462.36   40.83
  -1   1  -1 1425.09   39.90
   1  -1   0  597.99   14.70
  -1   1   0  610.78   14.62
  -1   1   1 2461.94   66.46
  -1   1   1 2437.92   66.01
  -1   1   2 2753.59   74.67
   1  -1  -2 2758.10   74.40
  -1   1   3  803.20   24.75
   1  -1  -3  877.21   24.36
  -1   1   3  835.54   23.46
  -1   1   4  182.87    9.21
   1  -1  -4  182.25    5.76
  -1   1   4  187.00    5.48
  -1   1   5 2374.20   68.66
   1  -1  -5 2256.50   62.87
  -1   1   5 2209.63   61.03
  -1   1   6  539.50   24.45
   1  -1  -6  547.27   23.65
  -1   1   6  559.84   23.62
  -1   1   7  828.94   26.65
   1  -1  -7  845.50   26.40
  -1   1   7  839.68   25.60
  -1   1   8  273.77   13.60
   1  -1  -8  318.46   14.30
  -1   1   9  123.45   17.44
   1  -1  -9  141.47   13.12
   1  -2  10  141.61   16.10
  -1   2 -10  156.85   16.10
  -1   2 -10  172.04   12.03
   1  -2   9    5.29    2.88
  -1   2  -9    0.53    4.35
  -1   2  -9    4.80    1.03
  -1   2  -8 1851.65   78.88
  -1   2  -8 1945.75   74.93
   1  -2   7  353.74   19.32
  -1   2  -7  439.96   25.57
  -1   2  -7  379.87   17.78
   1  -2   6  176.47   10.23
  -1   2  -6  159.77   11.50
   1  -2   5 2332.23   69.34
  -1   2  -5 2569.48   77.62
   1  -2   4 2955.32   83.89
  -1   2  -4 2716.43   78.74
   1  -2   3  458.11   14.43
  -1   2  -3  405.74   14.32
   1  -2   2   13.51    3.26
  -1   2  -2    5.44    3.33
   1  -2   1 2978.09   81.86
  -1   2  -1 3121.50   86.82
   1  -2   0 1647.42   45.39
  -1   2   0 2002.48   55.47
  -1   2   1  705.18   20.00
  -1   2   2  153.35    4.00
  -1   2   2  139.98    3.53
  -1   2   3  682.85   24.15
  -1   2   4 2707.49   73.51
   1  -2  -4 2600.22   70.54
  -1   2   4 2621.88   72.96
  -1   2   5    7.75    1.28
   1  -2  -5    5.13    0.73
  -1   2   5    3.74    1.34
  -1   2   6   21.84    3.90
   1  -2  -6   19.81    1.67
  -1   2   6   22.65    5.19
  -1   2   7 1598.19   60.67
   1  -2  -7 1664.01   63.28
  -1   2   7 1657.81   63.81
  -1   2   8  144.95    7.97
   1  -2  -8  137.72    7.73
  -1   2   8  131.68    9.17
  -1   2   9  271.32   16.84
   1  -2  -9  266.77   16.68
  -1   3 -10  350.98   28.06
   1  -3   9  184.83   39.57
  -1   3  -9  204.37   18.04
  -1   3  -9  187.78   11.16
   1  -3   8  435.43   21.68
  -1   3  -8  457.20   25.95
  -1   3  -8  441.85   18.59
   1  -3   7 1095.98   37.45
  -1   3  -7 1104.85   41.73
   1  -3   6  816.59   37.37
  -1   3  -6  862.97   43.01
   1  -3   5  173.42   10.22
  -1   3  -5  171.15   12.26
   1  -3   4 1167.64   36.81
  -1   3  -4 1000.48   34.37
   1  -3   3 1379.97   41.91
  -1   3  -3 1269.63   41.29
   1  -3   2 2627.19   74.37
  -1   3  -2 2353.00   69.43
   1  -3   1   15.46    2.32
  -1   3  -1   24.41    4.84
   1  -3   0  560.14   14.33
  -1   3   0  504.89   16.43
  -1   3   1 2817.75   78.92
  -1   3   3  164.76    7.78
  -1   3   4  769.70   23.47
  -1   3   5  306.45   15.59
  -1   3   6 1121.52   33.92
  -1   3   7    9.75    2.42
  -1   3   8   12.03    4.05
   1  -4  10  134.16   16.22
  -1   4 -10  134.10    9.88
   1  -4   9  847.16   45.13
  -1   4  -9 1077.14   60.04
   1  -4   8  378.11   26.57
  -1   4  -8  478.20   28.52
   1  -4   7    7.45    1.33
  -1   4  -7    4.42    6.10
   1  -4   6  669.26   31.60
  -1   4  -6  696.11   37.54
   1  -4   5 1531.60   47.73
  -1   4  -5 1559.39   54.15
   1  -4   4   51.90    5.38
  -1   4  -4   39.38    8.16
   1  -4   3  131.43    8.09
  -1   4  -3  103.83    9.93
   1  -4   2 1182.30   36.10
  -1   4  -2 1103.47   38.97
   1  -4   1   14.52    2.83
  -1   4  -1   14.43    7.77
   1  -4   0 1396.45   39.86
  -1   4   0 1299.54   40.70
  -1   4   1  227.45   10.10
  -1   4   2   35.60    8.83
  -1   4   3 2307.36   94.76
  -1   4   4   82.91    9.93
  -1   4   5   18.76    4.85
  -1   4   6 1375.25   63.46
  -1   4   7  293.20   15.95
   1  -5   9  135.12   28.00
  -1   5  -9  142.36   17.61
   1  -5   8 1169.98   57.27
  -1   5  -8 1089.65   57.93
   1  -5   7   84.54    8.06
  -1   5  -7   62.96    9.70
   1  -5   6  368.94   27.45
  -1   5  -6  372.76   31.24
   1  -5   5  677.06   31.45
  -1   5  -5  669.29   36.11
   1  -5   4  127.05    9.20
  -1   5  -4  125.21   12.66
   1  -5   3 3742.45  106.49
  -1   5  -3 4401.19  195.32
   1  -5   2    3.31    2.24
   1  -5   1   45.00    4.25
  -1   5  -1   35.59    6.22
  -1   5   0 2922.67   84.80
  -1   5   1  632.02   27.04
  -1   5   2  610.08   28.31
  -1   5   3  803.70   27.13
  -1   5   5  536.20   26.75
  -1   5   6  157.13   11.66
  -1   6  -9 1348.61   88.86
   1  -6   8   16.15    6.48
  -1   6  -8   13.06    6.36
   1  -6   7   -1.13    2.83
  -1   6  -7   40.03    8.23
   1  -6   6 2820.46  144.96
  -1   6  -6 2647.79  109.90
  -1   6  -5  247.43   23.16
   1  -6   4  217.19   17.07
  -1   6  -4  193.19   18.81
   1  -6   3 1268.47   54.53
  -1   6  -3 1408.50   64.72
   1  -6   2  613.99   27.92
  -1   6  -2  644.99   33.41
   1  -6   1  614.70   27.45
  -1   6  -1  673.70   33.90
   1  -6   0    2.81    1.44
  -1   6   0    6.60    3.04
  -1   6   1   72.33    5.90
  -1   6   1   76.80   23.11
  -1   6   2  643.12   28.95
  -1   6   3  758.05   37.70
  -1   6   4   21.47    5.48
  -1   6   5  167.00   13.90
  -1   7  -8   12.90    5.48
   1  -7   7  618.89   33.95
  -1   7  -7  508.65   32.70
   1  -7   6   84.51    8.06
  -1   7  -6   65.02    9.52
   1  -7   5   40.04    5.80
  -1   7  -5   33.42    8.28
   1  -7   4  971.26   41.10
  -1   7  -4  945.81   45.31
   1  -7   3  677.83   29.74
  -1   7  -3  708.89   36.08
   1  -7   2   14.27    3.08
  -1   7  -2   24.71    7.26
  -1   7  -1  528.73   25.19
   1  -7   0  959.04   44.46
  -1   7   0  807.73   38.85
  -1   7   0  579.81   45.30
  -1   7   1   20.12    3.38
  -1   7   2   18.16    4.88
  -1   7   3  779.44   50.37
   1  -8   6  813.00   52.28
  -1   8  -6  863.28   59.37
  -1   8  -5   42.56    8.32
   1  -8   4  445.25   24.84
  -1   8  -4  486.47   31.75
  -1   8  -3 1194.21   64.25
  -1   8  -2  311.45   20.25
   1  -8   1   71.50    7.96
  -1   8  -1   66.47    8.01
  -1   8  -1   59.62    8.78
  -1   8   0  297.67   19.33
  -1   8   0  276.93   27.35
   2   8  -2   31.80    5.22
   2   8  -2   25.76    7.69
   2   8  -3  728.56   47.92
   2   8  -3  789.57   50.79
   2   8  -4  144.82   14.03
   2   8  -4  156.96   14.52
   2   8  -5  113.74   13.23
   2   8  -5  132.95   15.54
  -2  -7  -1   73.40    8.84
   2   7   1   86.38   14.76
   2   7   0  359.45   20.41
  -2  -7   1  309.19   18.35
   2   7  -1  259.11   15.37
   2   7  -1  270.97   19.50
  -2  -7   2  948.78   46.12
   2   7  -2  902.90   44.55
   2   7  -2  908.21   44.11
  -2  -7   3   51.82    6.00
   2   7  -3   61.42    7.19
   2   7  -3   54.62   14.76
  -2  -7   4  489.87   27.45
   2   7  -4  386.88   23.29
   2   7  -4  391.98   25.68
  -2  -7   5 1065.23   52.94
   2   7  -5  924.01   48.20
   2   7  -5  956.14   46.13
  -2  -7   6  904.44   48.35
   2   7  -6  893.35   50.24
   2   7  -6  862.35   44.00
  -2  -7   7  207.12   16.40
   2   7  -7  171.09   20.00
   2   7  -7  167.48   25.71
   2   7  -8  218.61   19.51
   2   7  -8  236.98   20.66
  -2  -6  -3   11.95    4.76
   2   6   3    1.86    1.20
  -2  -6  -2  139.94   15.97
  -2  -6  -2  189.21   11.37
   2   6   2  139.71   15.04
  -2  -6  -1 1009.24   46.41
   2   6   1 1135.85   53.64
  -2  -6   0 1002.71   40.81
   2   6   0  969.95   39.41
   2   6   0  955.55   39.23
  -2  -6   1  259.55   13.12
   2   6  -1  244.60   12.77
   2   6  -1  225.03   18.72
  -2  -6   2 1143.38   37.36
   2   6  -2 1058.10   35.27
  -2  -6   3 1577.20   50.04
   2   6  -3 1378.49   45.01
   2   6  -3 1413.66   43.78
   2   6  -4   23.03    4.74
   2   6  -4   33.96    5.77
  -2  -6   5    9.93    4.88
   2   6  -5    0.80    4.24
   2   6  -5    9.56    2.07
  -2  -6   6  731.74   33.94
   2   6  -6  621.40   30.84
   2   6  -6  663.44   27.90
  -2  -6   7  126.91   11.53
   2   6  -7  107.86   11.28
   2   6  -7  114.77    8.88
  -2  -6   8  640.24   36.98
   2   6  -8  549.73   33.63
   2   6  -8  550.00   28.18
  -2  -6   9   39.63    6.83
   2   6  -9   40.95    8.94
   2   6  -9   18.05    5.21
  -2  -5  -4 1049.42   51.36
   2   5   4 1158.27   57.77
  -2  -5  -3  831.55   38.81
  -2  -5  -3  920.14   42.93
   2   5   3  908.31   43.43
  -2  -5  -2  246.29   11.03
  -2  -5  -2  273.95   12.57
   2   5   2  242.71   11.95
  -2  -5  -1  176.25   14.74
  -2  -5  -1  224.43   16.36
   2   5   1  193.62   15.35
  -2  -5   0 1159.28   36.11
   2   5   0 1118.97   34.96
   2   5   0 1031.38   32.41
  -2  -5   1  195.10   11.12
   2   5  -1  181.99   10.71
   2   5  -1  182.06   16.09
  -2  -5   2  212.35   12.18
   2   5  -2  197.68   12.07
   2   5  -2  190.28   15.61
  -2  -5   3   57.75    5.71
   2   5  -3   45.20    5.54
   2   5  -3   59.51    6.95
   2   5  -4  133.79   10.24
   2   5  -4  154.84   11.81
  -2  -5   5 1356.99   59.00
   2   5  -5 1325.50   58.79
   2   5  -5 1382.09   57.43
  -2  -5   6   39.48    6.37
   2   5  -6   24.85    5.30
   2   5  -6   51.45    7.69
  -2  -5   7   32.23    6.05
   2   5  -7   12.61    6.77
   2   5  -7   19.89    4.53
  -2  -5   8 2285.98  194.61
   2   5  -8 1765.58   85.99
   2   5  -8 1773.90   80.49
  -2  -5   9  138.15   15.36
   2   5  -9  159.40   17.98
   2   5  -9  137.28   12.16
  -2  -5  10  100.47   11.07
   2   5 -10   93.31   11.72
  -2  -4  -6  207.35   14.70
   2   4   6  230.63   19.97
  -2  -4  -5  478.99   25.09
  -2  -4  -5  505.78   26.68
   2   4   5  480.49   25.35
  -2  -4  -4   24.55    5.60
  -2  -4  -4   22.90    2.53
  -2  -4  -4    5.56    1.74
   2   4   4   10.94    3.33
  -2  -4  -3  400.14   19.90
  -2  -4  -3  395.79   19.54
  -2  -4  -3  368.18   25.94
   2   4   3  422.31   15.55
  -2  -4  -2 1201.91   49.70
  -2  -4  -2 1256.47   52.06
   2   4   2 1200.87   50.39
  -2  -4  -1 1154.88   47.62
  -2  -4  -1 1300.44   53.98
  -2  -4  -1 1232.12   51.47
   2   4   1 1164.14   48.68
  -2  -4   0    8.34    2.01
   2   4   0    6.32    3.29
  -2  -4   0    7.72    2.05
   2   4   0    5.97    2.08
  -2  -4   1  344.11   14.15
   2   4  -1  344.51   14.42
   2   4  -1  336.33   13.34
  -2  -4   2 3505.58   98.69
   2   4  -2 3262.30   92.38
   2   4  -2 3305.27   91.95
  -2  -4   3   10.62    2.34
   2   4  -3    9.76    3.09
   2   4  -3   10.90    3.10
  -2  -4   4  352.48   15.98
   2   4  -4  336.56   16.08
   2   4  -4  358.73   13.78
  -2  -4   5 2239.62   93.89
   2   4  -5 2129.69   89.64
   2   4  -5 2375.31   96.32
  -2  -4   6   63.79    7.93
   2   4  -6   39.79    5.95
   2   4  -6   57.14    5.74
   2   4  -7 1627.32   54.06
   2   4  -7 1820.04   52.25
  -2  -4   8  119.12   10.91
   2   4  -8   77.89    8.81
   2   4  -8   96.34    4.90
  -2  -4   9   71.41    8.39
   2   4  -9   53.46    7.39
  -2  -4  10 1508.95   95.52
   2   4 -10 1278.08   82.25
  -2  -3  -7  447.84   29.80
  -2  -3  -6   98.14   10.29
  -2  -3  -6  105.97    9.96
  -2  -3  -6   93.28    9.12
   2   3   6   94.66   10.39
  -2  -3  -5  212.02   15.53
  -2  -3  -5  246.26   11.24
  -2  -3  -5  211.52   11.80
   2   3   5  222.16   12.34
  -2  -3  -4 2461.41   72.02
  -2  -3  -4 2501.65   72.29
  -2  -3  -4 2430.61   71.13
   2   3   4 2520.13   73.69
  -2  -3  -3   16.14    2.83
  -2  -3  -3   15.01    2.16
  -2  -3  -3   13.79    2.93
   2   3   3   12.66    3.44
  -2  -3  -2   26.83    5.62
  -2  -3  -2   13.03    2.29
  -2  -3  -2   10.14    2.94
   2   3   2   13.03    2.99
  -2  -3  -1 2677.46   74.37
  -2  -3  -1 2547.34   71.11
  -2  -3  -1 2725.96   76.20
   2   3   1 2698.78   75.45
  -2  -3   0   23.45    2.65
   2   3   0   33.13    3.55
  -2  -3   0   31.02    7.50
   2   3   0   29.50    6.84
  -2  -3   1 2088.29   58.80
   2   3  -1 2060.58   58.26
  -2  -3   1 2027.88   56.27
   2   3  -1 1959.45   54.45
  -2  -3   2  730.30   22.81
   2   3  -2  729.84   22.94
  -2  -3   2  670.26   23.75
   2   3  -2  727.40   21.22
  -2  -3   3  192.79    8.20
   2   3  -3  185.09    8.04
   2   3  -3  192.80    9.24
  -2  -3   4 4693.52  202.99
   2   3  -4 4521.63  195.68
   2   3  -4 4201.10  114.79
  -2  -3   5  512.46   19.45
   2   3  -5  471.78   17.92
   2   3  -5  479.91   13.96
  -2  -3   6   16.62    4.51
   2   3  -6   19.15    4.76
   2   3  -6   16.52    2.29
  -2  -3   7 1019.20   46.81
   2   3  -7 1070.45   48.06
  -2  -3   9  118.93   11.96
   2   3  -9   91.76    9.42
  -2  -3  10   33.75    7.28
   2   3 -10   27.70    5.79
  -2  -2  -7 1020.93   52.49
  -2  -2  -7 1059.82   52.33
   2   2   6    4.34    1.39
  -2  -2  -6    0.38    1.88
  -2  -2  -6    2.35    1.11
  -2  -2  -5  425.08   16.03
  -2  -2  -5  392.44   19.74
  -2  -2  -4  301.38   15.14
  -2  -2  -4  299.27   14.50
  -2  -2  -4  275.65   13.56
   2   2   4  297.49   14.61
  -2  -2  -3  105.23    7.14
  -2  -2  -3  105.51    5.77
  -2  -2  -3   92.32    5.06
   2   2   3   90.01    4.97
  -2  -2  -2 2494.38   69.71
  -2  -2  -2 2375.63   66.43
  -2  -2  -2 2493.49   69.66
   2   2   2 2387.27   66.79
  -2  -2  -1   28.05    5.75
  -2  -2  -1   21.60    2.38
  -2  -2  -1   24.20    5.67
   2   2   1   21.95    3.72
  -2  -2   0    6.56    2.37
   2   2   0   17.01    2.46
  -2  -2   0    5.15    1.91
   2   2   0    5.93    1.97
  -2  -2   1 3484.43   95.66
   2   2  -1 3473.93   95.36
  -2  -2   1 3691.92  100.29
   2   2  -1 3612.32   98.24
  -2  -2   2  856.64   25.72
   2   2  -2  882.24   26.40
  -2  -2   2  822.48   23.19
   2   2  -2  817.11   23.26
  -2  -2   3  141.44    6.29
   2   2  -3  135.52    6.32
   2   2  -3  134.97    6.40
  -2  -2   4  686.84   26.39
   2   2  -4  709.06   23.00
   2   2  -4  655.41   22.11
  -2  -2   5 1104.50   35.19
   2   2  -5 1072.93   33.49
  -2  -2   6  250.25   13.23
   2   2  -6  291.95   14.22
  -2  -2   7  209.28   14.43
   2   2  -7  216.99   13.53
  -2  -2   8  694.78   28.93
   2   2  -8  544.57   21.72
  -2  -2   9  751.89   37.05
   2   2  -9  546.95   26.30
  -2  -2  10 1625.03   83.34
   2   1   8  881.79   54.27
  -2  -1  -8  899.16   58.71
  -2  -1  -8  932.67   57.67
   2   1   7   33.28    8.17
  -2  -1  -7   23.19    4.10
  -2  -1  -7   23.78    7.75
   2   1   6  179.90   13.00
  -2  -1  -6  228.81   18.07
   2   1   5 2462.62  100.00
  -2  -1  -5 2632.15  108.46
  -2  -1  -5 2422.89   98.57
   2   1   4   97.51    5.45
  -2  -1  -4  113.79   10.54
  -2  -1  -4   96.54    5.01
   2   1   3    8.27    1.50
  -2  -1  -3    7.39    1.83
  -2  -1  -3    4.51    0.99
   2   1   2 1553.33   43.26
  -2  -1  -2 1578.95   44.78
  -2  -1  -2 1517.79   42.51
  -2  -1  -1 1265.75   35.86
  -2  -1  -1 1365.35   38.81
  -2  -1  -1 1255.90   35.27
   2   1   1 1223.51   34.49
  -2  -1   0 1336.67   37.44
  -2  -1   0 1237.39   35.11
  -2  -1   0 1222.78   34.13
   2   1   0 1188.66   33.26
  -2  -1   1   33.18    2.82
   2   1  -1   43.26    3.36
  -2  -1   1   43.96    5.61
  -2  -1   2    7.85    3.12
   2   1  -2   11.47    2.20
  -2  -1   2   14.09    2.85
  -2  -1   3 1321.77   38.22
   2   1  -3 1312.33   37.55
  -2  -1   3 1407.32   38.14
  -2  -1   4 1638.03   47.59
   2   1  -4 1666.02   47.47
  -2  -1   5  281.16   13.21
   2   1  -5  309.61   13.32
  -2  -1   6 1566.27   49.51
   2   1  -6 1524.61   45.20
  -2  -1   7 2350.39   99.83
   2   1  -7 2360.50   97.62
  -2  -1   8  362.57   28.61
   2   1  -8  280.61   21.09
  -2  -1   9   19.15    4.86
   2   1  -9    8.95    2.49
  -2  -1  10 1000.20   54.24
   2   1 -10  987.88   50.51
   2   0   8 1280.32   63.12
  -2   0  -8 1343.26   69.80
  -2   0  -8 1280.15   62.58
   2   0   7   12.86    3.45
  -2   0  -7   31.12    5.07
  -2   0  -7   18.03    4.92
   2   0   6  540.94   18.47
  -2   0  -6  613.56   23.59
  -2   0  -6  516.94   17.31
   2   0   5  372.89   17.95
  -2   0  -5  389.11   19.99
  -2   0  -5  368.89   17.42
   2   0   4  760.23   23.22
  -2   0  -4  782.21   41.03
  -2   0  -4  820.11   24.93
   2   0   3 2502.57   69.53
  -2   0  -3 2404.91   67.51
  -2   0  -3 2475.32   68.42
   2   0   2 1416.71   39.88
  -2   0  -2 1442.64   41.00
  -2   0  -2 1454.19   40.84
   2   0   1  516.08   13.15
  -2   0  -1  518.82   13.60
  -2   0  -1  534.31   13.76
  -2   0   0 2463.44   67.49
  -2   0   1 3715.66  100.80
  -2   0   1 3398.74   92.81
  -2   0   2  265.96    8.01
   2   0  -2  260.52    7.60
  -2   0   3  961.89   28.10
   2   0  -3  976.41   28.07
  -2   0   4 3870.16  130.55
   2   0  -4 3622.40   99.08
  -2   0   4 3463.56   93.20
  -2   0   5  508.96   18.21
   2   0  -5  499.36   15.93
  -2   0   5  490.15   13.65
  -2   0   6  876.70   31.44
   2   0  -6  891.39   27.12
  -2   0   7  838.61   39.99
   2   0  -7  733.26   31.75
  -2   0   8   42.13    6.17
   2   0  -8   64.00    6.11
  -2   0   9 1352.31   66.41
   2   0  -9 1628.27   75.24
  -2   0  10   92.91    8.99
   2   0 -10  117.87    9.38
   2  -1   9  999.39   62.94
  -2   1  -9 1012.58   67.56
  -2   1  -9  944.80   58.34
   2  -1   8  110.01   17.48
  -2   1  -8  151.92   14.46
  -2   1  -8  109.63    7.32
   2  -1   7  185.14   19.29
  -2   1  -7  171.74   12.76
  -2   1  -7  177.50   12.42
   2  -1   6 1342.13   56.78
  -2   1  -6 1231.09   53.79
  -2   1  -6 1400.89   58.00
   2  -1   5 2760.21   78.57
  -2   1  -5 2637.81   76.88
  -2   1  -5 2781.42   77.91
   2  -1   4  608.58   21.14
  -2   1  -4  642.50   21.93
  -2   1  -4  644.95   19.95
   2  -1   3  431.89   13.06
  -2   1  -3  414.37   14.31
   2  -1   2 2060.54   57.93
  -2   1  -2 2051.24   57.71
   2  -1   1  255.16    7.68
  -2   1  -1  250.10    7.82
   2  -1   0  487.24   12.38
  -2   1   0  509.33   13.94
  -2   1   1 1339.53   37.10
  -2   1   1 1349.26   37.82
  -2   1   2  314.94    8.67
  -2   1   2  317.12    8.86
  -2   1   3 2529.60   69.79
   2  -1  -3 2538.73   69.31
  -2   1   4   41.27    3.95
   2  -1  -4   34.79    2.16
  -2   1   4   28.87    2.15
  -2   1   5   15.05    3.86
   2  -1  -5    3.08    1.15
  -2   1   5    1.14    0.61
  -2   1   6 1891.45   81.81
   2  -1  -6 1688.04   68.73
  -2   1   6 1593.25   64.41
  -2   1   7  524.63   21.05
   2  -1  -7  654.90   20.37
  -2   1   7  649.24   19.69
  -2   1   8   44.24    5.67
   2  -1  -8   49.05    3.71
  -2   1   9  431.23   23.25
   2  -1  -9  460.24   23.25
  -2   2  -9  563.68   41.16
  -2   2  -9  515.25   32.69
   2  -2   8  897.72   44.58
  -2   2  -8  849.54   44.73
  -2   2  -8  886.65   41.75
   2  -2   7  257.44   26.46
  -2   2  -7  215.78   15.71
   2  -2   6   47.65   13.16
  -2   2  -6   33.82    5.40
  -2   2  -6   56.64    5.15
   2  -2   5  431.73   21.59
  -2   2  -5  433.39   23.22
   2  -2   4 1267.98   38.76
  -2   2  -4 1314.80   40.92
   2  -2   3  696.82   25.92
  -2   2  -3  730.56   24.06
   2  -2   2   70.47    5.20
  -2   2  -2   73.77   15.48
   2  -2   1 1607.10   45.41
  -2   2  -1 1520.65   43.64
   2  -2   0 4243.54  141.62
  -2   2   0 4779.80  159.59
   2  -2  -1  240.43    6.77
  -2   2   1  226.11    6.63
  -2   2   2  258.60    7.23
  -2   2   2  255.09    7.29
  -2   2   3 2349.87   63.77
  -2   2   3 2433.66   66.88
  -2   2   4  277.20   11.57
  -2   2   4  278.95   11.30
  -2   2   5  625.62   29.00
  -2   2   5  736.40   30.81
  -2   2   6   26.54    3.16
   2  -2  -6   34.55    2.29
  -2   2   6   32.42    6.47
  -2   2   7   84.74    5.50
   2  -2  -7   98.85    5.27
  -2   2   7   87.97    5.12
  -2   2   8 1438.34   65.08
   2  -2  -8 1479.71   66.64
  -2   2   8 1501.38   68.19
  -2   2   9   53.70    5.68
  -2   2   9   57.38    8.34
   2  -3   9  213.76   25.20
  -2   3  -9  240.54   20.87
  -2   3  -9  190.65   13.18
   2  -3   8  151.12   17.59
  -2   3  -8  135.34   13.62
  -2   3  -8  104.50    7.86
   2  -3   7  776.35   34.16
  -2   3  -7  876.02   42.06
   2  -3   6 1084.30   47.75
  -2   3  -6 1059.29   49.02
   2  -3   5    6.49    4.01
  -2   3  -5   11.92    4.34
   2  -3   4  168.91   12.85
  -2   3  -4  149.46    9.75
   2  -3   3 3009.11   85.64
  -2   3  -3 3323.06   96.20
   2  -3   2   74.27    7.51
  -2   3  -2   57.61    4.99
   2  -3   1 1185.07   34.63
  -2   3  -1 1152.94   34.60
   2  -3   0 1321.00   37.19
   2  -3  -1  201.84    5.93
  -2   3   1  188.00    6.63
  -2   3   2 2698.92   74.56
  -2   3   2 2804.99   77.06
  -2   3   3   31.17    1.93
  -2   3   3   39.32    2.44
  -2   3   4   26.79    7.10
  -2   3   5 2487.48  101.30
  -2   3   6  690.75   21.84
  -2   3   7  122.93    7.57
  -2   3   8  416.98   26.35
   2  -4   9  982.80   63.12
  -2   4  -9 1205.61   80.86
  -2   4  -9  772.51   47.98
   2  -4   8    4.53    3.03
  -2   4  -8    0.02    4.52
   2  -4   7  226.93   19.86
  -2   4  -7  228.93   18.93
   2  -4   6  879.18   30.88
  -2   4  -6  923.03   35.99
   2  -4   5    2.73    1.39
  -2   4  -5    6.24    4.88
   2  -4   4 3013.77   87.04
  -2   4  -4 2875.15   86.39
   2  -4   3    4.19    1.80
  -2   4  -3    9.92    5.19
   2  -4   2  197.17   11.12
  -2   4  -2  166.50   11.32
   2  -4   1 3447.13   96.30
  -2   4  -1 3433.71   98.24
   2  -4   0  351.96   13.61
  -2   4   0  303.06   14.14
   2  -4  -1   85.28    4.03
  -2   4   1   80.19    5.88
  -2   4   2 1247.53   38.13
  -2   4   2 1215.84   34.07
  -2   4   4  560.81   19.76
  -2   4   5   27.84    7.22
  -2   4   6  686.56   32.83
  -2   4   7  128.33    9.43
  -2   5  -9   13.80    7.36
   2  -5   8    1.92    1.46
  -2   5  -8    6.25    6.61
   2  -5   7 1882.03   89.28
  -2   5  -7 2076.49  101.59
   2  -5   6  310.11   16.42
  -2   5  -6  342.68   23.05
   2  -5   5   27.24    7.33
  -2   5  -5   27.23    6.57
   2  -5   4 1504.84   64.57
  -2   5  -4 1415.55   64.48
   2  -5   3  756.98   34.52
  -2   5  -3  625.96   31.92
   2  -5   2   50.37   12.21
  -2   5  -2   38.49    5.89
   2  -5   1   50.58    5.99
  -2   5  -1   46.24    7.07
   2  -5   0  111.48    7.67
  -2   5   0  100.26    9.52
   2  -5  -1  669.68   27.78
  -2   5   1  819.68   38.65
  -2   5   2  615.89   19.40
  -2   5   2  743.17   21.69
  -2   5   3   30.25    8.88
  -2   5   4  360.92   20.01
  -2   5   5 1561.80   72.67
  -2   5   6    6.45    1.42
  -2   6  -8  122.61   15.50
   2  -6   7  306.17   18.75
  -2   6  -7  321.08   24.29
   2  -6   6  133.31   22.38
  -2   6  -6  134.17   14.28
   2  -6   5  840.81   37.11
  -2   6  -5  875.54   43.76
   2  -6   4   49.85   13.44
  -2   6  -4   29.79    7.71
   2  -6   3   62.23   15.60
  -2   6  -3   49.79    7.91
   2  -6   2 1104.92   35.04
  -2   6  -2 1105.77   41.57
   2  -6   1 1573.52   47.19
   2  -6   0  161.94   11.72
  -2   6   0  169.31   14.80
   2  -6  -1  272.06   11.28
  -2   6   1  225.84   14.18
  -2   6   3   56.56   12.21
  -2   6   4   41.61   14.35
  -2   6   5  405.10   27.16
   2  -7   7  730.29   47.37
  -2   7  -7  695.06   49.75
   2  -7   6   93.30   16.28
   2  -7   5  570.98   29.59
  -2   7  -5  636.34   38.03
   2  -7   4 1779.62   83.21
  -2   7  -4 1926.25   94.61
   2  -7   3  351.42   21.93
  -2   7  -3  368.61   23.93
   2  -7   2   60.81    8.55
  -2   7  -2   66.28    8.38
   2  -7   1 1148.86   53.39
  -2   7  -1 1501.37   73.27
  -2   7   1  813.53   38.02
  -2   7   2   35.98   10.51
  -2   7   3   46.84    9.53
  -2   8  -5  469.92   35.35
   2  -8   4  226.44   16.42
  -2   8  -4  238.66   20.69
  -2   8  -3  196.25   18.23
   2  -8   2 1649.76  100.81
  -2   8  -2 2169.72  135.47
   2  -8   1   57.26   10.91
  -2   8  -1   57.28    7.69
   2  -8   0    4.20    1.19
  -2   8   0   11.37    3.16
  -3  -7   1  489.51   32.44
   3   7  -1  403.61   26.84
  -3  -7   2  856.23   54.51
   3   7  -2  707.49   45.85
   3   7  -2  757.82   48.01
  -3  -7   3   11.94    3.93
   3   7  -3    7.70    4.62
   3   7  -3   10.85    2.33
  -3  -7   4  123.51   13.17
   3   7  -4  110.25   12.58
   3   7  -4  111.28   21.94
  -3  -7   5  455.57   31.36
   3   7  -5  430.20   30.94
   3   7  -5  487.88   31.67
  -3  -7   6   28.78    6.26
   3   7  -6   15.99    5.14
   3   7  -6   19.29    3.95
   3   7  -7  113.92   13.01
   3   7  -7  101.69   14.41
  -3  -6  -2  423.43   27.09
  -3  -6  -1  543.42   34.06
   3   6   1  730.53   46.41
  -3  -6   0   47.38   12.64
  -3  -6   0   81.70    8.87
   3   6   0   75.49   17.08
  -3  -6   1   17.82    3.70
   3   6  -1   19.61    3.43
   3   6  -1   12.25    3.53
  -3  -6   2  443.98   23.60
   3   6  -2  386.24   21.09
   3   6  -2  380.87   19.66
   3   6  -3  162.00   12.22
   3   6  -3  128.80   15.51
  -3  -6   4 1307.99   62.64
   3   6  -4 1260.32   61.00
   3   6  -4 1341.38   62.32
  -3  -6   5   26.86    4.90
   3   6  -5   17.25    4.26
   3   6  -5   23.81    4.90
  -3  -6   6   40.42    6.80
   3   6  -6   15.28    4.72
   3   6  -6   12.66    2.96
  -3  -6   7 2017.14  129.36
   3   6  -7 1485.76   76.13
   3   6  -7 1771.05   85.46
  -3  -6   8  183.06   16.51
   3   6  -8  153.17   14.57
   3   6  -8  200.34   13.48
  -3  -5  -3  165.85   14.58
  -3  -5  -3  219.14   15.15
   3   5   3  184.73   14.59
  -3  -5  -2  584.14   29.70
  -3  -5  -2  687.01   34.87
  -3  -5  -2  657.44   33.99
   3   5   2  660.71   34.08
  -3  -5  -1   75.18    6.66
  -3  -5  -1  114.50    8.22
  -3  -5  -1   93.42    9.12
   3   5   1   98.23   14.41
  -3  -5   0  112.07    8.72
  -3  -5   0  146.21    9.25
   3   5   0  137.79   16.82
  -3  -5   1 2575.92   76.21
   3   5  -1 2566.15   76.48
  -3  -5   2    2.61    2.07
   3   5  -2    6.08    2.39
   3   5  -2    2.50    1.42
   3   5  -3  123.96   10.61
   3   5  -3  153.99   14.97
  -3  -5   4 2466.63   74.96
   3   5  -4 2338.62   71.67
   3   5  -4 2456.78   71.47
  -3  -5   5  239.27   18.75
   3   5  -5  211.00   16.92
   3   5  -5  240.77   17.01
  -3  -5   6  850.17   37.51
   3   5  -6  736.33   33.23
   3   5  -6  822.44   32.47
  -3  -5   7  168.51   12.35
   3   5  -7  181.97   13.32
   3   5  -7  203.76   10.93
  -3  -5   8  239.05   18.42
   3   5  -8  224.79   16.67
   3   5  -8  262.62   13.77
  -3  -5   9  988.06   64.98
   3   5  -9  856.09   56.78
  -3  -4  -5 1131.63   70.09
  -3  -4  -4   14.19    3.14
  -3  -4  -4   18.85    3.05
  -3  -4  -4   13.62    3.83
   3   4   4   20.17    5.69
  -3  -4  -3   -0.06    1.16
  -3  -4  -3    1.87    1.53
  -3  -4  -3    4.26    1.95
   3   4   3    0.47    0.89
  -3  -4  -2 1882.48   73.00
  -3  -4  -2 1922.19   74.51
  -3  -4  -2 1939.52   75.41
   3   4   2 1928.67   75.10
  -3  -4  -1   90.42    8.18
  -3  -4  -1   93.48    7.84
  -3  -4  -1   98.52    7.97
   3   4   1   98.16   10.89
  -3  -4   0  777.75   24.43
  -3  -4   0  893.21   28.78
  -3  -4   0  825.73   26.07
   3   4   0  886.06   28.05
  -3  -4   1  816.76   35.37
   3   4  -1  821.11   35.91
  -3  -4   1  824.70   35.12
   3   4  -1  886.62   37.67
  -3  -4   2   35.87    3.86
   3   4  -2   38.86    4.63
  -3  -4   2   36.21    5.18
   3   4  -2   50.97    9.21
  -3  -4   3 1530.23   64.40
   3   4  -3 1483.74   62.66
   3   4  -3 1511.48   62.05
  -3  -4   4  361.93   19.15
   3   4  -4  344.26   18.46
   3   4  -4  342.55   18.51
  -3  -4   5   39.39    4.94
   3   4  -5   48.19    5.01
   3   4  -5   53.17    5.29
  -3  -4   6 1147.86   38.95
   3   4  -6 1037.49   35.11
   3   4  -6 1200.43   34.93
  -3  -4   7  922.27   41.03
   3   4  -7  841.31   36.80
  -3  -4   8   72.17    8.92
   3   4  -8   24.77    4.69
  -3  -4   9   80.77   12.61
   3   4  -9   66.71    9.27
  -3  -4  10 1118.24   73.74
  -3  -3  -6   70.84    6.38
  -3  -3  -5  559.66   29.58
  -3  -3  -5  621.11   31.67
  -3  -3  -5  560.35   28.97
  -3  -3  -4   17.74    3.87
  -3  -3  -4    7.32    1.83
  -3  -3  -4    5.82    2.28
  -3  -3  -3  945.78   30.12
  -3  -3  -3  980.59   30.74
  -3  -3  -3  955.93   30.14
   3   3   3  936.96   29.75
  -3  -3  -2   40.59    4.89
  -3  -3  -2   42.80    4.44
  -3  -3  -2   36.27    8.61
   3   3   2   46.58    7.41
  -3  -3  -1   43.73    3.97
  -3  -3  -1   42.42    4.08
  -3  -3  -1   43.83   10.16
   3   3   1   46.02    8.01
  -3  -3   0 2005.91   82.02
  -3  -3   0 1957.59   80.49
  -3  -3   0 2060.51   84.09
   3   3   0 1891.24   77.35
  -3  -3   1  425.39   20.47
   3   3  -1  429.84   20.80
  -3  -3   1  413.79   16.03
   3   3  -1  408.44   15.48
  -3  -3   2   61.27    5.07
   3   3  -2   49.91    4.50
  -3  -3   2   55.44    3.51
   3   3  -2   53.12    5.36
  -3  -3   3 1259.47   38.37
   3   3  -3 1201.86   36.62
  -3  -3   3 1170.17   33.46
   3   3  -3 1097.84   31.43
  -3  -3   4 1063.63   33.46
   3   3  -4 1108.84   34.67
   3   3  -4 1000.70   28.47
  -3  -3   5  297.84   16.62
   3   3  -5  272.10   14.95
  -3  -3   6   21.68    4.74
   3   3  -6   30.13    4.47
  -3  -3   7  794.06   29.44
   3   3  -7  834.49   29.12
  -3  -3   8 1023.20   47.02
  -3  -3   9 1045.26   54.61
   3   3  -9  907.22   45.44
   3   3 -10  102.34   10.14
  -3  -2  -6 1589.10   79.27
  -3  -2  -5   44.32    9.28
  -3  -2  -5   55.73    5.05
  -3  -2  -5   46.42    9.24
  -3  -2  -4   64.72    6.52
  -3  -2  -4   67.98    6.23
  -3  -2  -4   64.29    7.51
  -3  -2  -3 2067.24   85.25
  -3  -2  -3 2137.41   87.88
  -3  -2  -2  696.87   30.12
  -3  -2  -2  718.91   31.02
  -3  -2  -2  733.74   31.31
  -3  -2  -1  416.07   16.06
  -3  -2  -1  445.28   21.24
  -3  -2  -1  409.82   15.61
  -3  -2   0   13.19    2.41
  -3  -2   0   11.19    2.22
  -3  -2   0    8.52    2.13
   3   2   0    9.35    1.52
  -3  -2   1 1373.58   40.28
   3   2  -1 1273.56   37.34
  -3  -2   1 1326.18   37.67
   3   2  -1 1272.53   36.36
  -3  -2   2 1381.26   40.66
   3   2  -2 1405.26   41.22
  -3  -2   2 1331.98   37.71
  -3  -2   3  898.37   28.16
   3   2  -3  926.46   28.66
  -3  -2   3  854.06   24.35
  -3  -2   4  749.57   24.38
   3   2  -4  796.72   25.31
  -3  -2   4  769.04   21.88
  -3  -2   5 1132.48   35.80
   3   2  -5 1074.31   33.17
  -3  -2   6 2316.39   96.60
   3   2  -6 2440.40  100.63
  -3  -2   7  115.91   11.21
   3   2  -7  122.32   10.38
  -3  -2   8   58.91    9.04
   3   2  -8   42.15    4.61
  -3  -2   9 1568.72   76.75
   3   2  -9 1528.94   72.02
   3   1   7  132.61    9.74
  -3  -1  -7  161.78   14.76
  -3  -1  -7  136.72   10.32
   3   1   6  272.52   15.41
  -3  -1  -6  308.50   18.00
  -3  -1  -6  277.72   15.92
   3   1   5  612.00   25.06
  -3  -1  -5  607.33   26.72
  -3  -1  -5  586.38   24.40
   3   1   4 1183.77   35.68
  -3  -1  -4 1240.34   38.99
   3   1   3  439.21   19.34
  -3  -1  -3  446.58   20.68
  -3  -1  -3  411.28   28.31
  -3  -1  -2  561.78   18.54
  -3  -1  -2  572.81   18.97
  -3  -1  -2  538.98   17.15
  -3  -1  -1 1935.71   55.09
  -3  -1  -1 2040.77   58.43
  -3  -1  -1 1910.17   53.97
  -3  -1   0 3489.86   96.17
  -3  -1   0 3380.46   93.54
  -3  -1   0 3598.92   98.54
  -3  -1   1  226.34    7.49
  -3  -1   1  222.19    8.51
  -3  -1   1  214.24    6.73
  -3  -1   2  489.57   14.21
   3   1  -2  511.69   14.71
  -3  -1   2  492.94   12.43
  -3  -1   3 3690.90  102.33
   3   1  -3 3509.18   96.83
  -3  -1   3 3609.97   97.69
  -3  -1   4   97.91    6.34
   3   1  -4  107.08    6.20
  -3  -1   4   95.16    3.72
  -3  -1   5  209.08   10.66
   3   1  -5  216.01    9.90
  -3  -1   6  357.98   19.27
   3   1  -6  373.88   18.42
  -3  -1   7   16.68    4.55
   3   1  -7   18.60    3.02
  -3  -1   8 1582.95   67.34
   3   1  -8 1346.46   53.60
  -3  -1   9   29.03    6.82
   3   1  -9   16.40    2.76
  -3  -1  10   26.76    6.94
   3   0   7  950.54   47.41
  -3   0  -7 1128.31   59.44
  -3   0  -7  892.90   44.45
   3   0   6  638.58   26.68
  -3   0  -6  652.00   29.48
  -3   0  -6  661.31   27.35
   3   0   5   93.42    9.50
  -3   0  -5  110.10   12.70
  -3   0  -5  114.78    9.11
   3   0   4  719.01   30.88
  -3   0  -4  748.18   47.72
  -3   0  -4  805.57   34.50
   3   0   3 2194.34   62.07
  -3   0  -3 2226.42   64.05
  -3   0  -3 2283.84   65.91
   3   0   2  146.61   13.86
  -3   0  -2  141.61   12.52
  -3   0  -2  134.19    6.59
   3   0   1    5.81    1.59
  -3   0  -1   13.45    2.74
  -3   0  -1    5.34    2.21
  -3   0   0 1758.56   49.55
  -3   0   0 1743.78   49.69
  -3   0   0 1753.57   49.10
  -3   0   1   46.02    4.42
  -3   0   1   51.63    3.77
  -3   0   2 1496.68   42.01
  -3   0   2 1496.69   43.00
  -3   0   3    9.82    2.05
   3   0  -3   15.57    2.45
  -3   0   4    6.77    3.12
   3   0  -4   14.14    2.60
  -3   0   5 2158.57   62.52
   3   0  -5 2167.22   61.31
  -3   0   6  721.69   32.74
   3   0  -6  743.81   31.78
  -3   0   7   18.38    4.48
   3   0  -7   11.50    1.99
  -3   0   8 1257.72   55.09
   3   0  -8 1219.69   48.18
  -3   0   9  458.62   27.77
   3   0  -9  346.31   18.59
  -3   0  10  191.17   15.85
   3   0 -10  212.98   14.65
   3  -1   8  116.06   13.75
  -3   1  -8  111.95   12.15
  -3   1  -8  105.32   18.10
   3  -1   7  221.54   16.15
  -3   1  -7  218.79   16.23
  -3   1  -7  230.36   13.86
   3  -1   6  507.47   22.40
  -3   1  -6  506.16   21.74
   3  -1   5  557.18   19.46
  -3   1  -5  573.82   21.95
   3  -1   4  254.69   13.24
  -3   1  -4  215.44   15.46
  -3   1  -4  227.73   13.13
   3  -1   3  143.79    7.25
  -3   1  -3  122.94   12.57
   3  -1   2  670.02   20.83
  -3   1  -2  686.17   22.09
   3  -1   1 3144.64   86.60
  -3   1  -1 3180.95   88.26
   3  -1   0   41.15    2.61
  -3   1   0   45.63    6.99
  -3   1   1   52.87    4.67
  -3   1   1   48.88    3.83
  -3   1   2 3300.95   90.18
  -3   1   2 3559.42   97.93
  -3   1   3  395.14   14.81
  -3   1   3  392.66   15.11
  -3   1   4 1281.59   37.83
  -3   1   5 1199.93   50.83
   3  -1  -5 1269.79   52.22
  -3   1   6  354.20   18.94
   3  -1  -6  345.08   16.18
  -3   1   6  336.14   15.12
  -3   1   7 1527.62   50.72
   3  -1  -7 1532.76   45.06
  -3   1   7 1474.20   42.01
  -3   1   8   24.52    5.00
   3  -1  -8   19.32    2.35
  -3   1   9  105.01   11.30
   3  -1  -9  149.98   13.45
  -3   2  -8  216.61   18.47
  -3   2  -8  233.61   16.04
   3  -2   7 1321.80   62.91
  -3   2  -7 1199.97   59.36
  -3   2  -7 1151.42   53.66
   3  -2   6    6.32    1.61
  -3   2  -6   17.95    4.47
  -3   2  -6    4.44    2.01
   3  -2   5   14.89    3.86
  -3   2  -5   18.09    3.70
   3  -2   4 3022.79  123.73
  -3   2  -4 3188.27  212.44
   3  -2   3  230.09   10.60
  -3   2  -3  243.78   11.67
   3  -2   2  466.97   15.61
  -3   2  -2  453.48   21.85
   3  -2   1 1832.13   52.33
  -3   2  -1 1839.45   52.86
   3  -2   0  375.98   10.65
  -3   2   0  382.45   11.39
   3  -2  -1 2693.77   74.80
  -3   2   1 2895.11   80.40
  -3   2   2    8.10    1.44
  -3   2   2   13.14    2.07
  -3   2   3  161.47    6.78
  -3   2   3  172.59    7.85
  -3   2   4 2762.87   76.08
  -3   2   4 2628.47   73.95
  -3   2   5 1142.24   46.62
  -3   2   5 1117.93   47.49
  -3   2   6   95.92    7.42
  -3   2   6   75.88    7.38
  -3   2   6   88.49    6.70
  -3   2   7  498.16   19.65
  -3   2   7  374.44   18.54
  -3   2   7  445.02   17.90
  -3   2   8 1228.29   58.80
  -3   2   8  888.63   44.31
  -3   2   8 1138.96   54.84
  -3   2   9   12.39    3.52
  -3   2   9   13.60    3.75
  -3   2   9   13.72    3.48
   3  -3   8   62.85   20.56
  -3   3  -8   75.35   10.70
  -3   3  -8   46.41   13.46
   3  -3   7  718.98   38.13
  -3   3  -7  695.57   37.52
   3  -3   6  113.58   16.79
  -3   3  -6   76.71    8.12
   3  -3   5 1294.86   43.00
  -3   3  -5 1565.16   52.29
   3  -3   4  207.55   11.85
  -3   3  -4  219.08   13.33
   3  -3   3   13.98    5.89
  -3   3  -3   25.04    4.30
   3  -3   2 1965.60   56.56
  -3   3  -2 2052.64   60.23
   3  -3   1  579.45   18.35
  -3   3  -1  518.48   17.58
   3  -3   0   50.87    3.42
  -3   3   0   50.61   11.76
   3  -3  -1 1634.77   46.08
  -3   3   1 1748.27   49.94
  -3   3   2 1350.42   38.96
  -3   3   2 1407.71   40.46
  -3   3   3   47.91    6.85
  -3   3   3   48.26    3.82
  -3   3   4   53.45    6.67
  -3   3   4   47.10    4.01
  -3   3   5  954.40   27.83
  -3   3   5  798.32   25.41
  -3   3   5  874.76   28.05
  -3   3   6  108.72    6.41
  -3   3   6   92.97    5.90
  -3   3   6   99.48    6.13
  -3   3   7  712.12   33.33
  -3   3   8  112.60    8.01
  -3   4  -8 1225.24   80.40
   3  -4   7    9.28    2.38
  -3   4  -7   14.30    4.92
   3  -4   6    4.75    2.57
  -3   4  -6    8.02    4.94
   3  -4   5 1858.79   57.87
  -3   4  -5 1817.20   59.53
   3  -4   4  583.98   21.28
  -3   4  -4  542.63   22.12
   3  -4   3   78.52   14.36
  -3   4  -3   78.95    7.93
   3  -4   2  170.40   10.13
  -3   4  -2  181.71   11.43
   3  -4   1  564.25   24.63
  -3   4  -1  530.96   24.57
   3  -4   0  339.35   16.42
  -3   4   0  315.70   16.06
   3  -4  -1  479.24   20.94
  -3   4   1  446.74   20.31
  -3   4   2  196.77   10.35
  -3   4   2  228.13   11.41
  -3   4   3  645.68   20.28
  -3   4   3  700.27   21.54
  -3   4   4 1123.62   33.00
  -3   4   4 1090.24   32.09
  -3   4   5   23.42    6.71
  -3   4   6   85.45    6.38
  -3   4   7 1304.57   79.73
   3  -5   7  160.30   38.70
  -3   5  -7  195.58   16.90
   3  -5   6  521.01   27.64
  -3   5  -6  601.06   35.46
   3  -5   5   23.73    4.99
  -3   5  -5    0.72    4.30
   3  -5   4  524.64   19.92
  -3   5  -4  485.22   21.79
  -3   5  -3 1094.08   38.68
   3  -5   2 1638.05   49.57
  -3   5  -2 1651.34   53.29
   3  -5   1  262.58   18.66
  -3   5  -1  225.67   17.55
   3  -5   0  714.03   22.31
  -3   5   0  672.85   24.29
   3  -5  -1 2990.71  136.96
  -3   5   1 2658.36   79.14
  -3   5   2   60.76    6.47
  -3   5   2   60.70    5.11
  -3   5   3   23.01    3.46
  -3   5   3   19.42    1.82
  -3   5   5    6.03    2.50
  -3   6  -7  135.22   16.25
   3  -6   6  348.35   20.86
  -3   6  -6  401.16   28.75
   3  -6   5 1637.39   77.28
  -3   6  -5 1737.90   86.42
   3  -6   4   94.25   22.83
  -3   6  -4   67.19    8.91
   3  -6   3    2.56    1.02
  -3   6  -3    4.73    5.30
   3  -6   2 1652.11   64.94
  -3   6  -2 1536.91   64.25
   3  -6   1   82.97   10.00
  -3   6  -1   85.41    8.57
   3  -6   0  488.06   20.17
  -3   6   0  667.83   32.80
   3  -6  -1  120.50    6.61
  -3   6   1  126.59   11.07
  -3   6   2   21.98    3.91
  -3   6   2   11.97    1.84
  -3   6   4  144.95   11.85
  -3   7  -6   75.65   13.88
   3  -7   5  193.82   14.89
   3  -7   4  344.33   22.86
  -3   7  -4  312.67   22.77
   3  -7   3 1056.53   53.13
  -3   7  -3  964.75   53.76
   3  -7   2   13.96    3.87
  -3   7  -2   11.51    4.66
   3  -7   1   24.52    6.80
  -3   7  -1   30.32    6.76
   3  -7   0 1240.60   60.12
  -3   7   0 1436.75   73.02
  -3   7   2   86.80    5.90
   3  -8   3  720.02   45.65
  -3   8  -2  221.01   19.55
  -4  -6   1   10.34    2.62
   4   6  -1   18.10    4.66
  -4  -6   2    0.79    2.21
   4   6  -2    1.83    2.41
   4   6  -2    4.35    1.67
  -4  -6   3 1392.31   69.88
   4   6  -3 1400.37   70.69
   4   6  -3 1541.28   75.74
  -4  -6   4  188.77   13.33
   4   6  -4  155.96   15.93
   4   6  -4  203.63   30.10
   4   6  -5  217.34   17.28
   4   6  -5  248.89   29.21
  -4  -6   6  392.20   27.84
   4   6  -6  349.93   25.28
   4   6  -6  405.24   25.94
   4   6  -7  201.74   21.38
  -4  -5  -1   17.99    5.37
  -4  -5  -1   25.25    3.56
  -4  -5  -1   20.56    4.90
   4   5   1   24.07    4.78
  -4  -5   0  414.91   21.88
  -4  -5   0  556.25   29.44
  -4  -5   0  529.48   27.64
   4   5   0  515.80   27.01
  -4  -5   1   29.11    7.30
  -4  -5   1   48.32    5.25
  -4  -5   1   37.70    9.57
   4   5  -1   37.13    9.95
  -4  -5   2  605.50   30.32
   4   5  -2  612.54   31.05
   4   5  -2  622.77   30.16
  -4  -5   3    6.40    2.99
   4   5  -3   12.50    3.17
   4   5  -3    9.14    1.98
  -4  -5   4   37.34    5.28
   4   5  -4   39.41    5.25
   4   5  -4   35.14   10.41
  -4  -5   5  785.71   39.74
   4   5  -5  718.76   36.48
   4   5  -5  751.78   43.06
  -4  -5   6  595.32   31.87
   4   5  -6  561.83   29.86
   4   5  -6  613.29   28.95
  -4  -5   7   22.47    5.56
   4   5  -7   11.55    3.21
   4   5  -8  164.59   14.48
  -4  -4  -3  131.03   13.02
  -4  -4  -2   10.85    2.23
  -4  -4  -2   15.11    2.95
  -4  -4  -2   12.24    3.47
  -4  -4  -1 1166.77   54.62
  -4  -4  -1 1162.90   54.61
  -4  -4  -1 1232.49   57.38
   4   4   1 1224.97   57.21
  -4  -4   0  207.42   14.67
  -4  -4   0  218.43   12.79
  -4  -4   0  208.12   11.61
   4   4   0  197.55   11.27
  -4  -4   1   20.30    4.19
  -4  -4   1   27.75    4.07
  -4  -4   1   23.63    6.13
   4   4  -1   25.17    5.78
  -4  -4   2 1081.64   35.19
   4   4  -2 1092.06   44.50
  -4  -4   2 1069.53   32.65
   4   4  -2 1097.68   43.39
  -4  -4   3 1287.62   41.27
   4   4  -3 1251.09   40.13
  -4  -4   3 1226.04   36.94
   4   4  -3 1217.32   36.72
  -4  -4   4  213.04   17.00
   4   4  -4  191.77   15.10
   4   4  -4  195.03   15.78
  -4  -4   5   97.75    8.79
   4   4  -5   86.06    7.37
  -4  -4   6  799.15   35.41
   4   4  -6  785.45   34.23
  -4  -4   7  414.64   23.85
   4   4  -7  431.32   23.68
  -4  -4   8  466.32   27.72
   4   4  -8  425.44   24.74
  -4  -4   9  483.37   34.62
   4   4  -9  479.89   32.77
  -4  -3  -4 1062.31   66.37
  -4  -3  -3  762.91   50.77
  -4  -3  -3  826.82   41.92
  -4  -3  -3  767.84   38.86
  -4  -3  -2  443.34   30.34
  -4  -3  -2  474.21   21.11
  -4  -3  -2  442.77   20.06
  -4  -3  -1  221.30   12.47
  -4  -3  -1  225.41   13.95
  -4  -3  -1  220.54   13.47
  -4  -3   1  579.88   19.53
  -4  -3   1  577.15   20.46
  -4  -3   1  548.65   18.54
  -4  -3   2  621.20   22.05
   4   3  -2  512.38   18.16
  -4  -3   2  522.10   16.84
  -4  -3   3  750.73   25.86
   4   3  -3  763.96   25.84
  -4  -3   3  700.73   21.87
  -4  -3   4  426.14   16.96
   4   3  -4  430.22   16.41
  -4  -3   4  455.07   14.61
  -4  -3   5 1747.30   54.45
   4   3  -5 1820.12   55.91
  -4  -3   6   34.46    5.53
   4   3  -6   24.13    4.05
  -4  -3   7   83.82    8.32
   4   3  -7   79.31    6.90
  -4  -3   8 1731.15   82.80
   4   3  -8 1863.64   87.35
  -4  -3   9   69.50    9.34
   4   3  -9   63.52    7.42
  -4  -2  -5  294.85   31.20
  -4  -2  -5  405.74   26.86
  -4  -2  -4   47.61   11.58
  -4  -2  -4   62.92    5.78
  -4  -2  -4   49.89   15.41
  -4  -2  -3  474.81   21.31
  -4  -2  -3  530.30   23.38
  -4  -2  -3  501.41   21.71
  -4  -2  -2  756.68   25.09
  -4  -2  -1 1591.37   48.29
  -4  -2   0  101.14   10.18
  -4  -2   0  104.44    7.35
  -4  -2   0   97.64   12.02
  -4  -2   1  713.35   30.83
  -4  -2   1  692.10   30.73
  -4  -2   1  628.21   27.72
  -4  -2   2 1552.19   64.31
  -4  -2   2 1506.38   63.25
  -4  -2   2 1376.10   56.36
  -4  -2   3   10.39    3.04
   4   2  -3   12.92    2.81
  -4  -2   3   14.10    2.47
  -4  -2   4   21.86    3.74
   4   2  -4   25.64    3.47
  -4  -2   4   23.28    2.24
  -4  -2   5 1084.16   35.57
   4   2  -5 1069.79   34.20
  -4  -2   5 1065.03   30.90
  -4  -2   6   24.06    4.93
   4   2  -6   32.89    4.30
  -4  -2   7  622.88   28.90
  -4  -2   8    8.46    5.49
   4   2  -8    6.82    2.32
  -4  -2   9   73.58   10.35
   4   2  -9   68.85    7.78
  -4  -1  -6  105.22   10.66
  -4  -1  -6  102.99    8.88
  -4  -1  -5  728.58   51.98
  -4  -1  -5  755.48   38.29
  -4  -1  -4 1202.25   57.10
  -4  -1  -4 1382.15   64.86
  -4  -1  -4 1307.08   60.76
  -4  -1  -3   37.05    5.06
  -4  -1  -3   25.54    5.87
  -4  -1  -2  376.77   37.27
  -4  -1  -2  345.68   24.99
  -4  -1  -2  275.12   21.12
  -4  -1  -1 1293.14   54.42
  -4  -1  -1 1279.92   54.20
  -4  -1  -1 1246.73   51.99
  -4  -1   0  131.05    7.73
  -4  -1   0   96.64    7.11
  -4  -1   0  100.43    9.62
  -4  -1   1  423.94   19.10
  -4  -1   1  413.00   29.15
  -4  -1   1  430.86   18.98
  -4  -1   2  348.28   14.08
  -4  -1   2  339.04   14.55
  -4  -1   2  330.37   12.60
  -4  -1   3    4.13    3.38
  -4  -1   3    7.35    1.51
  -4  -1   4 3130.91  128.42
   4   1  -4 3287.65  218.07
  -4  -1   4 3059.63  123.02
  -4  -1   5  221.82   12.91
   4   1  -5  222.65   11.95
  -4  -1   5  239.70   10.78
  -4  -1   6   56.56    6.53
   4   1  -6   62.60    5.87
  -4  -1   7 1753.34   71.20
   4   1  -7 1719.89   67.56
  -4  -1   8  459.94   26.18
   4   1  -8  446.62   22.68
  -4  -1   9  200.22   17.14
   4   1  -9  141.85   13.77
   4   0   6   48.14   14.43
  -4   0  -6   49.06    8.79
   4   0   5  103.27   21.50
  -4   0  -5  105.25    9.69
  -4   0  -5  130.36   19.57
   4   0   4  402.68   17.78
  -4   0  -4  392.02   18.68
  -4   0  -4  463.77   20.67
   4   0   3  244.64   17.63
  -4   0  -3  240.34   22.67
  -4   0  -3  278.05   20.86
  -4   0  -2 1440.35   60.55
  -4   0  -2 1468.15   61.19
  -4   0  -1   15.00    3.06
  -4   0  -1   15.87    3.35
  -4   0  -1   13.14    3.14
  -4   0   0   20.98    5.19
  -4   0   0   17.91    3.90
  -4   0   0   17.97    4.48
  -4   0   1 4381.72  188.60
  -4   0   1 4214.31  117.68
  -4   0   1 4319.54  185.56
  -4   0   2  332.72   13.14
  -4   0   2  343.15   14.65
  -4   0   2  343.53   13.34
  -4   0   3  716.32   30.41
  -4   0   3  677.36   29.77
  -4   0   3  679.92   20.48
  -4   0   4 2132.44   88.30
  -4   0   4 1878.05   76.04
  -4   0   5  874.63   38.51
   4   0  -5  859.21   36.73
  -4   0   5  778.30   31.81
  -4   0   6  911.49   30.91
   4   0  -6  972.17   30.45
  -4   0   6  898.39   25.46
  -4   0   7   13.58    4.60
   4   0  -7    8.13    1.92
  -4   0   8  314.10   19.85
   4   0  -8  275.46   15.79
   4   0  -9  686.28   42.82
   4  -1   7    9.49    3.74
  -4   1  -7    9.63    3.52
   4  -1   6    9.09    2.27
  -4   1  -6    5.08    2.79
  -4   1  -6    1.72    2.32
   4  -1   5 2097.59   96.28
  -4   1  -5 2181.01  184.28
  -4   1  -5 2044.74   93.84
   4  -1   4  156.19    9.46
  -4   1  -4  152.04   16.92
  -4   1  -4  166.78   10.24
   4  -1   3  244.29   17.70
  -4   1  -3  236.14   17.70
  -4   1  -3  242.84   17.71
   4  -1   2 1823.24   75.17
  -4   1  -2 1883.34   78.33
   4  -1   1  717.42   30.79
  -4   1  -1  724.96   31.60
  -4   1   0 1517.27   44.30
  -4   1   0 1426.99   42.38
  -4   1   1    1.29    0.82
  -4   1   1    1.28    2.28
  -4   1   2  293.19   13.10
  -4   1   2  315.64   13.67
  -4   1   3 1417.38   58.34
  -4   1   3 1602.31   66.73
  -4   1   4  538.95   23.10
  -4   1   4  587.69   26.34
  -4   1   5    6.93    2.17
  -4   1   5   15.48    3.62
  -4   1   6  375.12   25.65
  -4   1   6  382.61   20.88
  -4   1   7 1444.87   68.56
   4  -1  -7 1452.45   66.37
  -4   1   7 1474.27   66.13
  -4   1   8   26.23    5.23
   4  -1  -8   51.12    5.54
  -4   1   9    6.04    4.73
  -4   2  -7   12.67    4.44
  -4   2  -7    7.43    2.34
   4  -2   6  218.80   13.60
  -4   2  -6  199.45   14.26
  -4   2  -6  185.47   11.19
   4  -2   5  331.82   16.05
  -4   2  -5  355.10   18.74
  -4   2  -5  302.09   14.26
   4  -2   4   74.45   14.22
  -4   2  -4   69.13   16.55
   4  -2   3 1448.03   44.35
  -4   2  -3 1362.32   43.03
   4  -2   2  205.67   10.97
  -4   2  -2  208.97   11.67
   4  -2   1    6.87    1.87
  -4   2  -1    6.38    1.63
   4  -2   0 1439.51   59.43
  -4   2   0 1268.46   52.99
  -4   2   1 1162.25   48.46
  -4   2   1 1240.85   52.15
  -4   2   2   35.05    8.68
  -4   2   2   37.34    3.96
  -4   2   3  391.83   18.84
  -4   2   3  401.09   28.05
  -4   2   4 1180.29   35.10
  -4   2   4 1117.81   34.75
  -4   2   5  196.67   13.85
  -4   2   5  214.62   16.14
  -4   2   6  351.58   14.68
  -4   2   6  327.76   16.18
  -4   2   6  310.84   13.55
  -4   2   7  521.24   24.51
  -4   2   7  416.85   22.56
  -4   2   7  459.01   21.53
  -4   2   8  173.12   11.83
  -4   2   8  134.55   11.52
  -4   2   8  149.90    9.81
  -4   3  -7    0.68    3.23
   4  -3   6 1500.08   74.70
  -4   3  -6 1720.75   87.90
   4  -3   5  365.72   19.80
  -4   3  -5  354.60   20.53
   4  -3   4  113.16    8.00
  -4   3  -4  104.85    8.83
   4  -3   3  443.90   16.40
  -4   3  -3  452.08   19.96
   4  -3   2 1257.26   38.66
  -4   3  -2 1290.93   40.81
   4  -3   1  406.75   28.14
  -4   3  -1  399.07   28.16
   4  -3   0   20.30    6.70
  -4   3   0   18.04    3.23
  -4   3   1  943.44   40.53
  -4   3   1  742.29   32.13
  -4   3   2  415.35   28.57
  -4   3   2  425.62   19.44
  -4   3   3 1939.09   56.63
  -4   3   3 1918.94   56.94
  -4   3   4  345.20   23.75
  -4   3   4  333.32   23.52
  -4   3   5  159.28    9.63
  -4   3   5  156.48    9.63
  -4   3   6 2014.80   91.01
  -4   3   6 1640.08   75.96
  -4   3   6 1724.72   79.01
  -4   3   7   14.21    3.41
  -4   3   7    4.81    3.35
  -4   3   7   13.16    3.98
   4  -4   6   -0.52    1.59
  -4   4  -6    4.69    4.38
   4  -4   5  595.27   30.47
  -4   4  -5  625.13   34.27
   4  -4   4  759.35   32.47
  -4   4  -4  801.20   36.26
   4  -4   3  960.28   39.41
  -4   4  -3  919.76   39.36
  -4   4  -2  325.21   24.16
   4  -4   1  659.83   21.53
  -4   4  -1  729.20   25.28
   4  -4   0 2904.39   83.83
  -4   4   0 3006.40  139.33
   4  -4  -1   63.25    5.34
  -4   4   1   49.14   10.39
  -4   4   2   21.43    5.13
  -4   4   2   20.53    2.94
  -4   4   3 1608.31   62.56
  -4   4   3 1644.04   63.96
  -4   4   4   57.60    7.96
  -4   4   4   61.62    4.91
  -4   4   5  456.08   21.70
  -4   4   5  382.77   19.13
  -4   4   6   30.58    2.53
  -4   4   6   12.99    6.51
  -4   5  -6 1022.32   67.19
   4  -5   5   45.85   15.55
  -4   5  -5   44.32    7.49
   4  -5   4  235.91   15.05
  -4   5  -4  212.49   15.49
   4  -5   3 1391.31   65.20
  -4   5  -3 1374.71   66.75
   4  -5   2    2.94    1.95
  -4   5  -2    8.20    3.99
   4  -5   1  178.42   10.08
  -4   5  -1  205.67   13.49
   4  -5   0  367.82   15.84
  -4   5   0  341.17   16.55
   4  -5  -1   18.73    2.27
  -4   5   1   16.34    2.77
  -4   5   2  943.02   45.11
  -4   5   2  899.10   42.24
  -4   5   3  194.26   12.22
  -4   5   3  171.45   10.38
  -4   5   4    3.73    1.55
  -4   5   4    6.46    2.15
   4  -6   5  152.58   24.21
  -4   6  -5  168.11   18.28
   4  -6   4  546.62   29.43
  -4   6  -4  507.59   30.75
   4  -6   3   11.45    3.22
  -4   6  -3    9.29    3.87
   4  -6   2   17.44    5.60
  -4   6  -2   14.89    4.86
   4  -6   1 1256.66   58.18
  -4   6  -1 1175.40   57.22
   4  -6   0  155.50    9.34
  -4   6   0  147.09   11.16
   4  -6  -1   54.61    5.56
  -4   6   1   48.05    6.50
  -4   6   2 1159.06   58.71
  -4   6   2  899.17   44.22
  -4   6   3  251.77   17.43
  -4   6   3  182.66   11.98
   4  -7   3  394.91   26.17
  -4   7  -3  344.13   26.38
  -4   7  -2  396.03   29.01
   4  -7   1  166.01   11.63
  -4   7  -1  163.33   14.88
   4  -7   0  156.26   12.03
  -4   7   1 1053.22   67.67
  -5  -5   2  827.61   52.74
  -5  -5   2  824.29   51.29
  -5  -5   3   46.21    4.69
  -5  -5   3   57.89    7.03
  -5  -5   4   35.28    5.16
   5   5  -4   40.85    5.79
   5   5  -5 1104.93   69.84
  -5  -4  -1 1048.41   65.37
  -5  -4  -1 1036.04   64.81
  -5  -4   0  156.35   20.20
  -5  -4   0  173.76   13.29
  -5  -4   0  165.44   16.07
  -5  -4   1   47.94    9.50
  -5  -4   1   51.31    6.56
  -5  -4   1   40.79   12.31
  -5  -4   2  554.70   28.88
  -5  -4   2  618.80   33.01
  -5  -4   2  563.13   28.60
  -5  -4   3  193.30   11.57
  -5  -4   3  234.34   15.16
  -5  -4   3  195.51   11.15
  -5  -4   4 1079.71   55.09
   5   4  -4 1029.27   52.43
  -5  -4   4 1025.40   50.26
  -5  -4   5   38.74    5.88
   5   4  -5   45.35    6.42
  -5  -4   6   58.48    8.12
   5   4  -6   48.56    6.58
   5   4  -7 1044.95   66.04
  -5  -3  -2  129.04   18.35
  -5  -3  -2  188.45   14.38
  -5  -3  -1   32.45    6.92
  -5  -3  -1   35.98    5.07
  -5  -3  -1   30.27    7.35
  -5  -3   0  365.71   19.31
  -5  -3   0  423.41   22.59
  -5  -3   0  389.14   19.71
  -5  -3   1 1096.41   51.70
  -5  -3   1 1170.34   55.78
  -5  -3   1 1113.60   51.70
  -5  -3   2    6.84    1.22
  -5  -3   2    8.10    3.08
  -5  -3   2    2.74    1.05
  -5  -3   3   62.71    5.23
  -5  -3   3   63.84    6.59
  -5  -3   3   53.66   10.62
  -5  -3   4 1112.22   53.78
   5   3  -4 1097.12   52.25
  -5  -3   4 1027.46   47.25
  -5  -3   5   94.59    8.13
   5   3  -5   97.52    8.10
  -5  -3   5   95.65   12.41
  -5  -3   6  256.28   17.06
   5   3  -6  234.03   15.04
  -5  -3   7   94.25   11.06
   5   3  -7  105.79   11.17
  -5  -3   8   82.23   10.09
   5   3  -8   74.18    7.38
  -5  -2  -3  205.40   22.76
  -5  -2  -3  242.12   17.67
  -5  -2  -2 1086.35   54.69
  -5  -2  -2 1239.02   62.23
  -5  -2  -1   23.32    3.74
  -5  -2  -1    9.20    2.88
  -5  -2  -1    9.54    2.71
  -5  -2   0  232.56   11.98
  -5  -2   0  268.75   14.19
  -5  -2   0  262.89   22.89
  -5  -2   1  760.08   31.72
  -5  -2   1  725.56   31.17
  -5  -2   2   12.27    2.69
  -5  -2   2   16.88    3.73
  -5  -2   2   13.00    2.76
  -5  -2   3 2105.09   81.78
  -5  -2   3 1991.51   78.67
  -5  -2   3 1970.27   75.49
  -5  -2   4    8.48    3.13
  -5  -2   4    1.25    0.62
  -5  -2   5  113.87    9.06
   5   2  -5  105.53    7.76
  -5  -2   5   99.16    5.52
  -5  -2   6 1611.29   76.14
   5   2  -6 1749.64   81.34
  -5  -2   7  439.69   25.63
   5   2  -7  441.55   24.05
  -5  -2   8  290.87   21.81
   5   2  -8  270.67   18.85
  -5  -1  -4   21.72    4.97
  -5  -1  -4   16.17    3.90
  -5  -1  -3 1092.53   55.46
  -5  -1  -3 1181.25   59.55
  -5  -1  -3 1109.93   55.24
  -5  -1  -2   14.27    2.65
  -5  -1  -2   21.96    3.92
  -5  -1  -2   18.32    5.26
  -5  -1  -1   34.27    7.06
  -5  -1  -1   50.63    5.92
  -5  -1  -1   34.17    8.91
  -5  -1   0 2626.81  101.86
  -5  -1   0 2505.22   97.88
  -5  -1   0 2385.90   91.84
  -5  -1   1  406.23   15.17
  -5  -1   1  407.16   16.35
  -5  -1   1  387.06   19.45
  -5  -1   2  105.79   12.58
  -5  -1   2   97.65    8.88
  -5  -1   2  110.83   10.40
  -5  -1   3 1512.64   45.87
  -5  -1   3 1432.09   45.12
  -5  -1   3 1397.72   41.16
  -5  -1   4  701.80   28.84
  -5  -1   4  748.21   32.47
  -5  -1   4  665.46   26.33
  -5  -1   5  401.58   19.80
  -5  -1   5  390.19   15.83
  -5  -1   6   30.05    4.34
   5   1  -6   34.95    4.02
  -5  -1   6   33.28    4.09
  -5  -1   7  395.68   23.35
   5   1  -7  372.48   20.49
  -5  -1   8  461.35   31.87
   5   1  -8  475.70   30.91
  -5   0  -4   45.07    5.74
  -5   0  -4   47.87   13.62
  -5   0  -3 1346.42   63.96
  -5   0  -3 1347.92   64.09
  -5   0  -3 1572.32   73.35
  -5   0  -2  397.94   18.84
  -5   0  -2  411.50   19.96
  -5   0  -2  440.52   21.86
  -5   0  -1  396.91   18.39
  -5   0  -1  403.97   19.35
  -5   0  -1  388.74   17.55
  -5   0   0  314.26   22.69
  -5   0   0  256.58   19.17
  -5   0   1  183.51   13.82
  -5   0   1  181.95   14.32
  -5   0   1  199.77   18.72
  -5   0   2  385.61   19.76
  -5   0   2  346.53   24.98
  -5   0   2  366.91   25.39
  -5   0   3  314.59   22.34
  -5   0   3  304.36   22.24
  -5   0   3  352.76   24.36
  -5   0   4   76.06    7.18
  -5   0   4   87.96   10.65
  -5   0   5  598.11   26.84
  -5   0   5  574.42   23.36
  -5   0   6 1059.64   49.09
  -5   0   6 1216.93   58.13
  -5   0   6 1093.01   49.34
  -5   0   7    4.72    3.97
  -5   0   8   18.43    4.44
   5   0  -8   20.93    3.39
  -5   1  -5   24.26    4.47
   5  -1   4  713.80   36.59
  -5   1  -4  652.15   35.24
  -5   1  -4  703.71   36.29
   5  -1   3    0.25    1.89
  -5   1  -3   13.47    3.09
  -5   1  -3    0.80    1.42
  -5   1  -2   12.31    2.20
  -5   1  -2    9.27    3.09
  -5   1  -2   15.33    3.21
  -5   1  -1 1254.07   50.57
  -5   1  -1 1224.83   49.86
  -5   1  -1 1280.20   51.14
  -5   1   0  890.93   28.96
  -5   1   0  889.50   29.60
  -5   1   1   20.87    4.81
  -5   1   1   26.23    3.73
  -5   1   2  445.88   15.71
  -5   1   2  438.35   17.14
  -5   1   3 2056.67   62.33
  -5   1   4  165.55   10.79
  -5   1   4  186.65   11.55
  -5   1   5   56.13    8.88
  -5   1   5   63.79    6.08
  -5   1   6  807.15   37.75
  -5   1   6  755.96   37.47
  -5   1   7  141.22   12.77
  -5   1   7  131.93   13.98
  -5   1   7  154.99   13.25
  -5   1   8  674.49   41.74
  -5   1   8  631.28   41.93
  -5   2  -5  131.02   12.51
   5  -2   4  792.44   40.46
  -5   2  -4  784.02   41.45
  -5   2  -4  734.94   37.75
   5  -2   3 1399.79   65.26
  -5   2  -3 1252.60   59.78
   5  -2   2  179.50   10.70
  -5   2  -2  160.26   18.79
   5  -2   1   17.74    2.66
  -5   2  -1   18.79    4.06
  -5   2   0 1963.58   59.01
  -5   2   0 1838.36   56.01
  -5   2   1  287.24   21.16
  -5   2   2 1451.91   43.94
  -5   2   2 1550.93   48.03
  -5   2   3  384.19   18.50
  -5   2   3  428.91   19.84
  -5   2   4   72.87    7.73
  -5   2   4   73.20    6.10
  -5   2   5 2061.42   93.75
  -5   2   5 2034.90   94.13
  -5   2   6   60.01    6.69
  -5   2   6   54.88    6.74
  -5   2   7    7.25    1.91
  -5   3  -5  167.72   14.49
   5  -3   4  373.53   20.76
  -5   3  -4  388.41   23.10
   5  -3   3  235.94   14.62
  -5   3  -3  217.77   17.95
   5  -3   2  301.35   16.06
  -5   3  -2  267.36   30.33
   5  -3   1 1465.88   57.68
  -5   3  -1 1500.34   59.93
  -5   3   0   15.08    3.33
  -5   3   0   11.29    2.18
  -5   3   1   34.12    6.49
  -5   3   1   34.72    4.19
  -5   3   2 1680.40   65.71
  -5   3   2 1481.63   59.02
  -5   3   3   88.13   14.71
  -5   3   3   88.27    6.91
  -5   3   4   95.09    7.73
  -5   3   4  102.25    7.83
  -5   3   5  159.96   14.86
  -5   3   5  179.84   11.46
  -5   3   6  297.60   19.28
  -5   3   6  244.10   17.21
   5  -4   4 1110.45   69.22
  -5   4  -4 1028.14   65.63
   5  -4   3    2.17    1.63
  -5   4  -3    3.07    2.78
   5  -4   2   20.47    6.14
  -5   4  -2    3.48    2.11
   5  -4   1  554.88   27.08
  -5   4  -1  529.34   27.15
   5  -4   0    6.04    2.18
  -5   4   0    2.49    1.02
  -5   4   1  588.22   28.98
  -5   4   1  618.87   30.83
  -5   4   2    2.48    1.23
  -5   4   2    6.28    2.70
  -5   4   3   22.36    7.30
  -5   4   3   24.02    3.93
  -5   4   4 1327.64   64.94
  -5   4   4 1132.46   56.09
  -5   4   5  364.16   23.40
  -5   4   5  318.36   21.26
  -5   5  -4   95.82   11.09
   5  -5   3   19.08    5.18
  -5   5  -3    6.42    3.70
   5  -5   2 1345.58   66.20
  -5   5  -2 1323.37   66.82
   5  -5   1   57.29    8.02
  -5   5  -1   60.01    7.44
   5  -5   0   45.73    5.08
  -5   5   0   42.32    5.73
  -5   5   1 1333.36   66.45
  -5   5   1 1276.53   63.45
  -5   5   2  673.46   42.84
  -5   5   2  610.36   38.79
  -5   5   3  365.30   24.29
  -5   5   3  324.97   21.68
   5  -6   2  217.38   15.13
  -5   6  -2  174.40   14.49
   5  -6   1  496.23   31.56
  -5   6  -1  455.42   31.18
   5  -6   0  433.51   27.63
  -5   6   0  397.20   27.39
  -5   6   1   75.69    8.18
  -5   6   1   76.17    7.20
  -6  -3   2  732.71   46.51
  -6  -3   3   22.30    7.23
  -6  -3   3   20.66    7.33
  -6  -3   4  248.65   17.46
  -6  -3   4  261.07   17.05
  -6  -3   5 1423.95   86.46
  -6  -2   0   99.80   25.10
  -6  -2   0  116.41   14.51
  -6  -2   1   31.75    8.60
  -6  -2   1   37.25    5.11
  -6  -2   1   28.65    8.77
  -6  -2   2  911.59   57.12
  -6  -2   2  894.76   56.91
  -6  -2   2  911.61   56.25
  -6  -2   3  571.38   29.98
  -6  -2   3  571.90   31.15
  -6  -2   3  571.62   28.87
  -6  -2   4   54.36   15.99
  -6  -2   4   70.04    7.62
  -6  -2   4   58.78   11.00
  -6  -2   5   38.93   12.02
  -6  -2   5   56.42    8.02
  -6  -2   6  194.44   13.73
  -6  -2   6  201.62   12.93
  -6  -1  -1  453.57   30.31
  -6  -1  -1  446.97   28.98
  -6  -1   0  453.69   44.38
  -6  -1   0  489.91   33.02
  -6  -1   0  445.24   28.63
  -6  -1   1  330.58   18.85
  -6  -1   1  358.38   21.10
  -6  -1   1  316.15   17.15
  -6  -1   2   26.06    7.25
  -6  -1   2   19.57    3.57
  -6  -1   2   24.94    5.10
  -6  -1   3   89.49   15.11
  -6  -1   3   82.75    9.25
  -6  -1   3   75.40   15.12
  -6  -1   4  277.61   15.66
  -6  -1   4  298.91   18.33
  -6  -1   4  309.43   16.18
  -6  -1   5  731.94   45.81
  -6  -1   5  751.85   48.48
  -6  -1   5  783.47   47.89
  -6  -1   6   12.77    4.10
  -6  -1   6   11.37    4.23
  -6  -1   6   11.82    3.50
  -6   0  -2  686.41   44.68
  -6   0  -1  703.63   45.24
  -6   0  -1  674.36   43.72
  -6   0  -1  766.92   48.40
  -6   0   0  114.47   15.78
  -6   0   0  122.43   12.82
  -6   0   0  106.81   25.07
  -6   0   1  287.80   19.20
  -6   0   1  321.05   19.31
  -6   0   1  319.42   17.56
  -6   0   2 1616.35   79.25
  -6   0   2 1576.98   78.35
  -6   0   2 1654.64   80.37
  -6   0   3   86.93    8.83
  -6   0   3   83.25    9.31
  -6   0   3   89.58    9.13
  -6   0   4    2.70    1.86
  -6   0   4   -1.35    2.48
  -6   0   4    0.96    0.78
  -6   0   5 1382.68   84.62
  -6   0   5 1288.71   80.56
  -6   0   5 1523.34   92.28
  -6   0   6   13.47    3.28
  -6   0   6   25.80    4.76
  -6   0   6   11.61    3.77
  -6   1  -2   20.40    4.59
  -6   1  -2   15.89    4.53
  -6   1  -1 1340.57   67.16
  -6   1  -1 1159.86   58.68
  -6   1  -1 1295.92   64.23
  -6   1   0  100.24   21.32
  -6   1   0   91.32    9.81
  -6   1   0   94.06   13.37
  -6   1   1  390.26   21.42
  -6   1   1  377.86   21.65
  -6   1   1  412.73   28.86
  -6   1   2  462.33   24.63
  -6   1   2  418.41   23.35
  -6   1   2  463.10   24.25
  -6   1   3   40.82    9.94
  -6   1   3   45.52    6.18
  -6   1   3   35.11    9.44
  -6   1   4 1827.26   88.78
  -6   1   4 1881.89  118.78
  -6   1   4 1814.76   87.61
  -6   1   5   22.85    8.23
  -6   1   5   40.84    6.00
  -6   1   5   34.80    4.33
  -6   1   6   13.70    5.21
  -6   1   6   21.66    4.80
  -6   1   6   17.59    4.47
  -6   2  -2  458.99   30.98
  -6   2  -2  462.94   30.67
  -6   2  -1   21.23    6.89
  -6   2  -1   24.61    4.51
  -6   2   0  195.08   21.21
  -6   2   0  185.38   12.29
  -6   2   1 1078.20   53.95
  -6   2   1  967.33   49.16
  -6   2   2  138.44   21.45
  -6   2   2  166.83   16.35
  -6   2   3   28.56    9.26
  -6   2   3   35.86    5.30
  -6   2   4  600.36   39.36
  -6   2   4  635.44   41.20
  -6   2   5  235.62   17.70
  -6   3  -2  760.16   48.84
  -6   3  -1   33.80    8.87
  -6   3  -1   30.44    4.43
  -6   3   0  497.98   32.48
  -6   3   0  449.88   29.85
  -6   3   1   47.66   16.35
  -6   3   2  161.27   12.07
  -6   3   2  147.08   12.40
  -6   3   3 1207.84   74.48
  -6   3   3 1144.71   71.64
  -6   3   4   99.65   18.85
  -6   3   4  116.84   10.16
  -6   4  -1  125.60   25.53
  -6   4   0 1041.15   65.19
  -6   4   0 1034.92   64.90
  -6   4   1  530.86   34.80
  -6   4   2   74.97    8.05
   0   0   0    0.00    0.00
;
_shelx_hkl_checksum              38855
loop_
_space_group_symop_operation_xyz
'x, y, z'
'-x, -y, -z'
loop_
_atom_site_label
_atom_site_type_symbol
_atom_site_fract_x
_atom_site_fract_y
_atom_site_fract_z
_atom_site_U_iso_or_equiv
_atom_site_adp_type
_atom_site_occupancy
_atom_site_site_symmetry_order
_atom_site_calc_flag
Ba1 Ba 0.75782(9) 0.25769(7) 0.04574(6) 0.0126(3) Uani 1 1 d
Lu1 Lu 0.16320(6) 0.14784(5) 0.70058(4) 0.0093(3) Uani 1 1 d
Si1 Si 0.3845(4) 0.1775(3) 0.3683(3) 0.0095(5) Uani 1 1 d
Si2 Si 0.6784(4) 0.4400(3) 0.7097(3) 0.0083(5) Uani 1 1 d
O1 O 0.6132(11) 0.3133(9) 0.5173(7) 0.0130(13) Uani 1 1 d
O2 O 0.1667(11) 0.0888(9) 0.4377(7) 0.0136(13) Uani 1 1 d
O3 O 0.2516(11) 0.3256(9) 0.2738(8) 0.0128(12) Uani 1 1 d
O4 O 0.5075(11) 0.0155(9) 0.2497(8) 0.0139(13) Uani 1 1 d
O5 O 0.4478(11) 0.4140(9) 0.7927(7) 0.0116(13) Uani 1 1 d
O6 O 0.9312(11) 0.3772(10) 0.8017(8) 0.0129(13) Uani 1 1 d
F1 F 0.1464(11) 0.0975(9) 0.9233(7) 0.0215(12) Uani 1 1 d
loop_
_atom_site_aniso_label
_atom_site_aniso_U_11
_atom_site_aniso_U_22
_atom_site_aniso_U_33
_atom_site_aniso_U_23
_atom_site_aniso_U_13
_atom_site_aniso_U_12
Ba1 0.0133(4) 0.0126(4) 0.0121(4) 0.0044(3) 0.0027(2) 0.0024(2)
Lu1 0.0087(3) 0.0109(3) 0.0091(3) 0.0044(2) 0.00240(19) 0.00125(18)
Si1 0.0109(11) 0.0112(11) 0.0068(11) 0.0032(9) 0.0021(9) 0.0010(8)
Si2 0.0051(10) 0.0137(12) 0.0086(11) 0.0061(9) 0.0030(9) 0.0023(8)
O1 0.009(3) 0.017(3) 0.009(3) 0.003(3) -0.003(2) -0.002(2)
O2 0.016(3) 0.014(3) 0.011(3) 0.002(3) 0.007(2) -0.002(2)
O3 0.012(3) 0.012(3) 0.014(3) 0.009(2) -0.005(2) 0.001(2)
O4 0.014(3) 0.014(3) 0.011(3) 0.003(2) 0.000(2) 0.000(2)
O5 0.010(3) 0.012(3) 0.013(3) 0.004(3) 0.005(2) -0.001(2)
O6 0.011(3) 0.016(3) 0.013(3) 0.008(3) 0.001(2) 0.004(2)
F1 0.032(3) 0.024(3) 0.022(3) 0.017(2) 0.017(2) 0.018(2)
loop_
_atom_type_symbol
_atom_type_description
_atom_type_scat_dispersion_real
_atom_type_scat_dispersion_imag
_atom_type_scat_source
O O 0.0106 0.0060 'International Tables Vol C Tables 4.2.6.8 and 6.1.1.4'
F F 0.0171 0.0103 'International Tables Vol C Tables 4.2.6.8 and 6.1.1.4'
Si Si 0.0817 0.0704 'International Tables Vol C Tables 4.2.6.8 and 6.1.1.4'
Ba Ba -0.3244 2.2819 'International Tables Vol C Tables 4.2.6.8 and 6.1.1.4'
Lu Lu -0.4720 5.8584 'International Tables Vol C Tables 4.2.6.8 and 6.1.1.4'
loop_
_geom_angle_atom_site_label_1
_geom_angle_atom_site_label_2
_geom_angle_atom_site_label_3
_geom_angle
_geom_angle_site_symmetry_1
_geom_angle_site_symmetry_3
F1 Ba1 F1 63.6(2) 2_656 1_654
F1 Ba1 O5 137.47(18) 2_656 2_666
F1 Ba1 O5 149.96(17) 1_654 2_666
F1 Ba1 O4 76.10(18) 2_656 2_655
F1 Ba1 O4 79.36(18) 1_654 2_655
O5 Ba1 O4 121.93(18) 2_666 2_655
F1 Ba1 O6 127.17(18) 2_656 2_766
F1 Ba1 O6 89.38(18) 1_654 2_766
O5 Ba1 O6 60.97(18) 2_666 2_766
O4 Ba1 O6 145.79(19) 2_655 2_766
F1 Ba1 O6 118.82(18) 2_656 1_554
F1 Ba1 O6 58.86(18) 1_654 1_554
O5 Ba1 O6 103.52(18) 2_666 1_554
O4 Ba1 O6 74.79(18) 2_655 1_554
O6 Ba1 O6 71.8(2) 2_766 1_554
F1 Ba1 O3 73.56(19) 2_656 1_655
F1 Ba1 O3 62.97(18) 1_654 1_655
O5 Ba1 O3 98.88(18) 2_666 1_655
O4 Ba1 O3 139.19(18) 2_655 1_655
O6 Ba1 O3 53.61(18) 2_766 1_655
O6 Ba1 O3 96.80(18) 1_554 1_655
F1 Ba1 O5 137.50(17) 2_656 1_554
F1 Ba1 O5 107.05(17) 1_654 1_554
O5 Ba1 O5 71.87(19) 2_666 1_554
O4 Ba1 O5 61.42(18) 2_655 1_554
O6 Ba1 O5 92.13(18) 2_766 1_554
O6 Ba1 O5 53.05(16) 1_554 1_554
O3 Ba1 O5 142.40(17) 1_655 1_554
F1 Ba1 O4 52.06(16) 2_656 .
F1 Ba1 O4 115.27(17) 1_654 .
O5 Ba1 O4 87.18(17) 2_666 .
O4 Ba1 O4 91.30(17) 2_655 .
O6 Ba1 O4 122.52(16) 2_766 .
O6 Ba1 O4 165.50(16) 1_554 .
O3 Ba1 O4 91.08(17) 1_655 .
O5 Ba1 O4 123.70(15) 1_554 .
F1 Ba1 F1 90.02(16) 2_656 1_554
F1 Ba1 F1 129.0(2) 1_654 1_554
O5 Ba1 F1 78.36(16) 2_666 1_554
O4 Ba1 F1 51.18(16) 2_655 1_554
O6 Ba1 F1 137.78(17) 2_766 1_554
O6 Ba1 F1 110.33(16) 1_554 1_554
O3 Ba1 F1 152.69(16) 1_655 1_554
O5 Ba1 F1 63.05(14) 1_554 1_554
O4 Ba1 F1 61.74(14) . 1_554
F1 Ba1 Si2 100.92(14) 2_656 2_766
F1 Ba1 Si2 72.86(14) 1_654 2_766
O5 Ba1 Si2 80.78(13) 2_666 2_766
O4 Ba1 Si2 149.93(13) 2_655 2_766
O6 Ba1 Si2 26.34(14) 2_766 2_766
O6 Ba1 Si2 81.06(13) 1_554 2_766
O3 Ba1 Si2 27.53(13) 1_655 2_766
O5 Ba1 Si2 116.21(12) 1_554 2_766
O4 Ba1 Si2 110.69(11) . 2_766
F1 Ba1 Si2 158.08(10) 1_554 2_766
F1 Ba1 Si2 132.58(12) 2_656 1_554
F1 Ba1 Si2 82.44(13) 1_654 1_554
O5 Ba1 Si2 87.92(14) 2_666 1_554
O4 Ba1 Si2 65.35(14) 2_655 1_554
O6 Ba1 Si2 81.29(14) 2_766 1_554
O6 Ba1 Si2 26.25(12) 1_554 1_554
O3 Ba1 Si2 120.48(13) 1_655 1_554
O5 Ba1 Si2 26.80(11) 1_554 1_554
O4 Ba1 Si2 148.43(11) . 1_554
F1 Ba1 Si2 86.73(11) 1_554 1_554
Si2 Ba1 Si2 99.23(6) 2_766 1_554
F1 Lu1 O6 78.5(2) . 1_455
F1 Lu1 O5 100.1(2) . .
O6 Lu1 O5 79.8(2) 1_455 .
F1 Lu1 O4 75.6(2) . 2_656
O6 Lu1 O4 146.9(2) 1_455 2_656
O5 Lu1 O4 84.8(2) . 2_656
F1 Lu1 O2 160.7(2) . .
O6 Lu1 O2 116.0(2) 1_455 .
O5 Lu1 O2 95.3(2) . .
O4 Lu1 O2 94.4(2) 2_656 .
F1 Lu1 O2 91.4(2) . 2_556
O6 Lu1 O2 95.3(2) 1_455 2_556
O5 Lu1 O2 166.2(2) . 2_556
O4 Lu1 O2 105.6(2) 2_656 2_556
O2 Lu1 O2 75.2(2) . 2_556
F1 Lu1 Si2 115.99(17) . .
O6 Lu1 Si2 99.96(17) 1_455 .
O5 Lu1 Si2 23.49(16) . .
O4 Lu1 Si2 73.86(16) 2_656 .
O2 Lu1 Si2 75.64(16) . .
O2 Lu1 Si2 150.70(16) 2_556 .
F1 Lu1 Lu1 127.62(17) . 2_556
O6 Lu1 Lu1 109.51(16) 1_455 2_556
O5 Lu1 Lu1 132.20(16) . 2_556
O4 Lu1 Lu1 102.61(16) 2_656 2_556
O2 Lu1 Lu1 37.68(15) . 2_556
O2 Lu1 Lu1 37.53(16) 2_556 2_556
Si2 Lu1 Lu1 113.27(6) . 2_556
F1 Lu1 Ba1 59.40(16) . 1_556
O6 Lu1 Ba1 102.48(16) 1_455 1_556
O5 Lu1 Ba1 52.65(17) . 1_556
O4 Lu1 Ba1 46.00(15) 2_656 1_556
O2 Lu1 Ba1 124.43(16) . 1_556
O2 Lu1 Ba1 141.08(18) 2_556 1_556
Si2 Lu1 Ba1 58.76(5) . 1_556
Lu1 Lu1 Ba1 148.00(3) 2_556 1_556
F1 Lu1 Ba1 38.41(15) . 1_456
O6 Lu1 Ba1 43.01(17) 1_455 1_456
O5 Lu1 Ba1 101.88(16) . 1_456
O4 Lu1 Ba1 113.97(17) 2_656 1_456
O2 Lu1 Ba1 147.83(16) . 1_456
O2 Lu1 Ba1 82.46(16) 2_556 1_456
Si2 Lu1 Ba1 125.23(5) . 1_456
Lu1 Lu1 Ba1 116.76(4) 2_556 1_456
Ba1 Lu1 Ba1 87.34(3) 1_556 1_456
F1 Lu1 Ba1 86.72(16) . 2_666
O6 Lu1 Ba1 40.55(16) 1_455 2_666
O5 Lu1 Ba1 39.40(16) . 2_666
O4 Lu1 Ba1 117.11(15) 2_656 2_666
O2 Lu1 Ba1 112.57(17) . 2_666
O2 Lu1 Ba1 135.18(17) 2_556 2_666
Si2 Lu1 Ba1 61.10(6) . 2_666
Lu1 Lu1 Ba1 133.65(3) 2_556 2_666
Ba1 Lu1 Ba1 72.88(5) 1_556 2_666
Ba1 Lu1 Ba1 68.76(4) 1_456 2_666
F1 Lu1 Ba1 34.64(15) . 2_656
O6 Lu1 Ba1 111.00(17) 1_455 2_656
O5 Lu1 Ba1 116.70(17) . 2_656
O4 Lu1 Ba1 51.74(16) 2_656 2_656
O2 Lu1 Ba1 126.81(17) . 2_656
O2 Lu1 Ba1 77.08(18) 2_556 2_656
Si2 Lu1 Ba1 119.40(5) . 2_656
Lu1 Lu1 Ba1 103.66(3) 2_556 2_656
Ba1 Lu1 Ba1 64.29(4) 1_556 2_656
Ba1 Lu1 Ba1 68.15(3) 1_456 2_656
Ba1 Lu1 Ba1 119.15(2) 2_666 2_656
O4 Si1 O2 115.1(3) . .
O4 Si1 O1 107.4(3) . .
O2 Si1 O1 110.6(3) . .
O4 Si1 O3 110.0(4) . .
O2 Si1 O3 106.4(4) . .
O1 Si1 O3 107.2(3) . .
O6 Si2 O5 110.6(3) . .
O6 Si2 O1 110.0(3) . .
O5 Si2 O1 112.2(3) . .
O6 Si2 O3 105.6(3) . 2_666
O5 Si2 O3 111.0(3) . 2_666
O1 Si2 O3 107.1(3) . 2_666
O6 Si2 Lu1 110.7(2) . .
O5 Si2 Lu1 33.2(2) . .
O1 Si2 Lu1 82.2(2) . .
O3 Si2 Lu1 136.6(2) 2_666 .
O6 Si2 Ba1 50.9(2) . 2_766
O5 Si2 Ba1 118.8(2) . 2_766
O1 Si2 Ba1 128.9(2) . 2_766
O3 Si2 Ba1 55.4(2) 2_666 2_766
Lu1 Si2 Ba1 145.89(8) . 2_766
O6 Si2 Ba1 51.9(2) . 1_556
O5 Si2 Ba1 58.7(2) . 1_556
O1 Si2 Ba1 128.2(3) . 1_556
O3 Si2 Ba1 124.0(2) 2_666 1_556
Lu1 Si2 Ba1 67.09(6) . 1_556
Ba1 Si2 Ba1 80.77(6) 2_766 1_556
Si2 O1 Si1 142.5(4) . .
Si1 O2 Lu1 126.3(3) . .
Si1 O2 Lu1 128.4(3) . 2_556
Lu1 O2 Lu1 104.8(2) . 2_556
Si1 O3 Si2 133.6(4) . 2_666
Si1 O3 Ba1 128.9(3) . 1_455
Si2 O3 Ba1 97.0(3) 2_666 1_455
Si1 O4 Lu1 131.2(4) . 2_656
Si1 O4 Ba1 124.7(3) . 2_655
Lu1 O4 Ba1 99.0(2) 2_656 2_655
Si1 O4 Ba1 104.7(3) . .
Lu1 O4 Ba1 96.0(2) 2_656 .
Ba1 O4 Ba1 88.70(17) 2_655 .
Si2 O5 Lu1 123.3(3) . .
Si2 O5 Ba1 120.6(3) . 2_666
Lu1 O5 Ba1 110.1(2) . 2_666
Si2 O5 Ba1 94.5(3) . 1_556
Lu1 O5 Ba1 92.2(2) . 1_556
Ba1 O5 Ba1 108.13(19) 2_666 1_556
Si2 O6 Lu1 128.5(4) . 1_655
Si2 O6 Ba1 102.8(3) . 2_766
Lu1 O6 Ba1 108.8(2) 1_655 2_766
Si2 O6 Ba1 101.9(3) . 1_556
Lu1 O6 Ba1 105.3(2) 1_655 1_556
Ba1 O6 Ba1 108.2(2) 2_766 1_556
Lu1 F1 Ba1 118.6(2) . 2_656
Lu1 F1 Ba1 112.4(2) . 1_456
Ba1 F1 Ba1 116.4(2) 2_656 1_456
Lu1 F1 Ba1 86.84(18) . 1_556
Ba1 F1 Ba1 89.98(16) 2_656 1_556
Ba1 F1 Ba1 129.0(2) 1_456 1_556
loop_
_geom_bond_atom_site_label_1
_geom_bond_atom_site_label_2
_geom_bond_distance
_geom_bond_site_symmetry_2
Ba1 F1 2.693(6) 2_656
Ba1 F1 2.723(6) 1_654
Ba1 O5 2.771(6) 2_666
Ba1 O4 2.796(6) 2_655
Ba1 O6 2.815(6) 2_766
Ba1 O6 2.865(6) 1_554
Ba1 O3 2.936(6) 1_655
Ba1 O5 3.054(7) 1_554
Ba1 O4 3.286(6) .
Ba1 F1 3.309(6) 1_554
Ba1 Si2 3.539(3) 2_766
Ba1 Si2 3.564(3) 1_554
Lu1 F1 2.137(6) .
Lu1 O6 2.206(6) 1_455
Lu1 O5 2.213(6) .
Lu1 O4 2.232(7) 2_656
Lu1 O2 2.250(6) .
Lu1 O2 2.258(6) 2_556
Lu1 Si2 3.378(3) .
Lu1 Lu1 3.572(2) 2_556
Lu1 Ba1 3.839(2) 1_556
Lu1 Ba1 4.0512(17) 1_456
Lu1 Ba1 4.0983(17) 2_666
Lu1 Ba1 4.1620(13) 2_656
Si1 O4 1.588(6) .
Si1 O2 1.627(6) .
Si1 O1 1.631(6) .
Si1 O3 1.648(7) .
Si2 O6 1.611(7) .
Si2 O5 1.612(6) .
Si2 O1 1.626(6) .
Si2 O3 1.648(7) 2_666
Si2 Ba1 3.539(3) 2_766
Si2 Ba1 3.564(3) 1_556
O2 Lu1 2.258(6) 2_556
O3 Si2 1.648(7) 2_666
O3 Ba1 2.936(6) 1_455
O4 Lu1 2.232(7) 2_656
O4 Ba1 2.796(6) 2_655
O5 Ba1 2.771(6) 2_666
O5 Ba1 3.054(7) 1_556
O6 Lu1 2.206(6) 1_655
O6 Ba1 2.815(6) 2_766
O6 Ba1 2.865(6) 1_556
F1 Ba1 2.693(6) 2_656
F1 Ba1 2.723(6) 1_456
F1 Ba1 3.309(6) 1_556
