#------------------------------------------------------------------------------
#$Date: 2019-12-26 21:20:13 +0200 (Thu, 26 Dec 2019) $
#$Revision: 246096 $
#$URL: file:///home/coder/svn-repositories/cod/cif/2/31/17/2311733.cif $
#------------------------------------------------------------------------------
#
# This file is available in the Crystallography Open Database (COD),
# http://www.crystallography.net/. The original data for this entry
# were provided by IUCr Journals, http://journals.iucr.org/.
#
# The file may be used within the scientific community so long as
# proper attribution is given to the journal article from which the
# data were obtained.
#
data_2311733
loop_
_publ_author_name
'Dey, Dhananjay'
'Chopra, Deepak'
_publ_section_title
;
 Quantitative analysis of solid-state diversity in trifluoromethylated
 phenylhydrazones.
;
_journal_issue                   'Pt 5'
_journal_name_full
'Acta crystallographica Section B, Structural science, crystal engineering and materials'
_journal_page_first              781
_journal_page_last               793
_journal_paper_doi               10.1107/S2052520617006643
_journal_volume                  73
_journal_year                    2017
_chemical_formula_sum            'C15 H10 F6 N2'
_chemical_formula_weight         332.25
_space_group_crystal_system      triclinic
_space_group_IT_number           2
_space_group_name_Hall           '-P 1'
_space_group_name_H-M_alt        'P -1'
_atom_sites_solution_hydrogens   geom
_audit_creation_method           SHELXL-2014/7
_cell_angle_alpha                72.723(18)
_cell_angle_beta                 82.222(17)
_cell_angle_gamma                62.417(15)
_cell_formula_units_Z            2
_cell_length_a                   8.189(2)
_cell_length_b                   8.376(2)
_cell_length_c                   11.623(4)
_cell_measurement_reflns_used    3907
_cell_measurement_temperature    100(2)
_cell_measurement_theta_max      27.43
_cell_measurement_theta_min      2.81
_cell_volume                     674.7(3)
_computing_structure_refinement  'SHELXL-2014/7 (Sheldrick, 2014)'
_diffrn_ambient_temperature      100(2)
_diffrn_measured_fraction_theta_full 0.973
_diffrn_measured_fraction_theta_max 0.963
_diffrn_measurement_device_type  'Bruker APEX-II CCD'
_diffrn_measurement_method       '\f and \w scans'
_diffrn_radiation_type           MoK\a
_diffrn_radiation_wavelength     0.71073
_diffrn_reflns_av_R_equivalents  0.0367
_diffrn_reflns_av_unetI/netI     0.0370
_diffrn_reflns_Laue_measured_fraction_full 0.973
_diffrn_reflns_Laue_measured_fraction_max 0.963
_diffrn_reflns_limit_h_max       10
_diffrn_reflns_limit_h_min       -8
_diffrn_reflns_limit_k_max       10
_diffrn_reflns_limit_k_min       -10
_diffrn_reflns_limit_l_max       15
_diffrn_reflns_limit_l_min       -15
_diffrn_reflns_number            9731
_diffrn_reflns_point_group_measured_fraction_full 0.973
_diffrn_reflns_point_group_measured_fraction_max 0.963
_diffrn_reflns_theta_full        25.242
_diffrn_reflns_theta_max         27.585
_diffrn_reflns_theta_min         1.835
_exptl_absorpt_coefficient_mu    0.156
_exptl_absorpt_correction_T_max  0.7456
_exptl_absorpt_correction_T_min  0.6520
_exptl_absorpt_correction_type   multi-scan
_exptl_absorpt_process_details   SADABS
_exptl_crystal_colour            colorless
_exptl_crystal_density_diffrn    1.635
_exptl_crystal_description       plate
_exptl_crystal_F_000             336
_exptl_crystal_size_max          0.250
_exptl_crystal_size_mid          0.210
_exptl_crystal_size_min          0.160
_refine_diff_density_max         0.316
_refine_diff_density_min         -0.307
_refine_diff_density_rms         0.062
_refine_ls_extinction_method     none
_refine_ls_goodness_of_fit_ref   1.164
_refine_ls_hydrogen_treatment    constr
_refine_ls_matrix_type           full
_refine_ls_number_parameters     208
_refine_ls_number_reflns         3006
_refine_ls_number_restraints     0
_refine_ls_restrained_S_all      1.164
_refine_ls_R_factor_all          0.0562
_refine_ls_R_factor_gt           0.0401
_refine_ls_shift/su_max          0.000
_refine_ls_shift/su_mean         0.000
_refine_ls_structure_factor_coef Fsqd
_refine_ls_weighting_details
'w=1/[\s^2^(Fo^2^)+(0.0689P)^2^] where P=(Fo^2^+2Fc^2^)/3'
_refine_ls_weighting_scheme      calc
_refine_ls_wR_factor_gt          0.1136
_refine_ls_wR_factor_ref         0.1309
_reflns_Friedel_coverage         0.000
_reflns_number_gt                2297
_reflns_number_total             3006
_reflns_threshold_expression     'I > 2\s(I)'
_cod_data_source_file            ao5033sup1.cif
_cod_data_source_block           HT13
_cod_original_cell_volume        674.7(4)
_cod_database_code               2311733
_shelx_shelxl_version_number     2014/7
_shelx_space_group_comment
;
The symmetry employed for this shelxl refinement is uniquely defined
by the following loop, which should always be used as a source of
symmetry information in preference to the above space-group names.
They are only intended as comments.
;
_shelx_estimated_absorpt_t_min   0.962
_shelx_estimated_absorpt_t_max   0.975
_shelx_res_file
;

    shelxl.res created by SHELXL-2014/7


TITL HT13 in P-1
CELL 0.71073 8.1887 8.3759 11.6229 72.723 82.222 62.417
ZERR 2.00 0.0023 0.0023 0.0035 0.018 0.017 0.015
LATT 1
SFAC C H N F
UNIT 30 20 4 12
ACTA
L.S. 12
TEMP -173
SIZE 0.25 0.21 0.16
OMIT 0 6 2
OMIT -1 8 4
OMIT 6 0 9
OMIT 0 9 9
OMIT 0 9 8
OMIT 3 -7 3
OMIT -2 8 5
OMIT 3 -2 11
OMIT 0 8 4
OMIT 6 5 13
OMIT 6 1 8
OMIT -1 7 3
OMIT 4 -2 5
FMAP 2
PLAN 5
CONF
HTAB
BOND $H
WGHT    0.068900
FVAR       0.26658
F1    4   -0.085340    0.131607    0.643008    11.00000    0.04512    0.06758 =
         0.03413   -0.00447   -0.00375   -0.04560
F5    4    1.011800    0.092599    1.107607    11.00000    0.01856    0.02724 =
         0.03549   -0.00946   -0.00161   -0.00673
F4    4    0.902686    0.385675    1.018969    11.00000    0.02622    0.03281 =
         0.02900   -0.00403    0.00401   -0.01803
F3    4    0.087196    0.129924    0.487718    11.00000    0.03314    0.06810 =
         0.04302   -0.03717    0.00117   -0.02307
F2    4   -0.104023    0.387772    0.525832    11.00000    0.03809    0.03301 =
         0.04891   -0.00464   -0.02283   -0.01324
F6    4    1.022709    0.279455    1.195443    11.00000    0.02375    0.05376 =
         0.03803   -0.01852   -0.00225   -0.02329
N1    3    0.559425    0.172553    0.852308    11.00000    0.01612    0.03082 =
         0.02210   -0.00974   -0.00007   -0.01125
AFIX  43
H1    2    0.673870    0.132720    0.826336    11.00000   -1.20000
AFIX   0
N2    3    0.516223    0.222649    0.957026    11.00000    0.02269    0.02141 =
         0.01870   -0.00509   -0.00060   -0.01183
C14   1    0.017333    0.211689    0.577074    11.00000    0.02432    0.02626 =
         0.02442   -0.00814    0.00029   -0.01374
C4    1    0.160489    0.199943    0.650250    11.00000    0.02144    0.01860 =
         0.02183   -0.00416   -0.00217   -0.01100
C5    1    0.115036    0.242358    0.760755    11.00000    0.01990    0.02576 =
         0.02456   -0.00749    0.00251   -0.01324
AFIX  43
H5    2   -0.007585    0.277344    0.789788    11.00000   -1.20000
AFIX   0
C6    1    0.245357    0.234342    0.828701    11.00000    0.02249    0.02536 =
         0.01844   -0.00861    0.00230   -0.01351
AFIX  43
H6    2    0.212962    0.263244    0.904190    11.00000   -1.20000
AFIX   0
C1    1    0.425007    0.183544    0.785910    11.00000    0.02058    0.01717 =
         0.02137   -0.00264   -0.00322   -0.01074
C13   1    0.641590    0.226531    1.008746    11.00000    0.01845    0.02233 =
         0.02381   -0.00548    0.00089   -0.01125
AFIX  43
H13   2    0.760252    0.195853    0.973388    11.00000   -1.20000
AFIX   0
C7    1    0.602226    0.278509    1.123067    11.00000    0.01914    0.01560 =
         0.01888   -0.00099   -0.00288   -0.00865
C8    1    0.730452    0.295515    1.181633    11.00000    0.02000    0.01745 =
         0.02233   -0.00262   -0.00193   -0.00951
C15   1    0.914538    0.264731    1.126931    11.00000    0.02141    0.02474 =
         0.02556   -0.00743   -0.00343   -0.01219
C9    1    0.686844    0.346221    1.289374    11.00000    0.02656    0.02396 =
         0.02165   -0.00415   -0.00384   -0.01381
AFIX  43
H9    2    0.775492    0.356323    1.327938    11.00000   -1.20000
AFIX   0
C10   1    0.515270    0.382042    1.340758    11.00000    0.03097    0.02794 =
         0.02179   -0.00890    0.00386   -0.01431
AFIX  43
H10   2    0.485232    0.417132    1.414281    11.00000   -1.20000
AFIX   0
C11   1    0.387535    0.366128    1.283664    11.00000    0.02166    0.02726 =
         0.02624   -0.00546    0.00512   -0.01224
AFIX  43
H11   2    0.269117    0.391037    1.318266    11.00000   -1.20000
AFIX   0
C12   1    0.430414    0.314681    1.177501    11.00000    0.01908    0.02204 =
         0.02427   -0.00143   -0.00366   -0.01122
AFIX  43
H12   2    0.341154    0.303490    1.140343    11.00000   -1.20000
AFIX   0
C3    1    0.338642    0.151026    0.607509    11.00000    0.02426    0.02322 =
         0.01982   -0.00703    0.00095   -0.01158
AFIX  43
H3    2    0.370421    0.123036    0.531733    11.00000   -1.20000
AFIX   0
C2    1    0.469906    0.142835    0.674546    11.00000    0.01747    0.02725 =
         0.02250   -0.00792    0.00231   -0.01046
AFIX  43
H2    2    0.592006    0.109198    0.644728    11.00000   -1.20000
AFIX   0
HKLF 4

REM  HT13 in P-1
REM R1 =  0.0401 for    2297 Fo > 4sig(Fo)  and  0.0562 for all    3006 data
REM    208 parameters refined using      0 restraints

END

WGHT      0.0685      0.0000

REM Instructions for potential hydrogen bonds
EQIV $1 -x+2, -y, -z+2
HTAB N1 F5_$1
EQIV $2 x-1, y, z
HTAB C6 F4_$2
HTAB C13 F5
HTAB C13 F5_$1
HTAB C13 F4

REM Highest difference peak  0.316,  deepest hole -0.307,  1-sigma level  0.062
Q1    1   0.1008  0.2016  0.6125  11.00000  0.05    0.32
Q2    1   0.4991  0.3405  1.1434  11.00000  0.05    0.32
Q3    1   0.4004  0.2743  0.9832  11.00000  0.05    0.31
Q4    1   0.0166  0.3369  0.4893  11.00000  0.05    0.30
Q5    1   0.8158  0.2787  1.1602  11.00000  0.05    0.29
;
_shelx_res_checksum              64523
_shelx_hkl_file
;
  -1   0   0   26.77    1.06
  -1   0   0   27.06    0.81
   1   0   0   27.23    1.34
   1   0   0   27.09    0.77
  -2   0   0  418.82   11.34
  -2   0   0  395.49   14.76
   2   0   0  412.97   18.81
   2   0   0  417.03   10.75
  -3   0   0    9.12    0.38
   3   0   0   10.02    0.55
   3   0   0    8.74    0.60
   3   0   0    8.25    0.35
  -4   0   0    3.75    0.25
   4   0   0    3.32    0.36
   4   0   0    4.09    0.24
   4   0   0    3.39    0.35
  -5   0   0   13.88    0.62
   5   0   0   14.58    0.58
   5   0   0   13.04    0.92
   5   0   0   12.72    0.83
  -6   0   0    6.51    0.43
   6   0   0    7.04    0.63
   6   0   0    6.86    0.40
   6   0   0    6.37    0.60
   7   0   0    0.41    0.15
   7   0   0    0.47    0.26
   7   0   0    0.23    0.18
   8   0   0    3.20    0.34
   8   0   0    4.71    0.70
   8   0   0    4.60    0.52
   9   0   0    4.07    0.49
   9   0   0    4.88    0.79
   8  -1   0    3.40    0.58
   7  -1   0    5.71    0.72
   7  -1   0    4.45    0.58
   6  -1   0   14.85    1.01
   6  -1   0   12.49    0.59
   6  -1   0   13.84    1.07
  -6   1   0   14.23    0.86
   5  -1   0    8.10    0.67
   5  -1   0    8.48    0.74
   5  -1   0    8.68    0.41
  -5   1   0    7.63    0.48
  -5   1   0    8.26    0.56
   4  -1   0    0.25    0.15
   4  -1   0    0.40    0.19
   4  -1   0    0.02    0.06
   4  -1   0    0.01    0.05
   4  -1   0    0.02    0.05
  -4   1   0   -0.04    0.14
  -4   1   0   -0.01    0.06
  -4   1   0    0.05    0.08
  -4   1   0    0.04    0.07
   3  -1   0    1.64    0.18
   3  -1   0    2.07    0.32
   3  -1   0    2.09    0.29
   3  -1   0    1.62    0.16
   3  -1   0    1.85    0.15
  -3   1   0    1.70    0.18
  -3   1   0    1.81    0.19
  -3   1   0    1.61    0.17
   2  -1   0   24.09    1.33
   2  -1   0   23.53    1.05
   2  -1   0   24.52    0.81
   2  -1   0   23.42    0.71
  -2   1   0   24.07    0.83
  -2   1   0   26.54    1.05
  -2   1   0   22.31    0.97
   1  -1   0    3.22    0.13
   1  -1   0    3.28    0.18
   1  -1   0    3.31    0.28
   1  -1   0    2.98    0.22
  -1   1   0    3.30    0.21
  -1   1   0    3.31    0.22
  -1   1   0    3.40    0.19
   0  -1   0    7.52    0.32
   0  -1   0    7.93    0.43
   0   1   0    7.07    0.39
   0   1   0    7.77    0.43
   0   1   0    7.79    0.32
  -1  -1   0   16.87    0.69
  -1  -1   0   18.14    0.76
  -1  -1   0   17.77    0.54
   1   1   0   17.24    0.52
   1   1   0   18.17    0.76
   1   1   0   17.60    0.70
  -2  -1   0   17.62    0.68
  -2  -1   0   18.48    0.76
  -2  -1   0   18.47    0.56
   2   1   0   18.35    0.75
   2   1   0   18.26    0.56
   2   1   0   18.43    0.58
   2   1   0   17.93    0.69
  -3  -1   0   16.21    0.54
   3   1   0   17.16    0.54
   3   1   0   15.67    0.57
   3   1   0   17.08    0.81
   3   1   0   15.91    0.83
   3   1   0   15.17    0.71
  -4  -1   0   32.63    1.07
   4   1   0   32.86    1.07
   4   1   0   33.42    1.68
   4   1   0   35.15    1.05
   4   1   0   34.48    1.40
  -5  -1   0    2.97    0.22
   5   1   0    2.97    0.29
   5   1   0    3.13    0.24
   5   1   0    2.90    0.36
  -6  -1   0    2.70    0.24
   6   1   0    2.60    0.29
   6   1   0    2.72    0.41
   6   1   0    2.46    0.25
   7   1   0    4.41    0.34
   7   1   0    3.97    0.39
   7   1   0    4.80    0.57
   8   1   0   12.28    0.65
   8   1   0   11.82    0.78
   8   1   0   11.17    0.92
   9   1   0    1.21    0.22
   9   1   0    1.01    0.24
   9   1   0    1.76    0.49
   8  -2   0    3.46    0.66
   7  -2   0    0.32    0.26
  -7   2   0    0.31    0.18
   6  -2   0    1.20    0.39
  -6   2   0    0.96    0.24
   5  -2   0    0.16    0.19
  -5   2   0    0.40    0.16
  -5   2   0   -0.06    0.16
   4  -2   0   14.09    0.90
   4  -2   0   14.12    0.52
   4  -2   0   14.42    1.06
  -4   2   0   12.44    0.65
  -4   2   0   13.49    0.79
   3  -2   0    4.83    0.39
   3  -2   0    4.96    0.46
   3  -2   0    4.91    0.51
   3  -2   0    4.65    0.23
  -3   2   0    4.91    0.40
  -3   2   0    4.93    0.36
  -3   2   0    4.84    0.37
  -3   2   0    4.87    0.34
  -3   2   0    5.56    0.37
   2  -2   0   11.17    0.65
   2  -2   0   11.87    0.52
   2  -2   0   11.34    0.38
   2  -2   0   11.32    0.81
  -2   2   0   12.79    0.63
  -2   2   0    9.90    0.58
  -2   2   0   11.65    0.61
  -2   2   0   11.53    0.53
  -2   2   0   11.92    0.64
   1  -2   0  108.27    4.66
   1  -2   0  125.85    3.45
  -1   2   0  125.20    4.68
  -1   2   0  115.12    4.71
  -1   2   0  117.78    3.45
   0  -2   0  814.93   22.53
   0  -2   0  825.67   31.29
   0   2   0  764.11   22.54
   0   2   0  873.90   29.11
   0   2   0  818.34   30.92
  -1  -2   0   45.11    1.92
  -1  -2   0   47.11    1.38
   1   2   0   45.86    1.92
   1   2   0   46.66    1.27
   1   2   0   46.86    1.79
  -2  -2   0  187.39    5.10
  -2  -2   0  187.31    7.05
  -2  -2   0  178.60    6.54
   2   2   0  184.74    6.56
   2   2   0  179.20    7.03
   2   2   0  180.93    4.86
  -3  -2   0   27.75    1.08
  -3  -2   0   28.28    0.86
  -3  -2   0   28.92    1.21
   3   2   0   27.67    0.89
   3   2   0   27.77    1.04
   3   2   0   27.43    1.09
   3   2   0   28.73    0.87
   3   2   0   29.14    1.00
   3   2   0   28.45    1.18
  -4  -2   0   44.67    1.37
  -4  -2   0   46.04    1.83
  -4  -2   0   45.30    1.67
   4   2   0   46.27    1.38
   4   2   0   47.05    1.41
   4   2   0   45.61    1.70
  -5  -2   0    0.46    0.09
   5   2   0    0.41    0.12
   5   2   0    0.48    0.09
   5   2   0    0.38    0.15
  -6  -2   0   15.45    0.64
   6   2   0   16.63    0.90
   6   2   0   16.24    0.69
   7   2   0    1.15    0.21
   7   2   0    0.73    0.27
   8   2   0    0.72    0.31
   8   2   0    0.23    0.15
   9   2   0    0.31    0.17
   9   2   0    0.46    0.29
  10   2   0    0.10    0.16
  10   2   0    0.05    0.30
   7  -3   0    0.89    0.41
  -7   3   0    0.57    0.24
   6  -3   0    0.25    0.26
  -6   3   0    0.10    0.14
   5  -3   0    0.66    0.34
  -5   3   0    0.03    0.20
  -5   3   0    0.39    0.17
   4  -3   0    0.64    0.27
  -4   3   0    0.66    0.19
   3  -3   0    0.83    0.22
   3  -3   0    0.87    0.31
   3  -3   0    0.85    0.17
  -3   3   0    0.74    0.17
  -3   3   0    0.49    0.16
  -3   3   0    0.77    0.19
  -3   3   0    0.93    0.23
   2  -3   0   94.38    4.72
   2  -3   0   95.33    2.52
  -2   3   0   88.18    3.61
  -2   3   0   93.36    3.87
  -2   3   0   94.12    2.93
  -2   3   0  102.15    3.90
   1  -3   0    1.22    0.23
   1  -3   0    1.77    0.38
  -1   3   0    1.13    0.21
  -1   3   0    1.17    0.19
  -1   3   0    1.27    0.18
  -1   3   0    1.61    0.24
  -1   3   0    1.45    0.16
   0  -3   0   12.14    0.52
   0  -3   0   11.15    0.69
   0   3   0   11.59    0.64
   0   3   0   10.67    0.54
   0   3   0   12.49    0.70
   0   3   0   12.39    0.54
  -1  -3   0   14.98    0.79
  -1  -3   0   12.80    0.55
   1   3   0   13.89    0.77
   1   3   0   13.90    0.42
   1   3   0   14.25    0.59
   1   3   0   14.17    0.57
   1   3   0   13.82    0.71
  -2  -3   0   54.63    2.13
  -2  -3   0   54.67    1.66
  -2  -3   0   59.04    2.36
   2   3   0   53.07    1.83
   2   3   0   55.18    2.17
   2   3   0   54.05    1.55
   2   3   0   56.31    2.33
  -3  -3   0   36.78    1.44
  -3  -3   0   35.77    1.11
  -3  -3   0   36.99    1.61
   3   3   0   35.71    1.57
   3   3   0   36.02    1.46
   3   3   0   36.15    1.28
   3   3   0   35.62    1.10
  -4  -3   0    3.90    0.33
  -4  -3   0    4.25    0.22
  -4  -3   0    4.05    0.26
   4   3   0    4.21    0.31
   4   3   0    4.37    0.27
   4   3   0    4.03    0.25
   4   3   0    4.71    0.29
   4   3   0    4.61    0.31
  -5  -3   0    2.50    0.17
  -5  -3   0    2.13    0.16
  -5  -3   0    2.56    0.23
   5   3   0    2.73    0.18
   5   3   0    2.29    0.25
   5   3   0    2.20    0.23
   5   3   0    2.55    0.19
   5   3   0    2.20    0.24
  -6  -3   0    8.61    0.39
   6   3   0    8.76    0.56
   6   3   0    7.99    0.46
   7   3   0    0.17    0.12
   7   3   0    0.02    0.13
   8   3   0    1.10    0.23
   8   3   0    1.10    0.31
   9   3   0    3.13    0.51
   9   3   0    2.72    0.35
  10   3   0   20.84    1.33
  10   3   0   18.74    0.96
   6  -4   0    0.13    0.24
  -6   4   0    0.06    0.14
  -6   4   0    0.10    0.24
   5  -4   0    7.18    0.86
  -5   4   0    7.83    0.62
   4  -4   0    1.54    0.45
  -4   4   0    1.35    0.25
   3  -4   0    5.36    0.43
  -3   4   0    5.63    0.55
  -3   4   0    5.95    0.46
  -3   4   0    5.27    0.47
   2  -4   0    7.35    0.51
  -2   4   0    7.71    0.60
  -2   4   0    7.42    0.50
  -2   4   0    7.93    0.57
  -2   4   0    8.31    0.58
  -2   4   0    7.60    0.50
   1  -4   0   13.19    0.87
   1  -4   0   13.28    0.74
  -1   4   0   13.81    0.80
  -1   4   0   13.51    0.68
  -1   4   0   13.64    0.68
  -1   4   0   14.42    0.74
  -1   4   0   13.21    0.84
   0  -4   0   41.53    1.72
   0  -4   0   37.79    1.91
   0   4   0   39.84    1.56
   0   4   0   40.39    1.89
   0   4   0   41.83    1.45
   0   4   0   41.86    1.79
  -1  -4   0    0.56    0.15
  -1  -4   0    0.53    0.18
   1   4   0    0.87    0.07
   1   4   0    0.87    0.14
   1   4   0    0.56    0.18
   1   4   0    0.94    0.20
   1   4   0    0.64    0.14
  -2  -4   0   25.02    1.38
  -2  -4   0   26.06    1.00
  -2  -4   0   27.70    0.97
  -2  -4   0   28.67    1.25
   2   4   0   28.94    1.09
   2   4   0   29.62    1.30
   2   4   0   29.51    0.85
   2   4   0   28.83    1.39
   2   4   0   29.19    1.03
  -3  -4   0    9.95    0.43
  -3  -4   0   10.63    0.68
  -3  -4   0   10.32    0.57
   3   4   0   10.92    0.61
   3   4   0    9.62    0.41
   3   4   0   10.02    0.65
   3   4   0   10.85    0.55
  -4  -4   0   31.41    1.33
  -4  -4   0   31.33    1.52
  -4  -4   0   33.03    1.04
   4   4   0   32.54    1.37
   4   4   0   32.32    1.24
   4   4   0   31.84    1.05
   4   4   0   30.44    1.47
  -5  -4   0   21.80    0.76
  -5  -4   0   22.01    1.12
  -5  -4   0   22.09    0.95
   5   4   0   21.18    0.96
   5   4   0   22.09    0.97
   5   4   0   23.53    0.84
   5   4   0   21.81    0.81
   5   4   0   21.90    0.85
  -6  -4   0    5.28    0.28
   6   4   0    4.66    0.39
   6   4   0    4.34    0.33
   6   4   0    5.01    0.35
   7   4   0    1.74    0.29
   7   4   0    1.39    0.27
   7   4   0    1.81    0.26
   8   4   0    9.79    0.59
   8   4   0   11.08    0.71
   8   4   0   10.25    0.69
   9   4   0    4.48    0.44
   9   4   0    4.19    0.50
   9   4   0    4.28    0.53
  10   4   0    6.38    0.72
  10   4   0    6.73    0.53
  10   4   0    5.83    0.62
  -6   5   0    0.27    0.22
  -6   5   0   -0.01    0.24
  -5   5   0    0.42    0.20
  -5   5   0    0.14    0.25
  -4   5   0    0.10    0.22
  -4   5   0    0.56    0.20
   3  -5   0   23.81    1.16
  -3   5   0   23.26    1.23
  -3   5   0   22.13    1.17
  -3   5   0   19.50    1.23
   2  -5   0   11.55    0.72
  -2   5   0    8.66    0.71
  -2   5   0   11.68    0.66
  -2   5   0   13.09    0.82
   1  -5   0    3.34    0.35
  -1   5   0    2.35    0.35
  -1   5   0    3.74    0.41
  -1   5   0    2.90    0.22
   0  -5   0    4.87    0.43
   0   5   0    5.40    0.42
   0   5   0    5.37    0.49
  -1  -5   0   11.09    0.68
   1   5   0   11.18    0.72
   1   5   0   11.41    0.78
   1   5   0    9.37    0.55
  -2  -5   0   38.43    1.69
  -2  -5   0   37.38    1.32
   2   5   0   40.99    1.44
   2   5   0   39.65    1.12
   2   5   0   39.89    1.45
   2   5   0   37.88    1.86
   2   5   0   37.63    1.73
   2   5   0   35.92    1.42
  -3  -5   0   27.36    0.97
  -3  -5   0   25.89    1.24
  -3  -5   0   28.22    1.45
   3   5   0   27.69    1.12
   3   5   0   27.67    0.87
   3   5   0   25.98    1.28
   3   5   0   26.53    0.96
   3   5   0   26.13    1.39
   3   5   0   26.56    0.95
  -4  -5   0   36.80    1.59
  -4  -5   0   36.73    1.82
  -4  -5   0   37.04    1.22
   4   5   0   35.39    1.75
   4   5   0   36.07    1.44
   4   5   0   39.78    1.66
  -5  -5   0   27.93    0.97
  -5  -5   0   28.72    1.47
  -5  -5   0   28.47    1.25
   5   5   0   29.07    1.40
   5   5   0   26.64    0.99
   5   5   0   29.84    1.30
   5   5   0   27.30    1.19
  -6  -5   0    4.52    0.33
  -6  -5   0    4.44    0.27
   6   5   0    4.28    0.24
   6   5   0    4.31    0.33
   6   5   0    4.83    0.43
   7   5   0    1.95    0.24
   7   5   0    1.85    0.26
   7   5   0    1.87    0.32
   8   5   0    0.25    0.16
   8   5   0    0.25    0.15
   8   5   0    0.26    0.20
   9   5   0    0.44    0.25
   9   5   0    0.19    0.19
   9   5   0    0.40    0.20
  10   5   0    8.13    0.71
  10   5   0    8.06    0.69
  10   5   0    8.22    0.60
  -5   6   0    0.03    0.25
  -4   6   0    2.00    0.32
  -3   6   0    4.68    0.67
  -3   6   0    3.51    0.36
   2  -6   0    2.42    0.36
  -2   6   0    2.06    0.39
  -2   6   0    2.16    0.45
  -2   6   0    2.39    0.23
   1  -6   0   16.23    0.96
  -1   6   0   15.31    1.01
  -1   6   0   17.32    1.01
   0  -6   0    2.92    0.39
   0   6   0    2.60    0.41
   0   6   0    3.56    0.43
  -1  -6   0   29.48    1.42
   1   6   0   28.30    1.27
   1   6   0   28.32    1.47
  -2  -6   0    0.92    0.24
  -2  -6   0    1.13    0.20
   2   6   0    1.16    0.22
   2   6   0    0.82    0.18
   2   6   0    1.49    0.31
  -3  -6   0    5.03    0.44
  -3  -6   0    5.51    0.36
   3   6   0    4.51    0.29
   3   6   0    4.72    0.40
   3   6   0    5.34    0.49
   3   6   0    4.55    0.28
  -4  -6   0    0.38    0.16
  -4  -6   0    0.29    0.11
   4   6   0    0.31    0.17
   4   6   0    0.18    0.14
   4   6   0    0.33    0.11
  -5  -6   0    0.66    0.19
  -5  -6   0    0.80    0.14
   5   6   0    0.58    0.21
   5   6   0    0.32    0.11
   5   6   0    0.94    0.24
  -6  -6   0    5.51    0.33
  -6  -6   0    5.65    0.43
   6   6   0    5.54    0.38
   6   6   0    6.15    0.51
   6   6   0    6.05    0.47
   7   6   0   18.40    0.83
   7   6   0   18.64    0.99
   8   6   0   73.21    2.71
   8   6   0   69.63    2.47
   8   6   0   70.65    2.32
   9   6   0    1.57    0.26
   9   6   0    1.00    0.26
   9   6   0    1.69    0.37
  10   6   0    0.77    0.25
  10   6   0    0.86    0.27
  -3   7   0    4.79    0.70
   2  -7   0    0.04    0.17
  -2   7   0   -0.08    0.18
  -2   7   0    0.48    0.28
  -2   7   0   -0.05    0.23
   1  -7   0    0.22    0.18
  -1   7   0   -0.01    0.18
  -1   7   0    0.03    0.13
  -1   7   0    0.27    0.25
   0  -7   0    0.73    0.25
   0   7   0    0.79    0.30
   0   7   0    0.56    0.26
  -1  -7   0    1.28    0.30
   1   7   0    1.94    0.39
   1   7   0    1.47    0.31
  -2  -7   0    0.66    0.24
   2   7   0    0.89    0.29
   2   7   0    0.79    0.20
  -3  -7   0   12.27    0.83
   3   7   0   13.63    0.91
   3   7   0   12.84    0.61
   3   7   0   13.41    0.76
  -4  -7   0    0.24    0.16
   4   7   0    0.18    0.15
   4   7   0    0.09    0.15
  -5  -7   0    0.08    0.13
   5   7   0    0.57    0.23
   5   7   0    0.18    0.15
  -6  -7   0    4.72    0.44
   6   7   0    5.82    0.51
   6   7   0    5.92    0.53
   7   7   0    0.05    0.18
   7   7   0    0.01    0.13
   8   7   0    0.03    0.15
   9   7   0    3.47    0.41
  10   7   0    1.16    0.30
  -2   8   0    0.93    0.39
   1  -8   0    0.20    0.20
  -1   8   0    0.05    0.24
  -1   8   0    0.12    0.24
   0  -8   0    4.35    0.54
   0   8   0    4.18    0.54
   0   8   0    3.50    0.56
  -1  -8   0    6.58    0.63
   1   8   0    8.45    0.63
   1   8   0    7.07    0.71
  -2  -8   0    8.75    0.72
   2   8   0    8.65    0.78
   2   8   0    9.43    0.62
  -3  -8   0    1.49    0.34
   3   8   0    0.96    0.31
   3   8   0    1.44    0.24
  -4  -8   0    6.06    0.57
   4   8   0    6.94    0.56
   4   8   0    6.19    0.35
   4   8   0    5.91    0.61
  -5  -8   0    7.68    0.63
   5   8   0    7.22    0.66
   5   8   0    8.13    0.62
  -6  -8   0    2.93    0.40
   6   8   0    2.40    0.40
   6   8   0    2.67    0.41
   8   8   0   13.98    0.75
   9   8   0    0.69    0.24
   0   9   0    0.77    0.33
  -1  -9   0    0.03    0.19
   1   9   0    0.31    0.26
   1   9   0    0.16    0.22
  -2  -9   0    0.06    0.18
   2   9   0    0.07    0.17
   2   9   0    0.08    0.22
  -3  -9   0    3.46    0.51
   3   9   0    3.77    0.38
   3   9   0    3.59    0.57
  -4  -9   0    1.63    0.38
   4   9   0    2.11    0.44
   4   9   0    2.20    0.24
  -5  -9   0    0.37    0.22
   5   9   0    0.16    0.22
  -6  -9   0    6.14    0.59
   6   9   0    5.91    0.62
   2  10   0   -0.12    0.20
   3  10   0    1.55    0.32
   4  10   0    1.49    0.24
  -6 -10   0    1.94    0.41
   6  10   0    1.28    0.38
   4  10  -1    0.62    0.19
   3  10  -1    0.33    0.21
   6   9  -1    6.09    0.62
  -6  -9   1    6.26    0.59
   5   9  -1    0.63    0.28
  -5  -9   1    0.74    0.29
   4   9  -1    0.16    0.13
   4   9  -1    0.21    0.23
  -4  -9   1    0.14    0.20
   3   9  -1    2.05    0.31
   3   9  -1    1.64    0.41
  -3  -9   1    1.97    0.40
   2   9  -1    1.53    0.42
   2   9  -1    1.45    0.33
  -2  -9   1    1.44    0.36
   1   9  -1    1.36    0.40
   1   9  -1    2.41    0.44
  -1  -9   1    1.69    0.39
   0   9  -1   -0.05    0.25
   9   8  -1   10.87    0.68
   8   8  -1   14.80    0.77
   6   8  -1    0.61    0.24
  -6  -8   1    0.68    0.23
   5   8  -1    0.52    0.24
  -5  -8   1    0.45    0.21
   4   8  -1    0.85    0.29
   4   8  -1    1.48    0.18
  -4  -8   1    1.15    0.30
   3   8  -1    0.54    0.18
   3   8  -1    0.74    0.29
  -3  -8   1    0.49    0.23
   2   8  -1    1.74    0.33
   2   8  -1    1.99    0.42
  -2  -8   1    1.92    0.37
   1   8  -1    6.36    0.55
   1   8  -1    5.57    0.63
  -1  -8   1    7.10    0.63
   0   8  -1    0.08    0.23
   0   8  -1    0.04    0.21
   0  -8   1   -0.12    0.15
  -1   8  -1    1.00    0.36
  -1   8  -1    1.00    0.35
   1  -8   1    0.70    0.28
  -2   8  -1    0.06    0.19
  -2   8  -1   -0.06    0.26
   9   7  -1   -0.04    0.16
   8   7  -1    1.16    0.25
   7   7  -1   17.38    0.80
   6   7  -1    3.65    0.40
  -6  -7   1    3.63    0.38
   5   7  -1    1.71    0.32
   5   7  -1    1.32    0.28
  -5  -7   1    1.65    0.29
   4   7  -1    0.10    0.15
   4   7  -1   -0.03    0.13
  -4  -7   1    0.14    0.14
   3   7  -1    1.04    0.29
   3   7  -1    0.88    0.18
  -3  -7   1    1.13    0.27
   2   7  -1    0.15    0.18
   2   7  -1    0.26    0.15
  -2  -7   1    0.10    0.14
   1   7  -1    2.33    0.36
   1   7  -1    2.16    0.41
  -1  -7   1    2.00    0.35
   0   7  -1    2.97    0.42
   0   7  -1    1.89    0.40
   0  -7   1    2.87    0.41
  -1   7  -1    0.97    0.32
  -1   7  -1    1.32    0.35
   1  -7   1    1.23    0.31
  -2   7  -1   10.75    0.87
  -2   7  -1   10.18    0.84
   2  -7   1   11.02    0.78
  -3   7  -1    0.80    0.36
  -3   7  -1    0.13    0.24
  10   6  -1    0.13    0.19
  10   6  -1    0.13    0.17
   9   6  -1    0.07    0.13
   9   6  -1    0.11    0.15
   8   6  -1    6.47    0.48
   7   6  -1   14.29    0.71
   6   6  -1    0.17    0.15
   6   6  -1    0.33    0.15
   6   6  -1    0.31    0.14
  -6  -6   1    0.28    0.13
  -6  -6   1    0.04    0.09
   5   6  -1    2.93    0.34
   5   6  -1    3.26    0.37
  -5  -6   1    3.37    0.26
  -5  -6   1    3.33    0.33
   4   6  -1    7.19    0.51
   4   6  -1    6.96    0.56
   4   6  -1    7.76    0.39
  -4  -6   1    8.02    0.43
  -4  -6   1    7.66    0.55
   3   6  -1    0.05    0.08
   3   6  -1    0.13    0.13
   3   6  -1    0.07    0.13
  -3  -6   1    0.09    0.12
  -3  -6   1   -0.03    0.08
   2   6  -1    0.52    0.15
   2   6  -1    0.99    0.27
  -2  -6   1    0.34    0.14
  -2  -6   1    0.55    0.19
   1   6  -1    6.55    0.59
   1   6  -1    7.63    0.52
  -1  -6   1    7.59    0.58
   0   6  -1   26.62    1.26
   0   6  -1   25.58    1.39
   0  -6   1   27.22    1.35
  -1   6  -1    5.69    0.56
  -1   6  -1    5.95    0.55
   1  -6   1    5.86    0.52
  -2   6  -1    1.79    0.37
  -2   6  -1    1.49    0.37
   2  -6   1    1.74    0.32
  -3   6  -1    5.37    0.43
  -3   6  -1    5.38    0.67
  -4   6  -1    0.04    0.22
  -4   6  -1    0.06    0.14
  10   5  -1   13.47    0.79
  10   5  -1   12.54    0.87
   9   5  -1   -0.04    0.15
   9   5  -1   -0.04    0.16
   8   5  -1    9.24    0.59
   8   5  -1    9.69    0.59
   8   5  -1    9.91    0.69
   7   5  -1   31.33    1.18
   7   5  -1   30.46    1.23
   7   5  -1   31.54    1.36
   6   5  -1   12.11    0.66
   6   5  -1   13.44    0.72
   6   5  -1   11.64    0.59
  -6  -5   1   12.20    0.53
  -6  -5   1   12.62    0.64
   5   5  -1   25.15    1.07
   5   5  -1   23.75    0.89
   5   5  -1   23.90    1.13
  -5  -5   1   25.27    0.89
  -5  -5   1   22.34    1.30
  -5  -5   1   24.87    1.11
   4   5  -1    4.78    0.41
   4   5  -1    5.56    0.41
  -4  -5   1    4.89    0.31
  -4  -5   1    5.52    0.41
   3   5  -1   10.87    0.59
   3   5  -1   12.16    0.47
   3   5  -1   12.06    0.49
   3   5  -1   11.48    0.47
   3   5  -1   11.17    0.71
  -3  -5   1   11.47    0.53
  -3  -5   1   11.49    0.68
   2   5  -1    0.06    0.11
   2   5  -1    0.06    0.12
   2   5  -1    0.19    0.12
   2   5  -1    0.08    0.08
   2   5  -1    0.12    0.10
  -2  -5   1    0.03    0.08
  -2  -5   1    0.07    0.08
   1   5  -1    7.47    0.56
   1   5  -1    6.63    0.43
  -1  -5   1    6.66    0.42
  -1  -5   1    6.83    0.51
   0   5  -1    0.61    0.19
   0   5  -1    0.69    0.22
   0  -5   1    0.69    0.20
  -1   5  -1    2.57    0.39
  -1   5  -1    2.58    0.37
   1  -5   1    2.42    0.32
  -2   5  -1    7.06    0.59
  -2   5  -1    7.97    0.65
  -2   5  -1    7.59    0.48
   2  -5   1    7.24    0.54
  -3   5  -1    0.11    0.18
  -3   5  -1    0.20    0.23
  -3   5  -1    0.05    0.11
  -3   5  -1    0.13    0.22
   3  -5   1    0.07    0.14
  -4   5  -1    0.04    0.19
  -4   5  -1    1.24    0.26
  -5   5  -1    0.09    0.15
  -5   5  -1    0.01    0.23
  10   4  -1    0.18    0.18
  10   4  -1    0.18    0.28
   9   4  -1    0.12    0.18
   9   4  -1    0.14    0.19
   9   4  -1    0.09    0.13
   8   4  -1    0.02    0.15
   8   4  -1    0.03    0.15
   8   4  -1   -0.05    0.10
   7   4  -1    2.45    0.30
   7   4  -1    3.20    0.36
   7   4  -1    3.05    0.35
  -7  -4   1    3.10    0.24
   6   4  -1    9.32    0.50
   6   4  -1    9.74    0.53
   6   4  -1    9.10    0.57
  -6  -4   1    9.44    0.44
   5   4  -1    9.59    0.51
   5   4  -1    8.62    0.52
   5   4  -1    9.10    0.41
   5   4  -1    8.86    0.44
   5   4  -1    9.66    0.48
  -5  -4   1    9.37    0.63
  -5  -4   1    9.42    0.49
  -5  -4   1    9.50    0.42
   4   4  -1    2.70    0.27
   4   4  -1    2.56    0.25
   4   4  -1    2.52    0.21
  -4  -4   1    2.77    0.25
  -4  -4   1    2.77    0.20
  -4  -4   1    2.62    0.32
   3   4  -1   22.16    0.77
   3   4  -1   24.76    1.10
   3   4  -1   22.75    0.93
  -3  -4   1   22.95    1.04
  -3  -4   1   22.93    0.82
  -3  -4   1   24.29    1.22
   2   4  -1    4.66    0.26
   2   4  -1    4.83    0.23
   2   4  -1    4.94    0.39
   2   4  -1    5.61    0.34
   2   4  -1    5.20    0.43
  -2  -4   1    4.14    0.34
  -2  -4   1    4.51    0.43
  -2  -4   1    4.47    0.29
   1   4  -1   83.64    2.90
   1   4  -1   80.50    3.50
   1   4  -1   83.42    3.29
  -1  -4   1   84.12    3.24
  -1  -4   1   89.50    3.58
  -1  -4   1   83.42    2.56
   0   4  -1  348.66   14.38
   0   4  -1  404.84   12.32
   0   4  -1  369.51   13.48
   0  -4   1  371.35   13.42
   0  -4   1  376.55   14.46
  -1   4  -1    1.83    0.28
  -1   4  -1    1.04    0.25
  -1   4  -1    1.16    0.15
   1  -4   1    1.32    0.22
  -2   4  -1   16.20    0.80
  -2   4  -1   15.58    0.81
  -2   4  -1   13.90    0.88
  -2   4  -1   15.52    0.87
   2  -4   1   15.98    0.83
  -3   4  -1    6.45    0.63
  -3   4  -1    9.37    0.60
  -3   4  -1    9.47    0.63
   3  -4   1   10.30    0.60
  -4   4  -1   -0.08    0.17
  -4   4  -1    0.53    0.17
  -5   4  -1   -0.08    0.20
  -5   4  -1    0.45    0.19
  -6   4  -1    0.18    0.17
  -6   4  -1    0.03    0.26
   6  -4   1    0.24    0.30
  10   3  -1    5.91    0.75
  10   3  -1    5.02    0.49
   9   3  -1    1.49    0.40
   9   3  -1    1.06    0.25
   8   3  -1    3.76    0.50
   8   3  -1    3.87    0.39
   7   3  -1    0.05    0.13
   7   3  -1    0.01    0.09
  -7  -3   1    0.01    0.08
   6   3  -1    1.59    0.22
   6   3  -1    1.64    0.26
  -6  -3   1    1.46    0.16
   5   3  -1    2.47    0.26
   5   3  -1    2.48    0.21
   5   3  -1    2.10    0.22
   5   3  -1    1.90    0.22
  -5  -3   1    2.20    0.17
  -5  -3   1    2.12    0.17
  -5  -3   1    2.47    0.25
   4   3  -1   25.68    0.90
   4   3  -1   26.86    1.02
   4   3  -1   28.80    1.10
   4   3  -1   26.81    0.97
   4   3  -1   25.99    1.00
  -4  -3   1   26.01    1.23
  -4  -3   1   26.78    1.07
  -4  -3   1   25.22    0.87
   3   3  -1    1.52    0.17
   3   3  -1    1.19    0.14
   3   3  -1    1.31    0.10
   3   3  -1    1.33    0.10
   3   3  -1    1.55    0.15
   3   3  -1    1.45    0.17
  -3  -3   1    1.50    0.13
  -3  -3   1    1.43    0.16
  -3  -3   1    1.57    0.22
   2   3  -1    0.69    0.09
   2   3  -1    0.74    0.12
   2   3  -1    0.97    0.14
   2   3  -1    0.81    0.15
   2   3  -1    0.54    0.07
  -2  -3   1    0.84    0.17
  -2  -3   1    0.60    0.10
  -2  -3   1    0.68    0.13
   1   3  -1   11.69    0.53
   1   3  -1   12.72    0.71
   1   3  -1   11.67    0.53
   1   3  -1   12.99    0.41
   1   3  -1   13.63    0.68
  -1  -3   1   12.63    0.51
  -1  -3   1   13.17    0.64
  -1  -3   1   12.73    0.73
   0   3  -1   35.22    1.60
   0   3  -1   41.17    1.75
   0   3  -1   36.85    1.47
   0  -3   1   40.31    1.59
   0  -3   1   39.60    1.77
   0  -3   1   39.61    1.31
  -1   3  -1   31.84    1.11
  -1   3  -1   28.50    1.29
  -1   3  -1   24.66    1.21
  -1   3  -1   31.19    1.28
   1  -3   1   27.28    1.41
   1  -3   1   32.07    1.27
  -2   3  -1    0.88    0.22
  -2   3  -1    0.67    0.14
  -2   3  -1    0.73    0.18
  -2   3  -1    0.42    0.15
   2  -3   1    0.72    0.15
   2  -3   1    0.38    0.16
   2  -3   1    1.36    0.42
  -3   3  -1    0.12    0.11
  -3   3  -1    0.02    0.08
  -3   3  -1    0.25    0.17
  -3   3  -1    0.32    0.14
  -3   3  -1    0.03    0.15
   3  -3   1    0.20    0.26
   3  -3   1    0.30    0.16
   3  -3   1    0.23    0.19
   3  -3   1    0.17    0.09
  -4   3  -1    3.35    0.35
   4  -3   1    2.85    0.53
  -5   3  -1    0.04    0.18
  -5   3  -1    0.01    0.10
   5  -3   1    0.00    0.18
  -6   3  -1    0.05    0.24
  -6   3  -1    0.00    0.12
   6  -3   1    0.00    0.21
  -7   3  -1    0.39    0.22
   7  -3   1    0.62    0.37
  10   2  -1    0.22    0.33
  10   2  -1    0.10    0.16
   9   2  -1    1.17    0.26
   9   2  -1    1.51    0.44
   8   2  -1    0.68    0.20
   8   2  -1    0.77    0.31
   7   2  -1    0.62    0.26
   7   2  -1    0.50    0.17
  -7  -2   1    0.47    0.14
   6   2  -1    1.35    0.28
   6   2  -1    1.12    0.19
  -6  -2   1    1.19    0.16
   5   2  -1    1.86    0.25
   5   2  -1    2.10    0.22
  -5  -2   1    1.83    0.15
  -5  -2   1    1.72    0.12
  -5  -2   1    1.91    0.16
   4   2  -1    1.24    0.15
   4   2  -1    1.33    0.13
   4   2  -1    1.37    0.18
  -4  -2   1    1.33    0.15
  -4  -2   1    1.34    0.11
  -4  -2   1    1.19    0.12
   3   2  -1   15.95    0.61
   3   2  -1   15.92    0.55
   3   2  -1   15.95    0.56
   3   2  -1   15.22    0.65
   3   2  -1   14.97    0.62
  -3  -2   1   15.64    0.64
  -3  -2   1   15.49    0.54
  -3  -2   1   16.21    0.75
   2   2  -1   21.64    0.90
   2   2  -1   21.64    0.68
   2   2  -1   22.39    0.72
   2   2  -1   20.74    0.76
  -2  -2   1   21.33    0.88
  -2  -2   1   22.61    0.71
  -2  -2   1   22.40    0.99
   1   2  -1 1000.00   33.19
   1   2  -1  929.75   25.56
   1   2  -1  892.43   24.40
  -1  -2   1  879.32   33.09
  -1  -2   1  922.54   25.62
  -1  -2   1  963.30   35.48
   0   2  -1  877.16   29.21
   0   2  -1  797.63   32.19
   0  -2   1  861.44   31.64
   0  -2   1  797.47   22.65
   0  -2   1  782.91   29.27
  -1   2  -1   23.96    0.90
  -1   2  -1   30.50    1.12
  -1   2  -1   27.08    1.07
  -1   2  -1   25.19    1.12
   1  -2   1   24.29    0.89
   1  -2   1   23.79    1.05
   1  -2   1   29.12    1.53
   1  -2   1   22.34    1.17
  -2   2  -1   12.25    0.64
  -2   2  -1   13.04    0.59
  -2   2  -1   12.84    0.70
  -2   2  -1   14.03    0.69
   2  -2   1   12.85    0.62
   2  -2   1   14.68    0.60
   2  -2   1   13.94    0.75
   2  -2   1   13.51    0.44
  -3   2  -1    0.89    0.16
  -3   2  -1    0.83    0.16
  -3   2  -1    0.94    0.16
  -3   2  -1    0.73    0.21
   3  -2   1    0.98    0.25
   3  -2   1    1.61    0.46
   3  -2   1    0.76    0.10
   3  -2   1    0.84    0.14
   3  -2   1    0.82    0.27
   3  -2   1    0.80    0.18
  -4   2  -1    1.27    0.21
  -4   2  -1    1.37    0.22
   4  -2   1    1.43    0.15
   4  -2   1    1.21    0.33
   4  -2   1    1.38    0.36
  -5   2  -1    6.46    0.46
  -5   2  -1    6.74    0.52
   5  -2   1    5.92    0.68
  -6   2  -1   17.98    1.07
   6  -2   1   18.30    1.40
  -7   2  -1    1.36    0.31
   7  -2   1    1.59    0.49
  -8   2  -1    2.10    0.40
   8  -2   1    1.78    0.53
   9   1  -1    2.91    0.26
   9   1  -1    2.52    0.34
   9   1  -1    3.12    0.62
   8   1  -1    0.29    0.28
   8   1  -1    0.30    0.13
   8   1  -1    0.35    0.16
   7   1  -1    4.47    0.39
   7   1  -1    5.38    0.61
   7   1  -1    4.56    0.35
  -7  -1   1    4.73    0.36
   6   1  -1    6.40    0.40
   6   1  -1    6.60    0.47
   6   1  -1    6.79    0.57
  -6  -1   1    6.33    0.39
   5   1  -1   29.99    1.32
   5   1  -1   28.68    1.00
   5   1  -1   29.02    1.48
  -5  -1   1   27.72    1.00
   4   1  -1  111.29    5.00
   4   1  -1  112.04    3.08
   4   1  -1  103.55    3.74
   4   1  -1  108.04    3.00
   4   1  -1   94.55    5.00
  -4  -1   1  116.86    3.85
  -4  -1   1  104.56    3.10
   3   1  -1  219.08    9.93
   3   1  -1  218.03    5.78
   3   1  -1  221.10    6.03
   3   1  -1  217.26    7.14
   3   1  -1  208.16    9.92
  -3  -1   1  218.46    7.66
  -3  -1   1  214.26    6.03
   2   1  -1    5.99    0.23
   2   1  -1    5.93    0.25
  -2  -1   1    5.66    0.23
  -2  -1   1    5.29    0.25
   1   1  -1   15.94    0.50
   1   1  -1   15.47    0.47
   1   1  -1   15.38    0.62
  -1  -1   1   15.07    0.61
  -1  -1   1   15.88    0.50
   0   1  -1    6.96    0.32
   0  -1   1    6.08    0.30
   0  -1   1    6.41    0.26
  -1   1  -1   90.80    2.58
  -1   1  -1   94.80    3.25
   1  -1   1   83.61    3.21
   1  -1   1   86.71    2.57
  -2   1  -1    3.89    0.26
  -2   1  -1    5.28    0.28
   2  -1   1    5.40    0.27
   2  -1   1    5.31    0.33
   2  -1   1    5.26    0.27
   2  -1   1    5.08    0.22
  -3   1  -1   12.61    0.54
  -3   1  -1   11.29    0.54
   3  -1   1   12.15    0.53
   3  -1   1   12.87    0.45
   3  -1   1   12.27    0.72
   3  -1   1   10.98    0.61
   3  -1   1   12.59    0.51
   3  -1   1   13.24    0.88
  -4   1  -1    5.14    0.30
  -4   1  -1    5.60    0.36
   4  -1   1    5.68    0.51
   4  -1   1    5.95    0.30
   4  -1   1    6.64    0.41
   4  -1   1    6.47    0.31
   4  -1   1    5.81    0.58
  -5   1  -1   10.83    0.69
  -5   1  -1   11.66    0.60
   5  -1   1   12.44    0.85
   5  -1   1   11.70    0.94
   5  -1   1   11.48    0.50
  -6   1  -1    6.08    0.51
  -6   1  -1    5.97    0.44
   6  -1   1    6.59    0.38
   6  -1   1    6.33    0.71
   6  -1   1    6.34    0.68
   7  -1   1    1.21    0.37
   8  -1   1    4.71    0.63
   9   0  -1    0.06    0.15
   9   0  -1   -0.08    0.30
   8   0  -1    3.87    0.37
   8   0  -1    3.98    0.47
   8   0  -1    3.99    0.66
   7   0  -1    3.62    0.57
   7   0  -1    3.26    0.41
   7   0  -1    3.68    0.31
   6   0  -1    6.13    0.56
   6   0  -1    6.07    0.59
   6   0  -1    6.66    0.39
  -6   0   1    6.72    0.44
   5   0  -1   33.47    1.79
   5   0  -1   31.32    1.50
   5   0  -1   32.99    1.09
  -5   0   1   31.49    1.15
   4   0  -1   19.96    0.99
   4   0  -1   21.13    1.19
   4   0  -1   21.32    0.73
  -4   0   1   20.04    0.83
  -4   0   1   20.25    0.76
   3   0  -1   68.74    1.99
   3   0  -1   65.94    1.92
   3   0  -1   69.23    2.47
   3   0  -1   68.11    3.29
  -3   0   1   68.24    2.65
  -3   0   1   66.17    2.02
  -3   0   1   69.68    2.49
   2   0  -1    6.06    0.25
   2   0  -1    7.26    0.26
   2   0  -1    5.58    0.39
  -2   0   1    5.33    0.28
  -2   0   1    5.95    0.27
  -2   0   1    6.08    0.26
   1   0  -1  271.96   12.71
   1   0  -1  283.19    7.67
   1   0  -1  274.27    7.27
  -1   0   1  277.12    9.89
  -1   0   1  283.43    7.67
   0   0  -1   17.76    0.85
   0   0  -1   17.79    0.52
   0   0   1   17.96    0.52
   0   0   1   17.19    0.65
  -1   0  -1    5.92    0.22
   1   0   1    5.91    0.22
   1   0   1    5.65    0.24
  -2   0  -1    3.28    0.17
   2   0   1    3.37    0.17
   2   0   1    3.37    0.15
   2   0   1    3.63    0.30
   2   0   1    4.27    0.40
  -3   0  -1    9.14    0.38
   3   0   1    8.84    0.42
   3   0   1    8.32    0.53
   3   0   1    9.46    0.64
   3   0   1    9.21    0.35
   3   0   1    8.80    0.37
   3   0   1    9.19    0.36
  -4   0  -1   12.39    0.52
   4   0   1   11.57    0.48
   4   0   1   12.15    0.47
   4   0   1   12.38    0.73
   4   0   1   11.97    0.55
   4   0   1   11.96    0.83
  -5   0  -1    4.44    0.31
   5   0   1    4.24    0.45
   5   0   1    4.77    0.48
   5   0   1    4.58    0.30
  -6   0  -1    9.21    0.52
   6   0   1    8.55    0.72
   6   0   1    9.72    0.79
   6   0   1    9.64    0.49
   7   0   1    0.14    0.12
   7   0   1    0.22    0.22
   7   0   1   -0.02    0.15
   8   0   1    0.51    0.17
   8   0   1    0.04    0.15
   8   0   1   -0.16    0.22
   9   0   1   -0.05    0.30
   9   0   1    0.23    0.22
   8  -1  -1    2.37    0.48
   7  -1  -1    0.89    0.36
   7  -1  -1    1.24    0.36
   6  -1  -1    1.38    0.36
   6  -1  -1    1.15    0.36
   6  -1  -1    0.99    0.17
   5  -1  -1    3.47    0.47
   5  -1  -1    3.57    0.25
   5  -1  -1    3.34    0.42
  -5   1   1    2.94    0.30
  -5   1   1    2.78    0.31
   4  -1  -1    6.31    0.52
   4  -1  -1    6.31    0.36
   4  -1  -1    6.87    0.59
   4  -1  -1    6.55    0.33
  -4   1   1    6.36    0.38
  -4   1   1    6.80    0.45
  -4   1   1    7.21    0.39
  -4   1   1    6.50    0.39
   3  -1  -1  138.06    5.42
   3  -1  -1  149.28    4.05
   3  -1  -1  146.68    6.72
   3  -1  -1  133.87    4.87
   3  -1  -1  141.27    3.81
  -3   1   1  141.84    5.65
  -3   1   1  140.86    4.09
  -3   1   1  141.31    5.12
  -3   1   1  135.46    5.45
   2  -1  -1   25.36    0.76
   2  -1  -1   25.22    1.08
   2  -1  -1   23.40    1.36
   2  -1  -1   24.64    0.83
  -2   1   1   25.08    1.12
  -2   1   1   26.27    1.03
  -2   1   1   24.27    0.85
  -2   1   1   27.05    1.10
   1  -1  -1  107.58    3.94
   1  -1  -1  102.32    2.88
   1  -1  -1   99.94    4.76
   1  -1  -1  102.71    2.70
  -1   1   1  102.26    3.94
  -1   1   1   93.61    3.67
  -1   1   1  101.67    2.90
   0  -1  -1    4.81    0.19
   0  -1  -1    4.78    0.26
   0   1   1    4.62    0.19
   0   1   1    4.13    0.23
   0   1   1    4.81    0.27
  -1  -1  -1   10.76    0.49
  -1  -1  -1   10.59    0.33
   1   1   1   10.78    0.50
  -2  -1  -1   43.15    1.21
  -2  -1  -1   43.14    1.66
   2   1   1   41.88    1.98
   2   1   1   41.53    2.01
   2   1   1   42.33    1.67
   2   1   1   41.95    1.20
  -3  -1  -1   10.18    0.37
   3   1   1   10.16    0.53
   3   1   1   10.26    0.41
   3   1   1   10.09    0.60
   3   1   1    9.93    0.55
   3   1   1   10.85    0.35
   3   1   1   10.32    0.45
  -4  -1  -1    1.18    0.12
   4   1   1    1.19    0.22
   4   1   1    1.11    0.17
   4   1   1    1.30    0.15
   4   1   1    1.30    0.15
   4   1   1    1.30    0.11
  -5  -1  -1    3.04    0.22
   5   1   1    3.45    0.20
   5   1   1    2.95    0.24
   5   1   1    3.22    0.38
   5   1   1    3.23    0.33
  -6  -1  -1    3.75    0.29
   6   1   1    3.83    0.39
   6   1   1    4.22    0.31
   6   1   1    4.28    0.50
   7   1   1    0.98    0.20
   7   1   1    0.93    0.31
   7   1   1    1.03    0.25
   8   1   1    0.34    0.18
   8   1   1    0.20    0.14
   8   1   1    0.38    0.26
   9   1   1    5.95    0.80
   9   1   1    6.59    0.49
   9   1   1    6.47    0.54
   8  -2  -1    0.08    0.22
   7  -2  -1    2.84    0.56
  -7   2   1    2.40    0.39
   6  -2  -1    1.13    0.38
  -6   2   1    0.90    0.24
   5  -2  -1    0.42    0.23
   5  -2  -1    0.46    0.25
  -5   2   1    0.48    0.17
  -5   2   1    0.04    0.18
   4  -2  -1    0.17    0.07
   4  -2  -1    0.12    0.16
   4  -2  -1    0.14    0.16
  -4   2   1   -0.04    0.13
  -4   2   1    0.11    0.10
  -4   2   1    0.19    0.11
  -4   2   1    0.26    0.13
   3  -2  -1    7.08    0.63
   3  -2  -1    7.25    0.55
   3  -2  -1    7.20    0.48
   3  -2  -1    7.14    0.31
  -3   2   1    7.09    0.48
  -3   2   1    6.88    0.49
  -3   2   1    7.81    0.46
  -3   2   1    7.71    0.49
  -3   2   1    6.01    0.39
   2  -2  -1   21.29    1.04
   2  -2  -1   21.40    0.80
   2  -2  -1   21.19    1.29
   2  -2  -1   21.28    0.66
  -2   2   1   21.63    0.83
  -2   2   1   22.10    1.03
  -2   2   1   22.89    1.06
  -2   2   1   22.73    0.99
   1  -2  -1    2.33    0.18
   1  -2  -1    1.90    0.21
   1  -2  -1    2.45    0.27
  -1   2   1    2.47    0.22
  -1   2   1    2.25    0.18
  -1   2   1    2.45    0.24
  -1   2   1    2.39    0.19
   0  -2  -1  188.33    7.05
   0  -2  -1  184.48    5.13
   0   2   1  191.47    7.06
   0   2   1  174.51    5.13
   0   2   1  178.10    7.14
   0   2   1  186.64    6.59
   0   2   1  171.93    5.49
  -1  -2  -1   66.46    2.54
  -1  -2  -1   59.66    1.81
   1   2   1   62.53    2.53
   1   2   1   59.77    2.35
  -2  -2  -1    2.56    0.21
  -2  -2  -1    2.81    0.13
   2   2   1    2.63    0.20
   2   2   1    2.67    0.13
   2   2   1    2.88    0.23
   2   2   1    2.74    0.20
  -3  -2  -1   18.60    0.83
  -3  -2  -1   18.38    0.58
   3   2   1   19.55    0.85
   3   2   1   18.04    0.64
   3   2   1   18.69    0.58
   3   2   1   17.97    0.75
   3   2   1   18.34    0.72
   3   2   1   18.90    0.77
  -4  -2  -1    8.42    0.35
  -4  -2  -1    8.47    0.40
  -4  -2  -1    8.53    0.33
   4   2   1    8.87    0.42
   4   2   1    8.18    0.48
   4   2   1    8.77    0.36
   4   2   1    9.05    0.40
   4   2   1    8.53    0.32
  -5  -2  -1    0.27    0.07
   5   2   1    0.31    0.10
   5   2   1    0.28    0.06
   5   2   1    0.28    0.13
  -6  -2  -1    0.03    0.08
   6   2   1    0.01    0.04
   6   2   1   -0.05    0.07
   6   2   1    0.11    0.13
   7   2   1   40.03    1.78
   7   2   1   37.32    1.81
   7   2   1   37.89    1.35
   8   2   1   10.22    0.58
   8   2   1    9.49    0.79
   9   2   1    2.13    0.31
   9   2   1    1.97    0.50
  10   2   1    0.43    0.20
  10   2   1    0.46    0.38
   7  -3  -1    0.19    0.26
  -7   3   1    0.28    0.20
   6  -3  -1    0.02    0.20
  -6   3   1    0.10    0.15
   5  -3  -1    1.91    0.48
  -5   3   1    2.14    0.32
   4  -3  -1   16.59    1.26
  -4   3   1   17.78    0.98
   3  -3  -1   36.44    1.71
   3  -3  -1   36.35    2.13
  -3   3   1   35.34    1.35
  -3   3   1   33.94    1.66
  -3   3   1   39.71    1.63
  -3   3   1   37.49    1.71
   2  -3  -1    1.60    0.25
   2  -3  -1    1.38    0.31
  -2   3   1    1.48    0.25
  -2   3   1    1.41    0.20
  -2   3   1    1.94    0.26
  -2   3   1    1.45    0.21
  -2   3   1    1.22    0.24
   1  -3  -1   53.21    2.75
   1  -3  -1   53.01    2.33
  -1   3   1   48.65    2.29
  -1   3   1   52.99    1.73
  -1   3   1   52.76    2.23
  -1   3   1   59.83    2.20
   0  -3  -1    7.76    0.38
   0  -3  -1    8.35    0.54
   0   3   1    6.98    0.40
   0   3   1    7.31    0.35
   0   3   1    6.33    0.45
   0   3   1    7.57    0.39
   0   3   1    7.44    0.51
  -1  -3  -1   30.12    1.42
  -1  -3  -1   31.04    1.02
   1   3   1   29.84    1.10
   1   3   1   28.25    1.40
   1   3   1   31.20    1.11
   1   3   1   31.29    1.03
   1   3   1   31.57    1.32
  -2  -3  -1   33.81    1.04
  -2  -3  -1   33.12    1.51
   2   3   1   33.39    0.99
   2   3   1   31.17    1.14
   2   3   1   34.58    1.21
   2   3   1   32.41    1.50
   2   3   1   35.72    1.41
  -3  -3  -1    0.02    0.06
  -3  -3  -1    0.03    0.03
   3   3   1    0.03    0.05
   3   3   1    0.03    0.07
   3   3   1    0.16    0.09
   3   3   1    0.05    0.04
   3   3   1    0.02    0.04
   3   3   1    0.07    0.07
  -4  -3  -1    0.43    0.12
  -4  -3  -1    0.22    0.05
  -4  -3  -1    0.40    0.09
   4   3   1    0.47    0.13
   4   3   1    0.30    0.07
   4   3   1    0.45    0.10
   4   3   1    0.41    0.10
   4   3   1    0.23    0.09
   4   3   1    0.33    0.09
  -5  -3  -1    1.73    0.14
  -5  -3  -1    1.54    0.12
  -5  -3  -1    1.47    0.16
   5   3   1    1.48    0.14
   5   3   1    1.61    0.22
   5   3   1    1.50    0.19
   5   3   1    1.50    0.13
   5   3   1    1.46    0.21
   5   3   1    1.54    0.16
  -6  -3  -1   34.90    1.15
   6   3   1   36.87    1.51
   6   3   1   36.72    1.25
   7   3   1   10.74    0.72
   7   3   1   11.54    0.59
   8   3   1   18.57    0.85
   8   3   1   18.42    1.09
   9   3   1    9.87    0.61
   9   3   1    9.39    0.79
  10   3   1   -0.05    0.14
  10   3   1    0.19    0.30
   6  -4  -1    0.21    0.27
  -6   4   1   -0.05    0.23
  -6   4   1    0.35    0.20
   5  -4  -1    9.68    1.00
  -5   4   1   10.13    0.75
   4  -4  -1    4.49    0.61
  -4   4   1    4.24    0.42
   3  -4  -1    4.20    0.55
  -3   4   1    4.51    0.40
  -3   4   1    4.67    0.46
  -3   4   1    4.52    0.45
  -3   4   1    4.76    0.46
   2  -4  -1   18.18    1.09
   2  -4  -1   18.33    1.28
  -2   4   1   17.75    1.06
  -2   4   1   17.62    0.96
  -2   4   1   18.94    0.87
  -2   4   1   19.51    0.97
  -2   4   1   19.58    1.03
   1  -4  -1    7.30    0.61
   1  -4  -1    8.26    0.69
  -1   4   1    7.91    0.58
  -1   4   1    7.76    0.52
  -1   4   1    8.02    0.49
  -1   4   1    7.76    0.47
  -1   4   1    9.51    0.65
   0  -4  -1   15.54    0.92
   0   4   1   14.07    0.88
   0   4   1   14.38    0.71
   0   4   1   17.13    0.87
   0   4   1   13.39    0.66
  -1  -4  -1    1.16    0.17
  -1  -4  -1    1.08    0.24
   1   4   1    1.04    0.18
   1   4   1    0.77    0.20
   1   4   1    1.25    0.09
   1   4   1    0.94    0.15
   1   4   1    1.45    0.26
  -2  -4  -1    6.96    0.36
  -2  -4  -1    5.81    0.48
  -2  -4  -1    5.66    0.31
   2   4   1    6.01    0.39
   2   4   1    5.48    0.43
   2   4   1    5.69    0.29
   2   4   1    6.39    0.26
   2   4   1    4.59    0.44
  -3  -4  -1    5.21    0.44
  -3  -4  -1    5.49    0.27
   3   4   1    4.57    0.38
   3   4   1    5.63    0.44
   3   4   1    5.48    0.37
  -4  -4  -1   11.18    0.70
  -4  -4  -1   11.79    0.44
  -4  -4  -1   11.44    0.60
   4   4   1   11.82    0.61
   4   4   1   11.68    0.45
   4   4   1   10.81    0.68
   4   4   1   11.68    0.49
   4   4   1   11.19    0.63
  -5  -4  -1   56.60    2.42
  -5  -4  -1   58.14    1.70
  -5  -4  -1   55.10    2.18
   5   4   1   55.09    2.21
   5   4   1   57.17    2.00
   5   4   1   58.39    2.04
   5   4   1   58.59    1.76
   5   4   1   55.33    2.39
   5   4   1   57.39    1.96
  -6  -4  -1    2.11    0.17
   6   4   1    2.37    0.26
   6   4   1    1.88    0.28
   6   4   1    2.48    0.27
   7   4   1  258.44    8.17
   7   4   1  262.21    8.77
   7   4   1  264.62    7.20
   8   4   1    2.28    0.36
   8   4   1    2.20    0.31
   8   4   1    2.28    0.35
   9   4   1   20.07    0.94
   9   4   1   19.03    1.07
   9   4   1   19.60    1.14
  10   4   1    1.15    0.37
  10   4   1    0.39    0.20
  10   4   1    0.78    0.30
  -6   5   1    0.77    0.28
  -6   5   1    0.04    0.25
  -4   5   1    0.35    0.18
  -4   5   1    0.08    0.21
   3  -5  -1    9.01    0.64
  -3   5   1    9.17    0.71
  -3   5   1    9.90    0.65
  -3   5   1    9.47    0.73
  -2   5   1   17.86    1.03
  -2   5   1   16.60    0.95
  -2   5   1   16.39    0.89
  -1   5   1    9.05    0.62
  -1   5   1    9.17    0.68
  -1   5   1    9.13    0.50
  -1   5   1    9.29    0.58
   0   5   1    7.89    0.61
   0   5   1    6.90    0.47
   0   5   1    7.50    0.50
   1   5   1   10.61    0.56
   1   5   1   11.18    0.78
   1   5   1    9.30    0.68
  -2  -5  -1   10.89    0.78
   2   5   1    9.50    0.68
   2   5   1   11.71    0.61
   2   5   1   10.64    0.39
   2   5   1   11.68    0.52
   2   5   1   10.64    0.76
  -3  -5  -1    0.19    0.15
  -3  -5  -1    0.12    0.07
   3   5   1    0.05    0.11
   3   5   1    0.13    0.12
   3   5   1    0.12    0.06
   3   5   1    0.12    0.12
   3   5   1    0.16    0.06
   3   5   1    0.13    0.06
  -4  -5  -1    7.84    0.52
  -4  -5  -1    7.76    0.37
  -4  -5  -1    8.15    0.62
   4   5   1    7.33    0.54
   4   5   1    8.64    0.53
   4   5   1    7.68    0.59
  -5  -5  -1   14.79    0.76
  -5  -5  -1   14.34    0.89
  -5  -5  -1   14.58    0.56
   5   5   1   13.18    0.77
   5   5   1   15.16    0.78
   5   5   1   14.41    0.62
   5   5   1   14.87    0.87
   6   5   1    0.96    0.19
   6   5   1    0.87    0.12
   6   5   1    0.72    0.13
   6   5   1    0.68    0.21
   7   5   1    3.19    0.33
   7   5   1    2.52    0.27
   7   5   1    2.58    0.38
   8   5   1    2.19    0.30
   8   5   1    2.45    0.39
   8   5   1    2.24    0.31
   9   5   1    0.18    0.15
   9   5   1    0.00    0.19
   9   5   1    0.11    0.18
  10   5   1    0.97    0.31
  10   5   1    1.17    0.29
  10   5   1    1.42    0.38
  -5   6   1    2.68    0.41
  -4   6   1   -0.01    0.21
  -4   6   1    0.08    0.14
  -3   6   1    0.01    0.20
  -3   6   1    0.15    0.13
  -3   6   1    0.03    0.17
   2  -6  -1    0.02    0.14
  -2   6   1    0.05    0.17
  -2   6   1    0.10    0.18
  -2   6   1    0.00    0.16
  -2   6   1    0.10    0.10
   1  -6  -1    1.89    0.33
  -1   6   1    2.07    0.35
  -1   6   1    1.82    0.37
   0   6   1    0.79    0.21
   0   6   1    0.79    0.27
   1   6   1    0.12    0.14
   1   6   1    0.03    0.10
   2   6   1    1.50    0.26
   2   6   1    1.32    0.30
   2   6   1    1.66    0.21
  -3  -6  -1    4.87    0.33
  -3  -6  -1    4.46    0.42
   3   6   1    4.87    0.41
   3   6   1    5.16    0.49
   3   6   1    4.53    0.29
   3   6   1    4.55    0.28
  -4  -6  -1    7.06    0.53
  -4  -6  -1    6.51    0.38
   4   6   1    7.92    0.60
   4   6   1    6.65    0.36
   4   6   1    7.96    0.55
  -5  -6  -1    7.72    0.39
  -5  -6  -1    7.22    0.52
   5   6   1    7.73    0.58
   5   6   1    6.59    0.39
   5   6   1    8.01    0.57
  -6  -6  -1    0.04    0.10
   6   6   1    0.17    0.12
   6   6   1    0.11    0.12
   6   6   1    0.06    0.16
   7   6   1  107.14    3.16
   7   6   1  104.11    3.67
   8   6   1    0.71    0.21
   8   6   1    0.70    0.16
   8   6   1    0.57    0.26
   9   6   1    3.38    0.36
   9   6   1    3.79    0.52
   9   6   1    3.82    0.42
  10   6   1    0.17    0.21
  10   6   1    0.21    0.29
  10   6   1    0.20    0.18
  -3   7   1    0.09    0.22
  -3   7   1    0.09    0.11
  -3   7   1    0.35    0.36
   2  -7  -1    4.11    0.48
  -2   7   1    4.53    0.63
  -2   7   1    3.82    0.56
   1  -7  -1   -0.01    0.13
  -1   7   1    0.10    0.21
  -1   7   1    0.06    0.22
  -1   7   1    0.11    0.15
   0  -7  -1    0.19    0.18
   0   7   1    0.34    0.24
   0   7   1    0.15    0.17
  -1  -7  -1    0.04    0.13
   1   7   1    0.09    0.14
   1   7   1   -0.03    0.14
  -2  -7  -1    0.17    0.16
   2   7   1    0.13    0.16
   2   7   1    0.10    0.12
  -3  -7  -1    0.93    0.25
   3   7   1    0.67    0.21
   3   7   1    0.81    0.28
   3   7   1    0.80    0.18
  -4  -7  -1    0.85    0.24
  -4  -7  -1    1.02    0.19
   4   7   1    0.64    0.25
   4   7   1    0.93    0.11
   4   7   1    0.73    0.23
  -5  -7  -1   20.82    0.82
  -5  -7  -1   19.79    1.10
   5   7   1   20.02    1.15
   5   7   1   20.65    0.79
   5   7   1   20.93    1.07
  -6  -7  -1    1.28    0.26
   6   7   1    1.10    0.20
   6   7   1    1.30    0.29
   6   7   1    1.09    0.29
   7   7   1   10.70    0.76
   7   7   1    9.90    0.57
   8   7   1    0.11    0.21
   8   7   1   -0.01    0.14
   9   7   1    0.26    0.23
   9   7   1   -0.05    0.16
  10   7   1    0.46    0.22
   2  -8  -1    0.17    0.22
  -2   8   1    0.04    0.31
  -2   8   1    0.08    0.21
  -2   8   1    0.03    0.28
   1  -8  -1    0.19    0.20
  -1   8   1    0.43    0.33
  -1   8   1    0.03    0.14
  -1   8   1    0.37    0.30
   0  -8  -1    1.19    0.34
   0   8   1    0.36    0.27
   0   8   1    1.05    0.36
  -1  -8  -1    0.05    0.18
   1   8   1    0.06    0.21
   1   8   1    0.35    0.24
  -2  -8  -1    0.93    0.28
   2   8   1    0.95    0.27
   2   8   1    0.58    0.28
  -3  -8  -1    2.00    0.37
   3   8   1    1.42    0.36
   3   8   1    1.76    0.26
   3   8   1    1.65    0.32
  -4  -8  -1    0.51    0.24
   4   8   1    0.52    0.22
   4   8   1    0.79    0.30
   4   8   1    0.64    0.13
  -5  -8  -1    3.32    0.44
   5   8   1    2.98    0.46
   5   8   1    3.59    0.45
  -6  -8  -1    0.09    0.15
   6   8   1    0.32    0.22
   6   8   1   -0.05    0.15
   7   8   1    1.21    0.34
   8   8   1    7.10    0.70
   8   8   1    5.96    0.47
   9   8   1    0.08    0.18
   0  -9  -1    0.39    0.26
   0   9   1    0.34    0.30
   0   9   1    0.31    0.30
  -1  -9  -1    0.57    0.28
   1   9   1    0.61    0.33
   1   9   1    0.63    0.28
  -2  -9  -1    0.13    0.21
   2   9   1   -0.01    0.22
   2   9   1    0.14    0.19
  -3  -9  -1   -0.07    0.16
   3   9   1    0.00    0.20
   3   9   1    0.08    0.16
  -4  -9  -1    6.92    0.66
   4   9   1    7.45    0.63
   4   9   1    8.00    0.46
   4   9   1    6.24    0.69
  -5  -9  -1    3.92    0.52
   5   9   1    2.96    0.51
   5   9   1    4.44    0.53
  -6  -9  -1    3.56    0.49
   6   9   1    3.48    0.49
   6   9   1    3.36    0.52
   2  10   1    0.31    0.21
   3  10   1    0.35    0.20
  -4 -10  -1   -0.02    0.20
   4  10   1    0.03    0.15
  -5 -10  -1    1.34    0.37
   5  10   1    0.78    0.35
   5  10   1    0.88    0.33
  -6 -10  -1    1.03    0.33
   6  10   1    0.82    0.35
   6   9  -2    0.87    0.31
  -6  -9   2    0.89    0.29
   5   9  -2   -0.05    0.19
  -5  -9   2   -0.05    0.15
   4   9  -2    0.59    0.29
   4   9  -2    0.87    0.19
  -4  -9   2    0.78    0.29
   3   9  -2    0.60    0.29
   3   9  -2    0.48    0.20
  -3  -9   2    0.53    0.25
   2   9  -2    2.93    0.42
  -2  -9   2    2.99    0.48
   1   9  -2    1.67    0.41
   9   8  -2    0.08    0.18
   6   8  -2   10.35    0.77
  -6  -8   2   10.31    0.73
   5   8  -2    4.87    0.53
  -5  -8   2    5.33    0.51
   4   8  -2    1.49    0.19
   4   8  -2    1.32    0.34
  -4  -8   2    0.98    0.28
   3   8  -2    1.78    0.39
   3   8  -2    2.00    0.28
  -3  -8   2    2.27    0.39
   2   8  -2    1.05    0.27
   2   8  -2    0.75    0.30
  -2  -8   2    0.85    0.28
   1   8  -2    7.03    0.61
   1   8  -2    7.54    0.71
  -1  -8   2    5.83    0.59
   0   8  -2    4.41    0.60
   0   8  -2    5.64    0.65
   0  -8   2    6.38    0.61
  -1   8  -2   -0.11    0.22
  -1   8  -2    0.01    0.25
   1  -8   2    0.13    0.21
   9   7  -2    0.95    0.27
   8   7  -2    0.10    0.15
   7   7  -2    4.23    0.39
   6   7  -2    1.59    0.30
  -6  -7   2    1.26    0.25
   5   7  -2    0.24    0.17
  -5  -7   2    0.03    0.12
   4   7  -2   15.58    0.63
   4   7  -2   12.90    0.90
  -4  -7   2   15.01    0.89
   3   7  -2    8.32    0.69
   3   7  -2    9.41    0.52
  -3  -7   2    8.52    0.65
   2   7  -2   44.58    1.81
   2   7  -2   47.67    2.16
  -2  -7   2   43.90    2.05
   1   7  -2   20.45    1.04
   1   7  -2   17.19    1.13
  -1  -7   2   19.23    1.10
   0   7  -2    2.78    0.44
   0   7  -2    3.74    0.51
   0  -7   2    3.25    0.44
  -1   7  -2    0.08    0.14
  -1   7  -2    0.38    0.23
  -1   7  -2    0.49    0.24
   1  -7   2    0.53    0.23
  -2   7  -2    0.16    0.26
  -2   7  -2    0.15    0.21
  -2   7  -2    0.24    0.24
   2  -7   2   -0.01    0.17
  -3   7  -2   -0.03    0.22
  -3   7  -2   -0.06    0.27
  10   6  -2    5.84    0.50
  10   6  -2    5.22    0.53
   9   6  -2    1.92    0.27
   9   6  -2    1.81    0.32
   8   6  -2    6.85    0.50
   7   6  -2   11.51    0.63
   6   6  -2    0.15    0.12
   6   6  -2    0.32    0.15
  -6  -6   2    0.26    0.14
   5   6  -2    0.32    0.16
   5   6  -2    0.02    0.08
  -5  -6   2    0.18    0.13
   4   6  -2   -0.02    0.11
   4   6  -2   -0.01    0.07
   4   6  -2    0.02    0.09
  -4  -6   2    0.11    0.11
   3   6  -2   11.17    0.61
   3   6  -2   10.60    0.73
   3   6  -2   10.95    0.53
  -3  -6   2   10.56    0.69
   2   6  -2    6.25    0.43
   2   6  -2    6.52    0.56
  -2  -6   2    6.46    0.52
   1   6  -2  109.95    4.22
   1   6  -2   98.82    3.73
  -1  -6   2  105.32    4.11
   0   6  -2   54.21    2.02
   0   6  -2   43.00    2.14
   0  -6   2   46.81    2.09
  -1   6  -2    0.05    0.16
  -1   6  -2   -0.03    0.13
  -1   6  -2    0.53    0.22
   1  -6   2    0.04    0.13
  -2   6  -2    6.03    0.56
  -2   6  -2    4.41    0.57
   2  -6   2    5.65    0.50
  -3   6  -2    7.33    0.51
  -3   6  -2    9.53    0.81
  -4   6  -2    0.59    0.19
  -4   6  -2   -0.03    0.21
  10   5  -2    0.05    0.18
  10   5  -2    0.21    0.25
   9   5  -2    0.10    0.15
   9   5  -2    0.20    0.20
   8   5  -2    0.37    0.19
   8   5  -2    0.18    0.17
   7   5  -2    3.55    0.31
   7   5  -2    4.27    0.36
   6   5  -2    0.71    0.17
   6   5  -2    0.72    0.13
   6   5  -2    0.73    0.17
  -6  -5   2    0.66    0.14
  -6  -5   2    0.70    0.16
   5   5  -2    0.18    0.10
   5   5  -2    0.30    0.15
   5   5  -2    0.40    0.15
  -5  -5   2    0.22    0.09
  -5  -5   2    0.38    0.13
   4   5  -2    5.21    0.39
   4   5  -2    5.41    0.42
  -4  -5   2    4.80    0.31
  -4  -5   2    5.03    0.39
   3   5  -2    4.65    0.31
   3   5  -2    4.95    0.28
   3   5  -2    4.93    0.29
   3   5  -2    4.77    0.42
   3   5  -2    4.84    0.36
  -3  -5   2    5.13    0.40
  -3  -5   2    5.03    0.33
   2   5  -2   13.35    0.82
   2   5  -2   13.93    0.66
  -2  -5   2   15.88    0.82
  -2  -5   2   14.05    0.65
   1   5  -2   24.25    1.25
   1   5  -2   23.59    1.08
  -1  -5   2   25.69    1.20
  -1  -5   2   25.68    1.00
   0   5  -2   12.96    0.75
   0   5  -2   14.69    0.87
   0  -5   2   15.31    0.83
  -1   5  -2    0.15    0.15
  -1   5  -2    0.08    0.13
  -1   5  -2    0.26    0.16
   1  -5   2    0.08    0.11
  -2   5  -2    2.15    0.34
  -2   5  -2    2.21    0.23
  -2   5  -2    2.10    0.38
   2  -5   2    2.41    0.32
  -3   5  -2    3.12    0.33
  -3   5  -2    2.87    0.49
  -4   5  -2    1.22    0.25
  -4   5  -2    0.07    0.22
  -5   5  -2    0.08    0.25
  -5   5  -2    0.17    0.16
  10   4  -2    0.22    0.26
  10   4  -2    0.21    0.18
   9   4  -2    4.69    0.46
   9   4  -2    4.30    0.54
   8   4  -2    0.99    0.23
   8   4  -2    0.64    0.24
   7   4  -2    1.91    0.27
   7   4  -2    2.26    0.32
   7   4  -2    1.84    0.29
   6   4  -2   14.04    0.70
   6   4  -2   14.07    0.73
   6   4  -2   14.33    0.66
  -6  -4   2   14.43    0.60
   5   4  -2   28.34    1.13
   5   4  -2   29.68    1.22
   5   4  -2   29.59    1.03
   5   4  -2   26.75    1.09
   5   4  -2   27.11    1.06
  -5  -4   2   29.41    1.00
  -5  -4   2   27.19    1.41
  -5  -4   2   30.27    1.20
   4   4  -2   60.33    2.08
   4   4  -2   67.17    2.41
   4   4  -2   61.08    2.06
   4   4  -2   60.35    1.83
   4   4  -2   57.50    2.08
  -4  -4   2   62.76    1.89
  -4  -4   2   59.37    2.36
  -4  -4   2   59.89    2.66
   3   4  -2   20.89    0.84
   3   4  -2   22.48    0.88
   3   4  -2   20.43    0.75
   3   4  -2   22.17    0.82
   3   4  -2   23.69    1.05
  -3  -4   2   21.59    1.17
  -3  -4   2   21.51    0.80
  -3  -4   2   22.81    1.01
   2   4  -2   70.26    2.61
   2   4  -2   65.61    2.25
   2   4  -2   64.24    1.84
   2   4  -2   64.83    2.13
  -2  -4   2   58.63    2.81
  -2  -4   2   67.27    2.55
  -2  -4   2   63.59    2.02
   1   4  -2  276.99    9.48
   1   4  -2  281.73   10.47
  -1  -4   2  290.96   11.28
  -1  -4   2  299.33   10.44
  -1  -4   2  297.04    8.19
   0   4  -2    0.74    0.18
   0   4  -2    0.93    0.21
   0  -4   2    0.83    0.18
  -1   4  -2   31.73    1.53
  -1   4  -2   33.38    1.46
  -1   4  -2   39.11    1.52
   1  -4   2   34.04    1.49
  -2   4  -2    0.41    0.19
  -2   4  -2    0.18    0.13
  -2   4  -2    0.02    0.15
  -2   4  -2    0.41    0.12
   2  -4   2    0.42    0.15
  -3   4  -2    0.13    0.17
  -3   4  -2    0.19    0.12
  -3   4  -2   -0.07    0.13
  -3   4  -2    0.11    0.13
   3  -4   2    0.17    0.12
  -6   4  -2   -0.02    0.24
  -6   4  -2    1.24    0.30
  10   3  -2    0.54    0.23
  10   3  -2    0.42    0.32
   9   3  -2    0.04    0.14
   9   3  -2    0.08    0.23
   8   3  -2    0.10    0.19
   8   3  -2    0.20    0.15
   7   3  -2    7.42    0.58
   7   3  -2    7.72    0.48
  -7  -3   2    7.12    0.41
   6   3  -2    7.63    0.45
   6   3  -2    7.22    0.51
  -6  -3   2    7.17    0.38
   5   3  -2    2.29    0.25
   5   3  -2    2.68    0.26
   5   3  -2    2.96    0.27
  -5  -3   2    2.77    0.28
  -5  -3   2    2.81    0.21
  -5  -3   2    2.87    0.20
   4   3  -2    2.07    0.19
   4   3  -2    2.47    0.20
   4   3  -2    1.80    0.19
   4   3  -2    2.18    0.19
   4   3  -2    2.81    0.22
   4   3  -2    2.49    0.22
  -4  -3   2    2.20    0.18
  -4  -3   2    2.17    0.19
  -4  -3   2    2.33    0.26
   3   3  -2   34.74    1.45
   3   3  -2   34.91    1.24
   3   3  -2   36.29    1.27
   3   3  -2   36.41    1.12
  -3  -3   2   36.07    1.15
  -3  -3   2   36.57    1.43
  -3  -3   2   35.89    1.62
   2   3  -2   31.33    1.07
   2   3  -2   31.63    1.10
   2   3  -2   32.03    1.33
   2   3  -2   32.20    1.14
   2   3  -2   31.51    0.97
  -2  -3   2   30.98    1.47
  -2  -3   2   31.45    1.04
  -2  -3   2   32.02    1.30
   1   3  -2    0.03    0.06
   1   3  -2    0.08    0.08
  -1  -3   2    0.00    0.06
  -1  -3   2    0.01    0.06
  -1  -3   2   -0.01    0.06
   0   3  -2    8.41    0.50
   0   3  -2    6.63    0.42
   0  -3   2    8.03    0.56
   0  -3   2    8.59    0.42
   0  -3   2    8.42    0.47
  -1   3  -2   33.05    1.48
  -1   3  -2   37.83    1.61
  -1   3  -2   39.10    1.60
   1  -3   2   37.46    1.76
   1  -3   2   38.64    2.20
   1  -3   2   40.07    1.56
  -2   3  -2    4.56    0.34
  -2   3  -2    3.26    0.32
  -2   3  -2    3.96    0.38
  -2   3  -2    4.16    0.34
   2  -3   2    4.54    0.41
   2  -3   2    4.31    0.32
   2  -3   2    4.61    0.61
   2  -3   2    4.19    0.41
  -3   3  -2    6.94    0.49
  -3   3  -2    7.06    0.48
  -3   3  -2    7.65    0.49
  -3   3  -2    6.90    0.56
   3  -3   2    6.73    0.43
   3  -3   2    5.77    0.65
   3  -3   2    6.58    0.85
   3  -3   2    7.08    0.57
  -4   3  -2    1.41    0.25
   4  -3   2    1.33    0.42
  -5   3  -2    1.61    0.29
   5  -3   2    1.45    0.46
  -6   3  -2    0.46    0.20
  -6   3  -2   -0.12    0.21
   6  -3   2    0.14    0.27
  -7   3  -2    2.47    0.42
   7  -3   2    3.11    0.68
  10   2  -2    0.02    0.32
  10   2  -2    0.24    0.19
   9   2  -2    1.18    0.39
   9   2  -2    1.35    0.27
   8   2  -2    3.33    0.53
   8   2  -2    2.72    0.34
   7   2  -2    0.71    0.17
   7   2  -2    1.01    0.29
   6   2  -2    5.20    0.45
   6   2  -2    4.84    0.35
  -6  -2   2    4.26    0.30
   5   2  -2    0.00    0.08
   5   2  -2    0.03    0.08
  -5  -2   2    0.13    0.07
  -5  -2   2    0.12    0.05
   4   2  -2    1.70    0.21
   4   2  -2    1.77    0.18
  -4  -2   2    1.55    0.13
  -4  -2   2    1.69    0.18
  -4  -2   2    1.70    0.15
   3   2  -2   92.10    2.59
   3   2  -2   89.67    2.49
   3   2  -2   86.73    3.00
   3   2  -2   87.46    2.75
  -3  -2   2   88.05    3.23
  -3  -2   2   88.43    2.57
   2   2  -2   30.98    0.98
   2   2  -2   31.36    0.93
   2   2  -2   29.84    1.08
   2   2  -2   28.38    1.19
  -2  -2   2   30.10    1.19
  -2  -2   2   31.07    0.96
   1   2  -2   29.98    1.30
   1   2  -2   34.56    1.06
   1   2  -2   32.41    1.18
  -1  -2   2   33.78    1.30
  -1  -2   2   34.14    1.05
   0   2  -2  161.67    6.20
   0   2  -2  149.87    5.23
   0   2  -2  160.12    5.73
   0  -2   2  161.58    6.16
   0  -2   2  159.58    5.70
   0  -2   2  155.82    4.49
  -1   2  -2   86.64    3.05
  -1   2  -2   80.70    3.27
  -1   2  -2   82.91    2.85
   1  -2   2   77.77    3.00
   1  -2   2   77.91    2.44
   1  -2   2   77.44    4.05
   1  -2   2   83.71    3.30
  -2   2  -2   82.64    2.52
  -2   2  -2   79.86    3.33
  -2   2  -2   85.97    3.07
   2  -2   2   80.40    3.44
   2  -2   2   76.71    4.20
   2  -2   2   85.01    2.50
   2  -2   2   79.39    3.02
  -3   2  -2  119.61    3.92
  -3   2  -2  104.96    3.28
  -3   2  -2  107.69    4.00
   3  -2   2  109.51    3.99
   3  -2   2  103.74    3.95
   3  -2   2  104.66    2.94
   3  -2   2  106.71    4.37
  -4   2  -2   13.59    0.67
  -4   2  -2   13.06    0.76
   4  -2   2   12.19    1.02
  -5   2  -2    0.15    0.15
  -5   2  -2    0.19    0.13
  -5   2  -2    0.03    0.19
   5  -2   2    0.16    0.21
  -6   2  -2    2.67    0.37
   6  -2   2    2.50    0.55
  -7   2  -2    3.70    0.45
   7  -2   2    3.89    0.70
  -8   2  -2   -0.03    0.16
   8  -2   2   -0.03    0.22
   9   1  -2    1.98    0.31
   9   1  -2    2.25    0.56
   8   1  -2    0.15    0.24
   8   1  -2    0.17    0.13
   8   1  -2    0.20    0.10
   7   1  -2    0.10    0.09
   7   1  -2    0.04    0.10
   7   1  -2    0.10    0.17
   6   1  -2    4.54    0.35
   6   1  -2    5.13    0.48
   6   1  -2    4.43    0.33
  -6  -1   2    4.28    0.32
   5   1  -2    9.46    0.56
   5   1  -2    9.05    0.46
   5   1  -2    9.42    0.62
  -5  -1   2    9.04    0.44
   4   1  -2   15.46    0.81
   4   1  -2   15.18    0.77
   4   1  -2   16.11    0.83
   4   1  -2   15.17    0.60
  -4  -1   2   16.23    0.64
  -4  -1   2   13.96    0.58
   3   1  -2  353.27    9.49
   3   1  -2  355.32   11.73
   3   1  -2  349.89   16.41
   3   1  -2  386.42   16.42
   3   1  -2  363.92    9.96
   3   1  -2  356.50   11.73
  -3  -1   2  350.08    9.95
  -3  -1   2  360.54   12.69
   2   1  -2   14.11    0.49
   2   1  -2   13.07    0.57
   2   1  -2   14.55    0.49
   2   1  -2   13.14    0.67
  -2  -1   2   13.91    0.56
  -2  -1   2   14.06    0.48
   1   1  -2  298.49    8.19
  -1  -1   2  286.16   10.47
  -1  -1   2  303.84    8.19
   0   1  -2  205.21    7.23
   0   1  -2  202.89    5.67
   0  -1   2  207.54    5.67
   0  -1   2  197.23    7.22
  -1   1  -2    1.84    0.15
   1  -1   2    2.17    0.15
   1  -1   2    2.30    0.16
   1  -1   2    2.53    0.30
  -2   1  -2   22.13    0.79
   2  -1   2   24.48    1.42
   2  -1   2   21.58    1.07
   2  -1   2   21.04    0.87
  -3   1  -2    3.80    0.27
  -3   1  -2    3.63    0.24
   3  -1   2    3.93    0.39
   3  -1   2    5.35    0.62
   3  -1   2    3.66    0.29
   3  -1   2    3.85    0.23
  -4   1  -2    7.30    0.42
  -4   1  -2    7.97    0.38
   4  -1   2    6.94    0.67
   4  -1   2    7.37    0.36
   4  -1   2    7.83    0.49
   4  -1   2    8.81    0.65
   4  -1   2    7.15    0.35
  -5   1  -2   10.09    0.54
   5  -1   2    8.35    0.81
   5  -1   2    9.03    0.44
   5  -1   2   11.09    0.80
  -6   1  -2    3.95    0.40
   6  -1   2    4.54    0.61
   6  -1   2    4.04    0.55
   7  -1   2    2.11    0.50
   8  -1   2    1.15    0.42
   9   0  -2    7.57    0.63
   9   0  -2    9.12    0.95
   8   0  -2    2.36    0.38
   8   0  -2    2.67    0.57
   8   0  -2    2.38    0.30
   7   0  -2   10.05    0.84
   7   0  -2    9.30    0.73
   7   0  -2    9.00    0.52
   6   0  -2    1.10    0.32
   6   0  -2    0.68    0.15
   6   0  -2    0.50    0.19
  -6   0   2    0.57    0.15
   5   0  -2   16.48    0.94
   5   0  -2   15.60    0.99
   5   0  -2   15.88    0.65
  -5   0   2   16.30    0.70
   4   0  -2   64.18    3.14
   4   0  -2   60.79    2.42
   4   0  -2   63.11    1.87
  -4   0   2   62.85    1.97
  -4   0   2   63.46    3.26
  -4   0   2   67.91    2.40
  -4   0   2   62.36    2.51
   3   0  -2    3.37    0.30
   3   0  -2    3.30    0.20
   3   0  -2    3.77    0.31
   3   0  -2    3.33    0.21
  -3   0   2    3.15    0.21
  -3   0   2    3.29    0.22
  -3   0   2    3.46    0.21
  -3   0   2    4.03    0.37
   2   0  -2   15.03    0.51
   2   0  -2   13.67    0.79
   2   0  -2   15.28    0.51
  -2   0   2   14.55    0.51
  -2   0   2   14.70    0.64
   1   0  -2   51.57    1.47
   1   0  -2   51.78    2.40
  -1   0   2   51.52    1.47
  -1   0   2   48.93    1.85
   0   0  -2    8.14    0.28
   0   0  -2    8.33    0.45
   0   0   2    9.31    0.52
   0   0   2    7.52    0.34
   0   0   2    8.31    0.28
   1   0   2  181.73    4.91
   1   0   2  171.22    6.31
  -2   0  -2  102.43    2.94
   2   0   2  103.88    4.18
   2   0   2   98.56    3.68
   2   0   2  108.65    2.95
  -3   0  -2    1.49    0.14
   3   0   2    1.36    0.12
   3   0   2    1.23    0.23
   3   0   2    1.71    0.24
   3   0   2    1.91    0.40
   3   0   2    1.37    0.09
  -4   0  -2    0.76    0.13
   4   0   2    0.95    0.24
   4   0   2    0.81    0.07
   4   0   2    0.65    0.10
   4   0   2    0.59    0.10
   4   0   2    0.90    0.25
   4   0   2    0.81    0.13
  -5   0  -2   25.01    0.93
   5   0   2   24.55    1.26
   5   0   2   23.12    1.49
   5   0   2   25.21    0.88
   6   0   2    0.29    0.12
   6   0   2    0.02    0.15
   6   0   2    0.12    0.15
   7   0   2  116.43    5.82
   7   0   2  114.13    4.51
   7   0   2  116.61    3.38
   8   0   2    0.22    0.30
   8   0   2    0.08    0.16
   9   0   2    3.30    0.49
   8  -1  -2    0.28    0.22
   8  -1  -2    0.34    0.34
   7  -1  -2    0.63    0.28
   7  -1  -2    0.42    0.29
   7  -1  -2    0.46    0.15
   6  -1  -2    0.70    0.27
   6  -1  -2    0.72    0.28
   6  -1  -2    0.96    0.17
   5  -1  -2    0.07    0.14
   5  -1  -2    0.15    0.08
   5  -1  -2    0.08    0.13
  -5   1   2    0.08    0.09
  -5   1   2    0.14    0.11
   4  -1  -2   37.11    1.46
   4  -1  -2   34.99    1.59
   4  -1  -2   34.45    1.97
   4  -1  -2   35.69    1.13
  -4   1   2   37.88    1.48
  -4   1   2   34.88    1.25
  -4   1   2   36.19    1.64
  -4   1   2   34.20    1.52
   3  -1  -2   55.92    1.61
   3  -1  -2   56.59    2.21
   3  -1  -2   53.83    2.81
   3  -1  -2   56.91    2.15
  -3   1   2   54.31    2.27
  -3   1   2   54.88    2.36
  -3   1   2   52.26    1.74
  -3   1   2   59.82    2.15
   2  -1  -2   56.51    1.72
   2  -1  -2   55.72    2.84
   2  -1  -2   61.67    2.30
   2  -1  -2   58.24    1.63
  -2   1   2   57.67    2.39
  -2   1   2   55.27    1.74
  -2   1   2   56.16    2.32
  -2   1   2   59.24    2.19
   1  -1  -2  331.71    9.03
   1  -1  -2  337.66   14.99
  -1   1   2  339.22   12.41
  -1   1   2  327.12    9.05
  -1   1   2  298.44   11.59
   0  -1  -2  161.45    4.59
   0  -1  -2  165.25    7.62
   0  -1  -2  162.53    6.31
   0   1   2  167.58    4.60
   0   1   2  170.24    6.33
  -1  -1  -2  177.75    6.79
  -1  -1  -2  169.90    5.07
   1   1   2  178.80    6.36
   1   1   2  184.45    6.81
   1   1   2  180.54    5.10
   2   1   2   22.64    0.97
   2   1   2   24.90    1.29
   2   1   2   22.41    0.89
  -3  -1  -2   32.01    0.96
   3   1   2   31.74    1.17
   3   1   2   30.56    1.27
   3   1   2   32.06    1.28
   3   1   2   31.28    1.63
   3   1   2   31.70    0.93
  -4  -1  -2   11.24    0.43
   4   1   2   10.46    0.71
   4   1   2   11.41    0.39
   4   1   2   11.26    0.65
   4   1   2   10.53    0.46
   4   1   2   10.74    0.49
  -5  -1  -2    2.31    0.19
   5   1   2    2.43    0.23
   5   1   2    2.31    0.29
   5   1   2    2.55    0.36
   5   1   2    2.16    0.15
   6   1   2    1.08    0.30
   6   1   2    0.73    0.23
   6   1   2    0.61    0.15
   7   1   2   10.67    0.55
   7   1   2    9.40    0.78
   7   1   2    9.13    0.74
   8   1   2    2.19    0.37
   8   1   2    2.20    0.29
   8   1   2    2.08    0.49
   9   1   2    0.34    0.31
   9   1   2    0.24    0.17
   9   1   2    0.40    0.18
   8  -2  -2    4.06    0.67
   7  -2  -2    3.42    0.60
   6  -2  -2   16.48    1.26
  -6   2   2   16.76    1.03
   5  -2  -2    0.75    0.14
   5  -2  -2    0.91    0.30
   5  -2  -2    0.96    0.31
  -5   2   2    0.11    0.21
  -5   2   2    0.58    0.19
   4  -2  -2    6.71    0.65
   4  -2  -2    6.33    0.57
   4  -2  -2    7.45    0.35
  -4   2   2    6.49    0.46
  -4   2   2    6.59    0.44
  -4   2   2    7.32    0.52
   3  -2  -2   17.73    1.17
   3  -2  -2   19.53    0.91
   3  -2  -2   17.39    0.96
   3  -2  -2   18.87    0.63
  -3   2   2   19.03    0.94
  -3   2   2   18.13    0.89
  -3   2   2   17.26    0.91
  -3   2   2   17.77    0.76
  -3   2   2   17.74    0.93
   2  -2  -2   30.13    1.00
   2  -2  -2   28.62    1.29
   2  -2  -2   29.41    1.63
   2  -2  -2   29.48    0.88
  -2   2   2   28.21    1.33
  -2   2   2   28.03    1.25
  -2   2   2   28.45    1.31
  -2   2   2   29.13    1.03
   1  -2  -2   55.39    2.85
   1  -2  -2   50.04    2.34
   1  -2  -2   58.07    1.74
  -1   2   2   58.45    2.39
  -1   2   2   60.64    2.25
  -1   2   2   57.10    1.76
  -1   2   2   63.06    2.41
   0  -2  -2    0.11    0.07
   0  -2  -2    0.16    0.05
   0  -2  -2    0.18    0.08
   0   2   2    0.15    0.07
   0   2   2    0.20    0.06
   0   2   2    0.11    0.07
   0   2   2    0.18    0.07
   0   2   2    0.23    0.06
  -1  -2  -2   27.03    1.22
  -1  -2  -2   28.86    0.86
   1   2   2   28.53    1.24
   1   2   2   26.92    0.86
   1   2   2   26.44    1.14
   1   2   2   27.82    1.36
   1   2   2   31.84    1.41
   1   2   2   27.00    0.98
  -2  -2  -2  205.47    8.02
  -2  -2  -2  205.57    5.83
  -2  -2  -2  208.78    5.83
   2   2   2  222.22    7.52
   2   2   2  204.26    8.04
   2   2   2  211.95    6.34
  -3  -2  -2  165.65    6.53
  -3  -2  -2  164.95    4.73
   3   2   2  172.82    6.14
   3   2   2  178.34    6.58
   3   2   2  172.23    5.22
   3   2   2  171.10    5.68
  -4  -2  -2   95.63    2.80
   4   2   2  105.89    3.89
   4   2   2   97.90    2.80
   4   2   2  101.77    3.59
   4   2   2   98.81    2.79
   4   2   2   96.62    4.60
   4   2   2   97.66    4.58
   4   2   2  100.33    3.48
  -5  -2  -2    0.02    0.05
   5   2   2   -0.04    0.06
   5   2   2    0.02    0.04
   5   2   2    0.02    0.04
   5   2   2   -0.03    0.09
   5   2   2    0.07    0.06
   5   2   2    0.02    0.05
   6   2   2   66.28    3.28
   6   2   2   68.93    2.11
   6   2   2   72.00    2.71
   7   2   2  155.97    7.28
   7   2   2  156.10    4.45
   7   2   2  157.74    5.64
   8   2   2    0.15    0.09
   8   2   2    0.18    0.23
   8   2   2    0.14    0.12
   9   2   2   14.42    1.07
   9   2   2   12.49    0.71
  10   2   2    0.12    0.33
  10   2   2    0.48    0.21
   7  -3  -2    0.67    0.37
  -7   3   2    0.56    0.24
   6  -3  -2    0.48    0.30
  -6   3   2    0.50    0.21
   5  -3  -2    0.31    0.24
  -5   3   2    0.46    0.18
  -5   3   2    0.03    0.20
   4  -3  -2    3.60    0.50
  -4   3   2    3.68    0.37
   3  -3  -2   14.13    0.82
   3  -3  -2   14.85    1.07
  -3   3   2   14.30    0.80
  -3   3   2   13.54    0.69
  -3   3   2   13.53    0.80
  -3   3   2   14.29    0.84
   2  -3  -2    0.40    0.16
   2  -3  -2    0.24    0.16
  -2   3   2    0.00    0.11
  -2   3   2    0.31    0.15
  -2   3   2    0.34    0.15
  -2   3   2    0.14    0.09
  -2   3   2    0.36    0.14
   1  -3  -2    5.39    0.43
   1  -3  -2    5.20    0.47
  -1   3   2    5.14    0.37
  -1   3   2    4.96    0.40
  -1   3   2    5.17    0.35
  -1   3   2    4.16    0.39
  -1   3   2    4.93    0.32
   0  -3  -2   16.54    0.90
   0  -3  -2   17.41    1.00
   0  -3  -2   17.01    0.65
   0   3   2   17.89    0.67
   0   3   2   17.61    0.75
   0   3   2   16.41    0.84
   0   3   2   17.19    0.71
   0   3   2   16.42    0.76
   0   3   2   15.11    0.89
  -1  -3  -2    0.37    0.08
  -1  -3  -2    0.21    0.10
   1   3   2    0.25    0.08
   1   3   2    0.13    0.06
   1   3   2    0.26    0.09
   1   3   2    0.23    0.10
   1   3   2    0.23    0.07
   1   3   2    0.16    0.09
  -2  -3  -2    0.45    0.13
  -2  -3  -2    0.57    0.09
   2   3   2    0.42    0.13
   2   3   2    0.46    0.08
   2   3   2    0.44    0.13
   2   3   2    0.32    0.11
  -3  -3  -2   45.39    1.95
  -3  -3  -2   47.28    1.34
   3   3   2   45.05    1.61
   3   3   2   47.52    1.84
   3   3   2   45.91    1.62
   3   3   2   45.25    1.98
  -4  -3  -2   48.73    2.01
  -4  -3  -2   47.79    1.40
   4   3   2   47.75    1.42
   4   3   2   49.77    2.05
   4   3   2   47.05    1.48
   4   3   2   47.44    1.88
   4   3   2   48.35    1.77
   4   3   2   49.65    1.71
  -5  -3  -2    3.38    0.22
  -5  -3  -2    3.67    0.25
  -5  -3  -2    3.50    0.18
   5   3   2    3.76    0.19
   5   3   2    3.50    0.31
   5   3   2    3.70    0.29
   5   3   2    3.21    0.30
   5   3   2    3.91    0.28
   5   3   2    3.19    0.23
   6   3   2   18.52    0.77
   6   3   2   18.15    0.93
   7   3   2    0.37    0.19
   7   3   2    0.27    0.14
   8   3   2    0.98    0.30
   8   3   2    1.17    0.24
   9   3   2    0.67    0.20
   9   3   2    0.82    0.34
  10   3   2    2.98    0.59
  10   3   2    2.15    0.35
   6  -4  -2    9.13    1.00
  -6   4   2   10.11    0.79
   5  -4  -2    0.22    0.27
  -5   4   2    0.33    0.18
  -5   4   2   -0.04    0.19
   4  -4  -2    0.29    0.24
  -4   4   2    0.15    0.12
  -4   4   2   -0.01    0.15
   3  -4  -2    0.16    0.18
  -3   4   2    0.03    0.15
  -3   4   2    0.23    0.13
  -3   4   2    0.21    0.17
  -3   4   2    0.23    0.18
  -3   4   2    0.24    0.17
   2  -4  -2    0.09    0.14
   2  -4  -2    0.05    0.13
  -2   4   2    0.12    0.08
  -2   4   2    0.13    0.15
  -2   4   2    0.10    0.11
  -2   4   2    0.27    0.16
  -2   4   2   -0.03    0.13
  -2   4   2    0.10    0.13
   1  -4  -2   50.28    2.62
   1  -4  -2   50.73    2.25
  -1   4   2   49.51    2.24
  -1   4   2   47.20    2.08
  -1   4   2   45.46    2.07
  -1   4   2   48.76    1.68
   0  -4  -2   88.12    4.15
   0  -4  -2   84.51    3.56
   0   4   2   79.89    2.96
   0   4   2   83.95    3.36
   0   4   2   84.77    2.61
   0   4   2   78.75    3.30
   0   4   2   88.09    3.58
  -1  -4  -2  140.27    4.02
  -1  -4  -2  128.30    5.53
   1   4   2  144.26    5.21
   1   4   2  124.76    5.53
   1   4   2  156.47    4.64
   1   4   2  134.57    4.04
   1   4   2  134.86    4.34
  -2  -4  -2  145.67    5.83
  -2  -4  -2  144.45    4.19
   2   4   2  147.53    4.81
   2   4   2  138.97    5.82
   2   4   2  152.91    5.46
   2   4   2  143.65    4.59
  -3  -4  -2    9.34    0.62
  -3  -4  -2    9.93    0.39
  -3  -4  -2    9.64    0.42
   3   4   2    9.17    0.41
   3   4   2    9.32    0.53
   3   4   2    9.05    0.57
   3   4   2    9.81    0.64
  -4  -4  -2    7.97    0.54
  -4  -4  -2    7.62    0.31
   4   4   2    7.64    0.36
   4   4   2    7.99    0.55
   4   4   2    7.84    0.39
   4   4   2    6.85    0.46
   4   4   2    7.87    0.38
   4   4   2    8.14    0.50
  -5  -4  -2    6.78    0.28
  -5  -4  -2    6.79    0.45
   5   4   2    6.37    0.38
   5   4   2    6.59    0.39
   5   4   2    7.15    0.48
   5   4   2    6.25    0.35
   5   4   2    5.98    0.41
   5   4   2    6.45    0.47
   6   4   2   75.68    2.27
   6   4   2   71.62    2.58
   6   4   2   74.28    2.68
   7   4   2    1.45    0.29
   7   4   2    0.81    0.22
   7   4   2    0.90    0.21
   8   4   2    0.30    0.19
   8   4   2   -0.03    0.12
   8   4   2    0.23    0.18
   9   4   2    3.66    0.41
   9   4   2    3.39    0.51
   9   4   2    3.87    0.49
  10   4   2    0.28    0.20
  10   4   2    0.28    0.29
  10   4   2    0.11    0.23
  -6   5   2   -0.03    0.24
  -6   5   2   -0.02    0.16
  -5   5   2    3.73    0.46
  -4   5   2    2.12    0.33
  -3   5   2   -0.02    0.10
  -3   5   2    0.01    0.16
  -3   5   2    0.00    0.16
  -3   5   2   -0.01    0.17
  -2   5   2    0.54    0.16
  -2   5   2    0.07    0.15
  -2   5   2    0.13    0.15
  -2   5   2    0.32    0.20
  -1   5   2    0.85    0.14
  -1   5   2    0.88    0.22
  -1   5   2    0.67    0.20
  -1   5   2    1.15    0.28
   0   5   2    8.15    0.64
   0   5   2    9.86    0.56
   0   5   2   10.04    0.75
   1   5   2    9.51    0.52
   1   5   2    7.98    0.49
   1   5   2    8.84    0.68
   1   5   2    8.77    0.64
   1   5   2    9.35    0.54
  -2  -5  -2    0.01    0.11
   2   5   2    0.04    0.07
   2   5   2    0.00    0.09
   2   5   2   -0.02    0.08
   2   5   2    0.03    0.12
   2   5   2    0.10    0.06
  -3  -5  -2    3.98    0.43
  -3  -5  -2    4.19    0.26
  -3  -5  -2    4.16    0.29
   3   5   2    4.29    0.25
   3   5   2    3.34    0.37
   3   5   2    4.21    0.36
   3   5   2    4.04    0.43
   3   5   2    4.11    0.24
   3   5   2    4.04    0.24
  -4  -5  -2   18.34    0.74
  -4  -5  -2   18.60    1.09
  -4  -5  -2   19.27    0.69
   4   5   2   22.56    1.15
   4   5   2   20.31    0.73
   4   5   2   19.02    0.72
   4   5   2   19.37    0.73
   4   5   2   19.98    1.03
   4   5   2   18.94    0.92
  -5  -5  -2   39.51    1.24
  -5  -5  -2   41.09    1.88
   5   5   2   41.67    1.74
   5   5   2   38.21    1.31
   5   5   2   40.21    1.88
   5   5   2   38.60    1.41
   5   5   2   38.61    1.58
   5   5   2   41.31    1.40
   6   5   2    0.99    0.19
   6   5   2    0.81    0.16
   6   5   2    0.95    0.24
   7   5   2    3.54    0.43
   7   5   2    2.72    0.29
   7   5   2    2.69    0.31
   8   5   2    0.68    0.26
   8   5   2    0.39    0.16
   8   5   2    0.47    0.20
   9   5   2    6.56    0.51
   9   5   2    7.26    0.63
   9   5   2    7.46    0.61
  10   5   2    5.40    0.62
  10   5   2    6.02    0.51
  10   5   2    5.44    0.63
  -5   6   2    0.00    0.16
  -5   6   2    0.16    0.29
  -4   6   2   -0.03    0.21
  -4   6   2   -0.04    0.13
  -3   6   2    0.40    0.17
  -3   6   2   -0.02    0.19
  -3   6   2    0.30    0.24
  -2   6   2    2.69    0.45
  -2   6   2    2.00    0.38
  -2   6   2    2.19    0.26
  -1   6   2    1.99    0.39
  -1   6   2    2.28    0.36
   0   6   2   -0.05    0.10
   1   6   2    0.32    0.19
   1   6   2    0.22    0.14
   2   6   2   25.84    1.14
   2   6   2   26.16    1.38
  -3  -6  -2   16.03    0.68
   3   6   2   16.67    0.58
   3   6   2   16.12    0.84
   3   6   2   13.74    0.92
  -4  -6  -2   39.15    1.30
   4   6   2   37.77    1.80
   4   6   2   39.48    1.36
   4   6   2   39.47    1.59
   4   6   2   38.25    1.24
  -5  -6  -2    2.25    0.19
  -5  -6  -2    2.30    0.31
   5   6   2    2.23    0.33
   5   6   2    2.21    0.33
   5   6   2    1.74    0.21
  -6  -6  -2    2.61    0.29
   6   6   2    2.55    0.28
   6   6   2    2.66    0.39
   6   6   2    3.06    0.36
   7   6   2   27.48    1.32
   7   6   2   27.13    1.08
   7   6   2   28.07    1.07
   8   6   2    0.19    0.20
   8   6   2    0.40    0.16
   8   6   2    0.42    0.17
   9   6   2    0.29    0.24
   9   6   2    0.51    0.21
   9   6   2    0.41    0.18
  10   6   2    2.16    0.47
  10   6   2    1.93    0.36
  10   6   2    1.45    0.31
  -4   7   2    0.23    0.17
  -4   7   2    0.06    0.27
  -3   7   2    1.36    0.43
  -3   7   2    0.74    0.18
  -3   7   2   -0.06    0.23
   2  -7  -2    0.15    0.19
  -2   7   2   -0.02    0.22
  -2   7   2   -0.09    0.21
  -2   7   2    0.13    0.22
  -1   7   2    4.75    0.60
  -1   7   2    4.86    0.51
   0   7   2    0.04    0.10
   0   7   2    0.09    0.16
   0   7   2    0.19    0.21
   1   7   2    0.32    0.16
   1   7   2    0.21    0.18
   2   7   2   -0.01    0.12
   2   7   2    0.07    0.14
   2   7   2    0.06    0.10
  -3  -7  -2    2.18    0.26
   3   7   2    1.24    0.32
   3   7   2    2.13    0.22
   3   7   2    2.01    0.33
  -4  -7  -2   28.63    1.06
   4   7   2   27.24    1.47
   4   7   2   27.46    1.29
  -5  -7  -2    3.17    0.40
   5   7   2    2.93    0.40
   5   7   2    2.89    0.42
   5   7   2    2.81    0.26
  -6  -7  -2    3.75    0.39
   6   7   2    4.10    0.49
   6   7   2    3.16    0.42
   6   7   2    4.00    0.32
   7   7   2    1.80    0.36
   7   7   2    1.81    0.27
   8   7   2    0.11    0.21
   8   7   2    0.13    0.15
   9   7   2    1.51    0.30
   9   7   2    1.30    0.37
  10   7   2    0.00    0.16
  10   7   2    0.16    0.17
  10   7   2    0.02    0.25
   2  -8  -2    0.18    0.22
  -2   8   2    0.14    0.32
  -2   8   2   -0.02    0.20
  -2   8   2    0.18    0.29
   1  -8  -2    1.12    0.33
  -1   8   2    1.01    0.38
  -1   8   2    0.46    0.28
  -1   8   2    0.07    0.16
   0  -8  -2    0.00    0.16
   0   8   2   -0.06    0.18
   0   8   2    0.06    0.22
  -1  -8  -2    6.64    0.63
   1   8   2    6.83    0.70
   1   8   2    6.75    0.55
  -2  -8  -2   18.98    1.17
   2   8   2   20.27    0.99
  -3  -8  -2    4.79    0.51
   3   8   2    3.47    0.53
   3   8   2    5.07    0.38
   3   8   2    4.76    0.51
  -4  -8  -2    1.28    0.32
   4   8   2    1.18    0.33
   4   8   2    1.07    0.29
   4   8   2    1.20    0.18
  -5  -8  -2    5.35    0.53
   5   8   2    5.58    0.58
   5   8   2    4.91    0.55
  -6  -8  -2    0.09    0.15
   6   8   2   -0.08    0.15
   6   8   2   -0.01    0.18
   7   8   2    3.94    0.53
   7   8   2    2.90    0.33
   8   8   2    2.03    0.31
   8   8   2    1.83    0.40
   9   8   2    0.94    0.26
   9   8   2    0.80    0.34
  -1   9   2   -0.17    0.27
   0  -9  -2    2.83    0.50
   0   9   2    2.53    0.51
   0   9   2    2.65    0.56
  -1  -9  -2    1.03    0.35
   1   9   2    0.71    0.29
   1   9   2    1.13    0.41
  -2  -9  -2    1.25    0.36
   2   9   2    1.50    0.43
   2   9   2    0.99    0.29
  -3  -9  -2    0.03    0.16
   3   9   2    0.11    0.22
   3   9   2   -0.08    0.15
  -4  -9  -2    9.93    0.83
   4   9   2   11.60    0.94
   4   9   2   10.78    0.79
   4   9   2   12.22    0.61
  -5  -9  -2   12.57    0.92
   5   9   2   12.65    0.98
   5   9   2   13.53    0.90
  -6  -9  -2    9.22    0.73
   6   9   2    7.85    0.70
   6   9   2    7.56    0.73
   7   9   2    3.86    0.56
   8   9   2    0.95    0.35
   9   9   2    1.52    0.44
   2  10   2    3.91    0.51
  -3 -10  -2    1.17    0.36
   3  10   2    0.67    0.25
  -4 -10  -2    0.81    0.31
   4  10   2    0.88    0.21
   4  10   2    0.77    0.36
  -5 -10  -2    3.38    0.53
   5  10   2    2.75    0.54
   5  10   2    2.31    0.44
  -6 -10  -2    1.76    0.41
   6  10   2    1.81    0.42
   6  10   2    1.14    0.39
   7  10   2    0.15    0.25
   6   9  -3    0.36    0.27
  -6  -9   3    0.50    0.25
   5   9  -3    1.79    0.41
  -5  -9   3    1.37    0.34
   4   9  -3    0.92    0.20
  -4  -9   3    1.00    0.31
   3   9  -3    1.23    0.29
   2   9  -3    1.21    0.32
   6   8  -3    1.91    0.38
  -6  -8   3    1.45    0.30
   5   8  -3    3.30    0.47
  -5  -8   3    2.68    0.40
   4   8  -3    0.15    0.21
   4   8  -3    0.26    0.13
  -4  -8   3    0.25    0.18
   3   8  -3    1.50    0.27
   3   8  -3    1.14    0.34
  -3  -8   3    1.43    0.33
   2   8  -3   25.71    1.44
   2   8  -3   22.33    1.18
  -2  -8   3   24.87    1.35
   1   8  -3   25.94    1.48
   1   8  -3   26.54    1.33
  -1  -8   3   22.93    1.34
   0   8  -3    4.15    0.58
   0   8  -3    4.01    0.58
   0  -8   3    4.16    0.53
  -1   8  -3    1.35    0.43
   9   7  -3    1.08    0.28
   8   7  -3    0.68    0.24
   7   7  -3    2.84    0.35
   6   7  -3   -0.01    0.14
  -6  -7   3    0.10    0.14
   5   7  -3    0.08    0.16
  -5  -7   3    0.00    0.11
   4   7  -3    0.12    0.10
   4   7  -3    0.02    0.14
  -4  -7   3   -0.01    0.13
   3   7  -3    1.45    0.33
   3   7  -3    1.67    0.24
  -3  -7   3    1.17    0.27
   2   7  -3    0.13    0.20
   2   7  -3    0.19    0.16
  -2  -7   3    0.35    0.19
   1   7  -3    5.14    0.48
   1   7  -3    3.66    0.51
  -1  -7   3    4.08    0.46
   0   7  -3   14.63    1.00
   0   7  -3   16.06    0.98
   0  -7   3   14.57    0.93
  -1   7  -3    1.07    0.32
  -1   7  -3    0.81    0.33
   1  -7   3    0.94    0.27
  -2   7  -3   -0.02    0.25
  -2   7  -3    0.05    0.23
  -2   7  -3    0.16    0.20
   2  -7   3    0.19    0.19
  -3   7  -3   -0.05    0.21
   9   6  -3    0.46    0.21
   9   6  -3    0.32    0.18
   8   6  -3    0.73    0.22
   7   6  -3    1.04    0.23
   6   6  -3    2.02    0.27
   6   6  -3    2.42    0.32
  -6  -6   3    2.56    0.31
   5   6  -3    0.08    0.12
   5   6  -3   -0.02    0.08
  -5  -6   3    0.15    0.11
   4   6  -3    0.25    0.10
   4   6  -3    0.22    0.15
  -4  -6   3    0.14    0.13
   3   6  -3    0.31    0.12
   3   6  -3    0.21    0.16
  -3  -6   3    0.30    0.15
   2   6  -3   31.99    1.35
   2   6  -3   33.13    1.60
  -2  -6   3   33.33    1.54
   1   6  -3   12.52    0.85
   1   6  -3   13.01    0.76
  -1  -6   3   13.67    0.82
   0   6  -3    0.46    0.22
   0   6  -3    0.45    0.21
   0  -6   3    0.42    0.20
  -1   6  -3    1.39    0.31
  -1   6  -3    1.32    0.35
   1  -6   3    1.96    0.32
  -2   6  -3    0.49    0.28
  -2   6  -3    0.11    0.19
  -2   6  -3    0.52    0.25
   2  -6   3    0.67    0.22
  -3   6  -3    1.06    0.18
  -3   6  -3   -0.06    0.20
  -3   6  -3    0.60    0.33
  -4   6  -3    0.10    0.14
  -4   6  -3    0.11    0.24
  10   5  -3    3.32    0.49
   9   5  -3    4.24    0.48
   9   5  -3    5.27    0.50
   8   5  -3    2.52    0.34
   8   5  -3    1.72    0.30
   7   5  -3    0.82    0.19
   7   5  -3    0.70    0.19
   6   5  -3    0.35    0.14
   6   5  -3    0.24    0.12
  -6  -5   3    0.26    0.12
   5   5  -3    0.23    0.12
   5   5  -3    0.23    0.13
   5   5  -3    0.19    0.08
  -5  -5   3    0.13    0.10
   4   5  -3   51.42    1.80
   4   5  -3   53.17    2.14
  -4  -5   3   49.55    2.08
  -4  -5   3   49.44    1.67
   3   5  -3    2.91    0.32
   3   5  -3    2.36    0.22
  -3  -5   3    2.70    0.26
  -3  -5   3    2.84    0.29
   2   5  -3   12.69    0.75
   2   5  -3   11.51    0.60
  -2  -5   3   11.31    0.58
  -2  -5   3   11.95    0.70
   1   5  -3    0.26    0.13
   1   5  -3    0.25    0.15
  -1  -5   3    0.23    0.14
  -1  -5   3    0.16    0.11
   0   5  -3   55.44    2.37
   0   5  -3   56.65    2.21
   0  -5   3   54.61    2.30
  -1   5  -3    0.02    0.15
  -1   5  -3    0.08    0.13
  -1   5  -3    0.03    0.14
   1  -5   3    0.08    0.12
  -2   5  -3    5.29    0.54
  -2   5  -3    5.02    0.36
  -2   5  -3    5.03    0.48
   2  -5   3    5.32    0.44
  -3   5  -3    1.42    0.23
  -3   5  -3    1.11    0.34
  -4   5  -3    0.19    0.15
  -4   5  -3    0.00    0.22
  -5   5  -3    0.06    0.27
  -5   5  -3    0.19    0.17
  10   4  -3    0.07    0.28
   9   4  -3    1.40    0.28
   9   4  -3    1.29    0.36
   8   4  -3    0.27    0.19
   8   4  -3    0.17    0.16
   7   4  -3    6.92    0.52
   7   4  -3    6.82    0.47
   6   4  -3    3.90    0.33
   6   4  -3    4.13    0.35
   5   4  -3    0.28    0.11
   5   4  -3    0.22    0.11
   5   4  -3    0.19    0.11
  -5  -4   3    0.35    0.16
  -5  -4   3    0.23    0.10
  -5  -4   3    0.43    0.11
   4   4  -3   14.72    0.61
   4   4  -3   13.89    0.64
   4   4  -3   14.16    0.63
   4   4  -3   13.85    0.73
  -4  -4   3   14.74    0.61
  -4  -4   3   15.04    0.72
  -4  -4   3   13.64    0.87
   3   4  -3    0.21    0.08
   3   4  -3    0.15    0.10
   3   4  -3    0.20    0.10
   3   4  -3    0.22    0.11
   3   4  -3    0.13    0.07
  -3  -4   3    0.35    0.16
  -3  -4   3    0.06    0.07
  -3  -4   3    0.10    0.08
   2   4  -3    0.09    0.08
   2   4  -3    0.01    0.08
  -2  -4   3    0.02    0.07
  -2  -4   3    0.04    0.07
   1   4  -3    1.11    0.22
   1   4  -3    1.01    0.19
  -1  -4   3    0.86    0.17
  -1  -4   3    1.01    0.19
   0   4  -3    7.71    0.52
   0   4  -3    6.86    0.48
   0  -4   3    6.19    0.40
   0  -4   3    7.02    0.47
  -1   4  -3    4.11    0.39
  -1   4  -3    4.41    0.28
  -1   4  -3    5.15    0.44
   1  -4   3    4.66    0.37
  -2   4  -3    3.88    0.46
  -2   4  -3    4.61    0.41
  -2   4  -3    4.47    0.34
   2  -4   3    4.03    0.35
  -3   4  -3    0.10    0.13
  -3   4  -3    0.07    0.10
  -3   4  -3    0.03    0.16
  -3   4  -3    0.05    0.21
   3  -4   3    0.06    0.09
  -4   4  -3    1.37    0.26
  10   3  -3    0.24    0.20
  10   3  -3   -0.02    0.31
   9   3  -3    0.82    0.24
   9   3  -3    0.97    0.36
   8   3  -3    0.13    0.14
   8   3  -3    0.16    0.20
   7   3  -3    2.37    0.29
   7   3  -3    2.47    0.37
   6   3  -3    0.92    0.23
   6   3  -3    0.94    0.19
  -6  -3   3    0.84    0.15
   5   3  -3    0.60    0.17
   5   3  -3    0.60    0.16
   5   3  -3    0.44    0.13
   5   3  -3    0.70    0.15
  -5  -3   3    0.77    0.19
  -5  -3   3    0.48    0.11
  -5  -3   3    0.57    0.11
   4   3  -3  140.78    3.86
   4   3  -3  138.88    4.27
   4   3  -3  137.94    4.63
   4   3  -3  140.68    4.65
  -4  -3   3  137.25    3.98
  -4  -3   3  140.94    5.02
  -4  -3   3  129.17    5.47
   3   3  -3    0.18    0.08
   3   3  -3    0.32    0.10
   3   3  -3    0.32    0.10
   3   3  -3    0.18    0.08
  -3  -3   3    0.18    0.07
  -3  -3   3    0.21    0.08
  -3  -3   3    0.27    0.12
   2   3  -3   69.09    2.70
   2   3  -3   70.88    2.44
  -2  -3   3   72.50    2.68
  -2  -3   3   70.11    2.14
  -2  -3   3   70.33    2.97
   1   3  -3    2.75    0.24
   1   3  -3    2.79    0.26
  -1  -3   3    2.88    0.22
  -1  -3   3    2.88    0.31
  -1  -3   3    2.99    0.25
   0   3  -3    3.05    0.28
   0   3  -3    2.85    0.28
   0  -3   3    2.82    0.32
   0  -3   3    2.90    0.26
   0  -3   3    2.50    0.22
  -1   3  -3    0.49    0.15
  -1   3  -3    0.61    0.18
  -1   3  -3    0.46    0.10
   1  -3   3    0.50    0.17
   1  -3   3    0.40    0.23
   1  -3   3    0.46    0.13
  -2   3  -3    0.00    0.06
  -2   3  -3    0.07    0.15
  -2   3  -3    0.02    0.08
  -2   3  -3   -0.01    0.12
   2  -3   3   -0.03    0.14
   2  -3   3    0.04    0.10
   2  -3   3    0.14    0.09
  -3   3  -3   11.85    0.72
  -3   3  -3    8.22    0.54
  -3   3  -3    9.58    0.60
   3  -3   3    9.42    0.53
   3  -3   3    9.31    0.71
   3  -3   3    6.34    0.89
  -4   3  -3    0.18    0.23
   4  -3   3    1.85    0.46
   4  -3   3    0.74    0.40
  -5   3  -3    7.76    0.61
   5  -3   3    7.05    0.84
  -6   3  -3    3.96    0.47
   6  -3   3    4.02    0.76
  -7   3  -3    0.01    0.16
   7  -3   3   -0.03    0.25
   9   2  -3    0.16    0.28
   9   2  -3    0.16    0.15
   8   2  -3    3.54    0.38
   8   2  -3    4.57    0.61
   7   2  -3    1.10    0.30
   7   2  -3    0.72    0.19
   6   2  -3    2.60    0.36
   6   2  -3    2.49    0.27
  -6  -2   3    2.25    0.23
   5   2  -3   18.03    0.90
   5   2  -3   18.96    0.75
  -5  -2   3   19.04    0.78
  -5  -2   3   17.30    0.70
   4   2  -3  100.14    2.85
   4   2  -3   99.00    3.47
  -4  -2   3   97.79    2.92
  -4  -2   3  101.72    3.63
   3   2  -3   71.16    2.47
   3   2  -3   70.86    2.05
  -3  -2   3   70.68    2.10
  -3  -2   3   70.09    2.61
   2   2  -3   55.96    1.68
   2   2  -3   55.33    1.60
   2   2  -3   53.99    1.91
  -2  -2   3   53.37    2.06
  -2  -2   3   54.56    1.65
   1   2  -3   26.07    1.08
   1   2  -3   25.71    0.89
   1   2  -3   26.08    1.01
  -1  -2   3   25.77    1.06
  -1  -2   3   25.94    0.87
   0   2  -3   59.17    2.19
   0   2  -3   59.07    2.05
   0   2  -3   54.73    2.28
   0  -2   3   54.90    2.15
   0  -2   3   57.20    1.75
  -1   2  -3    1.05    0.20
  -1   2  -3    1.32    0.14
  -1   2  -3    1.23    0.17
   1  -2   3    1.24    0.17
   1  -2   3    1.18    0.15
   1  -2   3    1.21    0.32
   1  -2   3    1.14    0.15
  -2   2  -3    3.06    0.25
  -2   2  -3    2.27    0.23
  -2   2  -3    2.35    0.30
   2  -2   3    2.70    0.49
   2  -2   3    2.99    0.32
   2  -2   3    2.86    0.29
   2  -2   3    2.70    0.22
  -3   2  -3    0.44    0.15
  -3   2  -3    0.76    0.16
  -3   2  -3    0.74    0.15
  -3   2  -3    0.54    0.18
   3  -2   3    0.62    0.32
   3  -2   3    0.89    0.14
   3  -2   3    0.83    0.22
   3  -2   3    0.99    0.20
  -4   2  -3    3.74    0.36
  -4   2  -3    3.57    0.34
   4  -2   3    3.39    0.56
  -5   2  -3    5.88    0.46
  -5   2  -3    6.19    0.50
   5  -2   3    5.42    0.68
  -6   2  -3   53.38    2.50
   6  -2   3   52.79    3.15
  -7   2  -3   24.70    1.40
   7  -2   3   22.82    1.77
  -8   2  -3    1.50    0.36
   8  -2   3    2.23    0.62
   9   1  -3    0.05    0.16
   9   1  -3    0.28    0.31
   8   1  -3    0.82    0.13
   8   1  -3    0.93    0.36
   8   1  -3    0.81    0.22
   7   1  -3    0.52    0.13
   7   1  -3    0.31    0.15
   7   1  -3    0.56    0.26
   6   1  -3    0.04    0.07
   6   1  -3    0.09    0.14
   6   1  -3    0.13    0.10
  -6  -1   3    0.06    0.10
   5   1  -3   19.61    1.03
   5   1  -3   19.65    1.01
   5   1  -3   20.57    0.79
  -5  -1   3   19.84    0.85
  -5  -1   3   19.01    0.76
   4   1  -3    0.03    0.04
   4   1  -3    0.14    0.08
   4   1  -3   -0.04    0.08
   4   1  -3    0.06    0.06
   4   1  -3    0.05    0.09
  -4  -1   3    0.08    0.05
   3   1  -3   18.50    1.03
   3   1  -3   19.86    0.71
   3   1  -3   20.61    0.71
   3   1  -3   20.69    0.89
   3   1  -3   21.05    1.00
  -3  -1   3   19.24    0.69
  -3  -1   3   20.26    0.81
   2   1  -3    5.87    0.33
   2   1  -3    5.17    0.32
   2   1  -3    5.77    0.28
   2   1  -3    5.36    0.26
  -2  -1   3    5.36    0.28
  -2  -1   3    5.51    0.26
   1   1  -3   28.22    0.89
   1   1  -3   27.19    1.05
  -1  -1   3   26.77    1.08
  -1  -1   3   29.15    0.88
   0   1  -3   28.27    0.93
   0  -1   3   29.03    1.12
   0  -1   3   29.15    1.58
   0  -1   3   28.82    0.91
   1  -1   3    0.84    0.23
   1  -1   3    0.99    0.11
   1  -1   3    0.73    0.10
  -2   1  -3   10.29    0.55
   2  -1   3    8.71    0.77
   2  -1   3    9.02    0.43
   2  -1   3    9.41    0.58
  -3   1  -3   61.43    1.96
  -3   1  -3   68.90    2.40
   3  -1   3   61.42    2.73
   3  -1   3   61.84    2.31
   3  -1   3   64.71    1.96
   3  -1   3   53.46    2.41
   3  -1   3   64.54    3.46
  -4   1  -3   23.87    0.98
   4  -1   3   25.85    1.23
   4  -1   3   25.38    1.63
   4  -1   3   29.53    1.39
   4  -1   3   26.47    1.89
   4  -1   3   26.59    1.03
  -5   1  -3   11.25    0.60
   5  -1   3    9.88    0.81
   5  -1   3   11.42    0.98
   5  -1   3   12.89    0.54
   6  -1   3   16.32    1.28
  -7   1  -3    0.08    0.12
   7  -1   3    0.17    0.22
   8  -1   3    0.69    0.34
   9   0  -3    2.44    0.32
   9   0  -3    4.11    0.76
   8   0  -3    0.00    0.12
   8   0  -3    0.01    0.13
   8   0  -3   -0.02    0.26
   7   0  -3   14.03    1.00
   7   0  -3   12.51    0.65
   7   0  -3   12.56    0.87
   6   0  -3    0.85    0.22
   6   0  -3    1.04    0.31
   6   0  -3    0.86    0.17
   5   0  -3    6.00    0.53
   5   0  -3    6.44    0.37
   5   0  -3    5.69    0.48
  -5   0   3    5.63    0.37
   4   0  -3   10.24    0.64
   4   0  -3   10.04    0.47
   4   0  -3   10.26    0.68
  -4   0   3   10.77    0.53
  -4   0   3   10.56    0.79
  -4   0   3   10.15    0.53
  -4   0   3   10.17    0.48
   3   0  -3   23.71    0.82
   3   0  -3   24.76    1.08
   3   0  -3   23.60    1.07
   3   0  -3   23.70    1.28
  -3   0   3   23.68    0.83
  -3   0   3   26.45    1.01
  -3   0   3   26.48    1.40
  -3   0   3   21.83    1.03
   2   0  -3    0.91    0.10
   2   0  -3    0.71    0.10
   2   0  -3    0.96    0.15
   2   0  -3    1.29    0.15
  -2   0   3    1.40    0.12
  -2   0   3    0.81    0.18
  -2   0   3    1.26    0.11
   1   0  -3   56.22    2.67
   1   0  -3   54.46    1.64
  -1   0   3   55.55    1.64
  -1   0   3   57.89    2.77
  -1   0   3   56.91    2.07
   0   0  -3   22.13    1.15
   0   0  -3   21.55    0.71
   0   0   3   22.71    0.70
   0   0   3   25.25    1.28
   0   0   3   22.36    0.89
  -1   0  -3   76.52    2.24
   1   0   3   80.96    2.24
   1   0   3   78.49    2.84
   2   0   3   42.03    1.28
   2   0   3   41.00    1.56
   2   0   3   40.48    1.83
   2   0   3   45.69    2.30
  -3   0  -3   30.80    1.03
   3   0   3   31.65    1.19
   3   0   3   35.27    1.95
   3   0   3   31.43    1.48
   3   0   3   31.89    1.02
   3   0   3   29.95    1.38
  -4   0  -3    4.01    0.27
   4   0   3    4.10    0.43
   4   0   3    4.37    0.22
   4   0   3    3.87    0.56
   4   0   3    3.95    0.45
   4   0   3    4.60    0.25
  -5   0  -3   34.05    1.20
   5   0   3   35.72    1.65
   5   0   3   33.86    2.00
   5   0   3   33.05    1.14
   6   0   3   71.42    2.22
   6   0   3   71.22    3.03
   6   0   3   77.87    3.91
   7   0   3   14.24    1.06
   7   0   3   16.05    1.20
   7   0   3   14.44    0.69
   8   0   3    2.09    0.47
   8   0   3    2.07    0.54
   9   0   3    2.24    0.50
   8  -1  -3    2.11    0.56
   8  -1  -3    1.83    0.39
   7  -1  -3    0.26    0.25
   7  -1  -3    0.37    0.21
   7  -1  -3    0.12    0.12
   6  -1  -3    3.92    0.32
   6  -1  -3    4.54    0.58
   6  -1  -3    4.11    0.48
   5  -1  -3    0.09    0.08
   5  -1  -3    0.05    0.11
   5  -1  -3    0.04    0.14
  -5   1   3   -0.04    0.08
   4  -1  -3    5.08    0.46
   4  -1  -3    4.41    0.28
   4  -1  -3    4.05    0.43
  -4   1   3    4.61    0.34
  -4   1   3    3.99    0.33
  -4   1   3    4.47    0.32
  -4   1   3    3.89    0.48
  -4   1   3    4.16    0.36
   3  -1  -3    1.60    0.26
   3  -1  -3    1.43    0.25
   3  -1  -3    1.29    0.15
  -3   1   3    1.21    0.18
  -3   1   3    1.09    0.17
  -3   1   3    1.19    0.17
  -3   1   3    1.39    0.17
   2  -1  -3   13.68    0.67
   2  -1  -3   12.90    0.48
   2  -1  -3   12.27    0.77
  -2   1   3   12.41    0.50
  -2   1   3   12.50    0.82
  -2   1   3   12.74    0.63
  -2   1   3   12.13    0.64
  -2   1   3   10.75    0.58
   1  -1  -3   21.29    1.17
   1  -1  -3   21.74    0.71
  -1   1   3   24.85    0.95
  -1   1   3   21.63    0.99
  -1   1   3   21.58    0.73
   0  -1  -3    4.44    0.32
   0  -1  -3    4.85    0.19
   0   1   3    4.86    0.20
   0   1   3    4.92    0.40
   0   1   3    4.63    0.29
  -1  -1  -3    1.45    0.15
  -1  -1  -3    1.24    0.07
   1   1   3    1.57    0.21
   1   1   3    1.37    0.07
   1   1   3    1.32    0.14
  -2  -1  -3    0.07    0.05
   2   1   3    0.27    0.06
   2   1   3    0.36    0.15
   2   1   3    0.19    0.07
  -3  -1  -3    0.77    0.08
   3   1   3    1.29    0.31
   3   1   3    0.51    0.06
   3   1   3    0.52    0.15
   3   1   3    0.79    0.09
  -4  -1  -3   60.77    1.81
   4   1   3   71.96    3.35
   4   1   3   57.99    2.21
   4   1   3   60.63    3.07
   4   1   3   58.65    2.35
   4   1   3   56.88    1.75
  -5  -1  -3    0.05    0.07
   5   1   3    0.09    0.08
   5   1   3    0.00    0.04
   5   1   3    0.03    0.10
   5   1   3    0.05    0.12
   6   1   3   15.40    1.06
   6   1   3   14.83    0.67
   6   1   3   16.18    0.99
   7   1   3    0.45    0.16
   7   1   3    0.46    0.22
   7   1   3    0.34    0.24
   8   1   3    3.61    0.60
   8   1   3    3.71    0.46
   8   1   3    3.36    0.35
   9   1   3    0.01    0.15
   9   1   3    0.01    0.15
   9   1   3    0.33    0.32
   8  -2  -3    0.25    0.25
   7  -2  -3    9.41    0.89
   6  -2  -3    6.40    0.70
  -6   2   3    7.43    0.60
   5  -2  -3    0.20    0.19
   5  -2  -3    0.03    0.09
   5  -2  -3    0.04    0.13
  -5   2   3    0.07    0.10
   4  -2  -3    1.07    0.28
   4  -2  -3    1.28    0.16
   4  -2  -3    1.09    0.30
  -4   2   3    0.85    0.20
  -4   2   3    1.04    0.20
  -4   2   3    1.25    0.22
   3  -2  -3    0.95    0.16
   3  -2  -3    1.43    0.15
   3  -2  -3    1.15    0.28
   3  -2  -3    1.00    0.25
  -3   2   3    0.91    0.19
  -3   2   3    0.68    0.17
  -3   2   3    0.92    0.17
  -3   2   3    1.02    0.23
  -3   2   3    0.96    0.18
   2  -2  -3   15.76    0.76
   2  -2  -3   14.66    0.96
  -2   2   3   14.53    0.80
  -2   2   3   14.54    0.75
  -2   2   3   14.62    0.62
  -2   2   3   15.11    0.79
   1  -2  -3    3.38    0.21
   1  -2  -3    3.34    0.33
   1  -2  -3    3.55    0.28
  -1   2   3    3.46    0.27
  -1   2   3    3.07    0.26
  -1   2   3    2.97    0.21
  -1   2   3    2.93    0.28
   0  -2  -3   16.69    0.92
   0  -2  -3   16.05    0.56
   0  -2  -3   15.54    0.78
   0   2   3   16.45    0.64
   0   2   3   16.41    0.77
   0   2   3   16.43    0.58
   0   2   3   16.40    0.81
  -1  -2  -3    5.57    0.22
  -1  -2  -3    6.17    0.36
   1   2   3    5.55    0.31
   1   2   3    5.34    0.23
   1   2   3    5.38    0.44
   1   2   3    5.75    0.35
   1   2   3    6.10    0.32
   1   2   3    5.60    0.37
  -2  -2  -3   59.51    2.31
   2   2   3   55.05    2.33
   2   2   3   57.21    2.17
   2   2   3   53.63    1.87
   2   2   3   55.79    2.03
   2   2   3   56.10    2.29
   2   2   3   56.82    2.71
   2   2   3   63.60    2.83
   3   2   3    2.34    0.21
   3   2   3    2.28    0.22
   3   2   3    2.06    0.18
   3   2   3    2.15    0.20
   3   2   3    2.03    0.27
   3   2   3    2.16    0.18
  -4  -2  -3   31.49    0.94
   4   2   3   31.35    1.62
   4   2   3   31.93    1.36
   4   2   3   32.84    1.34
   4   2   3   31.63    1.24
   4   2   3   31.25    1.56
  -5  -2  -3    0.13    0.06
   5   2   3    0.15    0.05
   5   2   3    0.29    0.11
   5   2   3    0.07    0.09
   5   2   3    0.08    0.12
   5   2   3    0.11    0.07
   6   2   3   39.10    1.33
   6   2   3   39.21    1.75
   6   2   3   38.64    2.01
   7   2   3   26.80    1.05
   7   2   3   26.75    1.47
   7   2   3   27.03    1.42
   8   2   3    5.93    0.48
   8   2   3    7.09    0.69
   8   2   3    6.20    0.45
   9   2   3    0.49    0.32
   9   2   3    0.31    0.18
   9   2   3    0.79    0.16
  10   2   3    3.12    0.40
  10   2   3    2.61    0.62
   7  -3  -3    0.13    0.23
  -7   3   3    0.43    0.23
   6  -3  -3    7.19    0.80
  -6   3   3    7.35    0.64
   5  -3  -3   12.53    1.06
  -5   3   3   11.94    0.82
   4  -3  -3   20.93    1.45
  -4   3   3   20.84    1.14
   3  -3  -3   38.15    2.25
   3  -3  -3   40.29    1.80
  -3   3   3   40.65    1.85
  -3   3   3   41.98    1.74
  -3   3   3   38.04    1.74
  -3   3   3   37.88    1.85
  -3   3   3   40.35    1.46
   2  -3  -3   47.59    2.29
   2  -3  -3   56.83    2.87
  -2   3   3   56.41    2.41
  -2   3   3   54.55    2.36
  -2   3   3   54.44    1.80
  -2   3   3   53.41    2.09
  -2   3   3   54.99    2.25
   1  -3  -3   17.76    0.93
   1  -3  -3   18.52    1.12
  -1   3   3   16.45    0.89
  -1   3   3   20.11    1.01
  -1   3   3   18.20    0.89
  -1   3   3   15.88    0.82
  -1   3   3   17.84    0.73
   0  -3  -3   14.66    0.55
   0  -3  -3   14.73    0.87
   0  -3  -3   13.33    0.76
   0   3   3   11.75    0.63
   0   3   3   14.04    0.74
   0   3   3   13.52    0.67
   0   3   3   13.36    0.79
   0   3   3   14.23    0.62
   0   3   3   14.67    0.58
  -1  -3  -3   16.58    0.59
  -1  -3  -3   16.58    0.85
   1   3   3   15.97    0.87
   1   3   3   17.34    0.71
   1   3   3   15.28    0.70
   1   3   3   16.71    0.70
   1   3   3   16.04    0.88
   1   3   3   16.40    0.60
   1   3   3   16.34    0.81
  -2  -3  -3    0.10    0.04
  -2  -3  -3    0.07    0.06
   2   3   3    0.01    0.06
   2   3   3    0.01    0.04
   2   3   3    0.08    0.07
   2   3   3   -0.02    0.05
   2   3   3    0.04    0.07
  -3  -3  -3   70.23    1.98
  -3  -3  -3   69.69    2.01
  -3  -3  -3   69.92    2.86
   3   3   3   71.22    2.47
   3   3   3   69.35    2.70
   3   3   3   73.57    2.36
   3   3   3   68.48    2.90
  -4  -3  -3  121.35    4.76
   4   3   3  117.54    4.16
   4   3   3  121.68    3.88
   4   3   3  126.43    4.50
   4   3   3  121.69    4.82
  -5  -3  -3    0.55    0.07
   5   3   3    0.63    0.16
   5   3   3    0.45    0.06
   5   3   3    0.49    0.16
   5   3   3    0.47    0.13
   5   3   3    0.49    0.11
   5   3   3    0.56    0.14
   6   3   3   51.06    2.10
   6   3   3   54.23    1.71
   7   3   3   22.78    0.95
   7   3   3   24.07    1.22
   8   3   3    4.54    0.56
   8   3   3    4.06    0.39
   9   3   3    7.58    0.73
   9   3   3    7.40    0.53
  10   3   3    2.08    0.35
  10   3   3    1.96    0.51
   6  -4  -3    0.09    0.24
  -6   4   3    0.33    0.20
   5  -4  -3    0.92    0.38
  -5   4   3    0.84    0.25
   4  -4  -3    3.07    0.57
  -4   4   3    3.30    0.39
   3  -4  -3    8.88    0.84
  -3   4   3    9.44    0.65
  -3   4   3    9.35    0.71
  -3   4   3    9.24    0.67
   2  -4  -3   12.12    0.96
  -2   4   3   13.23    0.77
  -2   4   3   12.75    0.79
  -2   4   3   11.86    0.64
  -2   4   3   10.74    0.79
  -2   4   3   12.18    0.73
   1  -4  -3    2.29    0.39
   1  -4  -3    2.43    0.33
  -1   4   3    2.08    0.31
  -1   4   3    2.47    0.24
  -1   4   3    2.81    0.28
  -1   4   3    2.29    0.34
  -1   4   3    2.39    0.31
   0  -4  -3   60.18    2.62
   0  -4  -3   62.35    3.05
   0   4   3   58.72    2.45
   0   4   3   61.15    2.48
   0   4   3   57.84    2.20
   0   4   3   61.62    1.93
   0   4   3   54.91    2.62
  -1  -4  -3    2.30    0.31
  -1  -4  -3    2.48    0.20
   1   4   3    2.47    0.33
   1   4   3    2.56    0.29
   1   4   3    2.69    0.24
   1   4   3    2.76    0.28
   1   4   3    2.24    0.26
   1   4   3    2.26    0.22
  -2  -4  -3    0.41    0.15
  -2  -4  -3    0.33    0.09
   2   4   3    0.37    0.12
   2   4   3    0.52    0.16
   2   4   3    0.45    0.11
   2   4   3    0.41    0.10
   2   4   3    0.43    0.15
  -3  -4  -3    6.91    0.32
  -3  -4  -3    6.91    0.50
  -3  -4  -3    7.48    0.30
   3   4   3    6.92    0.53
   3   4   3    6.30    0.36
   3   4   3    6.49    0.47
   3   4   3    7.17    0.46
  -4  -4  -3   15.90    0.51
  -4  -4  -3   15.52    0.56
  -4  -4  -3   14.43    0.83
   4   4   3   15.46    0.77
   4   4   3   15.96    0.70
   4   4   3   15.93    0.81
   4   4   3   16.04    0.89
  -5  -4  -3    9.21    0.33
  -5  -4  -3    9.28    0.56
   5   4   3    9.27    0.48
   5   4   3    9.24    0.53
   5   4   3    9.49    0.58
   5   4   3    9.33    0.62
   5   4   3    9.77    0.55
   6   4   3    0.32    0.13
   6   4   3    0.16    0.13
   6   4   3    0.21    0.13
   7   4   3   32.78    1.46
   7   4   3   32.26    1.41
   7   4   3   31.93    1.21
   8   4   3    0.03    0.11
   8   4   3    0.13    0.19
   8   4   3    0.00    0.14
   9   4   3    0.22    0.15
   9   4   3    0.55    0.26
   9   4   3    0.28    0.25
  10   4   3    0.68    0.34
  10   4   3    1.04    0.33
  10   4   3    1.06    0.27
   6  -5  -3    0.17    0.29
  -6   5   3    0.09    0.18
  -6   5   3    0.07    0.29
  -5   5   3   -0.02    0.22
  -5   5   3    0.45    0.20
  -3   5   3    1.54    0.35
  -3   5   3    1.47    0.27
  -2   5   3   12.79    0.87
  -2   5   3   13.19    0.77
  -1   5   3    0.78    0.20
  -1   5   3    0.54    0.20
  -1   5   3    0.57    0.23
  -1   5   3    0.45    0.12
   0   5   3    9.06    0.67
   0   5   3    9.00    0.45
   0   5   3    9.65    0.59
   0   5   3    9.29    0.54
   0   5   3    9.12    0.72
   1   5   3    0.53    0.14
   1   5   3    0.95    0.20
   1   5   3    0.60    0.14
   1   5   3    0.88    0.23
   1   5   3    1.02    0.27
   1   5   3    0.84    0.18
  -2  -5  -3    1.77    0.31
   2   5   3    1.92    0.27
   2   5   3    1.94    0.22
   2   5   3    1.78    0.30
   2   5   3    2.10    0.34
  -3  -5  -3   22.95    0.85
  -3  -5  -3   22.36    1.24
   3   5   3   22.64    0.91
   3   5   3   22.33    1.16
   3   5   3   24.01    1.28
   3   5   3   23.83    1.05
  -4  -5  -3   27.44    1.41
  -4  -5  -3   27.90    0.91
  -4  -5  -3   28.40    0.97
   4   5   3   26.99    1.32
   4   5   3   28.07    1.07
   4   5   3   28.05    0.96
   4   5   3   28.66    1.46
   4   5   3   27.13    1.05
   4   5   3   28.35    1.21
  -5  -5  -3    1.36    0.25
   5   5   3    1.57    0.19
   5   5   3    1.30    0.25
   5   5   3    1.56    0.21
   5   5   3    1.62    0.29
   5   5   3    1.64    0.26
   6   5   3   31.94    1.38
   6   5   3   31.88    1.28
   6   5   3   30.83    1.15
   7   5   3   13.98    0.83
   7   5   3   13.07    0.67
   7   5   3   13.05    0.72
   8   5   3    8.40    0.67
   8   5   3    8.46    0.55
   8   5   3   10.20    0.66
   9   5   3    8.27    0.56
   9   5   3    7.73    0.67
   9   5   3    7.32    0.63
  10   5   3    0.47    0.28
  10   5   3    0.14    0.21
  10   5   3    0.19    0.20
  -5   6   3    0.02    0.16
  -5   6   3   -0.02    0.25
  -4   6   3    0.18    0.24
  -4   6   3    0.19    0.16
  -2   6   3    3.22    0.32
  -2   6   3    2.83    0.47
  -1   6   3    3.35    0.27
  -1   6   3    4.59    0.50
   1   6   3   19.91    0.95
   1   6   3   18.95    1.13
   1   6   3   18.40    0.88
   2   6   3    6.24    0.57
   2   6   3    6.33    0.49
   2   6   3    6.56    0.42
   3   6   3    3.43    0.39
   3   6   3    2.74    0.24
   3   6   3    2.45    0.38
   3   6   3    3.02    0.22
  -4  -6  -3    0.44    0.11
   4   6   3    0.40    0.19
   4   6   3    0.35    0.11
   4   6   3    0.46    0.11
   4   6   3    0.32    0.17
   5   6   3    0.28    0.09
   5   6   3    0.17    0.11
   5   6   3    0.15    0.14
   5   6   3    0.26    0.10
   5   6   3    0.38    0.18
   6   6   3    0.54    0.19
   6   6   3    0.35    0.18
   6   6   3    0.64    0.13
   6   6   3    0.72    0.18
   7   6   3    0.23    0.12
   7   6   3    0.19    0.14
   7   6   3    0.06    0.14
   8   6   3    1.01    0.25
   8   6   3    0.71    0.28
   8   6   3    0.67    0.20
   9   6   3    5.72    0.47
   9   6   3    4.71    0.60
   9   6   3    5.56    0.48
  10   6   3    2.03    0.46
  10   6   3    1.06    0.29
  10   6   3    1.47    0.35
  -4   7   3    0.51    0.21
  -4   7   3    0.05    0.27
  -3   7   3    0.00    0.23
  -3   7   3    0.20    0.14
  -2   7   3    1.59    0.40
  -2   7   3    1.87    0.22
  -2   7   3    1.99    0.44
  -1   7   3    0.08    0.16
   0   7   3    2.10    0.42
   1   7   3    2.77    0.45
   2   7   3    4.45    0.46
   2   7   3    4.07    0.53
   3   7   3    0.07    0.15
   3   7   3    0.34    0.20
   3   7   3    0.46    0.15
  -4  -7  -3    0.35    0.12
   4   7   3    0.46    0.22
   4   7   3    0.55    0.23
   4   7   3    0.47    0.12
   5   7   3    4.12    0.30
   5   7   3    3.93    0.47
   5   7   3    4.05    0.24
   5   7   3    3.46    0.47
  -6  -7  -3    0.18    0.15
   6   7   3   -0.04    0.10
   6   7   3    0.10    0.15
   6   7   3   -0.09    0.13
   7   7   3    0.47    0.24
   7   7   3    0.73    0.20
   8   7   3    1.09    0.34
   8   7   3    1.09    0.17
   8   7   3    1.14    0.25
   9   7   3    0.87    0.33
   9   7   3    0.83    0.25
   9   7   3    0.64    0.19
  10   7   3    4.42    0.48
  10   7   3    4.03    0.41
  10   7   3    4.22    0.61
   2  -8  -3    0.68    0.29
  -2   8   3    0.03    0.22
  -2   8   3    0.77    0.34
  -2   8   3    0.69    0.35
  -1   8   3   -0.08    0.15
  -1   8   3   -0.03    0.21
  -1   8   3   -0.07    0.25
   0   8   3    1.43    0.41
   0   8   3    1.49    0.35
   2   8   3    3.80    0.57
   3   8   3    1.12    0.33
   3   8   3    1.80    0.35
   3   8   3    1.22    0.22
   4   8   3    0.14    0.18
   4   8   3    0.08    0.10
   4   8   3   -0.05    0.14
   5   8   3    0.04    0.16
   5   8   3   -0.08    0.16
  -6  -8  -3    3.00    0.42
   6   8   3    3.21    0.47
   6   8   3    2.86    0.46
   7   8   3    1.65    0.27
   7   8   3    0.94    0.30
   8   8   3    2.55    0.34
   8   8   3    2.13    0.44
   9   8   3    0.72    0.33
   9   8   3    1.09    0.28
  10   8   3    0.48    0.34
  10   8   3    0.31    0.21
  -1   9   3    1.68    0.45
   0   9   3    2.70    0.49
   0   9   3    2.52    0.55
  -1  -9  -3    1.19    0.37
   1   9   3    1.20    0.33
   1   9   3    1.34    0.42
  -2  -9  -3    3.95    0.56
   2   9   3    3.25    0.42
  -3  -9  -3    0.12    0.20
   3   9   3    0.11    0.15
   3   9   3   -0.02    0.19
  -4  -9  -3    0.56    0.27
   4   9   3    0.42    0.17
   4   9   3    0.36    0.27
   4   9   3    0.31    0.23
  -5  -9  -3    1.64    0.38
   5   9   3    1.84    0.20
   5   9   3    1.44    0.37
   5   9   3    1.34    0.38
  -6  -9  -3    0.04    0.17
   6   9   3    0.38    0.23
   6   9   3    0.11    0.20
   7   9   3    0.26    0.25
   8   9   3    0.22    0.26
   9   9   3    0.30    0.21
   9   9   3    0.12    0.27
   1  10   3    3.40    0.54
   2  10   3    0.26    0.25
  -3 -10  -3    0.25    0.24
   3  10   3    0.14    0.19
   3  10   3    0.20    0.28
  -4 -10  -3   -0.02    0.19
   4  10   3   -0.07    0.22
   4  10   3    0.33    0.27
   4  10   3    0.03    0.17
  -5 -10  -3    0.28    0.22
   5  10   3   -0.06    0.19
   5  10   3   -0.01    0.24
   5  10   3    0.12    0.12
  -6 -10  -3    0.27    0.24
   6  10   3    0.66    0.31
   6  10   3    0.78    0.35
   7  10   3    4.96    0.64
   8  10   3    0.31    0.31
   4   9  -4    0.75    0.21
   3   9  -4    0.09    0.18
   6   8  -4   -0.05    0.19
  -6  -8   4    0.00    0.17
   5   8  -4    4.35    0.54
  -5  -8   4    4.29    0.47
   4   8  -4   10.16    0.57
   4   8  -4    8.85    0.76
  -4  -8   4    9.62    0.73
   3   8  -4    7.42    0.54
   3   8  -4    5.92    0.63
  -3  -8   4    7.78    0.65
   2   8  -4    1.19    0.30
   2   8  -4    1.69    0.41
  -2  -8   4    1.12    0.32
   1   8  -4    0.70    0.30
   1   8  -4    0.60    0.26
  -1  -8   4    0.80    0.29
   0   8  -4    0.14    0.27
   8   7  -4    2.22    0.36
   7   7  -4    0.59    0.22
  -6  -7   4    1.83    0.31
   5   7  -4    1.22    0.30
  -5  -7   4    1.14    0.27
   4   7  -4   18.03    0.81
   4   7  -4   17.49    1.05
  -4  -7   4   17.38    1.01
   3   7  -4    3.08    0.34
   3   7  -4    2.82    0.43
  -3  -7   4    3.45    0.40
   2   7  -4    0.95    0.29
   2   7  -4    0.97    0.25
  -2  -7   4    1.43    0.31
   1   7  -4    1.94    0.36
   1   7  -4    2.37    0.42
  -1  -7   4    3.45    0.44
   0   7  -4    9.88    0.79
   0   7  -4   10.59    0.82
   0  -7   4   11.90    0.80
  -1   7  -4    0.52    0.29
  -1   7  -4    0.41    0.25
   1  -7   4    0.30    0.21
  -2   7  -4    0.09    0.19
  -2   7  -4    0.10    0.24
  -2   7  -4   -0.04    0.29
   9   6  -4    3.36    0.43
   9   6  -4    2.58    0.33
   8   6  -4    0.10    0.16
   8   6  -4    0.10    0.14
   7   6  -4    2.00    0.31
   6   6  -4    1.74    0.19
   6   6  -4    1.19    0.23
  -6  -6   4    1.48    0.26
   5   6  -4    0.07    0.09
   5   6  -4    0.13    0.09
   5   6  -4    0.23    0.17
  -5  -6   4    0.18    0.14
   4   6  -4   34.54    1.63
   4   6  -4   35.77    1.36
  -4  -6   4   35.03    1.60
   3   6  -4   33.66    1.37
   3   6  -4   32.75    1.60
  -3  -6   4   34.47    1.57
   2   6  -4   26.97    1.22
   2   6  -4   31.09    1.44
  -2  -6   4   24.51    1.31
   1   6  -4    7.62    0.57
   1   6  -4    6.99    0.61
  -1  -6   4    7.94    0.59
   0   6  -4   17.60    0.96
   0   6  -4   12.00    0.87
   0  -6   4   13.91    0.85
  -1   6  -4    0.01    0.14
  -1   6  -4    0.49    0.27
  -1   6  -4    0.22    0.19
   1  -6   4    0.24    0.16
  -2   6  -4    1.01    0.36
  -2   6  -4    0.63    0.26
   2  -6   4    0.77    0.24
  -3   6  -4    0.16    0.32
  -3   6  -4   -0.13    0.20
   9   5  -4    3.82    0.46
   9   5  -4    4.94    0.51
   8   5  -4    6.00    0.49
   8   5  -4    6.13    0.51
   7   5  -4    0.12    0.14
   7   5  -4    0.02    0.12
   6   5  -4    1.28    0.21
   6   5  -4    0.82    0.20
  -6  -5   4    1.11    0.20
   5   5  -4    7.43    0.43
   5   5  -4    6.86    0.44
  -5  -5   4    7.90    0.51
   4   5  -4   21.05    0.87
   4   5  -4   19.11    1.01
  -4  -5   4   19.93    0.99
   3   5  -4    1.98    0.24
   3   5  -4    2.45    0.32
  -3  -5   4    2.51    0.28
   2   5  -4    3.02    0.35
   2   5  -4    2.94    0.29
  -2  -5   4    3.00    0.32
   1   5  -4    1.04    0.22
   1   5  -4    1.34    0.28
  -1  -5   4    1.71    0.27
   0   5  -4    6.02    0.52
   0   5  -4    6.93    0.54
   0  -5   4    6.20    0.49
  -1   5  -4    9.09    0.70
  -1   5  -4   10.80    0.71
   1  -5   4    9.93    0.65
  -2   5  -4   14.51    0.96
  -2   5  -4   13.63    0.69
  -2   5  -4   12.62    0.83
   2  -5   4   14.33    0.81
  -3   5  -4    0.01    0.20
  -3   5  -4    0.05    0.25
  -3   5  -4    0.09    0.11
  -4   5  -4    1.42    0.27
  -4   5  -4    0.06    0.23
  -5   5  -4    1.36    0.30
  -5   5  -4   -0.08    0.27
   9   4  -4    0.32    0.27
   9   4  -4    0.67    0.24
   8   4  -4    0.63    0.26
   8   4  -4    0.64    0.23
   7   4  -4    2.01    0.32
   7   4  -4    1.52    0.27
   6   4  -4    3.07    0.34
   6   4  -4    2.52    0.30
   5   4  -4    9.45    0.55
   5   4  -4    9.86    0.53
  -5  -4   4    9.89    0.54
   4   4  -4    1.76    0.21
   4   4  -4    1.69    0.20
  -4  -4   4    1.46    0.19
  -4  -4   4    1.36    0.20
   3   4  -4    1.55    0.24
   3   4  -4    1.34    0.18
  -3  -4   4    1.27    0.20
  -3  -4   4    1.32    0.18
   2   4  -4    1.60    0.24
   2   4  -4    1.20    0.19
  -2  -4   4    1.42    0.19
  -2  -4   4    1.34    0.21
   1   4  -4    5.01    0.40
   1   4  -4    3.47    0.32
  -1  -4   4    4.09    0.31
  -1  -4   4    3.85    0.33
   0   4  -4   11.41    0.72
   0   4  -4   13.09    0.74
   0  -4   4   13.67    0.72
   0  -4   4   13.35    0.64
  -1   4  -4    4.80    0.29
  -1   4  -4    5.36    0.47
  -1   4  -4    4.22    0.40
   1  -4   4    4.83    0.37
   1  -4   4    5.39    0.40
  -2   4  -4    0.08    0.12
  -2   4  -4    0.01    0.07
  -2   4  -4    0.00    0.13
  -2   4  -4   -0.04    0.16
   2  -4   4    0.00    0.09
  -3   4  -4    0.34    0.25
  -3   4  -4    0.01    0.20
  -3   4  -4    0.31    0.16
  -3   4  -4    0.36    0.15
   3  -4   4    0.28    0.14
   9   3  -4    0.04    0.23
   9   3  -4    0.02    0.16
   8   3  -4    0.36    0.25
   8   3  -4    0.32    0.17
   7   3  -4    0.96    0.27
   7   3  -4    0.68    0.19
   6   3  -4    0.36    0.15
   6   3  -4    0.55    0.19
   5   3  -4    4.89    0.40
   5   3  -4    5.69    0.38
  -5  -3   4    5.92    0.36
  -5  -3   4    6.03    0.34
   4   3  -4    0.17    0.09
   4   3  -4    0.28    0.11
  -4  -3   4    0.24    0.09
  -4  -3   4    0.27    0.10
   3   3  -4    2.39    0.23
  -3  -3   4    2.65    0.23
  -3  -3   4    2.53    0.21
   2   3  -4   28.33    1.13
  -2  -3   4   28.27    1.20
  -2  -3   4   28.61    0.99
   1   3  -4    7.90    0.47
   1   3  -4    9.57    0.52
  -1  -3   4    7.67    0.47
  -1  -3   4    7.78    0.41
   0   3  -4   76.52    2.77
   0   3  -4   65.82    2.56
   0  -3   4   71.13    2.71
   0  -3   4   68.72    2.20
  -1   3  -4   10.25    0.58
  -1   3  -4    9.23    0.51
  -1   3  -4    9.82    0.61
   1  -3   4    9.15    0.53
   1  -3   4    9.46    0.49
  -2   3  -4    0.08    0.13
  -2   3  -4    0.10    0.08
  -2   3  -4    0.30    0.13
  -2   3  -4    0.07    0.14
   2  -3   4    0.10    0.08
   2  -3   4    0.27    0.15
  -3   3  -4    0.18    0.11
  -3   3  -4    0.43    0.14
  -3   3  -4    0.16    0.18
  -3   3  -4    0.01    0.18
   3  -3   4    0.17    0.10
   3  -3   4    0.15    0.15
  -4   3  -4   -0.11    0.18
  -4   3  -4    0.09    0.11
  -5   3  -4    1.49    0.28
   5  -3   4    0.54    0.45
   5  -3   4    1.31    0.45
  -6   3  -4    5.96    0.58
   6  -3   4    5.43    0.88
  -7   3  -4    4.60    0.54
   7  -3   4    4.97    0.88
   9   2  -4    8.35    0.85
   9   2  -4    6.93    0.55
   8   2  -4    0.97    0.25
   8   2  -4    1.42    0.39
   7   2  -4   56.76    2.39
   7   2  -4   54.22    1.87
   6   2  -4    6.96    0.45
   6   2  -4    6.83    0.56
   5   2  -4    5.16    0.35
   5   2  -4    5.25    0.44
   5   2  -4    4.95    0.43
  -5  -2   4    4.70    0.30
  -5  -2   4    4.73    0.30
   4   2  -4    3.02    0.27
   4   2  -4    2.88    0.28
  -4  -2   4    3.16    0.23
  -4  -2   4    2.75    0.22
   3   2  -4    1.93    0.22
   3   2  -4    2.16    0.21
  -3  -2   4    1.96    0.17
  -3  -2   4    1.80    0.17
   2   2  -4   87.74    3.04
  -2  -2   4   87.60    3.25
  -2  -2   4   88.99    2.60
   0   2  -4    4.01    0.31
   0  -2   4    3.22    0.41
   0  -2   4    4.52    0.26
   0  -2   4    3.82    0.27
  -1   2  -4   13.74    0.73
   1  -2   4   14.49    0.59
   1  -2   4   14.21    0.67
   1  -2   4   14.29    1.08
  -2   2  -4   19.73    1.02
   2  -2   4   22.44    1.15
   2  -2   4   20.82    0.82
   2  -2   4   22.32    0.94
  -3   2  -4   24.70    1.25
   3  -2   4   26.88    1.40
   3  -2   4   26.56    1.10
   4  -2   4    3.36    0.68
   5  -2   4   16.38    1.58
  -6   2  -4   20.33    1.17
   6  -2   4   19.17    1.55
  -7   2  -4    0.44    0.22
   7  -2   4    0.53    0.36
   9   1  -4    4.63    0.75
   9   1  -4    3.83    0.44
   8   1  -4    0.37    0.28
   8   1  -4    0.67    0.22
   7   1  -4    2.73    0.32
   7   1  -4    2.67    0.23
   7   1  -4    2.94    0.50
   6   1  -4    0.70    0.25
   6   1  -4    0.66    0.13
   6   1  -4    0.67    0.17
   5   1  -4    2.00    0.33
   5   1  -4    2.35    0.26
   5   1  -4    1.91    0.19
  -5  -1   4    1.77    0.20
  -5  -1   4    2.24    0.21
   4   1  -4    1.65    0.26
   4   1  -4    1.65    0.20
   4   1  -4    1.31    0.15
   4   1  -4    1.57    0.20
  -4  -1   4    1.38    0.15
  -4  -1   4    1.67    0.17
   3   1  -4    9.02    0.44
   3   1  -4   10.29    0.54
   3   1  -4    9.09    0.53
  -3  -1   4    8.80    0.40
  -3  -1   4    9.49    0.46
   2   1  -4   17.31    0.80
   2   1  -4   18.40    0.67
   2   1  -4   20.23    0.96
  -2  -1   4   17.35    0.64
  -2  -1   4   18.49    0.78
   1   1  -4    9.33    0.40
   1   1  -4    9.67    0.50
  -1  -1   4    9.91    0.39
  -1  -1   4   10.03    0.46
   0   1  -4   44.53    1.70
   0   1  -4   45.58    1.43
   0  -1   4   46.00    1.75
   0  -1   4   45.58    1.40
   0  -1   4   49.29    2.47
  -1   1  -4   62.51    2.29
   1  -1   4   68.21    2.36
   1  -1   4   64.42    1.90
   1  -1   4   62.26    2.68
   1  -1   4   58.42    3.27
  -2   1  -4   28.49    1.27
   2  -1   4   29.49    1.01
   2  -1   4   31.02    1.21
   2  -1   4   32.93    1.07
   2  -1   4   30.38    1.46
  -3   1  -4    8.80    0.58
   3  -1   4    7.98    0.62
   3  -1   4    8.65    0.62
   3  -1   4    8.69    0.43
   3  -1   4    9.20    0.46
   4  -1   4   17.89    0.87
   4  -1   4   11.59    1.23
   4  -1   4   15.41    0.98
   5  -1   4    3.89    0.72
   6  -1   4    1.37    0.43
  -7   1  -4    7.14    0.61
   7  -1   4    7.06    0.82
   8  -1   4    0.56    0.33
   9   0  -4    1.33    0.24
   9   0  -4    1.23    0.29
   9   0  -4    1.41    0.52
   8   0  -4    2.22    0.32
   8   0  -4    2.39    0.31
   8   0  -4    2.59    0.58
   7   0  -4   12.65    0.96
   7   0  -4   11.90    0.81
   7   0  -4   11.77    0.64
   6   0  -4    0.18    0.12
   6   0  -4    0.09    0.10
   5   0  -4   12.16    0.81
   5   0  -4   12.98    0.82
   5   0  -4   13.13    0.60
  -5   0   4   12.88    0.62
   4   0  -4   23.55    0.86
   4   0  -4   23.09    1.28
   4   0  -4   22.79    1.14
   4   0  -4   23.19    1.14
  -4   0   4   22.99    0.87
  -4   0   4   22.69    1.02
  -4   0   4   24.54    1.07
   3   0  -4   40.32    2.04
   3   0  -4   43.63    1.67
   3   0  -4   41.11    1.29
  -3   0   4   41.34    1.70
  -3   0   4   42.82    2.19
  -3   0   4   38.99    1.31
  -3   0   4   37.87    1.60
   2   0  -4   22.45    0.76
   2   0  -4   22.22    1.18
   2   0  -4   21.14    0.96
  -2   0   4   23.60    1.32
  -2   0   4   21.44    0.76
  -2   0   4   21.80    0.92
   1   0  -4    8.05    0.50
   1   0  -4    7.86    0.33
   1   0  -4    7.76    0.44
  -1   0   4    8.06    0.59
  -1   0   4    7.93    0.32
  -1   0   4    8.00    0.39
   0   0  -4    3.95    0.31
   0   0  -4    4.48    0.21
   0   0   4    4.26    0.20
   0   0   4    4.41    0.25
   0   0   4    4.82    0.44
  -1   0  -4    8.86    0.36
   1   0   4    9.29    0.35
   1   0   4   11.47    0.78
   1   0   4    9.04    0.54
   1   0   4    9.59    0.44
   2   0   4    0.65    0.09
   2   0   4    0.52    0.13
   2   0   4    0.66    0.10
   2   0   4    0.91    0.28
   2   0   4    0.64    0.09
   3   0   4   13.85    0.81
   3   0   4   14.99    0.56
   3   0   4   14.11    0.82
   3   0   4   14.16    0.60
   4   0   4   38.31    1.60
   4   0   4   33.33    1.10
   4   0   4   29.27    2.11
   4   0   4   33.04    1.27
   5   0   4   12.38    1.18
   6   0   4   13.07    1.06
   6   0   4   12.02    0.94
   6   0   4   13.48    0.62
   7   0   4    0.31    0.27
   7   0   4    0.20    0.14
   7   0   4    0.31    0.24
   8   0   4    0.07    0.21
   9   0   4    0.20    0.23
   8  -1  -4    0.47    0.34
   8  -1  -4    0.29    0.21
   7  -1  -4    5.93    0.60
   7  -1  -4    5.91    0.44
   7  -1  -4    6.97    0.79
   6  -1  -4    0.08    0.10
   6  -1  -4    0.13    0.16
   6  -1  -4    0.09    0.18
   5  -1  -4    3.78    0.30
   5  -1  -4    3.39    0.40
   5  -1  -4    3.32    0.47
   4  -1  -4   14.26    0.94
   4  -1  -4   15.61    0.88
   4  -1  -4   15.04    0.61
  -4   1   4   14.41    0.66
  -4   1   4   13.51    0.79
  -4   1   4   13.59    0.74
  -4   1   4   13.43    0.76
  -4   1   4   14.23    1.04
   3  -1  -4    7.26    0.53
   3  -1  -4    7.48    0.54
   3  -1  -4    7.24    0.57
  -3   1   4    7.20    0.47
  -3   1   4    6.98    0.45
  -3   1   4    7.91    0.66
  -3   1   4    7.97    0.51
  -3   1   4    8.21    0.41
   2  -1  -4   11.06    0.73
   2  -1  -4   11.19    0.63
   2  -1  -4   11.32    0.46
  -2   1   4   12.27    0.60
  -2   1   4   11.12    0.48
  -2   1   4   12.22    0.63
  -2   1   4   11.62    0.64
  -2   1   4   10.27    0.79
   1  -1  -4   12.01    0.43
   1  -1  -4   11.48    0.70
  -1   1   4   11.95    0.63
  -1   1   4   10.01    0.58
  -1   1   4   12.44    0.80
  -1   1   4   11.38    0.44
   0  -1  -4   88.30    2.55
   0  -1  -4   89.96    4.25
   0   1   4   89.74    3.67
   0   1   4   90.36    3.55
   0   1   4   78.03    3.30
   0   1   4  100.97    4.42
   0   1   4   93.23    2.56
  -1  -1  -4   51.21    1.49
  -1  -1  -4   52.29    2.51
   1   1   4   50.77    1.48
   1   1   4   51.60    2.19
   1   1   4   55.17    2.70
   1   1   4   50.36    1.95
  -2  -1  -4   10.53    0.62
   2   1   4   10.75    0.79
   2   1   4    9.70    0.32
   2   1   4   10.14    0.57
   2   1   4    9.84    0.57
   2   1   4    9.76    0.46
   3   1   4  240.86    6.63
   3   1   4  239.45    8.50
   3   1   4  241.24    8.04
   3   1   4  223.66   11.27
   3   1   4  245.27    9.50
   3   1   4  243.47    6.62
   4   1   4   13.18    0.46
   4   1   4   13.79    1.10
   4   1   4   12.23    0.77
   4   1   4   13.78    0.58
   5   1   4   18.85    0.98
   5   1   4   16.05    1.08
   5   1   4   12.03    1.16
   6   1   4    2.30    0.26
   6   1   4    2.64    0.44
   6   1   4    1.92    0.40
   7   1   4    3.12    0.44
   7   1   4    3.24    0.53
   7   1   4    2.87    0.31
   8   1   4    0.84    0.36
   8   1   4    0.79    0.30
   8   1   4    0.77    0.21
   9   1   4    0.15    0.33
   9   1   4    0.04    0.17
   8  -2  -4    1.10    0.37
   7  -2  -4    4.48    0.58
   6  -2  -4    8.63    0.80
   5  -2  -4    8.60    0.46
   5  -2  -4    8.27    0.73
   5  -2  -4    8.99    0.78
  -5   2   4    7.86    0.62
   4  -2  -4    1.31    0.32
   4  -2  -4    1.84    0.36
  -4   2   4    1.76    0.25
  -4   2   4    1.54    0.26
  -4   2   4    1.44    0.25
   3  -2  -4    5.65    0.38
   3  -2  -4    6.40    0.52
   3  -2  -4    5.27    0.52
  -3   2   4    5.25    0.42
  -3   2   4    5.62    0.45
  -3   2   4    5.42    0.45
  -3   2   4    5.66    0.44
  -3   2   4    5.47    0.36
   2  -2  -4   30.70    1.31
   2  -2  -4   29.10    1.30
   2  -2  -4   29.69    1.64
  -2   2   4   28.74    1.37
  -2   2   4   29.30    1.04
  -2   2   4   27.59    1.29
  -2   2   4   29.27    1.38
   1  -2  -4    5.69    0.37
   1  -2  -4    5.13    0.26
   1  -2  -4    5.01    0.44
  -1   2   4    5.02    0.37
  -1   2   4    5.25    0.29
  -1   2   4    4.76    0.36
  -1   2   4    6.07    0.41
   0  -2  -4   31.78    0.97
   0  -2  -4   30.91    1.36
   0  -2  -4   31.65    1.63
   0   2   4   31.22    1.41
   0   2   4   30.02    1.09
   0   2   4   30.88    1.38
   0   2   4   31.68    1.00
  -1  -2  -4    1.99    0.21
  -1  -2  -4    2.06    0.20
  -1  -2  -4    2.14    0.11
   1   2   4    2.13    0.21
   1   2   4    1.73    0.19
   1   2   4    1.39    0.28
   1   2   4    2.09    0.19
   1   2   4    2.21    0.19
   1   2   4    1.86    0.12
   1   2   4    2.02    0.21
  -2  -2  -4  120.14    5.84
   2   2   4  124.44    3.91
   2   2   4  112.08    4.89
   2   2   4  126.04    5.01
   2   2   4  131.51    6.02
   2   2   4  129.48    4.29
   2   2   4  133.47    4.60
  -3  -2  -4  401.48   17.87
   3   2   4  410.65   11.71
   3   2   4  404.67   12.82
   3   2   4  329.96   18.00
   3   2   4  383.93   14.84
   3   2   4  412.66   13.88
   4   2   4   88.76    4.26
   4   2   4   94.65    3.61
   4   2   4   99.83    3.35
   4   2   4   87.32    3.28
   4   2   4   80.64    4.52
   5   2   4   64.70    2.62
   5   2   4   65.20    3.23
   5   2   4   63.11    2.53
   6   2   4    1.17    0.25
   6   2   4    1.23    0.31
   6   2   4    0.96    0.19
   7   2   4    5.60    0.50
   7   2   4    5.19    0.54
   7   2   4    4.39    0.37
   8   2   4    0.86    0.22
   8   2   4    0.87    0.33
   8   2   4    0.63    0.21
   9   2   4    3.67    0.38
   9   2   4    3.84    0.41
   9   2   4    3.56    0.62
   7  -3  -4    0.75    0.36
  -7   3   4    0.68    0.27
   6  -3  -4    0.22    0.22
  -6   3   4    0.32    0.19
   5  -3  -4    0.25    0.23
  -5   3   4    0.44    0.19
   4  -3  -4   11.49    0.96
  -4   3   4   11.58    0.78
   3  -3  -4   13.96    0.78
   3  -3  -4   13.31    1.02
  -3   3   4   12.48    0.84
  -3   3   4   13.86    0.83
  -3   3   4   14.30    0.70
  -3   3   4   14.23    0.83
  -3   3   4   13.68    0.82
   2  -3  -4   27.91    1.68
   2  -3  -4   29.63    1.35
  -2   3   4   26.83    1.26
  -2   3   4   29.17    1.39
  -2   3   4   31.17    1.37
  -2   3   4   28.74    1.09
  -2   3   4   26.31    1.41
   1  -3  -4    1.48    0.29
   1  -3  -4    1.25    0.21
  -1   3   4    1.31    0.23
  -1   3   4    1.24    0.17
  -1   3   4    1.40    0.20
  -1   3   4    1.30    0.23
  -1   3   4    1.10    0.22
   0  -3  -4    4.17    0.39
   0  -3  -4    3.69    0.33
   0  -3  -4    4.14    0.24
   0   3   4    4.12    0.30
   0   3   4    3.40    0.29
   0   3   4    4.54    0.31
   0   3   4    4.08    0.35
   0   3   4    3.84    0.25
   0   3   4    3.44    0.35
  -1  -3  -4   22.16    1.12
  -1  -3  -4   23.69    0.78
  -1  -3  -4   23.99    1.29
   1   3   4   23.58    1.09
   1   3   4   23.19    0.80
   1   3   4   23.45    0.94
   1   3   4   24.47    1.00
   1   3   4   23.51    1.17
   1   3   4   24.37    1.05
  -2  -3  -4    0.78    0.08
  -2  -3  -4    1.03    0.18
   2   3   4    1.17    0.16
   2   3   4    1.12    0.18
   2   3   4    0.78    0.17
   2   3   4    0.83    0.20
   2   3   4    0.99    0.10
   2   3   4    0.94    0.18
   2   3   4    0.96    0.19
  -3  -3  -4   59.28    2.61
   3   3   4   65.03    2.68
   3   3   4   67.28    2.50
   3   3   4   60.95    2.31
   3   3   4   65.93    3.02
   3   3   4   66.11    2.19
   4   3   4    2.30    0.26
   4   3   4    2.49    0.29
   4   3   4    2.01    0.22
   4   3   4    1.91    0.23
   4   3   4    2.09    0.18
   4   3   4    2.10    0.17
   5   3   4    1.87    0.21
   5   3   4    1.57    0.15
   5   3   4    2.05    0.27
   5   3   4    1.88    0.23
   5   3   4    2.14    0.30
   6   3   4    5.94    0.52
   6   3   4    6.27    0.41
   7   3   4    0.85    0.27
   7   3   4    0.55    0.18
   8   3   4    1.43    0.38
   8   3   4    1.59    0.27
   9   3   4    0.00    0.12
   9   3   4   -0.08    0.20
  10   3   4    6.31    0.52
  10   3   4    6.94    0.83
   6  -4  -4    0.18    0.25
  -6   4   4    0.07    0.17
   5  -4  -4    2.66    0.58
  -5   4   4    2.80    0.41
   4  -4  -4   10.83    0.99
  -4   4   4   10.06    0.74
   3  -4  -4    4.21    0.55
  -3   4   4    3.71    0.43
  -3   4   4    3.80    0.39
   2  -4  -4   18.24    1.25
  -2   4   4   16.89    0.82
  -2   4   4   17.79    0.97
  -2   4   4   18.28    0.96
  -2   4   4   15.52    0.97
  -2   4   4   18.17    1.08
   1  -4  -4    1.12    0.24
   1  -4  -4    1.12    0.29
  -1   4   4    0.99    0.24
  -1   4   4    1.00    0.19
  -1   4   4    0.88    0.17
  -1   4   4    1.15    0.26
  -1   4   4    1.11    0.23
   0  -4  -4    6.85    0.53
   0  -4  -4    7.95    0.62
   0   4   4    7.30    0.45
   0   4   4    7.19    0.58
   0   4   4    6.72    0.43
   0   4   4    8.09    0.57
   0   4   4    6.94    0.47
   0   4   4    6.86    0.41
  -1  -4  -4   81.62    2.37
  -1  -4  -4   76.30    3.30
   1   4   4   78.76    3.80
   1   4   4   77.15    3.14
   1   4   4   80.84    3.16
   1   4   4   72.52    3.34
   1   4   4   77.64    2.64
   1   4   4   86.02    2.82
   1   4   4   79.33    2.40
  -2  -4  -4    0.27    0.12
  -2  -4  -4    0.29    0.08
   2   4   4    0.31    0.11
   2   4   4    0.22    0.13
   2   4   4    0.48    0.16
   2   4   4    0.29    0.11
   2   4   4    0.34    0.09
   2   4   4    0.15    0.11
   2   4   4    0.01    0.08
  -3  -4  -4   19.65    0.67
  -3  -4  -4   20.36    1.05
   3   4   4   21.39    0.93
   3   4   4   19.86    1.01
   3   4   4   20.80    1.10
   3   4   4   20.28    0.87
  -4  -4  -4   33.19    1.51
   4   4   4   32.04    1.45
   4   4   4   35.18    1.60
   4   4   4   32.47    1.32
   4   4   4   32.18    1.32
  -5  -4  -4   26.52    1.20
   5   4   4   25.39    1.14
   5   4   4   24.74    1.12
   5   4   4   24.42    1.17
   5   4   4   27.45    1.31
   6   4   4   37.20    1.54
   6   4   4   35.44    1.28
   6   4   4   34.79    1.46
   7   4   4   20.61    1.11
   7   4   4   22.87    1.09
   7   4   4   21.30    0.92
   8   4   4   11.87    0.78
   8   4   4   12.70    0.85
   8   4   4   11.57    0.66
   9   4   4    1.11    0.27
   9   4   4    1.15    0.36
   9   4   4    0.92    0.31
  10   4   4    0.09    0.18
  10   4   4    0.06    0.21
  10   4   4    0.05    0.26
   6  -5  -4    0.16    0.31
  -6   5   4    0.10    0.27
  -6   5   4    0.01    0.17
  -5   5   4    0.10    0.25
  -5   5   4   -0.09    0.12
  -4   5   4    1.75    0.33
  -3   5   4    9.46    0.75
  -3   5   4    8.85    0.66
  -2   5   4    1.66    0.34
  -2   5   4    1.20    0.23
  -2   5   4    1.69    0.35
  -1   5   4    0.07    0.15
  -1   5   4    0.08    0.12
  -1   5   4   -0.04    0.14
  -1   5   4    0.06    0.08
  -1   5   4   -0.02    0.13
   0   5   4   45.72    1.86
   0   5   4   35.80    1.71
   0   5   4   46.42    2.04
   0   5   4   47.61    1.59
   1   5   4    0.03    0.12
   1   5   4    0.10    0.10
   1   5   4    0.51    0.15
   1   5   4    0.24    0.15
   1   5   4    0.19    0.14
   1   5   4    0.30    0.14
  -2  -5  -4   31.64    1.10
   2   5   4   32.03    1.26
   2   5   4   30.35    1.50
   2   5   4   32.10    1.13
   2   5   4   31.61    1.30
   2   5   4   30.10    1.61
  -3  -5  -4   14.41    0.88
  -3  -5  -4   14.97    0.59
   3   5   4   14.39    0.78
   3   5   4   14.82    0.94
   3   5   4   14.06    0.86
   3   5   4   15.06    0.70
  -4  -5  -4   10.99    0.46
  -4  -5  -4   11.36    0.43
  -4  -5  -4   11.22    0.73
   4   5   4   11.85    0.80
   4   5   4   10.84    0.57
   4   5   4   11.22    0.67
   4   5   4   11.44    0.72
  -5  -5  -4    0.34    0.15
   5   5   4    0.44    0.13
   5   5   4    0.49    0.18
   5   5   4    0.30    0.16
   5   5   4    0.35    0.17
   6   5   4    2.24    0.34
   6   5   4    2.31    0.28
   6   5   4    2.00    0.27
   7   5   4    4.57    0.42
   7   5   4    4.99    0.52
   7   5   4    4.75    0.39
   8   5   4    0.19    0.18
   8   5   4    0.12    0.14
   8   5   4    0.20    0.18
   9   5   4    0.52    0.26
   9   5   4    0.50    0.19
   9   5   4    0.31    0.22
  10   5   4    0.25    0.18
  10   5   4    0.43    0.27
  10   5   4    0.05    0.24
  -5   6   4    0.31    0.22
  -5   6   4    0.02    0.26
  -4   6   4   -0.10    0.23
  -4   6   4   -0.02    0.13
  -3   6   4    1.08    0.24
  -3   6   4    0.16    0.23
  -2   6   4    8.28    0.57
  -2   6   4    8.21    0.73
  -1   6   4    6.27    0.62
  -1   6   4    7.28    0.46
   0   6   4   41.59    1.98
   0   6   4   39.42    1.72
   1   6   4   19.09    1.11
   1   6   4   14.94    0.85
   1   6   4   18.95    0.91
   1   6   4   18.52    0.85
   2   6   4    4.58    0.43
   2   6   4    5.93    0.41
   2   6   4    6.19    0.41
   2   6   4    4.35    0.48
   3   6   4   19.90    0.85
   3   6   4   17.44    1.07
   3   6   4   18.53    0.96
  -4  -6  -4   23.01    0.82
   4   6   4   23.07    1.23
   4   6   4   23.46    0.96
   4   6   4   20.07    1.07
   5   6   4   26.56    1.05
   5   6   4   26.73    0.98
   5   6   4   24.09    1.30
   5   6   4   24.83    1.21
   6   6   4    0.78    0.23
   6   6   4    1.06    0.27
   6   6   4    1.16    0.19
   6   6   4    1.18    0.21
   7   6   4    4.53    0.41
   7   6   4    4.37    0.37
   7   6   4    3.87    0.48
   8   6   4    8.92    0.59
   8   6   4    8.86    0.57
   8   6   4    8.69    0.71
   9   6   4   13.74    0.77
   9   6   4   13.30    0.84
   9   6   4   14.71    0.99
  10   6   4    1.40    0.36
  10   6   4    0.99    0.29
  10   6   4    1.06    0.38
  -2   7   4    0.05    0.20
  -2   7   4    0.17    0.12
  -2   7   4    0.31    0.27
  -2   7   4   -0.04    0.22
   0   7   4    0.53    0.22
   0   7   4    0.10    0.14
   0   7   4    0.59    0.27
   1   7   4   10.81    0.70
   1   7   4   10.35    0.83
   2   7   4    0.04    0.13
   2   7   4   -0.03    0.12
   2   7   4    0.20    0.14
   3   7   4    0.11    0.16
   3   7   4    0.50    0.16
   3   7   4    0.09    0.16
   4   7   4    6.41    0.56
   4   7   4    6.35    0.60
   4   7   4    5.79    0.38
   5   7   4    8.88    0.67
   5   7   4    7.43    0.42
   5   7   4    7.88    0.67
   6   7   4    7.99    0.65
   6   7   4    7.22    0.46
   6   7   4    7.44    0.42
   6   7   4    6.36    0.60
   7   7   4   12.43    0.87
   7   7   4   12.58    0.62
   7   7   4   13.11    0.68
   8   7   4    7.42    0.47
   8   7   4    6.14    0.49
   8   7   4    8.31    0.71
   9   7   4    1.67    0.28
   9   7   4    1.53    0.31
   9   7   4    1.78    0.42
  10   7   4    0.53    0.24
  10   7   4    1.33    0.32
  10   7   4    0.82    0.37
  -2   8   4    2.06    0.51
  -2   8   4    1.20    0.39
  -1   8   4   -0.01    0.20
   0   8   4    0.08    0.13
   1   8   4    1.99    0.45
   2   8   4    2.05    0.42
   3   8   4    3.33    0.52
   3   8   4    2.68    0.41
   3   8   4    3.35    0.34
   4   8   4    1.91    0.41
   4   8   4    2.63    0.42
   4   8   4    2.76    0.27
   5   8   4    0.22    0.11
   5   8   4    0.04    0.18
   5   8   4    0.11    0.18
   6   8   4    2.10    0.19
   6   8   4    2.32    0.43
   6   8   4    2.18    0.43
   7   8   4    2.76    0.47
   7   8   4    2.80    0.33
   8   8   4    0.27    0.26
   8   8   4    0.12    0.16
   9   8   4    1.31    0.30
   9   8   4    1.83    0.45
  10   8   4    0.18    0.30
  10   8   4    0.21    0.22
  10   8   4    0.40    0.16
  -1   9   4    1.07    0.36
   0   9   4    0.14    0.28
   0   9   4    0.12    0.23
   1   9   4    3.54    0.49
   1   9   4    2.87    0.56
   2   9   4    1.86    0.34
   3   9   4    5.09    0.57
   3   9   4    3.85    0.60
   4   9   4    0.44    0.25
   4   9   4    0.45    0.27
   4   9   4    0.40    0.16
   5   9   4    1.50    0.40
   5   9   4    2.61    0.25
   5   9   4    2.75    0.46
  -6  -9  -4    0.61    0.27
   6   9   4    0.68    0.30
   6   9   4    0.53    0.28
   7   9   4    0.80    0.33
   8   9   4    0.08    0.25
   9   9   4    1.01    0.27
   9   9   4    1.57    0.44
   1  10   4    1.02    0.34
   2  10   4    0.11    0.21
   3  10   4    0.23    0.27
   3  10   4    0.11    0.18
  -4 -10  -4    9.85    0.87
   4  10   4   10.66    0.84
   4  10   4   11.55    0.66
  -5 -10  -4    5.98    0.66
   5  10   4    6.87    0.43
   5  10   4    5.94    0.68
   5  10   4    4.82    0.70
  -6 -10  -4    1.05    0.35
   6  10   4    0.81    0.34
   6  10   4    1.61    0.41
   7  10   4    5.08    0.67
   8  10   4    1.12    0.42
  -6  -8   5   -0.14    0.16
   5   8  -5    1.60    0.21
  -5  -8   5    1.41    0.32
   4   8  -5    0.36    0.25
   4   8  -5    0.30    0.17
  -4  -8   5   -0.01    0.16
   3   8  -5    1.65    0.31
   3   8  -5    1.65    0.39
  -3  -8   5    1.60    0.35
   2   8  -5    0.04    0.19
   1   8  -5    0.23    0.23
   8   7  -5    0.31    0.21
  -6  -7   5    7.71    0.59
   5   7  -5    0.48    0.16
  -5  -7   5    0.92    0.26
   4   7  -5    3.44    0.47
   4   7  -5    3.08    0.33
  -4  -7   5    3.25    0.42
   3   7  -5    1.69    0.36
   3   7  -5    1.60    0.28
  -3  -7   5    1.60    0.32
   2   7  -5    0.70    0.27
   2   7  -5    0.52    0.21
  -2  -7   5    0.49    0.21
   1   7  -5    0.02    0.19
   1   7  -5    0.05    0.17
  -1  -7   5   -0.05    0.14
   0   7  -5    1.37    0.36
   0   7  -5    1.14    0.34
   0  -7   5    1.19    0.30
  -1   7  -5    0.70    0.34
  -1   7  -5    0.92    0.32
   1  -7   5    0.96    0.28
   8   6  -5    0.78    0.21
   8   6  -5    0.57    0.24
   7   6  -5    4.04    0.42
   7   6  -5    3.17    0.32
   6   6  -5    0.55    0.16
  -6  -6   5    0.54    0.19
   5   6  -5    0.05    0.11
  -5  -6   5    0.09    0.13
   4   6  -5    0.53    0.17
  -4  -6   5    0.74    0.21
   3   6  -5    4.74    0.48
   3   6  -5    5.27    0.42
  -3  -6   5    5.53    0.47
   2   6  -5    1.69    0.29
   2   6  -5    1.83    0.35
  -2  -6   5    1.93    0.32
   1   6  -5    0.03    0.15
   1   6  -5    0.07    0.16
  -1  -6   5    0.00    0.13
   0   6  -5    0.28    0.19
   0   6  -5    0.30    0.20
   0  -6   5    0.19    0.16
  -1   6  -5    0.50    0.23
  -1   6  -5    0.99    0.33
   1  -6   5    0.76    0.23
  -2   6  -5   -0.03    0.18
  -2   6  -5    0.17    0.27
  -2   6  -5    0.56    0.26
   2  -6   5    0.49    0.21
  -3   6  -5    0.16    0.34
  -3   6  -5    0.10    0.23
   9   5  -5    1.48    0.36
   9   5  -5    0.87    0.28
   8   5  -5    0.29    0.21
   8   5  -5    0.40    0.23
   7   5  -5    7.78    0.55
   7   5  -5    7.13    0.53
   6   5  -5    0.09    0.13
   6   5  -5    0.11    0.13
  -6  -5   5    0.04    0.10
   5   5  -5    0.04    0.10
  -5  -5   5    0.05    0.10
   4   5  -5   -0.02    0.09
  -4  -5   5    0.02    0.10
   3   5  -5    0.50    0.16
  -3  -5   5    0.57    0.18
   2   5  -5    4.89    0.41
   2   5  -5    4.77    0.44
  -2  -5   5    5.25    0.43
   1   5  -5    0.60    0.20
   1   5  -5    0.66    0.21
  -1  -5   5    0.64    0.20
   0   5  -5    1.67    0.30
   0   5  -5    1.76    0.33
   0  -5   5    1.90    0.29
  -1   5  -5    0.02    0.13
  -1   5  -5   -0.06    0.16
  -1   5  -5   -0.02    0.15
   1  -5   5    0.05    0.11
  -2   5  -5    0.37    0.19
  -2   5  -5    0.07    0.20
  -2   5  -5    0.08    0.24
   2  -5   5    0.42    0.17
  -3   5  -5    3.73    0.34
  -3   5  -5    4.88    0.67
  -4   5  -5    0.45    0.18
  -4   5  -5    0.19    0.27
   9   4  -5    0.80    0.33
   9   4  -5    0.76    0.27
   8   4  -5   10.03    0.75
   8   4  -5    8.71    0.61
   7   4  -5    1.92    0.34
   7   4  -5    1.58    0.28
   6   4  -5    7.84    0.51
   6   4  -5    8.78    0.59
   6   4  -5    8.87    0.60
  -6  -4   5    8.19    0.50
   5   4  -5    6.57    0.46
   5   4  -5    6.15    0.42
  -5  -4   5    7.12    0.45
   4   4  -5   20.58    0.92
  -4  -4   5   19.82    0.95
   3   4  -5    2.01    0.25
  -3  -4   5    2.24    0.25
   2   4  -5    9.10    0.54
  -2  -4   5    9.04    0.48
  -2  -4   5    8.72    0.54
   1   4  -5    5.90    0.45
   1   4  -5    7.47    0.51
  -1  -4   5    6.19    0.44
  -1  -4   5    5.97    0.39
   0   4  -5    2.78    0.32
   0   4  -5    3.64    0.37
   0  -4   5    3.08    0.30
  -1   4  -5    0.04    0.14
  -1   4  -5   -0.04    0.12
  -1   4  -5    0.06    0.12
   1  -4   5    0.03    0.09
  -2   4  -5    1.88    0.39
  -2   4  -5    1.54    0.27
  -2   4  -5    1.52    0.21
   2  -4   5    1.70    0.25
  -3   4  -5    7.72    0.69
  -3   4  -5    6.04    0.47
   3  -4   5    5.45    0.43
  -5   4  -5    2.62    0.39
   9   3  -5    0.46    0.31
   9   3  -5    0.60    0.24
   8   3  -5    0.97    0.25
   8   3  -5    1.11    0.36
   7   3  -5    4.29    0.42
   7   3  -5    3.76    0.49
   6   3  -5    2.68    0.37
   6   3  -5    2.42    0.30
   6   3  -5    2.62    0.37
   5   3  -5    2.23    0.27
   5   3  -5    1.86    0.29
  -5  -3   5    2.16    0.22
   4   3  -5    4.01    0.34
  -4  -3   5    3.78    0.27
  -4  -3   5    4.01    0.30
   3   3  -5   25.67    1.12
  -3  -3   5   26.68    0.96
  -3  -3   5   26.14    1.13
   2   3  -5   52.91    1.96
  -2  -3   5   50.92    1.67
  -2  -3   5   52.10    2.05
   0   3  -5    4.35    0.37
   0  -3   5    4.25    0.30
   0  -3   5    4.40    0.33
  -1   3  -5    1.40    0.17
  -1   3  -5    1.46    0.28
   1  -3   5    1.66    0.22
   1  -3   5    1.64    0.21
  -2   3  -5    4.38    0.47
  -2   3  -5    5.82    0.40
   2  -3   5    5.25    0.38
   2  -3   5    5.81    0.40
  -3   3  -5   31.22    1.53
   3  -3   5   30.85    1.33
   3  -3   5   30.57    1.67
  -4   3  -5    0.11    0.22
  -4   3  -5    0.41    0.17
  -6   3  -5    6.45    0.61
   6  -3   5    5.51    0.82
   9   2  -5    2.13    0.55
   9   2  -5    1.54    0.32
   8   2  -5    6.22    0.72
   8   2  -5    6.31    0.50
   7   2  -5   -0.01    0.12
   7   2  -5    0.07    0.21
   6   2  -5   11.33    0.78
   6   2  -5   12.39    0.65
   5   2  -5   10.09    0.54
   5   2  -5    9.94    0.66
  -5  -2   5   10.13    0.53
   4   2  -5    5.90    0.44
  -4  -2   5    5.33    0.35
  -4  -2   5    5.93    0.34
   3   2  -5    5.63    0.40
  -3  -2   5    5.51    0.31
  -3  -2   5    5.41    0.34
   2   2  -5    2.29    0.26
  -2  -2   5    2.41    0.21
  -2  -2   5    2.09    0.19
   0   2  -5    0.01    0.09
   0   2  -5    0.03    0.08
   0  -2   5    0.16    0.16
   0  -2   5    0.08    0.07
   0  -2   5    0.09    0.07
  -1   2  -5    1.05    0.22
   1  -2   5    1.50    0.18
   1  -2   5    0.93    0.20
   1  -2   5    0.74    0.30
   1  -2   5    1.23    0.17
  -2   2  -5    2.12    0.32
   2  -2   5    2.03    0.21
   2  -2   5    2.09    0.30
   2  -2   5    2.04    0.22
  -3   2  -5   62.79    2.55
   3  -2   5   65.31    2.46
   3  -2   5   65.16    2.07
   3  -2   5   63.17    2.93
   4  -2   5    3.03    0.66
  -6   2  -5    0.96    0.26
   6  -2   5    0.93    0.43
  -7   2  -5    5.66    0.59
   7  -2   5    5.87    0.92
   9   1  -5    0.28    0.18
   9   1  -5    0.00    0.32
   8   1  -5   10.21    0.90
   8   1  -5    9.47    0.63
   7   1  -5    3.46    0.24
   7   1  -5    3.46    0.53
   7   1  -5    2.63    0.34
   6   1  -5    1.41    0.34
   6   1  -5    1.32    0.16
   6   1  -5    1.18    0.22
   5   1  -5    2.82    0.29
   5   1  -5    3.04    0.26
   5   1  -5    3.51    0.42
   5   1  -5    3.49    0.43
  -5  -1   5    3.25    0.28
   4   1  -5   10.28    0.63
   4   1  -5   12.00    0.71
  -4  -1   5   11.45    0.57
  -4  -1   5   11.56    0.51
   3   1  -5    6.90    0.47
   3   1  -5    9.85    0.55
  -3  -1   5    8.31    0.39
  -3  -1   5    7.77    0.42
   2   1  -5   27.06    1.40
   2   1  -5   26.55    1.15
  -2  -1   5   27.63    0.92
  -2  -1   5   29.24    1.14
   1   1  -5   30.63    1.24
  -1  -1   5   30.77    1.00
  -1  -1   5   30.65    1.23
   0   1  -5    6.92    0.44
   0   1  -5    6.67    0.35
   0  -1   5    7.18    0.66
   0  -1   5    6.58    0.32
   0  -1   5    7.58    0.39
  -1   1  -5    2.56    0.27
   1  -1   5    2.41    0.18
   1  -1   5    2.39    0.27
   1  -1   5    2.42    0.44
   1  -1   5    2.75    0.21
  -2   1  -5   65.34    2.33
   2  -1   5   62.88    1.92
   2  -1   5   56.87    2.66
   2  -1   5   58.31    1.85
   2  -1   5   59.85    2.28
  -3   1  -5   11.15    0.70
   3  -1   5   11.00    0.53
   3  -1   5   11.84    0.51
   3  -1   5   10.42    0.74
   4  -1   5    6.53    0.83
  -5   1  -5    0.02    0.19
   5  -1   5    0.49    0.37
   6  -1   5   -0.01    0.19
   7  -1   5    0.92    0.42
  -8   1  -5    0.23    0.19
   8  -1   5    0.26    0.28
   8   0  -5    0.02    0.15
   8   0  -5   -0.05    0.26
   8   0  -5   -0.03    0.10
   7   0  -5    0.47    0.17
   7   0  -5    0.60    0.20
   7   0  -5    0.69    0.32
   6   0  -5    0.18    0.12
   6   0  -5    0.06    0.15
   6   0  -5    0.01    0.09
   5   0  -5    0.21    0.12
   5   0  -5    0.16    0.10
   5   0  -5    0.23    0.17
   4   0  -5    0.23    0.12
   4   0  -5    0.23    0.16
  -4   0   5    0.23    0.10
  -4   0   5    0.27    0.11
  -4   0   5    0.21    0.11
   3   0  -5    3.85    0.36
   3   0  -5    4.06    0.35
  -3   0   5    3.96    0.26
  -3   0   5    4.59    0.48
  -3   0   5    4.31    0.31
   2   0  -5    1.79    0.24
   2   0  -5    1.83    0.21
  -2   0   5    1.61    0.17
  -2   0   5    1.22    0.28
  -2   0   5    1.45    0.15
   1   0  -5    0.81    0.16
   1   0  -5    0.81    0.17
   1   0  -5    0.54    0.09
  -1   0   5    0.70    0.11
  -1   0   5    0.53    0.08
  -1   0   5    0.48    0.18
   0   0  -5    5.87    0.41
   0   0  -5    5.27    0.36
   0   0  -5    4.93    0.25
   0   0   5    5.42    0.25
   0   0   5    4.82    0.37
   0   0   5    5.18    0.31
   0   0   5    5.99    0.55
  -1   0  -5    6.75    0.31
  -1   0  -5    6.98    0.44
   1   0   5    7.21    0.37
   1   0   5    6.35    0.46
   1   0   5    6.53    0.63
   1   0   5    6.58    0.28
  -2   0  -5    3.39    0.31
   2   0   5    3.35    0.32
   2   0   5    3.30    0.22
   2   0   5    2.83    0.49
   2   0   5    3.40    0.19
  -3   0  -5   24.27    1.14
   3   0   5   23.92    1.01
   3   0   5   26.10    1.26
   3   0   5   26.10    0.89
   3   0   5   25.20    1.29
   3   0   5   26.09    0.85
   4   0   5    7.72    0.66
   4   0   5    9.08    0.64
   4   0   5    8.93    0.43
   5   0   5    3.70    0.52
   5   0   5    1.32    0.51
   6   0   5    0.22    0.14
   6   0   5    0.05    0.19
   6   0   5    0.08    0.19
   7   0   5    1.89    0.49
   8   0   5    0.54    0.32
   8  -1  -5    2.69    0.64
   8  -1  -5    2.24    0.40
   7  -1  -5    1.06    0.29
   7  -1  -5    1.46    0.45
   6  -1  -5    0.56    0.22
   6  -1  -5    0.78    0.31
   5  -1  -5    0.06    0.11
   5  -1  -5   -0.03    0.13
   4  -1  -5    0.61    0.22
   4  -1  -5    0.62    0.23
   4  -1  -5    0.86    0.23
  -4   1   5    0.67    0.18
  -4   1   5    0.63    0.15
  -4   1   5    0.80    0.19
   3  -1  -5    0.71    0.19
   3  -1  -5    0.79    0.22
  -3   1   5    0.59    0.13
  -3   1   5    0.77    0.16
  -3   1   5    0.81    0.17
  -3   1   5    0.78    0.27
  -3   1   5    0.67    0.16
   2  -1  -5    3.90    0.36
   2  -1  -5    3.85    0.37
  -2   1   5    4.53    0.27
  -2   1   5    4.07    0.33
  -2   1   5    4.63    0.33
  -2   1   5    5.20    0.52
  -2   1   5    4.72    0.37
   1  -1  -5   40.71    2.09
   1  -1  -5   38.54    1.60
   1  -1  -5   42.17    1.28
  -1   1   5   43.31    2.24
  -1   1   5   41.82    1.66
  -1   1   5   41.25    1.77
  -1   1   5   41.73    1.29
  -1   1   5   41.23    1.83
   0  -1  -5    0.31    0.12
   0  -1  -5    0.08    0.04
   0   1   5    0.06    0.05
   0   1   5    0.03    0.04
   0   1   5    0.16    0.14
   0   1   5    0.19    0.09
  -1  -1  -5   42.21    1.24
  -1  -1  -5   41.12    2.09
   1   1   5   45.18    2.33
   1   1   5   37.72    1.38
   1   1   5   40.41    1.83
   1   1   5   42.76    1.23
   1   1   5   43.45    1.64
  -2  -1  -5    2.94    0.27
  -2  -1  -5    2.02    0.13
   2   1   5    2.60    0.31
   2   1   5    2.07    0.24
   2   1   5    2.18    0.12
   2   1   5    2.19    0.20
   2   1   5    2.30    0.41
   3   1   5    2.31    0.13
   3   1   5    2.47    0.16
   3   1   5    2.27    0.26
   3   1   5    2.41    0.19
   3   1   5    2.56    0.33
   3   1   5    1.99    0.40
  -4  -1  -5    0.04    0.12
   4   1   5    0.19    0.20
   4   1   5    0.29    0.08
   4   1   5    0.28    0.12
   4   1   5    0.35    0.18
   4   1   5    0.14    0.05
   5   1   5    1.03    0.30
   5   1   5    0.88    0.42
   6   1   5    0.33    0.22
   6   1   5    0.26    0.21
   7   1   5    4.29    0.56
   7   1   5    4.74    0.64
   7   1   5    5.13    0.39
   8   1   5    0.16    0.14
   8   1   5    0.17    0.27
   8   1   5    0.10    0.19
   9   1   5    0.33    0.35
   9   1   5    0.18    0.21
   7  -2  -5    3.63    0.51
   6  -2  -5    0.09    0.16
   5  -2  -5    2.92    0.42
   5  -2  -5    2.76    0.48
  -5   2   5    3.03    0.38
   4  -2  -5   10.15    0.77
   4  -2  -5   10.71    0.84
  -4   2   5   10.51    0.72
  -4   2   5   10.84    0.68
   3  -2  -5    0.22    0.16
   3  -2  -5    0.29    0.16
   3  -2  -5    0.28    0.16
  -3   2   5    0.22    0.13
  -3   2   5    0.35    0.12
  -3   2   5   -0.01    0.12
  -3   2   5    0.22    0.13
  -3   2   5    0.45    0.15
   2  -2  -5   54.28    2.76
   2  -2  -5   52.21    2.13
  -2   2   5   53.18    2.32
  -2   2   5   54.26    1.74
  -2   2   5   54.06    2.38
  -2   2   5   53.43    2.20
   1  -2  -5   16.45    1.00
   1  -2  -5   16.51    0.60
  -1   2   5   16.30    0.86
  -1   2   5   17.28    0.65
  -1   2   5   15.18    0.86
   0  -2  -5  297.75    8.08
   0  -2  -5  284.68   13.41
   0   2   5  272.21    9.59
   0   2   5  299.46    8.11
   0   2   5  290.45   11.50
   0   2   5  283.69   11.18
   0   2   5  298.08   10.47
   0   2   5  301.17    8.74
  -1  -2  -5    1.18    0.17
  -1  -2  -5    1.01    0.09
   1   2   5    1.01    0.28
   1   2   5    1.15    0.19
   1   2   5    1.02    0.16
   1   2   5    1.22    0.16
   1   2   5    0.90    0.16
   1   2   5    1.44    0.21
   1   2   5    0.95    0.10
  -2  -2  -5    1.64    0.21
  -2  -2  -5    1.67    0.09
   2   2   5    1.43    0.23
   2   2   5    1.85    0.19
   2   2   5    1.73    0.33
   2   2   5    1.46    0.19
   2   2   5    2.17    0.22
   2   2   5    1.58    0.20
   2   2   5    2.24    0.11
  -3  -2  -5    0.11    0.09
   3   2   5    0.15    0.16
   3   2   5    0.08    0.06
   3   2   5    0.17    0.08
   3   2   5    0.25    0.14
   3   2   5    0.15    0.08
   3   2   5    0.22    0.10
  -4  -2  -5    0.84    0.20
   4   2   5    0.68    0.14
   4   2   5    1.04    0.24
   4   2   5    0.60    0.12
   4   2   5    0.64    0.28
   5   2   5    8.24    0.63
   5   2   5    8.45    0.67
   5   2   5    7.56    0.49
   6   2   5    0.21    0.18
   6   2   5    0.26    0.16
   7   2   5    0.11    0.12
   7   2   5    0.20    0.20
   7   2   5    0.15    0.15
   8   2   5    2.44    0.32
   8   2   5    2.28    0.51
   8   2   5    2.70    0.41
   9   2   5    1.23    0.45
   9   2   5    1.53    0.31
   9   2   5    0.97    0.25
   7  -3  -5    0.01    0.20
  -7   3   5    0.17    0.20
   6  -3  -5    0.04    0.18
  -6   3   5    0.07    0.15
   5  -3  -5    1.34    0.39
  -5   3   5    0.95    0.26
   4  -3  -5    4.84    0.56
  -4   3   5    4.38    0.45
  -4   3   5    4.08    0.44
   3  -3  -5   16.88    0.91
   3  -3  -5   17.75    1.21
  -3   3   5   17.10    1.03
  -3   3   5   17.72    1.01
  -3   3   5   18.13    1.00
   2  -3  -5   18.63    1.04
   2  -3  -5   19.79    1.26
   2  -3  -5   19.38    1.05
  -2   3   5   19.71    0.83
  -2   3   5   20.85    1.05
  -2   3   5   21.15    1.06
  -2   3   5   18.09    1.07
  -2   3   5   17.28    0.96
   1  -3  -5    3.69    0.41
   1  -3  -5    4.09    0.35
  -1   3   5    4.02    0.37
  -1   3   5    3.78    0.35
  -1   3   5    3.43    0.33
  -1   3   5    3.80    0.39
  -1   3   5    4.01    0.29
   0  -3  -5   48.20    2.04
   0  -3  -5   46.95    1.45
   0  -3  -5   47.67    2.42
   0   3   5   43.97    1.80
   0   3   5   45.95    1.49
   0   3   5   44.99    1.62
   0   3   5   47.90    2.05
   0   3   5   47.97    2.10
  -1  -3  -5   32.08    1.72
  -1  -3  -5   37.73    1.51
  -1  -3  -5   32.05    1.01
   1   3   5   31.37    1.44
   1   3   5   31.44    1.04
   1   3   5   32.37    1.33
   1   3   5   32.81    1.53
   1   3   5   30.23    1.21
  -2  -3  -5   14.80    0.78
  -2  -3  -5   15.47    0.89
  -2  -3  -5   15.29    0.48
   2   3   5   14.80    0.74
   2   3   5   16.70    0.86
   2   3   5   12.69    0.96
   2   3   5   15.48    0.78
   2   3   5   15.06    0.73
   2   3   5   14.74    0.51
   2   3   5   13.83    0.68
   3   3   5    0.03    0.09
   3   3   5    0.09    0.09
   3   3   5    0.02    0.10
   3   3   5    0.12    0.09
   3   3   5    0.01    0.06
   3   3   5    0.02    0.07
   3   3   5    0.07    0.05
   4   3   5   44.43    1.60
   4   3   5   43.75    1.75
   4   3   5   42.79    2.10
   4   3   5   43.50    1.74
   4   3   5   44.98    1.90
   4   3   5   36.47    2.26
   5   3   5   16.71    0.80
   5   3   5   17.10    0.92
   5   3   5   16.05    0.88
   5   3   5   15.95    0.81
   5   3   5   17.14    0.97
   6   3   5    6.07    0.46
   6   3   5    5.89    0.47
   6   3   5    6.60    0.55
   7   3   5    7.72    0.67
   7   3   5    8.53    0.53
   7   3   5    8.74    0.57
   8   3   5    2.65    0.34
   8   3   5    2.55    0.22
   8   3   5    2.63    0.49
   9   3   5    0.23    0.28
   9   3   5    0.09    0.15
  10   3   5    1.79    0.34
  10   3   5    0.83    0.43
   6  -4  -5    0.19    0.26
  -6   4   5    0.06    0.17
   5  -4  -5    2.50    0.55
  -5   4   5    2.82    0.42
   4  -4  -5    2.52    0.52
  -4   4   5    1.97    0.34
   3  -4  -5    3.39    0.49
  -3   4   5    3.33    0.39
  -3   4   5    3.08    0.44
   2  -4  -5    3.38    0.46
  -2   4   5    4.32    0.36
  -2   4   5    3.29    0.42
  -2   4   5    2.76    0.39
  -2   4   5    3.43    0.36
  -2   4   5    3.34    0.43
   1  -4  -5    7.04    0.63
  -1   4   5    5.68    0.51
  -1   4   5    6.30    0.42
  -1   4   5    6.46    0.47
  -1   4   5    6.41    0.50
  -1   4   5    7.45    0.61
   0  -4  -5  140.98    5.35
   0  -4  -5  134.45    6.36
   0   4   5  135.79    5.42
   0   4   5  129.96    5.34
   0   4   5  125.62    4.58
   0   4   5  129.74    4.20
   0   4   5  129.98    3.90
   0   4   5  128.51    5.05
  -1  -4  -5    0.78    0.19
  -1  -4  -5    0.84    0.22
  -1  -4  -5    0.87    0.12
   1   4   5    0.80    0.21
   1   4   5    0.90    0.18
   1   4   5    0.81    0.13
   1   4   5    0.74    0.13
   1   4   5    0.89    0.20
   1   4   5    0.91    0.21
  -2  -4  -5   10.39    0.41
  -2  -4  -5    9.94    0.65
   2   4   5   11.23    0.59
   2   4   5    8.59    0.70
   2   4   5   11.54    0.67
   2   4   5   10.46    0.64
   2   4   5   10.29    0.71
   2   4   5    9.82    0.58
   2   4   5   10.37    0.44
  -3  -4  -5    1.04    0.19
  -3  -4  -5    0.96    0.09
   3   4   5    1.00    0.12
   3   4   5    0.57    0.15
   3   4   5    0.72    0.19
   3   4   5    0.94    0.19
   3   4   5    1.14    0.23
   3   4   5    1.05    0.21
  -4  -4  -5    2.23    0.25
   4   4   5    2.47    0.31
   4   4   5    2.13    0.30
   4   4   5    2.53    0.30
   4   4   5    2.37    0.29
   5   4   5    0.00    0.10
   5   4   5    0.14    0.12
   5   4   5    0.13    0.10
   5   4   5    0.23    0.14
   6   4   5    0.40    0.17
   6   4   5    0.12    0.13
   7   4   5    4.90    0.47
   7   4   5    4.99    0.49
   7   4   5    4.96    0.40
   8   4   5    3.18    0.37
   8   4   5    3.69    0.50
   8   4   5    3.02    0.43
   9   4   5    6.26    0.64
   9   4   5    5.84    0.69
   9   4   5    6.43    0.51
  10   4   5   -0.01    0.15
  10   4   5   -0.22    0.27
  10   4   5   -0.12    0.20
   5  -5  -5    0.09    0.24
  -5   5   5    0.02    0.24
  -5   5   5    0.09    0.17
  -3   5   5    2.84    0.46
  -3   5   5    3.49    0.40
  -2   5   5   49.08    2.22
  -2   5   5   55.88    2.46
  -2   5   5   54.68    2.42
  -1   5   5    6.78    0.53
  -1   5   5    4.95    0.52
  -1   5   5    5.20    0.42
  -1   5   5    5.60    0.43
   0   5   5   61.73    2.67
   0   5   5   58.28    2.36
   0   5   5   63.93    2.06
   0   5   5   61.82    2.59
   1   5   5    2.59    0.26
   1   5   5    2.26    0.35
   1   5   5    2.32    0.30
   1   5   5    2.25    0.30
  -2  -5  -5    0.10    0.07
   2   5   5    0.03    0.08
   2   5   5    0.00    0.11
   2   5   5    0.07    0.11
   2   5   5    0.06    0.10
   2   5   5    0.15    0.15
   2   5   5    0.20    0.13
   2   5   5   -0.01    0.09
  -3  -5  -5    7.21    0.35
   3   5   5    7.37    0.62
   3   5   5    7.14    0.53
   3   5   5    8.04    0.49
   3   5   5    7.64    0.58
   4   5   5   11.91    0.82
   4   5   5   10.82    0.68
   4   5   5   11.83    0.63
   4   5   5   11.39    0.74
   5   5   5   21.80    1.14
   5   5   5   21.88    1.07
   5   5   5   22.38    1.24
   5   5   5   22.41    1.02
   6   5   5    3.30    0.37
   6   5   5    3.96    0.44
   7   5   5    0.53    0.22
   7   5   5    0.20    0.15
   7   5   5    0.08    0.14
   8   5   5    0.26    0.15
   8   5   5    0.12    0.18
   8   5   5    0.40    0.22
   9   5   5    0.38    0.26
   9   5   5    0.42    0.25
   9   5   5    1.02    0.26
  10   5   5   18.11    1.17
  10   5   5   18.86    1.21
  10   5   5   20.12    1.00
  -5   6   5   -0.10    0.28
  -3   6   5    4.14    0.58
  -3   6   5    4.51    0.46
  -2   6   5   34.12    1.79
  -2   6   5   32.76    1.61
  -1   6   5    0.13    0.17
  -1   6   5    0.01    0.17
  -1   6   5    0.19    0.20
  -1   6   5    0.03    0.10
   0   6   5    1.01    0.30
   0   6   5    0.98    0.14
   0   6   5    1.34    0.29
   1   6   5    0.72    0.21
   1   6   5    0.63    0.18
   1   6   5    0.60    0.20
   1   6   5    0.81    0.27
   2   6   5    1.33    0.26
   2   6   5    1.42    0.22
   2   6   5    1.55    0.33
   2   6   5    1.50    0.25
   3   6   5    1.66    0.25
   3   6   5    1.21    0.27
   3   6   5    1.36    0.31
   4   6   5    0.77    0.18
   4   6   5    0.68    0.23
   4   6   5    0.66    0.22
   5   6   5    2.82    0.28
   5   6   5    2.20    0.35
   5   6   5    2.97    0.40
   6   6   5    1.95    0.35
   6   6   5    2.05    0.28
   6   6   5    2.38    0.29
   7   6   5    1.28    0.26
   7   6   5    1.40    0.26
   7   6   5    0.71    0.24
   8   6   5   -0.03    0.13
   8   6   5    0.10    0.15
   8   6   5    0.16    0.18
   9   6   5    1.29    0.29
   9   6   5    0.92    0.33
   9   6   5    0.92    0.29
  10   6   5    5.78    0.61
  10   6   5    7.60    0.59
  10   6   5    5.96    0.71
  -2   7   5    9.35    0.85
  -2   7   5    9.47    0.61
  -1   7   5    0.83    0.30
  -1   7   5    1.20    0.36
   0   7   5    1.20    0.35
   0   7   5    0.86    0.26
   1   7   5   -0.09    0.11
   1   7   5    0.12    0.16
   1   7   5    0.29    0.21
   2   7   5    0.07    0.15
   2   7   5    0.00    0.14
   2   7   5   -0.07    0.11
   2   7   5    0.00    0.12
   3   7   5    4.81    0.50
   3   7   5    4.59    0.52
   3   7   5    4.61    0.38
   4   7   5    0.49    0.22
   4   7   5    0.51    0.24
   4   7   5    0.90    0.20
   5   7   5    4.60    0.54
   5   7   5    4.99    0.53
   5   7   5    5.72    0.40
   6   7   5    0.12    0.13
   6   7   5    0.11    0.15
   6   7   5    0.03    0.14
   6   7   5    0.12    0.12
   7   7   5    1.08    0.24
   7   7   5    0.92    0.31
   7   7   5    1.01    0.21
   8   7   5    0.81    0.30
   8   7   5    0.99    0.25
   8   7   5    0.92    0.23
   9   7   5    1.14    0.28
   9   7   5    1.67    0.32
   9   7   5    1.23    0.37
  10   7   5    4.41    0.51
  10   7   5    4.60    0.65
  10   7   5    4.93    0.51
  -2   8   5    0.15    0.26
  -1   8   5    1.97    0.47
   0   8   5    2.16    0.47
   1   8   5    1.07    0.29
   1   8   5    0.57    0.30
   2   8   5    0.19    0.21
   2   8   5    0.11    0.17
   2   8   5    0.30    0.20
   3   8   5    5.56    0.46
   3   8   5    6.33    0.66
   3   8   5    5.63    0.58
   4   8   5    0.01    0.16
   4   8   5    0.08    0.13
   4   8   5    0.24    0.20
   5   8   5    0.53    0.25
   5   8   5    0.70    0.17
   5   8   5    0.73    0.29
   6   8   5    2.36    0.29
   6   8   5    2.38    0.44
   6   8   5    3.03    0.47
   6   8   5    2.28    0.24
   7   8   5    2.77    0.34
   7   8   5    2.89    0.27
   7   8   5    2.91    0.49
   8   8   5    0.98    0.20
   8   8   5    0.71    0.31
   8   8   5    0.83    0.25
   9   8   5    4.78    0.65
   9   8   5    4.67    0.49
   9   8   5    4.84    0.39
  -1   9   5    0.02    0.20
  -1   9   5   -0.06    0.28
   0   9   5    0.59    0.33
   0   9   5    0.40    0.27
   1   9   5   -0.14    0.21
   1   9   5    0.02    0.21
   2   9   5    0.47    0.25
   2   9   5    0.32    0.27
   3   9   5    0.44    0.21
   3   9   5    0.34    0.24
   3   9   5    0.21    0.23
   4   9   5    5.54    0.45
   4   9   5    6.02    0.68
   4   9   5    4.96    0.59
   5   9   5    0.04    0.14
   5   9   5   -0.01    0.21
   5   9   5   -0.03    0.18
   6   9   5    1.57    0.41
   6   9   5    1.22    0.19
   6   9   5    1.06    0.36
   7   9   5    4.36    0.61
   8   9   5    1.35    0.41
   8   9   5    0.93    0.25
   9   9   5    3.58    0.60
   9   9   5    5.00    0.50
   1  10   5    1.02    0.36
   2  10   5    0.28    0.24
   3  10   5    0.73    0.25
   3  10   5    0.84    0.38
   4  10   5    0.28    0.20
   4  10   5    0.62    0.31
   4  10   5    0.58    0.35
   5  10   5    1.36    0.40
   5  10   5    1.39    0.44
   5  10   5    0.87    0.21
   6  10   5    1.93    0.48
   6  10   5    1.45    0.20
   6  10   5    1.94    0.44
   7  10   5    4.51    0.65
   8  10   5    4.34    0.67
   5   8  -6    0.48    0.17
   4   8  -6    2.01    0.31
   3   8  -6    0.98    0.28
   2   8  -6    1.82    0.38
   6   7  -6    0.74    0.18
  -6  -7   6    0.51    0.21
   5   7  -6    2.14    0.28
  -5  -7   6    2.05    0.35
   4   7  -6    1.31    0.26
  -4  -7   6    1.56    0.32
   3   7  -6    0.73    0.24
  -3  -7   6    0.90    0.27
   2   7  -6    2.17    0.37
  -2  -7   6    2.11    0.37
   1   7  -6    0.26    0.23
   1   7  -6    0.17    0.22
  -1  -7   6    0.27    0.21
   0   7  -6    0.46    0.26
   0   7  -6    0.54    0.29
   0  -7   6    0.60    0.24
  -1   7  -6    0.23    0.28
   8   6  -6    4.22    0.42
   7   6  -6    0.16    0.17
   6   6  -6    4.00    0.38
  -6  -6   6    4.97    0.43
   5   6  -6    0.86    0.21
  -5  -6   6    0.75    0.22
   4   6  -6    0.27    0.16
  -4  -6   6    0.02    0.13
   3   6  -6    2.45    0.33
  -3  -6   6    2.36    0.35
   2   6  -6    8.69    0.63
  -2  -6   6    8.31    0.62
   1   6  -6    3.27    0.44
  -1  -6   6    3.17    0.40
   0   6  -6    0.53    0.25
   0  -6   6    0.30    0.18
  -1   6  -6    3.14    0.51
   1  -6   6    2.84    0.39
  -2   6  -6    0.67    0.36
   2  -6   6    0.96    0.26
   8   5  -6    0.28    0.20
   8   5  -6    0.07    0.19
   7   5  -6    0.93    0.26
   6   5  -6    2.22    0.32
  -6  -5   6    2.34    0.30
   5   5  -6    0.43    0.17
  -5  -5   6    0.56    0.17
   4   5  -6    2.25    0.30
  -4  -5   6    1.77    0.27
   3   5  -6    3.55    0.35
  -3  -5   6    3.98    0.38
   2   5  -6    3.82    0.38
  -2  -5   6    3.88    0.38
   1   5  -6    5.34    0.49
  -1  -5   6    5.74    0.47
   0   5  -6    0.56    0.23
   0  -5   6    0.51    0.18
  -1   5  -6    5.58    0.57
   1  -5   6    4.85    0.43
  -2   5  -6    2.14    0.46
   2  -5   6    1.58    0.28
  -3   5  -6    9.20    0.85
  -3   5  -6    9.28    0.57
   9   4  -6    0.27    0.29
   8   4  -6    0.36    0.26
   8   4  -6    0.49    0.21
   7   4  -6   -0.06    0.13
   7   4  -6    0.12    0.18
   6   4  -6    6.60    0.54
  -6  -4   6    6.84    0.46
   5   4  -6   17.50    0.91
  -5  -4   6   17.62    0.87
   4   4  -6    6.22    0.46
  -4  -4   6    6.33    0.44
   3   4  -6    7.26    0.50
  -3  -4   6    7.16    0.48
   2   4  -6    4.53    0.39
  -2  -4   6    3.65    0.34
   1   4  -6    1.28    0.26
  -1  -4   6    1.21    0.22
   0   4  -6    4.03    0.42
   0  -4   6    4.47    0.38
  -1   4  -6    8.28    0.65
   1  -4   6    8.53    0.56
  -2   4  -6   23.20    1.23
  -2   4  -6   19.63    0.99
   2  -4   6   19.39    1.00
  -3   4  -6    0.35    0.15
  -3   4  -6    0.28    0.25
  -3   4  -6    0.08    0.24
  -4   4  -6    1.01    0.24
  -4   4  -6    0.05    0.25
  -5   4  -6    2.61    0.40
   9   3  -6    0.57    0.25
   9   3  -6    1.00    0.38
   8   3  -6    2.36    0.36
   8   3  -6    2.78    0.50
   7   3  -6    2.10    0.40
   7   3  -6    2.01    0.31
   6   3  -6    0.96    0.27
   5   3  -6    2.41    0.33
  -5  -3   6    2.95    0.27
   4   3  -6    4.69    0.40
  -4  -3   6    4.85    0.35
   3   3  -6    4.06    0.37
  -3  -3   6    4.12    0.32
   2   3  -6    0.75    0.19
  -2  -3   6    0.70    0.15
  -2  -3   6    0.73    0.15
   1   3  -6    0.89    0.20
  -1  -3   6    0.70    0.16
  -1  -3   6    0.91    0.16
   0   3  -6    1.88    0.31
   0  -3   6    2.50    0.26
   0  -3   6    2.78    0.26
  -1   3  -6    6.14    0.38
  -1   3  -6    6.18    0.52
   1  -3   6    6.10    0.42
   1  -3   6    5.91    0.39
  -2   3  -6    2.07    0.24
  -2   3  -6    2.47    0.40
   2  -3   6    2.53    0.26
  -3   3  -6    9.76    0.78
  -3   3  -6   10.59    0.68
   3  -3   6   11.11    0.61
  -4   3  -6    0.09    0.12
  -4   3  -6   -0.08    0.19
   4  -3   6    0.06    0.17
  -6   3  -6    2.35    0.39
   9   2  -6    0.82    0.41
   9   2  -6    0.79    0.26
   8   2  -6    0.89    0.25
   8   2  -6    0.83    0.36
   7   2  -6    0.34    0.24
   7   2  -6    0.45    0.18
   6   2  -6    2.85    0.44
   5   2  -6    0.62    0.22
  -5  -2   6    0.48    0.13
   4   2  -6    8.59    0.58
  -4  -2   6    8.33    0.48
   3   2  -6    5.80    0.44
  -3  -2   6    5.52    0.33
  -3  -2   6    5.33    0.36
   2   2  -6   46.72    1.87
  -2  -2   6   48.04    1.55
  -2  -2   6   49.79    1.91
   1   2  -6   29.13    1.28
  -1  -2   6   30.51    1.04
  -1  -2   6   30.31    1.26
   0   2  -6   91.15    3.26
   0  -2   6   89.75    2.69
   0  -2   6   88.15    3.36
  -1   2  -6    8.11    0.56
   1  -2   6    7.26    0.40
   1  -2   6    7.44    0.44
  -2   2  -6    4.51    0.44
   2  -2   6    4.51    0.33
   2  -2   6    4.22    0.44
   2  -2   6    4.69    0.33
  -3   2  -6    5.74    0.54
   3  -2   6    5.82    0.38
   3  -2   6    6.13    0.57
   3  -2   6    5.60    0.38
  -4   2  -6   -0.04    0.18
   4  -2   6    0.27    0.20
   4  -2   6    0.03    0.19
  -5   2  -6    0.21    0.28
   5  -2   6    0.40    0.43
  -6   2  -6    0.01    0.24
  -6   2  -6   -0.02    0.12
   6  -2   6    0.10    0.43
   6  -2   6    0.06    0.25
  -7   2  -6    1.10    0.31
   7  -2   6    1.19    0.48
   8   1  -6    5.29    0.49
   8   1  -6    5.23    0.73
   7   1  -6    5.05    0.64
   7   1  -6    3.81    0.40
   6   1  -6    1.16    0.15
   6   1  -6    2.04    0.40
   5   1  -6    0.44    0.20
   5   1  -6    0.40    0.12
  -5  -1   6    0.57    0.15
   4   1  -6   17.02    0.92
   4   1  -6   17.58    0.93
  -4  -1   6   16.57    0.69
  -4  -1   6   15.46    0.78
   3   1  -6    8.10    0.52
   3   1  -6    7.92    0.54
  -3  -1   6    8.13    0.46
  -3  -1   6    7.88    0.40
   2   1  -6    3.16    0.31
  -2  -1   6    2.75    0.21
  -2  -1   6    3.08    0.25
   1   1  -6   12.37    0.67
  -1  -1   6   10.59    0.89
  -1  -1   6   12.31    0.50
  -1  -1   6   13.36    0.61
   0   1  -6   52.41    1.92
   0  -1   6   46.43    1.51
   0  -1   6   46.24    2.16
   0  -1   6   50.62    1.90
  -1   1  -6    4.37    0.38
   1  -1   6    4.43    0.30
   1  -1   6    4.07    0.39
   1  -1   6    4.00    0.25
  -2   1  -6   17.64    0.87
   2  -1   6   14.47    0.59
   2  -1   6   14.14    0.68
   2  -1   6   13.78    0.88
  -3   1  -6   21.46    1.14
   3  -1   6   22.92    0.99
   3  -1   6   23.95    1.29
   3  -1   6   23.41    0.86
  -5   1  -6    0.01    0.20
   5  -1   6    0.55    0.41
   6  -1   6    0.18    0.41
   6  -1   6    0.25    0.26
   7  -1   6    6.53    0.84
   8   0  -6    0.16    0.28
   8   0  -6    0.17    0.13
   7   0  -6    0.13    0.23
   7   0  -6    0.09    0.12
   6   0  -6    4.56    0.57
   6   0  -6    3.80    0.38
   5   0  -6    4.00    0.51
   5   0  -6    3.91    0.38
   5   0  -6    4.59    0.54
   4   0  -6    0.06    0.12
   4   0  -6    0.11    0.10
  -4   0   6    0.01    0.08
  -4   0   6    0.27    0.11
  -4   0   6    0.06    0.10
   3   0  -6   27.79    1.51
   3   0  -6   27.61    1.29
  -3   0   6   29.40    1.24
  -3   0   6   28.35    1.00
   2   0  -6    0.97    0.19
   2   0  -6    0.54    0.17
  -2   0   6    0.57    0.11
  -2   0   6    0.69    0.16
  -2   0   6    0.41    0.19
  -2   0   6    0.41    0.11
   1   0  -6   14.82    0.78
   1   0  -6   16.10    0.90
  -1   0   6   14.47    1.06
  -1   0   6   15.34    0.83
  -1   0   6   13.92    0.56
  -1   0   6   16.41    0.72
   0   0  -6  157.22    4.41
   0   0  -6  155.73    7.24
   0   0  -6  155.73    5.29
   0   0   6  155.67    5.61
   0   0   6  156.61    4.38
   0   0   6  152.21    6.26
   0   0   6  149.37    7.51
  -1   0  -6    4.50    0.26
  -1   0  -6    4.53    0.37
   1   0   6    4.59    0.23
   1   0   6    4.73    0.40
   1   0   6    4.61    0.26
   1   0   6    4.40    0.54
   1   0   6    5.04    0.31
  -2   0  -6    5.17    0.41
   2   0   6    3.02    0.56
   2   0   6    4.85    0.30
   2   0   6    4.80    0.42
   2   0   6    3.59    0.43
   2   0   6    4.59    0.24
  -3   0  -6    6.86    0.51
   3   0   6    6.63    0.36
   3   0   6    6.66    0.57
   3   0   6    6.59    0.53
   3   0   6    6.53    0.37
   3   0   6    6.86    0.32
   4   0   6    3.38    0.49
   4   0   6    3.93    0.27
   4   0   6    4.38    0.44
   7   0   6    7.50    0.85
   8   0   6    0.63    0.34
   8  -1  -6    1.05    0.47
   8  -1  -6    0.48    0.21
   7  -1  -6    4.12    0.47
   7  -1  -6    4.67    0.71
   6  -1  -6    1.01    0.36
   6  -1  -6    1.29    0.30
   5  -1  -6    0.00    0.14
   5  -1  -6    0.07    0.13
   4  -1  -6   24.78    1.31
   4  -1  -6   25.63    1.31
   4  -1  -6   23.37    1.42
  -4   1   6   24.90    1.19
   3  -1  -6    5.43    0.47
   3  -1  -6    5.11    0.47
  -3   1   6    4.77    0.57
  -3   1   6    4.98    0.41
  -3   1   6    4.57    0.38
  -3   1   6    5.13    0.44
  -3   1   6    4.66    0.32
   2  -1  -6    4.24    0.39
   2  -1  -6    4.29    0.39
  -2   1   6    4.19    0.37
  -2   1   6    3.43    0.31
  -2   1   6    4.28    0.27
  -2   1   6    3.85    0.34
  -2   1   6    4.63    0.51
   1  -1  -6   35.76    1.44
   1  -1  -6   36.04    1.82
  -1   1   6   35.22    1.55
  -1   1   6   32.70    1.11
  -1   1   6   30.27    1.42
  -1   1   6   36.40    2.01
  -1   1   6   35.45    1.61
   0  -1  -6   25.99    1.35
   0  -1  -6   24.93    1.09
   0  -1  -6   23.51    0.81
   0   1   6   23.51    0.80
   0   1   6   23.62    1.20
   0   1   6   25.44    1.54
   0   1   6   24.62    1.07
  -1  -1  -6    3.84    0.34
  -1  -1  -6    4.49    0.38
  -1  -1  -6    4.72    0.23
   1   1   6    4.93    0.22
   1   1   6    4.76    0.29
   1   1   6    4.53    0.37
   1   1   6    3.61    0.49
   1   1   6    4.34    0.30
  -2  -1  -6   18.63    1.08
  -2  -1  -6   17.24    0.62
   2   1   6   17.74    0.59
   2   1   6   18.68    0.82
   2   1   6   18.01    0.98
   2   1   6   19.56    0.97
   2   1   6   19.21    0.75
  -3  -1  -6    0.04    0.10
   3   1   6   -0.03    0.13
   3   1   6    0.10    0.04
   3   1   6    0.09    0.06
   3   1   6    0.13    0.06
   3   1   6    0.02    0.08
   3   1   6    0.14    0.13
   4   1   6    3.99    0.27
   4   1   6    3.86    0.38
   4   1   6    3.93    0.47
   5   1   6    4.46    0.55
   6   1   6    0.29    0.35
   6   1   6    0.77    0.31
   6   1   6    1.33    0.38
   7   1   6    1.59    0.26
   7   1   6    1.42    0.42
   7   1   6    1.06    0.38
   8   1   6    1.65    0.29
   8   1   6    1.12    0.38
   8   1   6    1.47    0.48
   9   1   6    2.75    0.54
   7  -2  -6    2.92    0.50
   6  -2  -6    3.45    0.47
   5  -2  -6   10.89    0.87
   5  -2  -6   10.21    0.85
   4  -2  -6    3.87    0.53
   4  -2  -6    4.59    0.50
   4  -2  -6    4.61    0.55
  -4   2   6    5.02    0.47
  -4   2   6    4.88    0.46
   3  -2  -6    4.15    0.44
   3  -2  -6    3.71    0.46
  -3   2   6    4.09    0.40
  -3   2   6    3.73    0.38
  -3   2   6    3.51    0.38
  -3   2   6    3.33    0.30
   2  -2  -6   56.60    2.23
   2  -2  -6   54.61    2.81
  -2   2   6   58.28    2.29
  -2   2   6   55.70    2.45
  -2   2   6   50.98    2.39
  -2   2   6   56.23    1.78
  -2   2   6   50.72    2.13
   1  -2  -6  117.21    4.13
   1  -2  -6  118.31    5.57
  -1   2   6  112.03    4.09
  -1   2   6  110.08    4.78
  -1   2   6  118.66    3.41
  -1   2   6  115.54    4.69
  -1   2   6  121.60    4.41
  -1   2   6  116.07    5.74
   0  -2  -6   10.17    0.70
   0  -2  -6   11.40    0.42
   0   2   6   10.90    0.50
   0   2   6    8.89    0.58
   0   2   6   10.60    0.64
   0   2   6   10.66    0.65
   0   2   6   11.29    0.45
   0   2   6    9.84    0.60
   0   2   6   10.58    0.85
  -1  -2  -6   71.21    2.05
  -1  -2  -6   71.57    3.47
   1   2   6   65.32    2.93
   1   2   6   73.72    2.07
   1   2   6   69.07    3.00
   1   2   6   76.73    2.64
   1   2   6   72.63    2.76
   1   2   6   67.15    2.31
  -2  -2  -6    3.74    0.36
  -2  -2  -6    3.96    0.18
   2   2   6    4.19    0.35
   2   2   6    3.49    0.34
   2   2   6    2.84    0.44
   2   2   6    4.56    0.33
   2   2   6    4.06    0.18
   2   2   6    4.34    0.31
   2   2   6    4.46    0.36
  -3  -2  -6    0.06    0.09
   3   2   6    0.00    0.05
   3   2   6    0.04    0.07
   3   2   6    0.31    0.20
   3   2   6    0.03    0.07
   3   2   6   -0.03    0.08
   3   2   6    0.04    0.11
   4   2   6    1.98    0.20
   4   2   6    1.83    0.24
   4   2   6    1.82    0.33
   4   2   6    1.92    0.25
   4   2   6    1.09    0.38
   4   2   6    1.88    0.23
   5   2   6    5.64    0.53
   5   2   6    4.39    0.75
   6   2   6    5.83    0.58
   6   2   6    4.92    0.55
   7   2   6    3.53    0.56
   7   2   6    3.06    0.49
   8   2   6    5.95    0.47
   8   2   6    6.06    0.63
   8   2   6    8.08    0.80
   9   2   6    4.17    0.72
   9   2   6    3.15    0.43
   9   2   6    3.53    0.41
   7  -3  -6    5.95    0.72
   6  -3  -6    1.89    0.46
  -6   3   6    1.74    0.36
   5  -3  -6    3.48    0.56
  -5   3   6    3.50    0.43
   4  -3  -6   10.42    0.87
  -4   3   6    9.35    0.72
  -4   3   6    9.47    0.71
   3  -3  -6   43.47    2.40
  -3   3   6   40.98    2.04
  -3   3   6   43.52    1.95
  -3   3   6   42.63    2.05
   2  -3  -6    9.04    0.74
  -2   3   6    8.97    0.67
  -2   3   6    9.05    0.63
  -2   3   6    8.53    0.61
  -2   3   6    9.64    0.52
  -2   3   6    8.69    0.63
   1  -3  -6   15.41    0.99
   1  -3  -6   13.48    0.81
   1  -3  -6   14.53    0.80
  -1   3   6   11.41    0.78
  -1   3   6   15.17    0.80
  -1   3   6   14.74    0.89
  -1   3   6   15.59    0.65
  -1   3   6   15.13    0.84
   0  -3  -6    0.99    0.18
   0  -3  -6    1.29    0.26
   0   3   6    1.10    0.22
   0   3   6    1.07    0.14
   0   3   6    0.74    0.20
   0   3   6    1.23    0.25
   0   3   6    1.15    0.20
   0   3   6    0.90    0.17
  -1  -3  -6    8.54    0.61
  -1  -3  -6    9.03    0.35
   1   3   6    7.40    0.46
   1   3   6    8.63    0.53
   1   3   6    7.75    0.58
   1   3   6    8.07    0.53
   1   3   6    8.35    0.37
   1   3   6    9.03    0.57
  -2  -3  -6   40.00    1.21
  -2  -3  -6   42.50    2.14
   2   3   6   41.43    1.83
   2   3   6   38.85    1.66
   2   3   6   38.83    1.25
   2   3   6   42.21    1.53
   2   3   6   45.33    1.79
   2   3   6   43.59    1.92
  -3  -3  -6   99.76    4.83
   3   3   6  103.33    4.12
   3   3   6   95.63    3.83
   3   3   6  101.26    3.63
   3   3   6  104.24    4.14
   3   3   6  101.60    3.32
   4   3   6   52.19    1.99
   4   3   6   51.37    2.40
   4   3   6   63.68    2.27
   4   3   6   55.12    2.21
   5   3   6   43.79    1.70
   5   3   6   44.45    1.84
   5   3   6   46.21    2.01
   5   3   6   44.41    1.93
   6   3   6   10.68    0.77
   6   3   6   10.63    0.66
   6   3   6   11.08    0.78
   7   3   6    0.65    0.24
   7   3   6    0.58    0.19
   7   3   6    0.58    0.25
   8   3   6    0.25    0.14
   8   3   6    0.07    0.22
   8   3   6    0.29    0.16
   9   3   6    3.58    0.42
   9   3   6    3.92    0.66
   6  -4  -6    2.39    0.56
  -6   4   6    2.57    0.45
   5  -4  -6   13.95    1.18
  -5   4   6   13.15    0.97
   4  -4  -6    1.08    0.36
  -4   4   6    0.74    0.24
   3  -4  -6  108.93    5.47
  -3   4   6  104.98    4.61
  -3   4   6  108.48    4.34
   2  -4  -6   14.11    1.06
  -2   4   6   14.13    0.90
  -2   4   6   13.88    0.86
  -2   4   6   13.88    0.86
   1  -4  -6    1.12    0.31
  -1   4   6    0.87    0.24
  -1   4   6    1.14    0.20
  -1   4   6    0.92    0.19
  -1   4   6    1.02    0.26
   0  -4  -6   20.15    1.27
   0   4   6   20.40    1.04
   0   4   6   19.95    0.89
   0   4   6   19.62    0.98
   0   4   6   20.79    1.10
   0   4   6   20.80    0.83
   0   4   6   19.61    1.17
  -1  -4  -6   18.55    0.65
  -1  -4  -6   17.64    1.10
   1   4   6   17.99    0.91
   1   4   6   17.27    1.04
   1   4   6   17.22    0.88
   1   4   6   17.60    0.70
   1   4   6   16.54    0.95
   1   4   6   17.63    0.82
  -2  -4  -6   17.27    0.59
   2   4   6   16.78    0.64
   2   4   6   17.47    0.83
   2   4   6   16.95    0.83
   2   4   6   18.36    1.04
   2   4   6   17.29    0.87
   2   4   6   17.67    0.95
  -3  -4  -6   10.87    0.37
  -3  -4  -6   12.00    0.69
   3   4   6   11.06    0.68
   3   4   6    9.90    0.79
   3   4   6   11.34    0.65
   3   4   6   10.36    0.63
   3   4   6   11.10    0.42
   3   4   6   11.04    0.74
   4   4   6    1.14    0.22
   4   4   6    1.25    0.25
   4   4   6    1.19    0.24
   4   4   6    0.66    0.19
   4   4   6    0.90    0.24
   5   4   6   17.44    0.93
   5   4   6   18.26    0.95
   5   4   6   17.43    1.02
   5   4   6   20.32    0.96
   5   4   6   17.68    0.96
   6   4   6    5.43    0.48
   6   4   6    5.60    0.52
   7   4   6    3.70    0.49
   7   4   6    4.14    0.47
   8   4   6    3.20    0.45
   8   4   6    3.64    0.40
   8   4   6    3.99    0.55
   9   4   6   -0.14    0.16
   9   4   6    0.06    0.15
   9   4   6    0.10    0.23
  10   4   6   10.53    0.85
  10   4   6   10.30    0.70
  10   4   6   10.24    0.94
   5  -5  -6    0.07    0.23
  -5   5   6    0.18    0.18
  -5   5   6   -0.01    0.25
   4  -5  -6    0.01    0.21
  -4   5   6    0.00    0.24
  -4   5   6    0.35    0.20
  -3   5   6   51.55    2.42
  -3   5   6   51.04    2.42
  -2   5   6   -0.10    0.17
  -2   5   6    0.41    0.23
  -2   5   6    0.58    0.26
  -2   5   6    0.51    0.18
  -1   5   6    4.76    0.48
  -1   5   6    5.38    0.54
  -1   5   6    5.60    0.44
   0   5   6    0.05    0.16
   0   5   6    0.31    0.17
   0   5   6    0.39    0.12
   0   5   6    0.35    0.19
   0   5   6    0.22    0.11
   1   5   6    4.84    0.40
   1   5   6    4.85    0.42
   1   5   6    4.71    0.34
   1   5   6    4.66    0.48
   1   5   6    4.62    0.32
  -2  -5  -6    8.62    0.39
   2   5   6    7.86    0.42
   2   5   6    9.14    0.66
   2   5   6    7.12    0.53
   2   5   6    7.99    0.55
   3   5   6    0.50    0.11
   3   5   6    0.54    0.11
   3   5   6    0.31    0.14
   3   5   6    0.51    0.19
   3   5   6    0.66    0.21
   3   5   6    0.38    0.16
   4   5   6    0.44    0.18
   4   5   6    0.64    0.18
   4   5   6    0.46    0.18
   5   5   6    4.50    0.40
   5   5   6    4.10    0.45
   5   5   6    4.76    0.44
   6   5   6    0.38    0.19
   6   5   6    0.63    0.23
   7   5   6    4.41    0.48
   7   5   6    3.57    0.47
   8   5   6    2.54    0.35
   8   5   6    2.51    0.43
   8   5   6    2.29    0.42
   9   5   6    1.92    0.41
   9   5   6    1.84    0.43
   9   5   6    1.57    0.32
  10   5   6    0.14    0.26
  10   5   6    0.11    0.18
  10   5   6    0.15    0.28
  -3   6   6   24.80    1.52
  -3   6   6   26.39    1.42
  -2   6   6    4.86    0.45
  -2   6   6    4.18    0.59
  -1   6   6    6.69    0.66
  -1   6   6    6.95    0.51
  -1   6   6    7.18    0.61
   0   6   6    0.32    0.11
   0   6   6    0.48    0.23
   0   6   6   -0.07    0.16
   0   6   6    0.21    0.18
   1   6   6    4.52    0.43
   1   6   6    3.74    0.50
   1   6   6    4.56    0.37
   1   6   6    4.06    0.43
   2   6   6    0.56    0.16
   2   6   6    0.50    0.19
   2   6   6    0.30    0.15
   2   6   6    0.59    0.23
   2   6   6    0.16    0.14
   3   6   6   29.94    1.27
   3   6   6   27.47    1.29
   3   6   6   26.18    1.45
   4   6   6   12.21    0.85
   4   6   6   12.80    0.71
   4   6   6   12.85    0.80
   5   6   6   33.42    1.52
   5   6   6   36.01    1.47
   5   6   6   33.00    1.67
   6   6   6   12.67    0.75
   6   6   6   14.52    0.88
   7   6   6   22.19    1.13
   7   6   6   21.58    1.20
   7   6   6   24.67    1.03
   8   6   6    2.37    0.43
   8   6   6    3.63    0.40
   8   6   6    2.19    0.38
   9   6   6    0.71    0.33
   9   6   6    0.75    0.24
   9   6   6    0.78    0.30
  10   6   6    0.38    0.30
  10   6   6    0.41    0.28
  10   6   6    0.38    0.21
  -2   7   6    5.35    0.45
  -2   7   6    3.89    0.59
  -1   7   6    2.77    0.27
  -1   7   6    2.54    0.48
   0   7   6    1.31    0.36
   1   7   6    0.11    0.17
   1   7   6   -0.04    0.14
   1   7   6    0.05    0.15
   2   7   6    1.17    0.29
   2   7   6    1.25    0.35
   2   7   6    0.94    0.24
   2   7   6    1.08    0.23
   3   7   6   28.18    1.30
   3   7   6   23.50    1.18
   3   7   6   28.16    1.52
   4   7   6    0.32    0.15
   4   7   6    0.19    0.18
   4   7   6    0.44    0.23
   5   7   6    0.06    0.16
   5   7   6   -0.03    0.13
   5   7   6    0.07    0.12
   6   7   6    2.89    0.45
   6   7   6    2.87    0.44
   6   7   6    2.74    0.34
   7   7   6   12.16    0.72
   7   7   6   11.95    0.87
   7   7   6   12.91    0.70
   8   7   6    0.29    0.20
   8   7   6    0.29    0.23
   8   7   6    0.54    0.22
   9   7   6    2.06    0.36
   9   7   6    2.24    0.46
   9   7   6    2.04    0.37
  10   7   6    2.85    0.43
  10   7   6    3.17    0.57
  10   7   6    2.67    0.45
  -2   8   6    0.31    0.31
  -2   8   6    0.05    0.27
  -2   8   6    0.09    0.31
  -1   8   6    0.74    0.35
  -1   8   6    0.11    0.23
  -1   8   6    0.36    0.28
   0   8   6    0.49    0.29
   0   8   6    1.12    0.38
   0   8   6    0.09    0.19
   1   8   6    1.38    0.41
   1   8   6    1.62    0.35
   2   8   6    0.57    0.24
   2   8   6    0.80    0.33
   2   8   6    0.92    0.28
   3   8   6    0.03    0.19
   3   8   6    0.11    0.22
   3   8   6    0.13    0.15
   4   8   6    2.64    0.48
   4   8   6    2.86    0.34
   4   8   6    2.34    0.40
   5   8   6    6.66    0.67
   5   8   6    5.63    0.63
   5   8   6    5.27    0.42
   6   8   6   19.53    0.85
   6   8   6   17.78    0.87
   6   8   6   18.38    1.13
   6   8   6   16.22    1.13
   7   8   6   48.13    1.70
   7   8   6   45.95    2.10
   7   8   6   47.43    1.85
   8   8   6    2.22    0.47
   8   8   6    2.43    0.32
   8   8   6    2.29    0.35
   9   8   6    0.61    0.22
   9   8   6    0.92    0.35
   9   8   6    0.57    0.23
  -1   9   6    0.07    0.23
  -1   9   6    0.30    0.31
   0   9   6   -0.03    0.23
   0   9   6    0.12    0.26
   1   9   6    1.46    0.44
   2   9   6    3.06    0.58
   3   9   6    4.10    0.61
   3   9   6    2.75    0.39
   4   9   6    5.33    0.70
   4   9   6    5.88    0.49
   4   9   6    5.63    0.63
   5   9   6   10.81    0.92
   5   9   6    9.96    0.62
   5   9   6   10.49    0.83
   6   9   6    0.56    0.19
   6   9   6    0.44    0.28
   6   9   6    0.32    0.27
   7   9   6    8.29    0.50
   7   9   6    8.69    0.80
   8   9   6    0.50    0.21
   8   9   6    0.00    0.13
   8   9   6    0.32    0.29
   9   9   6    0.97    0.30
   9   9   6    0.38    0.17
   9   9   6    0.94    0.40
   1  10   6    0.26    0.27
   2  10   6   -0.03    0.21
   4  10   6    0.74    0.32
   4  10   6    0.66    0.37
   4  10   6    0.76    0.25
   5  10   6   22.07    1.49
   5  10   6   20.74    1.29
   6  10   6    0.43    0.26
   6  10   6    0.37    0.30
   6  10   6    0.43    0.18
   7  10   6    0.28    0.32
   8  10   6    0.21    0.31
   6   7  -7    0.14    0.16
  -6  -7   7    0.22    0.19
   5   7  -7    0.79    0.23
  -5  -7   7    1.14    0.29
   4   7  -7    0.09    0.17
  -4  -7   7    0.13    0.16
   3   7  -7    0.01    0.17
  -3  -7   7    0.03    0.16
   2   7  -7    1.90    0.38
   1   7  -7    0.27    0.24
   0   7  -7    0.12    0.24
   7   6  -7   -0.16    0.14
   7   6  -7    0.22    0.21
   6   6  -7    0.45    0.19
  -6  -6   7    0.41    0.18
   5   6  -7    0.86    0.24
  -5  -6   7    0.99    0.25
   4   6  -7   -0.03    0.15
  -4  -6   7   -0.01    0.14
   3   6  -7    0.57    0.21
  -3  -6   7    0.46    0.19
   2   6  -7    0.31    0.21
  -2  -6   7    0.54    0.21
   1   6  -7    0.79    0.29
  -1  -6   7    0.39    0.19
   0   6  -7    0.91    0.31
   0  -6   7    0.41    0.20
  -1   6  -7    1.03    0.36
   1  -6   7    0.99    0.27
  -2   6  -7    1.96    0.49
   2  -6   7    2.40    0.38
   8   5  -7    0.71    0.29
   7   5  -7    0.33    0.22
   7   5  -7    0.28    0.24
   6   5  -7    0.51    0.22
  -6  -5   7    0.31    0.16
   5   5  -7    0.49    0.20
  -5  -5   7    0.51    0.18
   4   5  -7    1.89    0.31
  -4  -5   7    2.09    0.30
   3   5  -7    2.30    0.33
  -3  -5   7    1.93    0.29
   2   5  -7    3.08    0.40
  -2  -5   7    2.81    0.35
   1   5  -7    4.41    0.47
  -1  -5   7    4.97    0.44
   0   5  -7    0.80    0.28
   0  -5   7    0.71    0.22
  -1   5  -7    3.07    0.50
   1  -5   7    3.42    0.37
  -2   5  -7    0.09    0.21
  -2   5  -7   -0.04    0.22
   2  -5   7    0.15    0.15
  -3   5  -7    1.25    0.42
   8   4  -7    0.52    0.30
   7   4  -7    0.16    0.22
   7   4  -7    0.02    0.19
   6   4  -7    2.63    0.40
  -6  -4   7    2.61    0.30
   5   4  -7    0.08    0.14
  -5  -4   7   -0.04    0.10
   4   4  -7   10.47    0.68
  -4  -4   7   10.86    0.64
   3   4  -7    0.07    0.12
  -3  -4   7    0.16    0.12
   2   4  -7    4.64    0.44
  -2  -4   7    5.46    0.42
   1   4  -7    4.46    0.43
  -1  -4   7    3.32    0.33
   0   4  -7    3.95    0.47
   0  -4   7    4.24    0.37
  -1   4  -7    0.05    0.18
  -1   4  -7   -0.03    0.17
   1  -4   7    0.25    0.15
  -2   4  -7    0.46    0.25
  -2   4  -7    0.02    0.09
  -2   4  -7    0.07    0.22
   2  -4   7    0.30    0.16
  -3   4  -7    5.50    0.68
  -3   4  -7    5.45    0.45
  -4   4  -7    0.02    0.13
   8   3  -7    0.14    0.25
   7   3  -7    5.01    0.60
   7   3  -7    5.81    0.65
   6   3  -7   10.99    0.79
   5   3  -7    3.13    0.40
  -5  -3   7    3.10    0.30
   4   3  -7   29.38    1.35
  -4  -3   7   29.04    1.29
   3   3  -7   18.13    0.95
  -3  -3   7   17.57    0.87
   2   3  -7    1.52    0.27
  -2  -3   7    1.88    0.24
   1   3  -7   20.40    1.01
  -1  -3   7   18.54    0.92
   0   3  -7    4.53    0.44
   0  -3   7    4.33    0.35
  -1   3  -7    0.09    0.08
  -1   3  -7    0.09    0.18
  -1   3  -7    0.20    0.17
   1  -3   7    0.10    0.10
  -2   3  -7    4.01    0.50
  -2   3  -7    3.29    0.32
   2  -3   7    4.13    0.35
  -3   3  -7    1.34    0.35
  -3   3  -7    1.06    0.22
   3  -3   7    1.26    0.22
  -4   3  -7    1.18    0.25
   4  -3   7    1.11    0.34
   8   2  -7    0.05    0.26
   7   2  -7    0.72    0.30
   6   2  -7    0.10    0.20
   6   2  -7    0.10    0.18
   5   2  -7    0.95    0.26
  -5  -2   7    0.99    0.19
   4   2  -7   43.54    1.88
  -4  -2   7   45.54    1.83
   3   2  -7   18.20    0.95
  -3  -2   7   18.08    0.87
   2   2  -7   27.24    1.26
  -2  -2   7   28.64    1.02
  -2  -2   7   28.31    1.22
   1   2  -7    7.56    0.53
  -1  -2   7    6.30    0.36
  -1  -2   7    6.35    0.42
   0   2  -7   15.63    0.87
   0  -2   7   15.95    0.78
   0  -2   7   16.27    0.67
  -1   2  -7    2.20    0.35
   1  -2   7    2.54    0.24
   1  -2   7    2.25    0.23
  -2   2  -7    0.01    0.13
  -2   2  -7   -0.06    0.13
   2  -2   7   -0.06    0.09
   2  -2   7    0.05    0.08
   2  -2   7    0.02    0.11
  -3   2  -7    1.39    0.33
   3  -2   7    1.16    0.30
   3  -2   7    1.19    0.19
  -4   2  -7    0.09    0.24
   4  -2   7    0.16    0.16
  -5   2  -7    0.19    0.28
   5  -2   7    0.32    0.40
  -6   2  -7    0.06    0.14
  -6   2  -7    0.12    0.30
   6  -2   7    0.08    0.26
   6  -2   7    0.19    0.51
   8   1  -7    2.06    0.53
   7   1  -7    1.29    0.40
   6   1  -7    0.06    0.20
   6   1  -7    0.08    0.19
   6   1  -7    0.04    0.07
   5   1  -7    0.53    0.22
   5   1  -7    0.85    0.15
  -5  -1   7    0.44    0.15
   4   1  -7    2.54    0.26
   4   1  -7    3.03    0.40
  -4  -1   7    3.32    0.30
   3   1  -7   21.12    1.08
   3   1  -7   22.70    1.21
  -3  -1   7   22.69    1.00
  -3  -1   7   20.84    0.83
   2   1  -7    2.32    0.31
  -2  -1   7    1.67    0.18
  -2  -1   7    1.73    0.20
   1   1  -7   17.59    0.89
  -1  -1   7   17.24    0.81
  -1  -1   7   17.04    0.67
   0   1  -7    7.24    0.51
   0  -1   7    7.12    0.42
   0  -1   7    4.97    0.65
   0  -1   7    6.49    0.51
   0  -1   7    6.60    0.34
  -1   1  -7    8.97    0.62
   1  -1   7   10.38    0.54
   1  -1   7    9.88    0.45
   1  -1   7   10.14    0.70
  -2   1  -7   -0.07    0.10
  -2   1  -7    0.04    0.13
   2  -1   7    0.01    0.10
   2  -1   7    0.08    0.07
   2  -1   7    0.07    0.07
   2  -1   7   -0.03    0.13
  -3   1  -7    0.11    0.16
  -3   1  -7    0.03    0.12
   3  -1   7    0.05    0.15
   3  -1   7    0.02    0.13
   3  -1   7    0.06    0.08
  -4   1  -7   -0.08    0.15
   4  -1   7    0.03    0.17
   4  -1   7    0.37    0.20
  -5   1  -7    0.05    0.21
   5  -1   7    0.25    0.35
   5  -1   7    2.11    0.39
   6  -1   7    2.52    0.61
   6  -1   7    0.06    0.39
   7  -1   7    0.63    0.39
   8   0  -7    0.08    0.11
   8   0  -7   -0.15    0.29
   7   0  -7    0.12    0.12
   7   0  -7    0.17    0.28
   6   0  -7    0.05    0.11
   6   0  -7    0.08    0.20
   5   0  -7    0.66    0.19
   5   0  -7    0.78    0.28
   5   0  -7    0.79    0.28
   4   0  -7    0.47    0.21
   4   0  -7    0.59    0.17
  -4   0   7    0.29    0.14
   3   0  -7   61.11    3.06
   3   0  -7   63.19    2.46
  -3   0   7   60.20    2.44
  -3   0   7   62.55    1.96
   2   0  -7    3.23    0.37
   2   0  -7    3.02    0.32
  -2   0   7    3.31    0.28
  -2   0   7    3.09    0.23
   1   0  -7   11.42    0.70
   1   0  -7   12.26    0.79
  -1   0   7   12.12    0.63
  -1   0   7   12.34    0.98
  -1   0   7   12.43    0.74
  -1   0   7   11.85    0.49
   0   0  -7    0.72    0.19
   0   0  -7    1.41    0.25
   0   0   7    1.18    0.22
   0   0   7    1.30    0.13
   0   0   7    1.45    0.39
   0   0   7    1.14    0.17
  -1   0  -7   25.79    0.93
  -1   0  -7   26.74    1.22
   1   0   7   25.63    1.13
   1   0   7   26.80    1.37
   1   0   7   26.62    0.89
   1   0   7   29.56    0.97
  -2   0  -7    9.81    0.64
   2   0   7    9.53    0.51
   2   0   7    9.67    0.40
   2   0   7    9.86    0.69
   3   0   7    2.00    0.31
   4   0   7    2.04    0.34
   6   0   7    0.02    0.40
   7   0   7    0.30    0.30
   8   0   7    0.93    0.43
   7  -1  -7    0.96    0.27
   7  -1  -7    0.71    0.38
   6  -1  -7    3.20    0.56
   6  -1  -7    3.55    0.42
   5  -1  -7    1.80    0.42
   5  -1  -7    2.50    0.46
   5  -1  -7    2.39    0.37
   4  -1  -7   24.07    1.44
   4  -1  -7   26.21    1.36
  -4   1   7   24.75    1.23
   3  -1  -7   33.85    1.82
   3  -1  -7   33.43    1.56
  -3   1   7   33.93    1.20
  -3   1   7   31.46    1.48
  -3   1   7   32.93    1.64
  -3   1   7   33.51    1.58
   2  -1  -7    1.22    0.27
   2  -1  -7    1.67    0.28
  -2   1   7    1.69    0.39
  -2   1   7    0.89    0.19
  -2   1   7    1.28    0.22
  -2   1   7    1.16    0.16
  -2   1   7    1.60    0.25
   1  -1  -7   49.66    2.49
   1  -1  -7   50.77    1.97
  -1   1   7   50.57    2.00
  -1   1   7   47.05    1.52
  -1   1   7   47.10    2.72
  -1   1   7   46.94    2.19
   0  -1  -7   21.46    1.06
   0  -1  -7   23.24    1.30
   0   1   7   22.47    1.17
   0   1   7   23.51    1.54
   0   1   7   22.56    0.78
   0   1   7   21.78    0.82
   0   1   7   22.98    1.03
  -1  -1  -7    0.87    0.21
  -1  -1  -7    1.00    0.22
  -1  -1  -7    1.02    0.12
   1   1   7    0.87    0.14
   1   1   7    0.70    0.14
   1   1   7    1.09    0.11
   1   1   7    0.74    0.18
   1   1   7    0.80    0.33
   1   1   7    0.81    0.22
  -2  -1  -7    1.15    0.24
  -2  -1  -7    0.93    0.22
  -2  -1  -7    0.69    0.10
   2   1   7    0.58    0.17
   2   1   7    0.79    0.15
   2   1   7    0.34    0.23
   2   1   7    0.87    0.09
   2   1   7    0.65    0.14
   2   1   7    0.95    0.25
   3   1   7    0.45    0.28
   3   1   7    0.98    0.22
   3   1   7    1.01    0.16
   3   1   7    1.07    0.27
   4   1   7    6.57    0.62
   4   1   7    7.44    0.43
   4   1   7    7.27    0.59
   5   1   7    4.73    0.59
   6   1   7    1.07    0.37
   6   1   7   -0.07    0.30
   7   1   7    0.09    0.21
   8   1   7    4.27    0.62
   8   1   7    4.41    0.43
   7  -2  -7    2.50    0.46
   6  -2  -7    1.60    0.37
   5  -2  -7    0.71    0.32
   5  -2  -7    0.40    0.21
   4  -2  -7   44.39    2.08
   4  -2  -7   44.51    2.09
   4  -2  -7   43.01    2.41
  -4   2   7   46.24    2.03
  -4   2   7   43.45    2.15
   3  -2  -7   65.26    3.30
   3  -2  -7   64.48    2.64
  -3   2   7   63.09    2.88
  -3   2   7   63.67    3.53
  -3   2   7   61.58    2.66
  -3   2   7   65.82    2.83
   2  -2  -7   23.20    1.40
   2  -2  -7   25.18    1.22
  -2   2   7   21.75    1.15
  -2   2   7   24.07    1.58
  -2   2   7   23.79    1.25
  -2   2   7   23.06    0.92
  -2   2   7   23.36    1.24
   1  -2  -7    0.17    0.13
   1  -2  -7    0.20    0.14
  -1   2   7    0.11    0.10
  -1   2   7    0.05    0.13
  -1   2   7    0.14    0.10
  -1   2   7    0.03    0.08
  -1   2   7    0.27    0.10
  -1   2   7    0.05    0.16
   0  -2  -7   13.83    0.79
   0  -2  -7   15.10    0.93
   0   2   7   14.65    0.84
   0   2   7   14.59    0.57
   0   2   7   14.84    0.80
   0   2   7   13.98    1.10
   0   2   7   13.73    0.62
   0   2   7   14.24    0.84
   0   2   7   14.46    0.78
  -1  -2  -7    3.78    0.37
  -1  -2  -7    3.41    0.20
   1   2   7    2.73    0.53
   1   2   7    3.64    0.32
   1   2   7    3.55    0.20
   1   2   7    3.35    0.37
   1   2   7    3.42    0.28
   1   2   7    3.68    0.34
   1   2   7    3.25    0.33
  -2  -2  -7    5.69    0.48
  -2  -2  -7    5.40    0.25
   2   2   7    6.23    0.39
   2   2   7    5.77    0.47
   2   2   7    5.14    0.43
   2   2   7    5.62    0.40
   2   2   7    5.27    0.24
   2   2   7    5.38    0.44
  -3  -2  -7   21.90    1.29
   3   2   7   21.77    1.15
   3   2   7   24.27    1.04
   3   2   7   19.61    1.10
   3   2   7   20.86    0.93
   3   2   7   23.12    1.12
   4   2   7    7.46    0.55
   4   2   7    7.70    0.46
   4   2   7    7.15    0.47
   4   2   7    6.29    0.49
   4   2   7    7.65    0.62
   5   2   7    5.00    0.58
   6   2   7    4.54    0.55
   6   2   7    4.05    0.56
   7   2   7   11.11    0.96
   7   2   7   12.68    0.98
   8   2   7    0.38    0.19
   8   2   7    0.47    0.26
   8   2   7    2.33    0.52
   9   2   7    0.63    0.23
   9   2   7    0.95    0.32
   9   2   7    0.95    0.46
   6  -3  -7    0.75    0.30
  -6   3   7    0.98    0.31
   5  -3  -7    0.14    0.21
  -5   3   7    0.33    0.20
   4  -3  -7   18.26    1.29
  -4   3   7   18.47    1.14
  -4   3   7   18.09    1.09
   3  -3  -7   24.86    1.56
  -3   3   7   25.61    1.33
  -3   3   7   23.43    1.34
   2  -3  -7    0.03    0.13
  -2   3   7    0.21    0.13
  -2   3   7   -0.06    0.17
  -2   3   7    0.16    0.14
  -2   3   7    0.06    0.09
   1  -3  -7   26.47    1.52
  -1   3   7   25.78    1.32
  -1   3   7   23.36    1.20
  -1   3   7   26.54    0.99
   0  -3  -7   24.22    1.39
   0   3   7   19.83    1.14
   0   3   7   24.22    1.22
   0   3   7   24.41    0.96
   0   3   7   20.80    1.11
   0   3   7   24.56    0.88
   0   3   7   25.62    1.29
  -1  -3  -7   19.51    1.16
  -1  -3  -7   20.15    0.67
   1   3   7   19.07    0.70
   1   3   7   19.13    0.85
   1   3   7   18.37    1.00
   1   3   7   18.40    1.06
   1   3   7   20.07    1.02
   1   3   7   18.92    0.97
  -2  -3  -7    4.60    0.44
  -2  -3  -7    5.04    0.22
   2   3   7    4.58    0.38
   2   3   7    5.13    0.43
   2   3   7    5.05    0.41
   2   3   7    4.89    0.24
   2   3   7    5.12    0.45
   2   3   7    4.60    0.37
   3   3   7    3.27    0.32
   3   3   7    3.47    0.34
   3   3   7    3.14    0.39
   3   3   7    2.96    0.34
   3   3   7    3.05    0.30
   4   3   7    0.14    0.19
   4   3   7    0.57    0.14
   4   3   7    0.76    0.19
   4   3   7    0.88    0.26
   4   3   7    0.98    0.19
   4   3   7    0.60    0.18
   5   3   7    0.25    0.13
   5   3   7    0.22    0.18
   5   3   7    0.08    0.22
   5   3   7    0.33    0.16
   6   3   7    4.26    0.47
   6   3   7    4.45    0.56
   6   3   7    3.43    0.40
   7   3   7    4.51    0.49
   7   3   7    4.88    0.51
   7   3   7    4.55    0.60
   8   3   7    1.54    0.30
   8   3   7    1.66    0.36
   8   3   7    1.62    0.45
   8   3   7    2.09    0.35
   9   3   7    0.12    0.30
   9   3   7    0.31    0.16
   9   3   7    0.13    0.17
   9   3   7    0.20    0.22
   6  -4  -7    0.95    0.40
  -6   4   7    0.72    0.30
   5  -4  -7    0.74    0.33
  -5   4   7    0.94    0.29
   4  -4  -7   13.63    1.12
  -4   4   7   13.06    0.94
   3  -4  -7   25.59    1.68
  -3   4   7   28.77    1.47
  -3   4   7   23.33    1.37
   2  -4  -7    1.81    0.40
  -2   4   7    1.66    0.29
  -2   4   7    1.88    0.34
   1  -4  -7   12.24    0.93
  -1   4   7   11.41    0.75
  -1   4   7   11.00    0.74
  -1   4   7   12.56    0.83
  -1   4   7   12.76    0.64
   0  -4  -7    0.28    0.17
   0   4   7    0.16    0.12
   0   4   7    0.15    0.11
   0   4   7    0.23    0.16
   0   4   7    0.37    0.17
   0   4   7    0.22    0.10
   0   4   7    0.13    0.21
  -1  -4  -7   15.13    0.97
   1   4   7   14.21    0.79
   1   4   7   14.43    0.61
   1   4   7   13.68    0.72
   1   4   7   14.33    0.82
  -2  -4  -7    7.87    0.32
   2   4   7    8.20    0.60
   2   4   7    6.79    0.50
   2   4   7    7.53    0.55
   2   4   7    7.73    0.37
   2   4   7    8.13    0.50
   3   4   7    6.32    0.40
   3   4   7    6.81    0.53
   3   4   7    7.38    0.51
   3   4   7    6.01    0.49
   4   4   7    1.15    0.26
   4   4   7    0.58    0.27
   4   4   7    0.72    0.20
   4   4   7    0.76    0.19
   5   4   7    7.83    0.57
   5   4   7    8.99    0.65
   5   4   7    9.01    0.61
   6   4   7    0.39    0.21
   6   4   7    0.59    0.16
   6   4   7    0.17    0.17
   7   4   7   28.49    1.48
   7   4   7   27.67    1.31
   7   4   7   26.69    1.38
   8   4   7   -0.03    0.13
   8   4   7    0.22    0.20
   8   4   7   -0.08    0.21
   9   4   7    0.32    0.29
   9   4   7    0.35    0.20
   9   4   7    0.15    0.20
   5  -5  -7    1.46    0.49
  -5   5   7    1.49    0.35
   4  -5  -7    0.39    0.30
  -4   5   7    0.45    0.22
  -4   5   7    0.11    0.25
  -3   5   7    0.28    0.20
  -3   5   7    0.04    0.26
  -3   5   7    0.27    0.17
  -2   5   7    0.41    0.24
  -2   5   7    0.26    0.16
  -2   5   7   -0.05    0.20
  -1   5   7    1.28    0.32
  -1   5   7    1.52    0.26
  -1   5   7    1.99    0.37
   0   5   7   12.00    0.77
   0   5   7   12.34    0.73
   0   5   7   10.41    0.81
   0   5   7   13.94    0.67
   1   5   7    5.94    0.46
   1   5   7    5.74    0.38
   1   5   7    5.75    0.40
   1   5   7    5.73    0.49
   1   5   7    5.82    0.54
   2   5   7    2.88    0.24
   2   5   7    3.08    0.37
   2   5   7    2.28    0.36
   2   5   7    2.86    0.23
   2   5   7    2.91    0.37
   3   5   7   48.87    2.17
   3   5   7   49.42    1.91
   3   5   7   47.40    1.96
   4   5   7    1.17    0.25
   4   5   7    1.60    0.30
   4   5   7    1.13    0.25
   5   5   7    3.66    0.43
   5   5   7    3.41    0.41
   5   5   7    3.34    0.41
   6   5   7    2.82    0.40
   6   5   7    2.20    0.36
   7   5   7   14.04    0.90
   7   5   7   13.45    0.88
   8   5   7    0.20    0.16
   8   5   7    0.12    0.22
   8   5   7    0.00    0.20
   9   5   7    0.34    0.25
   9   5   7    0.67    0.36
   9   5   7    0.92    0.27
  10   5   7    0.59    0.36
  -4   6   7    2.18    0.40
  -3   6   7   -0.07    0.21
  -3   6   7    0.00    0.13
  -3   6   7    0.13    0.23
  -2   6   7    3.49    0.55
  -2   6   7    3.98    0.42
  -1   6   7    0.35    0.23
  -1   6   7    0.35    0.25
  -1   6   7    0.19    0.13
  -1   6   7   -0.04    0.19
   0   6   7    1.20    0.33
   0   6   7    0.99    0.28
   0   6   7    1.23    0.20
   1   6   7   -0.02    0.12
   1   6   7   -0.01    0.16
   1   6   7   -0.02    0.06
   1   6   7    0.16    0.14
   1   6   7    0.05    0.14
   1   6   7   -0.01    0.10
   2   6   7    0.22    0.19
   2   6   7    0.89    0.28
   2   6   7    0.70    0.22
   2   6   7    0.88    0.25
   3   6   7    0.20    0.16
   3   6   7    0.01    0.12
   3   6   7    0.20    0.17
   3   6   7    0.09    0.10
   4   6   7    2.43    0.38
   4   6   7    2.04    0.38
   4   6   7    3.00    0.37
   5   6   7    9.28    0.73
   5   6   7   10.44    0.73
   5   6   7   10.21    0.66
   6   6   7    4.25    0.50
   6   6   7    3.94    0.44
   7   6   7    1.64    0.36
   7   6   7    1.75    0.35
   8   6   7    1.41    0.36
   8   6   7    1.39    0.30
   8   6   7    1.51    0.37
   9   6   7    1.83    0.39
   9   6   7    0.90    0.27
   9   6   7    0.78    0.32
  10   6   7    4.03    0.61
  10   6   7    3.08    0.57
  -2   7   7    0.86    0.36
  -2   7   7   -0.01    0.25
  -2   7   7    0.76    0.22
  -1   7   7    0.15    0.25
  -1   7   7   -0.01    0.20
  -1   7   7    0.06    0.20
  -1   7   7    0.08    0.10
   0   7   7    9.30    0.73
   0   7   7    8.54    0.81
   1   7   7    4.24    0.59
   1   7   7    4.94    0.49
   2   7   7    4.37    0.44
   2   7   7    4.19    0.48
   2   7   7    4.58    0.60
   3   7   7   37.31    1.63
   3   7   7   34.75    1.87
   3   7   7   36.65    1.58
   4   7   7   31.12    1.50
   4   7   7   31.67    1.70
   4   7   7   31.66    1.43
   5   7   7    1.32    0.28
   5   7   7    0.94    0.31
   5   7   7    0.94    0.30
   6   7   7    8.03    0.59
   6   7   7    8.36    0.72
   6   7   7    7.90    0.69
   7   7   7    2.05    0.34
   7   7   7    2.06    0.41
   8   7   7    0.19    0.18
   8   7   7    0.14    0.22
   8   7   7    0.31    0.21
   9   7   7    1.57    0.41
   9   7   7    1.53    0.37
   9   7   7    1.13    0.30
  -2   8   7    0.01    0.25
  -2   8   7    0.19    0.31
  -1   8   7    0.02    0.22
  -1   8   7    0.20    0.26
  -1   8   7    0.28    0.31
   0   8   7    1.18    0.41
   0   8   7    0.88    0.33
   1   8   7    3.11    0.55
   1   8   7    4.85    0.57
   2   8   7    8.57    0.82
   2   8   7    9.20    0.69
   2   8   7    8.68    0.69
   3   8   7    0.26    0.23
   3   8   7    0.33    0.21
   3   8   7    0.49    0.29
   4   8   7   41.99    1.87
   4   8   7   42.16    1.76
   4   8   7   39.47    2.11
   5   8   7   25.48    1.55
   5   8   7   27.61    1.45
   5   8   7   28.74    1.28
   6   8   7    0.08    0.20
   6   8   7   -0.02    0.17
   6   8   7    0.61    0.23
   7   8   7    1.37    0.37
   7   8   7    1.64    0.30
   7   8   7    2.15    0.33
   8   8   7    0.11    0.18
   8   8   7    0.23    0.19
   8   8   7   -0.04    0.18
   9   8   7    0.14    0.20
   9   8   7    0.29    0.23
   9   8   7    0.11    0.24
   0   9   7    0.12    0.27
   0   9   7    0.11    0.20
   1   9   7    0.43    0.32
   1   9   7    0.51    0.28
   2   9   7    0.29    0.24
   2   9   7    0.41    0.30
   3   9   7    0.27    0.23
   3   9   7    0.45    0.24
   3   9   7    0.57    0.29
   4   9   7   27.37    1.51
   4   9   7   31.81    1.43
   4   9   7   31.30    1.81
   5   9   7    0.17    0.17
   5   9   7   -0.05    0.18
   5   9   7    0.08    0.20
   6   9   7    3.52    0.58
   6   9   7    3.78    0.58
   6   9   7    4.58    0.41
   7   9   7    0.69    0.35
   7   9   7    0.58    0.21
   8   9   7    0.10    0.18
   8   9   7    0.11    0.18
   8   9   7    0.19    0.25
   2  10   7    0.44    0.28
   4  10   7   18.25    1.36
   5  10   7   10.87    0.91
   5  10   7   11.56    0.73
   5  10   7   11.46    1.03
   6  10   7    1.01    0.37
   6  10   7    1.03    0.28
   6  10   7    1.16    0.41
   7  10   7    2.49    0.31
   7  10   7    1.93    0.49
   4   7  -8    0.11    0.19
   3   7  -8   -0.01    0.18
   2   7  -8    0.20    0.23
   6   6  -8    0.90    0.26
  -6  -6   8    0.59    0.22
   5   6  -8    3.50    0.43
  -5  -6   8    3.56    0.40
   4   6  -8    2.90    0.41
  -4  -6   8    3.46    0.39
   3   6  -8    0.54    0.23
  -3  -6   8    0.54    0.22
   2   6  -8    2.90    0.45
  -2  -6   8    2.18    0.35
   1   6  -8    2.49    0.44
  -1  -6   8    2.70    0.39
   0   6  -8    0.42    0.28
   0  -6   8    0.69    0.25
  -1   6  -8    0.03    0.28
   7   5  -8    2.90    0.44
   6   5  -8    3.55    0.45
  -6  -5   8    3.95    0.39
   5   5  -8    0.73    0.25
  -5  -5   8    1.12    0.25
   4   5  -8    1.02    0.28
  -4  -5   8    0.85    0.22
   3   5  -8    0.53    0.22
  -3  -5   8    0.60    0.21
   2   5  -8   10.42    0.73
  -2  -5   8    9.08    0.64
   1   5  -8    0.74    0.28
  -1  -5   8    0.54    0.19
   0   5  -8    1.88    0.40
   0  -5   8    1.84    0.31
  -1   5  -8    2.18    0.46
   1  -5   8    1.48    0.29
  -2   5  -8    0.05    0.20
  -2   5  -8    0.22    0.26
   2  -5   8    0.00    0.14
   7   4  -8    1.11    0.34
   7   4  -8    0.95    0.36
   6   4  -8    0.64    0.26
  -6  -4   8    0.85    0.22
   5   4  -8    3.39    0.44
  -5  -4   8    3.91    0.37
   4   4  -8    0.74    0.25
  -4  -4   8    1.34    0.25
   3   4  -8    7.77    0.60
  -3  -4   8    6.72    0.50
   2   4  -8    3.66    0.44
  -2  -4   8    3.29    0.34
   1   4  -8   10.50    0.75
  -1  -4   8   11.29    0.68
   0   4  -8    0.68    0.27
   0  -4   8    0.94    0.22
  -1   4  -8   15.49    1.02
   1  -4   8   15.65    0.86
  -2   4  -8    7.83    0.73
  -2   4  -8    7.44    0.45
   2  -4   8    7.56    0.55
  -4   4  -8    2.38    0.34
   8   3  -8   -0.12    0.26
   7   3  -8    8.16    0.76
   7   3  -8    8.09    0.74
   6   3  -8    3.45    0.49
   5   3  -8    4.02    0.48
  -5  -3   8    4.63    0.39
   4   3  -8    1.67    0.33
  -4  -3   8    1.61    0.25
   3   3  -8    6.42    0.54
  -3  -3   8    5.98    0.44
   2   3  -8    6.20    0.51
  -2  -3   8    5.99    0.44
   1   3  -8    1.28    0.29
  -1  -3   8    1.21    0.22
   0   3  -8    0.13    0.18
   0   3  -8    0.06    0.14
   0  -3   8    0.23    0.12
  -1   3  -8    1.64    0.36
  -1   3  -8    2.14    0.21
   1  -3   8    2.41    0.27
  -2   3  -8    0.10    0.10
  -2   3  -8    0.04    0.19
  -2   3  -8   -0.04    0.17
   2  -3   8   -0.03    0.10
  -3   3  -8    0.09    0.12
  -3   3  -8    0.03    0.22
   3  -3   8    0.25    0.16
  -4   3  -8    0.01    0.22
  -4   3  -8    0.30    0.17
  -5   3  -8    0.03    0.29
  -5   3  -8   -0.01    0.13
   8   2  -8   -0.12    0.27
   7   2  -8    2.24    0.48
   7   2  -8    2.53    0.52
   6   2  -8    5.04    0.60
   5   2  -8    2.58    0.41
  -5  -2   8    2.29    0.30
   4   2  -8   55.85    2.27
  -4  -2   8   53.17    2.20
   3   2  -8   32.21    1.49
  -3  -2   8   32.53    1.41
   2   2  -8    0.57    0.21
  -2  -2   8    0.52    0.15
   1   2  -8    2.67    0.37
  -1  -2   8    2.88    0.28
   0   2  -8    6.93    0.56
   0  -2   8    7.84    0.49
   0  -2   8    7.75    0.42
  -1   2  -8    0.12    0.15
  -1   2  -8    0.10    0.16
   1  -2   8    0.14    0.10
   1  -2   8    0.14    0.09
  -2   2  -8    4.44    0.52
   2  -2   8    3.50    0.32
   3  -2   8    3.45    0.49
   3  -2   8    3.84    0.33
  -5   2  -8   -0.03    0.25
   5  -2   8    0.16    0.19
  -6   2  -8    0.25    0.19
  -6   2  -8   -0.14    0.24
   6  -2   8    0.40    0.52
   6  -2   8    0.18    0.34
   8   1  -8    1.70    0.52
   7   1  -8    0.35    0.28
   6   1  -8    1.90    0.45
   6   1  -8    1.59    0.17
   6   1  -8    2.49    0.48
   5   1  -8    1.76    0.22
   5   1  -8    2.57    0.44
  -5  -1   8    1.99    0.29
   4   1  -8   31.12    1.51
  -4  -1   8   31.09    1.39
   3   1  -8   18.11    0.99
  -3  -1   8   17.12    0.87
   2   1  -8    1.85    0.32
  -2  -1   8    2.18    0.26
  -2  -1   8    2.03    0.21
   1   1  -8   12.24    0.74
  -1  -1   8   11.51    0.52
  -1  -1   8   11.85    0.64
   0   1  -8   14.11    0.81
   0  -1   8   13.06    0.69
   0  -1   8   13.23    0.56
  -1   1  -8    0.17    0.14
  -1   1  -8   -0.03    0.10
   1  -1   8   -0.02    0.06
   1  -1   8    0.16    0.14
   1  -1   8   -0.01    0.07
  -2   1  -8    1.76    0.35
   2  -1   8    1.93    0.34
   2  -1   8    2.04    0.23
   2  -1   8    2.39    0.22
   6  -1   8   -0.06    0.41
   7  -1   8    0.07    0.41
   7  -1   8    2.67    0.68
   7   0  -8    0.71    0.19
   7   0  -8    0.81    0.37
   6   0  -8    8.96    0.81
   6   0  -8    6.56    0.54
   6   0  -8    7.17    0.74
   5   0  -8    1.12    0.34
   5   0  -8    1.22    0.25
  -5   0   8    1.10    0.25
   4   0  -8  166.01    5.92
   4   0  -8  164.10    7.75
  -4   0   8  163.31    6.14
   3   0  -8    0.36    0.19
   3   0  -8    0.65    0.19
  -3   0   8    0.27    0.13
   2   0  -8   16.97    1.05
   2   0  -8   17.14    0.95
  -2   0   8   17.77    0.87
  -2   0   8   17.39    0.70
   1   0  -8    3.28    0.35
   1   0  -8    3.08    0.39
  -1   0   8    3.11    0.36
  -1   0   8    3.32    0.30
  -1   0   8    3.01    0.23
   0   0  -8    5.93    0.48
   0   0  -8    5.95    0.52
   0   0   8    5.76    0.30
   0   0   8    5.86    0.50
   0   0   8    6.28    0.41
   0   0   8    4.62    0.65
  -1   0  -8   33.68    1.62
   1   0   8   40.48    1.59
   1   0   8   39.45    1.23
   1   0   8   38.03    1.87
  -2   0  -8   34.01    1.51
   2   0   8   31.70    1.06
   2   0   8   33.38    1.38
   2   0   8   31.54    1.67
  -3   0  -8    0.11    0.16
   3   0   8    0.13    0.14
   3   0   8    0.46    0.13
   3   0   8    0.02    0.19
  -4   0  -8    0.05    0.18
   4   0   8    1.37    0.19
   4   0   8    1.00    0.27
   6   0   8   -0.05    0.36
   7  -1  -8    0.13    0.29
   7  -1  -8    0.01    0.15
   6  -1  -8    1.85    0.35
   6  -1  -8    1.54    0.45
   5  -1  -8    0.15    0.21
   5  -1  -8    0.38    0.25
   5  -1  -8    0.40    0.18
   4  -1  -8   22.49    1.40
   4  -1  -8   25.41    1.37
  -4   1   8   23.48    1.22
   3  -1  -8    0.98    0.28
   3  -1  -8    0.77    0.22
  -3   1   8    0.69    0.20
   2  -1  -8   17.87    1.09
   2  -1  -8   16.38    0.96
  -2   1   8   14.99    0.88
  -2   1   8   18.31    1.03
  -2   1   8   18.48    0.73
   1  -1  -8    0.07    0.09
   1  -1  -8    0.03    0.11
  -1   1   8    0.03    0.15
  -1   1   8    0.07    0.08
  -1   1   8    0.07    0.09
  -1   1   8    0.12    0.07
   0  -1  -8    1.22    0.26
   0  -1  -8    1.54    0.27
   0   1   8    0.98    0.13
   0   1   8    1.03    0.22
   0   1   8    1.25    0.41
   0   1   8    1.22    0.20
  -1  -1  -8    1.07    0.25
  -1  -1  -8    1.13    0.25
   1   1   8    1.03    0.12
   1   1   8    1.09    0.23
   1   1   8    0.52    0.31
   1   1   8    1.00    0.18
  -2  -1  -8    0.72    0.22
  -2  -1  -8    0.98    0.25
   2   1   8    0.84    0.21
   2   1   8    0.61    0.15
   2   1   8    0.82    0.10
   2   1   8    1.01    0.18
   2   1   8    1.02    0.28
   3   1   8   44.15    1.96
   3   1   8   41.56    1.56
   3   1   8   40.81    1.75
   3   1   8   45.94    2.10
   6   1   8    1.33    0.50
   7   1   8    0.02    0.20
   7   1   8   -0.06    0.32
   8   1   8    1.17    0.44
   7  -2  -8    0.71    0.27
   6  -2  -8    3.22    0.45
   5  -2  -8    0.02    0.13
   4  -2  -8   40.59    2.30
   4  -2  -8   40.37    2.02
   4  -2  -8   40.60    2.01
  -4   2   8   43.90    1.97
   3  -2  -8   11.05    0.84
   3  -2  -8    9.94    0.80
  -3   2   8   11.79    0.78
  -3   2   8   11.63    0.80
   2  -2  -8    9.59    0.74
   2  -2  -8    9.93    0.71
  -2   2   8   10.19    0.53
  -2   2   8    8.78    0.64
  -2   2   8   10.07    0.71
  -2   2   8   10.18    0.94
   1  -2  -8   13.62    0.93
   1  -2  -8   15.17    0.86
  -1   2   8   13.81    0.80
  -1   2   8   13.04    1.12
  -1   2   8   13.79    0.86
  -1   2   8   13.19    0.59
   0  -2  -8   40.95    1.75
   0  -2  -8   41.65    2.20
   0   2   8   40.30    1.78
   0   2   8   43.57    1.78
   0   2   8   40.88    1.44
   0   2   8   40.66    1.94
   0   2   8   42.79    1.34
   0   2   8   37.66    2.43
  -1  -2  -8    8.62    0.37
  -1  -2  -8    8.08    0.64
  -1  -2  -8    7.83    0.57
   1   2   8    7.92    0.46
   1   2   8    7.58    0.53
   1   2   8    8.35    0.37
   1   2   8    7.76    0.58
   1   2   8    8.39    0.60
  -2  -2  -8    0.16    0.12
   2   2   8    0.16    0.06
   2   2   8    0.06    0.10
   2   2   8    0.24    0.12
   2   2   8    0.23    0.17
   2   2   8    0.14    0.11
   2   2   8    0.03    0.17
  -3  -2  -8   18.26    1.13
   3   2   8   18.01    0.90
   3   2   8   17.59    1.02
   3   2   8   16.36    0.81
   3   2   8   18.47    1.03
   4   2   8   -0.01    0.16
   4   2   8    0.10    0.12
   4   2   8    0.10    0.09
   4   2   8    0.07    0.24
   4   2   8    0.18    0.12
   5   2   8    0.81    0.21
   5   2   8    1.21    0.35
   5   2   8    0.15    0.29
   5   2   8    0.73    0.20
   6   2   8    4.45    0.62
   7   2   8   11.86    0.98
   7   2   8   10.91    0.99
   8   2   8    1.26    0.40
   8   2   8    1.39    0.46
   6  -3  -8   23.02    1.58
   5  -3  -8    0.55    0.26
  -5   3   8    0.57    0.25
   4  -3  -8    6.23    0.65
  -4   3   8    6.41    0.61
  -4   3   8    6.52    0.61
   3  -3  -8    0.02    0.13
  -3   3   8    0.04    0.15
  -3   3   8    0.14    0.14
  -3   3   8   -0.02    0.21
   2  -3  -8    1.53    0.34
  -2   3   8    1.25    0.43
  -2   3   8    1.46    0.28
  -2   3   8    1.11    0.26
   1  -3  -8    0.91    0.27
  -1   3   8    0.75    0.21
  -1   3   8    0.89    0.17
  -1   3   8    0.89    0.37
  -1   3   8    0.79    0.23
   0  -3  -8   22.81    1.36
   0   3   8   23.86    1.19
   0   3   8   22.24    1.19
   0   3   8   20.83    1.12
   0   3   8   21.70    0.92
   0   3   8   22.03    0.85
  -1  -3  -8    2.76    0.34
   1   3   8    2.77    0.30
   1   3   8    3.00    0.39
   1   3   8    2.84    0.35
   1   3   8    2.61    0.20
   1   3   8    1.39    0.45
   1   3   8    3.15    0.33
  -2  -3  -8    1.87    0.32
   2   3   8    1.77    0.26
   2   3   8    1.86    0.32
   2   3   8    1.59    0.25
   2   3   8    1.88    0.28
   2   3   8    0.84    0.37
   3   3   8    4.78    0.42
   3   3   8    5.04    0.43
   3   3   8    4.60    0.47
   3   3   8    5.98    0.44
   4   3   8    4.46    0.40
   4   3   8    4.24    0.40
   4   3   8    4.55    0.39
   4   3   8    4.36    0.52
   5   3   8    4.01    0.42
   5   3   8    4.72    0.56
   6   3   8   11.73    0.88
   6   3   8   10.06    0.68
   7   3   8    1.12    0.30
   7   3   8    1.18    0.39
   7   3   8    0.79    0.29
   8   3   8    0.10    0.20
   8   3   8    0.13    0.17
   8   3   8   -0.18    0.24
   9   3   8    3.14    0.42
   9   3   8    2.66    0.40
   9   3   8    2.46    0.59
   9   3   8    2.29    0.43
   5  -4  -8    0.15    0.23
  -5   4   8    0.01    0.16
   4  -4  -8    0.01    0.17
  -4   4   8    0.05    0.26
  -4   4   8    0.12    0.15
   3  -4  -8    1.32    0.38
  -3   4   8    1.11    0.28
  -3   4   8    1.32    0.34
   2  -4  -8    5.97    0.64
  -2   4   8    6.08    0.58
  -2   4   8    6.09    0.55
   1  -4  -8    0.93    0.29
  -1   4   8    0.63    0.23
  -1   4   8    0.12    0.23
  -1   4   8    1.04    0.23
  -1   4   8    0.83    0.26
   0  -4  -8    9.38    0.73
   0   4   8    6.15    0.59
   0   4   8    8.42    0.52
   0   4   8    8.49    0.64
   0   4   8    9.38    0.63
   0   4   8    8.58    0.48
   1   4   8   17.65    0.71
   1   4   8   17.02    0.96
   1   4   8   17.09    0.95
   1   4   8   16.46    0.82
   1   4   8   19.17    1.06
   2   4   8   36.06    1.79
   2   4   8   38.60    1.71
   2   4   8   41.32    1.57
   2   4   8   41.15    1.81
   3   4   8   14.87    0.86
   3   4   8   14.84    0.80
   3   4   8   12.58    0.83
   3   4   8   15.40    0.80
   4   4   8   76.96    2.83
   4   4   8   79.58    3.24
   4   4   8   84.25    3.13
   4   4   8   80.58    3.32
   5   4   8    5.56    0.48
   5   4   8    6.41    0.52
   5   4   8    5.89    0.56
   6   4   8   12.89    0.89
   6   4   8   12.39    0.80
   6   4   8   13.00    0.88
   7   4   8    5.14    0.54
   7   4   8    4.13    0.41
   7   4   8    4.95    0.62
   8   4   8    6.89    0.72
   8   4   8    6.33    0.61
   8   4   8    6.92    0.47
   9   4   8    0.30    0.24
   9   4   8    0.22    0.19
   9   4   8    0.23    0.31
   5  -5  -8    0.52    0.34
  -5   5   8    0.72    0.28
  -5   5   8   -0.06    0.31
   4  -5  -8    5.12    0.68
  -4   5   8    4.33    0.53
  -3   5   8    0.46    0.25
  -3   5   8    0.75    0.24
  -3   5   8    0.08    0.24
  -2   5   8    1.07    0.33
  -2   5   8    0.98    0.25
  -1   5   8    1.60    0.36
  -1   5   8    1.24    0.26
  -1   5   8    1.54    0.36
   0   5   8    3.15    0.43
   0   5   8    3.57    0.34
   0   5   8    3.64    0.36
   0   5   8    3.89    0.50
   1   5   8    0.20    0.10
   1   5   8    0.27    0.12
   1   5   8    0.38    0.19
   1   5   8    0.22    0.16
   1   5   8    0.28    0.19
   1   5   8    0.10    0.22
   2   5   8    0.11    0.13
   2   5   8    0.05    0.08
   2   5   8   -0.04    0.17
   2   5   8    0.08    0.15
   2   5   8    0.12    0.14
   3   5   8    0.89    0.25
   3   5   8    1.21    0.28
   3   5   8    1.18    0.27
   3   5   8    1.08    0.14
   4   5   8   22.59    1.14
   4   5   8   22.99    1.25
   4   5   8   24.96    1.21
   5   5   8    5.16    0.51
   5   5   8    5.80    0.52
   5   5   8    6.56    0.55
   6   5   8    3.61    0.47
   6   5   8    3.85    0.49
   7   5   8    0.36    0.20
   7   5   8    0.56    0.27
   8   5   8    0.75    0.29
   8   5   8    1.16    0.36
   9   5   8    0.05    0.18
   9   5   8    0.23    0.29
   9   5   8    0.17    0.24
  -4   6   8   -0.08    0.26
  -4   6   8    1.09    0.31
  -3   6   8    0.33    0.29
  -3   6   8    0.56    0.23
  -3   6   8    0.08    0.26
  -2   6   8   -0.09    0.20
  -2   6   8    0.24    0.23
  -2   6   8    0.32    0.18
  -1   6   8    6.05    0.67
  -1   6   8    6.30    0.53
  -1   6   8    7.43    0.66
   0   6   8   10.54    0.76
   0   6   8    9.79    0.83
   0   6   8   10.08    0.65
   1   6   8    6.16    0.43
   1   6   8    5.70    0.50
   1   6   8    6.15    0.44
   1   6   8    6.34    0.64
   1   6   8    7.64    0.60
   2   6   8    0.16    0.21
   2   6   8    0.36    0.21
   2   6   8    0.48    0.22
   2   6   8    0.28    0.18
   3   6   8   25.75    1.26
   3   6   8   23.71    1.38
   3   6   8   25.12    1.24
   4   6   8  107.46    4.15
   4   6   8  120.47    4.03
   4   6   8  116.42    4.62
   5   6   8    7.76    0.66
   5   6   8    8.05    0.65
   5   6   8    7.07    0.58
   6   6   8    1.33    0.33
   6   6   8    1.37    0.32
   7   6   8    5.00    0.55
   7   6   8    4.09    0.53
   8   6   8    3.24    0.51
   8   6   8    4.10    0.55
   9   6   8    1.72    0.35
   9   6   8    2.52    0.48
   9   6   8    2.24    0.49
  -3   7   8    0.81    0.26
  -3   7   8   -0.04    0.26
  -2   7   8    0.06    0.25
  -2   7   8    0.05    0.14
  -2   7   8    0.11    0.25
  -1   7   8    0.87    0.20
  -1   7   8    0.66    0.31
  -1   7   8    1.14    0.39
   0   7   8    0.02    0.20
   0   7   8    0.09    0.09
   0   7   8    0.07    0.22
   0   7   8    0.09    0.22
   1   7   8    0.15    0.17
   1   7   8    0.12    0.21
   1   7   8    0.09    0.18
   1   7   8   -0.06    0.21
   2   7   8    0.14    0.17
   2   7   8    0.18    0.18
   2   7   8   -0.02    0.16
   2   7   8    0.10    0.18
   3   7   8    2.49    0.48
   3   7   8    2.63    0.40
   3   7   8    2.86    0.42
   4   7   8   42.40    2.14
   4   7   8   43.92    1.91
   4   7   8   43.01    1.88
   5   7   8    9.11    0.74
   5   7   8    8.16    0.64
   5   7   8    8.49    0.75
   6   7   8   19.94    1.06
   6   7   8   17.16    1.09
   7   7   8    6.52    0.69
   7   7   8    5.90    0.54
   8   7   8    0.52    0.26
   8   7   8    0.17    0.23
   9   7   8    0.61    0.30
   9   7   8    0.58    0.31
   9   7   8    0.89    0.29
  -1   8   8    0.00    0.27
  -1   8   8    0.87    0.38
  -1   8   8    0.68    0.36
   0   8   8    2.14    0.51
   0   8   8    2.39    0.48
   1   8   8    1.85    0.43
   1   8   8    2.08    0.50
   2   8   8    1.86    0.39
   2   8   8    1.42    0.35
   2   8   8    1.23    0.39
   3   8   8   24.68    1.29
   3   8   8   27.20    1.62
   4   8   8   19.59    1.04
   4   8   8   19.53    1.31
   4   8   8   17.80    1.11
   5   8   8    0.22    0.21
   5   8   8    0.39    0.27
   5   8   8    0.13    0.20
   6   8   8    9.34    0.82
   6   8   8   10.76    0.72
   6   8   8   10.06    0.87
   7   8   8    1.05    0.29
   7   8   8    0.68    0.30
   8   8   8    6.54    0.74
   8   8   8    5.95    0.56
   8   8   8    5.99    0.55
   9   8   8    4.39    0.50
   9   8   8    3.20    0.58
   9   8   8    4.05    0.51
   0   9   8    0.04    0.22
   0   9   8   -0.07    0.27
   1   9   8    0.37    0.28
   1   9   8    0.52    0.33
   2   9   8    8.36    0.70
   2   9   8    5.82    0.81
   3   9   8    2.90    0.46
   3   9   8    2.40    0.55
   3   9   8    2.06    0.42
   4   9   8    0.18    0.24
   4   9   8    0.33    0.23
   4   9   8    0.09    0.21
   5   9   8    4.31    0.49
   5   9   8    3.40    0.54
   5   9   8    5.12    0.71
   6   9   8    1.92    0.35
   6   9   8    2.28    0.50
   6   9   8    2.19    0.47
   7   9   8    0.74    0.33
   7   9   8    0.62    0.26
   8   9   8    0.14    0.21
   8   9   8    0.14    0.26
   8   9   8   -0.01    0.17
   2  10   8    0.26    0.27
   3  10   8    1.51    0.39
   3  10   8    2.29    0.43
   4  10   8   -0.06    0.21
   4  10   8    0.20    0.22
   5  10   8    0.49    0.33
   5  10   8    0.32    0.24
   5  10   8    0.37    0.31
   6  10   8   -0.13    0.19
   6  10   8    0.03    0.19
   6  10   8    0.05    0.25
   7  10   8    0.75    0.37
   7  10   8    1.09    0.28
   5   6  -9    0.30    0.23
   4   6  -9    7.91    0.66
   3   6  -9    0.02    0.19
   2   6  -9    0.08    0.22
   1   6  -9    1.98    0.43
   6   5  -9    0.50    0.25
  -6  -5   9    0.73    0.24
   5   5  -9    3.03    0.44
  -5  -5   9    2.95    0.38
   4   5  -9    7.17    0.63
  -4  -5   9    7.57    0.58
   3   5  -9    0.01    0.17
  -3  -5   9    0.21    0.16
   2   5  -9    6.36    0.61
  -2  -5   9    6.78    0.54
   1   5  -9    0.44    0.25
  -1  -5   9    0.56    0.22
   0   5  -9    1.24    0.37
   0  -5   9    1.34    0.28
  -1   5  -9    0.29    0.28
  -1   5  -9   -0.01    0.18
   1  -5   9    0.20    0.17
  -2   5  -9    0.02    0.24
   7   4  -9    0.46    0.28
   5   4  -9    3.10    0.45
  -5  -4   9    3.05    0.37
   4   4  -9   63.58    2.58
  -4  -4   9   62.59    2.59
   3   4  -9    0.11    0.18
  -3  -4   9    0.17    0.15
   2   4  -9    6.15    0.57
  -2  -4   9    6.22    0.49
   1   4  -9    2.92    0.46
  -1  -4   9    2.96    0.34
   0   4  -9    0.12    0.20
   0   4  -9    0.09    0.19
   0  -4   9    0.18    0.14
  -1   4  -9    0.87    0.32
   1  -4   9    1.35    0.27
  -2   4  -9   -0.10    0.24
  -2   4  -9   -0.08    0.21
   2  -4   9    0.03    0.14
  -3   4  -9   -0.03    0.23
  -3   4  -9    0.16    0.13
   7   3  -9    0.69    0.31
   7   3  -9    1.11    0.40
   6   3  -9    0.05    0.20
   5   3  -9   21.94    1.21
  -5  -3   9   20.16    1.05
   4   3  -9    1.61    0.35
  -4  -3   9    1.70    0.28
   3   3  -9   20.44    1.14
  -3  -3   9   20.93    1.04
   2   3  -9    2.67    0.41
  -2  -3   9    2.62    0.32
   1   3  -9    0.06    0.14
   1   3  -9    0.00    0.14
  -1  -3   9    0.02    0.10
   0   3  -9    0.92    0.28
   0  -3   9    1.04    0.22
  -1   3  -9    0.06    0.20
  -1   3  -9    0.24    0.22
  -1   3  -9    0.49    0.12
   1  -3   9    0.42    0.17
  -2   3  -9    1.77    0.42
  -2   3  -9    1.54    0.23
   2  -3   9    1.84    0.28
  -3   3  -9    0.29    0.15
  -3   3  -9    0.05    0.24
  -4   3  -9    0.22    0.17
  -4   3  -9    0.09    0.27
   7   2  -9   -0.01    0.27
   7   2  -9    0.08    0.24
   6   2  -9    2.75    0.50
   5   2  -9    7.81    0.68
  -5  -2   9    7.19    0.54
   4   2  -9   45.76    2.01
  -4  -2   9   43.52    1.89
   3   2  -9    0.31    0.20
  -3  -2   9    0.43    0.16
   2   2  -9    0.16    0.16
   2   2  -9   -0.06    0.11
  -2  -2   9    0.20    0.12
   1   2  -9    0.82    0.25
  -1  -2   9    0.72    0.18
   0   2  -9    0.07    0.15
   0   2  -9    0.28    0.19
   0  -2   9    0.21    0.12
  -1   2  -9    2.70    0.42
   1  -2   9    3.02    0.30
  -2   2  -9    7.70    0.69
   2  -2   9    8.36    0.54
  -4   2  -9    0.04    0.24
   4  -2   9    0.15    0.18
   5  -2   9    3.65    0.58
   7   1  -9    7.48    0.87
   6   1  -9    3.17    0.55
   5   1  -9    3.24    0.32
   5   1  -9    5.50    0.63
   4   1  -9    1.53    0.35
  -4  -1   9    1.34    0.25
   3   1  -9   32.59    1.56
  -3  -1   9   32.14    1.45
   2   1  -9    0.04    0.14
   2   1  -9    0.00    0.13
  -2  -1   9    0.08    0.10
   1   1  -9    3.12    0.42
  -1  -1   9    3.41    0.31
   0   1  -9    1.67    0.33
   0  -1   9    1.92    0.25
   0  -1   9    1.87    0.20
  -1   1  -9    3.86    0.47
   1  -1   9    3.65    0.33
   1  -1   9    3.90    0.27
  -2   1  -9    1.13    0.31
   2  -1   9    1.35    0.22
   2  -1   9    1.17    0.30
   3  -1   9    0.69    0.17
   3  -1   9    0.65    0.26
  -4   1  -9   -0.03    0.20
   4  -1   9    0.04    0.30
   4  -1   9    0.32    0.21
   5  -1   9    0.04    0.36
   6  -1   9   -0.01    0.43
   7   0  -9    1.39    0.47
   7   0  -9    1.08    0.21
   6   0  -9    0.10    0.25
   6   0  -9   -0.01    0.10
   6   0  -9    0.14    0.24
   5   0  -9    5.88    0.50
   5   0  -9    6.21    0.70
  -5   0   9    5.99    0.53
   4   0  -9    0.06    0.17
   4   0  -9    0.12    0.12
  -4   0   9    0.11    0.14
   3   0  -9    2.24    0.42
   3   0  -9    2.73    0.34
  -3   0   9    1.98    0.30
   2   0  -9    6.04    0.54
   2   0  -9    8.65    0.63
  -2   0   9    7.23    0.50
   1   0  -9    8.58    0.68
   1   0  -9    8.62    0.66
  -1   0   9    9.20    0.57
  -1   0   9    9.23    0.44
   0   0  -9    1.63    0.32
   0   0   9    1.74    0.24
   0   0   9    1.63    0.29
   0   0   9    1.41    0.16
  -1   0  -9    2.65    0.39
   1   0   9    3.03    0.38
   1   0   9    2.97    0.28
   1   0   9    3.06    0.22
   1   0   9    1.40    0.48
  -3   0  -9   -0.02    0.17
   3   0   9    0.12    0.15
   3   0   9    0.05    0.19
   3   0   9    0.04    0.09
  -4   0  -9   -0.02    0.13
   4   0   9    1.34    0.32
   4   0   9    0.00    0.25
  -5   0  -9   -0.06    0.17
   5   0   9    0.02    0.30
   5   0   9    0.36    0.20
   6   0   9   -0.27    0.33
   7   0   9    0.01    0.26
   7   0   9    0.10    0.43
   7  -1  -9   17.77    1.17
   7  -1  -9   20.94    1.47
   6  -1  -9    1.77    0.49
   6  -1  -9    1.77    0.33
   5  -1  -9   11.11    0.84
   5  -1  -9   12.46    1.00
   5  -1  -9   12.34    0.98
   4  -1  -9   -0.04    0.17
   4  -1  -9    0.16    0.14
  -4   1   9    0.15    0.17
   3  -1  -9    2.60    0.44
   3  -1  -9    2.54    0.35
  -3   1   9    2.70    0.36
   2  -1  -9    4.57    0.51
   2  -1  -9    3.94    0.42
  -2   1   9    3.39    0.36
  -2   1   9    3.62    0.42
   1  -1  -9    0.08    0.11
   1  -1  -9    0.17    0.15
  -1   1   9    0.06    0.09
  -1   1   9    0.09    0.12
  -1   1   9    0.01    0.16
  -1   1   9    0.06    0.08
   0  -1  -9   11.45    0.74
   0  -1  -9   10.20    0.77
   0   1   9   11.43    0.66
   0   1   9    7.98    0.95
   0   1   9   10.94    0.75
   0   1   9   10.85    0.47
  -1  -1  -9    1.42    0.30
  -1  -1  -9    1.46    0.29
   1   1   9    1.65    0.16
   1   1   9    1.49    0.28
   1   1   9    1.70    0.25
   1   1   9    0.64    0.37
  -2  -1  -9    0.17    0.16
   2   1   9   -0.02    0.10
   2   1   9   -0.02    0.12
   2   1   9    0.09    0.10
  -3  -1  -9   -0.01    0.14
   3   1   9    0.01    0.20
   3   1   9    0.67    0.22
   3   1   9    0.62    0.17
   5   1   9   -0.01    0.29
   5   1   9    1.97    0.35
   7   1   9    0.51    0.32
   7   1   9    0.14    0.38
   6  -2  -9    0.01    0.15
   5  -2  -9    0.55    0.24
   4  -2  -9    0.26    0.19
  -4   2   9    0.19    0.18
   3  -2  -9    5.12    0.54
   3  -2  -9    5.89    0.65
  -3   2   9    5.38    0.52
  -3   2   9    5.17    0.53
   2  -2  -9    0.22    0.18
   2  -2  -9    0.34    0.18
  -2   2   9    0.26    0.17
  -2   2   9    0.37    0.27
  -2   2   9    0.44    0.18
   1  -2  -9    0.71    0.23
   1  -2  -9    0.61    0.24
  -1   2   9    0.45    0.19
  -1   2   9    0.63    0.14
  -1   2   9    0.30    0.27
  -1   2   9    0.64    0.20
   0  -2  -9    0.04    0.10
   0   2   9    0.00    0.06
   0   2   9   -0.02    0.09
   0   2   9    0.03    0.09
   0   2   9    0.09    0.19
  -1  -2  -9    1.33    0.29
   1   2   9    0.94    0.21
   1   2   9    1.28    0.25
   1   2   9    1.20    0.14
   1   2   9    0.62    0.34
  -2  -2  -9    0.11    0.13
   2   2   9    0.06    0.11
   2   2   9    0.12    0.19
   2   2   9    0.22    0.17
   2   2   9    0.00    0.11
   2   2   9    0.07    0.09
  -3  -2  -9   46.23    2.52
   3   2   9   53.64    1.80
   3   2   9   41.29    1.95
   3   2   9   48.46    2.25
   3   2   9   45.92    2.08
   4   2   9   37.42    1.90
   4   2   9   42.42    1.61
   4   2   9   42.67    1.77
   4   2   9   39.91    2.00
   5   2   9    0.53    0.35
   5   2   9    1.85    0.32
   5   2   9    2.79    0.50
   5   2   9    1.43    0.28
   6   2   9    1.05    0.27
   6   2   9    1.24    0.40
   6   2   9    0.09    0.34
   7   2   9    0.05    0.36
   7   2   9    0.13    0.17
   7   2   9    0.12    0.22
   8   2   9    1.75    0.48
   6  -3  -9    0.88    0.33
   5  -3  -9    1.99    0.44
  -5   3   9    1.93    0.39
   4  -3  -9    0.26    0.22
  -4   3   9    0.06    0.14
  -4   3   9   -0.08    0.17
   3  -3  -9    8.84    0.80
  -3   3   9    9.55    0.75
  -3   3   9    9.81    0.77
   2  -3  -9    2.79    0.40
  -2   3   9    2.55    0.40
  -2   3   9    2.74    0.38
  -2   3   9    2.42    0.58
   1  -3  -9    0.05    0.13
  -1   3   9    0.07    0.22
  -1   3   9    0.03    0.11
  -1   3   9   -0.05    0.10
  -1   3   9    0.26    0.12
   0  -3  -9    1.90    0.34
   0   3   9    1.50    0.28
   0   3   9    1.36    0.19
   0   3   9    0.52    0.34
   0   3   9    1.70    0.29
  -1  -3  -9    3.62    0.43
   1   3   9    4.00    0.35
   1   3   9    3.91    0.47
   1   3   9    3.79    0.27
   1   3   9    4.22    0.42
   1   3   9    4.08    0.41
  -2  -3  -9    2.32    0.37
   2   3   9    2.17    0.32
   2   3   9    2.11    0.29
   2   3   9    2.03    0.30
   2   3   9    2.34    0.38
   3   3   9   50.79    2.18
   3   3   9   47.41    2.14
   3   3   9   50.38    2.32
   3   3   9   52.54    1.90
   4   3   9    4.70    0.56
   4   3   9    4.66    0.42
   4   3   9    4.18    0.44
   4   3   9    3.91    0.41
   5   3   9    4.76    0.44
   5   3   9    4.37    0.58
   5   3   9    4.82    0.48
   6   3   9    8.37    0.76
   6   3   9    7.48    0.59
   7   3   9    4.87    0.69
   7   3   9    5.18    0.55
   7   3   9    6.97    0.70
   8   3   9    1.05    0.45
   8   3   9    0.76    0.29
   8   3   9    0.96    0.34
   5  -4  -9    0.04    0.17
  -5   4   9    0.28    0.21
   4  -4  -9    0.96    0.33
  -4   4   9    0.79    0.28
   3  -4  -9    0.05    0.19
  -3   4   9    0.02    0.18
  -3   4   9   -0.03    0.12
  -3   4   9   -0.04    0.24
   2  -4  -9    3.10    0.51
  -2   4   9    2.76    0.39
  -2   4   9    2.46    0.43
   1  -4  -9    0.04    0.15
  -1   4   9    0.08    0.13
  -1   4   9   -0.02    0.13
  -1   4   9    0.09    0.23
   0  -4  -9    3.06    0.41
   0   4   9    2.15    0.36
   0   4   9    3.29    0.29
   0   4   9    2.55    0.31
   0   4   9    2.92    0.35
   0   4   9    2.64    0.42
   1   4   9   10.24    0.77
   1   4   9   11.68    0.78
   1   4   9   11.28    0.74
   1   4   9   11.53    0.65
   2   4   9    1.00    0.25
   2   4   9    0.23    0.25
   2   4   9    0.87    0.26
   2   4   9    1.02    0.21
   2   4   9    0.94    0.24
   3   4   9  167.09    6.51
   3   4   9  175.79    6.08
   3   4   9  162.93    5.50
   3   4   9  180.35    6.99
   4   4   9   23.07    1.13
   4   4   9   24.58    1.25
   4   4   9   24.04    1.28
   4   4   9   23.09    1.18
   5   4   9    8.15    0.61
   5   4   9    7.92    0.68
   5   4   9    7.55    0.60
   6   4   9    2.32    0.38
   6   4   9    3.13    0.51
   7   4   9    0.21    0.17
   7   4   9    0.66    0.26
   7   4   9    0.16    0.25
   8   4   9    1.32    0.34
   8   4   9    1.35    0.44
   8   4   9    1.81    0.30
   9   4   9    2.75    0.61
   9   4   9    2.79    0.42
   9   4   9    2.35    0.45
   4  -5  -9    0.26    0.26
  -4   5   9    0.58    0.25
  -4   5   9   -0.05    0.24
   3  -5  -9    0.06    0.20
  -3   5   9    0.08    0.16
  -3   5   9    0.04    0.21
  -3   5   9   -0.02    0.23
  -2   5   9    0.08    0.19
  -2   5   9   -0.06    0.21
  -2   5   9   -0.02    0.11
  -1   5   9    0.03    0.25
  -1   5   9    0.28    0.21
  -1   5   9    0.18    0.14
   0   5   9    0.26    0.14
   0   5   9   -0.08    0.22
   0   5   9    0.27    0.21
   0   5   9    0.36    0.20
   1   5   9    1.42    0.24
   1   5   9    1.28    0.31
   1   5   9    1.41    0.27
   1   5   9    1.51    0.35
   2   5   9    0.34    0.19
   2   5   9    0.09    0.23
   2   5   9    0.06    0.13
   2   5   9   -0.07    0.13
   2   5   9    0.11    0.10
   3   5   9   24.60    1.27
   3   5   9   23.85    1.16
   3   5   9   24.40    1.19
   3   5   9   25.14    1.36
   4   5   9    0.07    0.14
   4   5   9    0.05    0.22
   4   5   9    0.47    0.22
   4   5   9    0.26    0.19
   5   5   9    8.69    0.67
   5   5   9    8.28    0.69
   5   5   9    8.79    0.67
   6   5   9   -0.06    0.18
   6   5   9    0.06    0.10
   6   5   9   -0.04    0.16
   6   5   9    0.17    0.22
   7   5   9    0.14    0.20
   7   5   9    0.16    0.23
   8   5   9    0.60    0.31
   8   5   9    0.18    0.24
   9   5   9    0.44    0.24
   9   5   9    0.76    0.33
   9   5   9    0.21    0.29
  -3   6   9    0.56    0.24
  -3   6   9    0.22    0.27
  -3   6   9   -0.06    0.23
  -2   6   9    0.49    0.27
  -2   6   9    0.73    0.24
  -2   6   9    0.35    0.33
  -1   6   9   -0.06    0.24
  -1   6   9    0.19    0.14
  -1   6   9   -0.02    0.18
   0   6   9    7.26    0.73
   0   6   9    8.02    0.58
   0   6   9    8.06    0.69
   1   6   9   13.85    0.79
   1   6   9   14.42    0.90
   1   6   9   12.79    0.98
   1   6   9   13.53    0.81
   2   6   9    8.15    0.66
   2   6   9    7.53    0.59
   2   6   9    7.75    0.47
   2   6   9    8.10    0.73
   3   6   9   92.46    3.26
   3   6   9   89.75    3.45
   3   6   9   87.72    3.79
   4   6   9    4.94    0.53
   4   6   9    4.13    0.50
   4   6   9    5.02    0.54
   5   6   9    4.49    0.51
   5   6   9    5.36    0.57
   5   6   9    4.88    0.51
   6   6   9    0.07    0.18
   6   6   9    0.03    0.18
   7   6   9    3.18    0.50
   7   6   9    2.58    0.45
   8   6   9   -0.06    0.18
   8   6   9    0.04    0.21
   9   6   9    0.73    0.25
   9   6   9    0.72    0.32
   9   6   9    1.50    0.43
  -2   7   9    0.06    0.27
  -2   7   9    0.01    0.14
  -2   7   9    0.08    0.25
  -1   7   9    0.07    0.22
  -1   7   9   -0.02    0.22
  -1   7   9    0.04    0.12
   0   7   9    0.08    0.23
   0   7   9    0.09    0.22
   0   7   9    0.09    0.11
   0   7   9    0.09    0.24
   1   7   9   21.76    1.44
   1   7   9   23.18    1.27
   2   7   9    0.84    0.27
   2   7   9    0.58    0.30
   2   7   9    0.93    0.29
   3   7   9    7.64    0.64
   3   7   9    7.54    0.64
   3   7   9    7.53    0.74
   4   7   9    1.02    0.32
   4   7   9    0.65    0.26
   4   7   9    0.85    0.28
   5   7   9    0.18    0.20
   5   7   9    0.06    0.18
   5   7   9    0.24    0.23
   6   7   9   -0.05    0.19
   6   7   9    0.08    0.20
   7   7   9    3.50    0.50
   7   7   9    3.76    0.55
   8   7   9    0.77    0.31
   8   7   9    1.39    0.38
   9   7   9    0.26    0.27
   9   7   9    0.20    0.27
   9   7   9    0.31    0.24
  -1   8   9   -0.06    0.24
   0   8   9    0.33    0.30
   0   8   9   -0.04    0.24
   0   8   9    0.03    0.27
   1   8   9    0.81    0.32
   1   8   9    0.48    0.31
   2   8   9    0.90    0.38
   2   8   9    0.63    0.27
   2   8   9    0.57    0.26
   3   8   9    3.78    0.51
   3   8   9    4.13    0.63
   3   8   9    2.57    0.44
   4   8   9    7.26    0.64
   4   8   9    7.87    0.80
   4   8   9    7.73    0.70
   5   8   9    0.15    0.20
   5   8   9    0.46    0.26
   5   8   9    0.36    0.26
   6   8   9   -0.04    0.19
   6   8   9   -0.03    0.20
   6   8   9   -0.01    0.21
   7   8   9    3.24    0.55
   7   8   9    3.83    0.51
   8   8   9    1.64    0.43
   8   8   9    1.39    0.37
   0   9   9   -0.10    0.26
   1   9   9    5.17    0.67
   2   9   9    1.30    0.46
   2   9   9    1.11    0.35
   3   9   9    5.50    0.61
   3   9   9    4.78    0.73
   3   9   9    2.66    0.46
   4   9   9    4.00    0.56
   4   9   9    4.30    0.69
   4   9   9    3.86    0.52
   5   9   9    0.53    0.31
   5   9   9    0.65    0.27
   5   9   9    0.44    0.29
   6   9   9    1.54    0.46
   6   9   9    1.89    0.46
   6   9   9    1.41    0.34
   7   9   9    1.14    0.34
   7   9   9    1.27    0.42
   8   9   9    0.37    0.23
   8   9   9    0.38    0.26
   8   9   9    0.21    0.30
   3  10   9   -0.04    0.25
   3  10   9    0.38    0.27
   4  10   9    1.95    0.43
   4  10   9    1.07    0.37
   5  10   9    0.15    0.25
   5  10   9    0.06    0.22
   6  10   9    0.45    0.29
   6  10   9    0.57    0.28
   5   5 -10    0.52    0.27
   4   5 -10    7.18    0.67
   3   5 -10    4.68    0.58
   2   5 -10    3.15    0.50
   1   5 -10    1.02    0.36
   0   5 -10   -0.06    0.23
   6   4 -10    3.41    0.53
   5   4 -10   11.73    0.88
  -5  -4  10   11.83    0.77
   4   4 -10    0.31    0.23
  -4  -4  10    0.03    0.16
   3   4 -10    0.17    0.21
  -3  -4  10    0.05    0.14
   2   4 -10    1.29    0.35
  -2  -4  10    1.63    0.29
   1   4 -10    0.63    0.27
  -1  -4  10    0.85    0.24
   0   4 -10    0.84    0.32
   0  -4  10    1.08    0.26
  -1   4 -10    0.99    0.35
  -1   4 -10    0.17    0.26
   1  -4  10    1.02    0.25
  -2   4 -10    5.50    0.73
   2  -4  10    5.26    0.48
   6   3 -10    0.35    0.27
   5   3 -10    0.07    0.19
  -5  -3  10    0.15    0.16
   4   3 -10    0.99    0.31
  -4  -3  10    0.77    0.23
   3   3 -10    6.07    0.59
  -3  -3  10    5.96    0.49
   2   3 -10    2.70    0.45
  -2  -3  10    1.89    0.30
   1   3 -10    0.38    0.22
   1   3 -10    0.07    0.16
  -1  -3  10    0.63    0.20
   0   3 -10    6.93    0.66
   0  -3  10    7.28    0.53
  -1   3 -10   10.31    0.84
   1  -3  10   10.94    0.69
  -2   3 -10    2.31    0.27
  -2   3 -10    2.27    0.49
   2  -3  10    2.62    0.34
  -3   3 -10    0.05    0.13
  -3   3 -10    0.01    0.25
   6   2 -10    4.21    0.62
   5   2 -10   -0.06    0.18
  -5  -2  10    0.16    0.17
   4   2 -10    2.98    0.48
  -4  -2  10    2.42    0.34
   3   2 -10    2.75    0.45
  -3  -2  10    2.17    0.31
   2   2 -10    3.19    0.47
  -2  -2  10    3.18    0.33
   1   2 -10    3.33    0.47
  -1  -2  10    2.71    0.31
   0   2 -10    0.64    0.26
   0  -2  10    0.81    0.21
  -1   2 -10    0.02    0.18
  -1   2 -10    0.25    0.20
   1  -2  10    0.53    0.18
  -2   2 -10    0.07    0.21
   2  -2  10    1.39    0.25
   4  -2  10    4.72    0.65
  -5   2 -10    2.01    0.36
   5  -2  10    2.52    0.51
   6   1 -10    0.20    0.26
   5   1 -10    8.84    0.80
  -5  -1  10    8.13    0.64
   4   1 -10    0.09    0.18
   4   1 -10   -0.03    0.12
  -4  -1  10    0.19    0.15
   3   1 -10    0.04    0.14
   3   1 -10    0.35    0.23
  -3  -1  10    0.32    0.16
   2   1 -10    0.09    0.16
   2   1 -10    0.07    0.16
  -2  -1  10    0.02    0.10
   1   1 -10    5.26    0.53
  -1  -1  10    5.17    0.42
   0   1 -10    0.00    0.15
   0   1 -10    0.46    0.22
   0  -1  10    0.85    0.20
  -1   1 -10    0.82    0.27
  -1   1 -10    0.00    0.16
   1  -1  10    0.49    0.17
   2  -1  10    2.75    0.30
   2  -1  10    3.50    0.49
   3  -1  10    2.97    0.31
   3  -1  10    2.46    0.45
   4  -1  10    1.99    0.42
  -6   1 -10    0.03    0.32
   6  -1  10   -0.07    0.50
   6   0 -10    0.12    0.13
   6   0 -10    0.18    0.32
   6   0 -10    0.44    0.33
   5   0 -10    1.74    0.30
   5   0 -10    1.48    0.42
   4   0 -10    0.00    0.17
   4   0 -10    0.01    0.11
  -4   0  10   -0.09    0.13
   3   0 -10    2.12    0.31
   3   0 -10    2.18    0.44
  -3   0  10    2.29    0.33
   2   0 -10    3.56    0.41
   2   0 -10    4.00    0.51
  -2   0  10    4.26    0.39
   1   0 -10    0.00    0.13
   1   0 -10    0.13    0.17
  -1   0  10    0.19    0.12
   0   0 -10    2.53    0.41
   0   0  10    2.01    0.28
   0   0  10    1.84    0.20
  -1   0 -10   10.76    0.79
   1   0  10   11.55    0.86
   1   0  10   11.75    0.68
   2   0  10    1.88    0.36
   2   0  10    2.34    0.29
  -4   0 -10   -0.01    0.15
   4   0  10    0.01    0.27
   4   0  10    0.06    0.16
   6   0  10   -0.08    0.37
   6  -1 -10    4.19    0.72
   6  -1 -10    3.09    0.40
   6  -1 -10    3.59    0.67
   5  -1 -10    7.05    0.80
   5  -1 -10    5.35    0.55
   4  -1 -10    3.83    0.58
   4  -1 -10    2.77    0.38
  -4   1  10    2.79    0.41
   3  -1 -10   12.98    0.95
   3  -1 -10   14.97    0.99
  -3   1  10   13.65    0.86
   2  -1 -10    3.27    0.47
   2  -1 -10    2.35    0.38
  -2   1  10    2.27    0.33
   1  -1 -10    1.12    0.28
   1  -1 -10    1.05    0.31
  -1   1  10    0.97    0.26
  -1   1  10    1.08    0.24
   0  -1 -10    0.09    0.12
   0  -1 -10    0.47    0.22
   0   1  10    0.04    0.19
   0   1  10    0.02    0.09
   0   1  10    0.10    0.08
   0   1  10    0.02    0.11
  -1  -1 -10    2.96    0.39
   1   1  10    3.09    0.33
   1   1  10    3.07    0.41
   5   1  10    0.05    0.31
   5   1  10    1.28    0.32
   6   1  10    0.13    0.39
   7   1  10    0.18    0.46
   6  -2 -10    0.43    0.24
   5  -2 -10    3.31    0.45
   4  -2 -10    1.12    0.32
  -4   2  10    0.97    0.30
   3  -2 -10    0.12    0.14
  -3   2  10    0.16    0.15
  -3   2  10    0.08    0.15
   2  -2 -10    6.68    0.61
  -2   2  10    6.60    0.58
  -2   2  10    5.57    0.56
   1  -2 -10    7.14    0.64
  -1   2  10    7.33    0.64
  -1   2  10    7.46    0.59
  -1   2  10    6.83    0.85
   0  -2 -10    3.75    0.44
   0   2  10    4.04    0.44
   0   2  10    4.05    0.28
   0   2  10    1.99    0.56
   0   2  10    3.99    0.40
  -1  -2 -10    1.03    0.27
   1   2  10    0.97    0.23
   1   2  10    1.21    0.27
  -2  -2 -10    7.59    0.68
   2   2  10    7.85    0.57
   2   2  10    7.91    0.65
  -3  -2 -10  163.36    7.50
   3   2  10  139.58    5.77
   3   2  10  159.23    6.49
   4   2  10    7.58    0.65
   4   2  10    7.76    0.56
   5   2  10   24.04    1.14
   5   2  10   24.20    1.39
   6   2  10    0.20    0.36
   6   2  10    1.45    0.31
   7   2  10    0.13    0.39
   7   2  10    0.42    0.25
   5  -3 -10    0.15    0.20
   4  -3 -10    0.13    0.17
  -4   3  10    0.27    0.19
  -4   3  10    0.33    0.25
   3  -3 -10    0.46    0.24
  -3   3  10    0.18    0.19
  -3   3  10    0.43    0.21
   2  -3 -10    0.62    0.26
  -2   3  10    0.31    0.20
  -2   3  10    0.92    0.44
  -2   3  10    0.58    0.23
   1  -3 -10    0.02    0.13
  -1   3  10    0.06    0.13
  -1   3  10   -0.01    0.12
  -1   3  10    0.05    0.22
   0  -3 -10   -0.03    0.11
   0   3  10   -0.04    0.19
   0   3  10    0.08    0.10
   0   3  10    0.04    0.10
   0   3  10    0.02    0.12
  -1  -3 -10   10.64    0.84
   1   3  10   11.82    0.80
   1   3  10   10.44    0.75
  -2  -3 -10    6.97    0.64
   2   3  10    7.21    0.58
   2   3  10    7.16    0.64
   2   3  10    7.30    0.60
   3   3  10    0.36    0.23
   3   3  10    0.14    0.17
   3   3  10    0.32    0.17
   3   3  10   -0.11    0.24
   3   3  10    0.09    0.13
   4   3  10    4.45    0.46
   4   3  10    3.93    0.41
   4   3  10    4.65    0.47
   4   3  10    5.49    0.63
   5   3  10    2.50    0.49
   5   3  10    2.68    0.37
   5   3  10    3.28    0.42
   6   3  10    0.73    0.26
   6   3  10    0.65    0.34
   6   3  10    0.24    0.32
   7   3  10    0.04    0.28
   7   3  10    0.07    0.34
   7   3  10    0.00    0.19
   7   3  10    0.04    0.18
   8   3  10    0.46    0.24
   8   3  10    0.35    0.27
   5  -4 -10    0.06    0.21
  -5   4  10    0.11    0.21
   4  -4 -10    0.37    0.27
  -4   4  10    0.20    0.18
   3  -4 -10   -0.02    0.18
  -3   4  10    0.01    0.27
  -3   4  10    0.06    0.14
  -3   4  10    0.05    0.18
   2  -4 -10    1.75    0.42
  -2   4  10    1.75    0.34
  -2   4  10    1.22    0.34
  -2   4  10    1.28    0.44
   1  -4 -10    0.15    0.16
  -1   4  10    0.08    0.13
  -1   4  10    0.21    0.20
  -1   4  10    0.01    0.22
   0  -4 -10    2.01    0.40
   0   4  10    1.62    0.35
   0   4  10    1.49    0.29
   0   4  10    0.68    0.39
   1   4  10    4.64    0.50
   1   4  10    3.74    0.39
   1   4  10    3.95    0.51
   1   4  10    3.54    0.40
   2   4  10   32.33    1.68
   2   4  10   34.72    1.71
   2   4  10   34.65    1.66
   2   4  10   35.46    1.45
   3   4  10    0.40    0.22
   3   4  10    0.09    0.27
   3   4  10    0.28    0.18
   3   4  10    0.24    0.17
   3   4  10    0.22    0.14
   4   4  10    0.00    0.14
   4   4  10    0.02    0.17
   4   4  10    0.07    0.28
   4   4  10    0.02    0.12
   4   4  10    0.06    0.10
   5   4  10    0.18    0.31
   5   4  10    0.81    0.31
   5   4  10    1.01    0.26
   5   4  10    0.73    0.18
   5   4  10    0.54    0.22
   6   4  10    0.11    0.31
   6   4  10    0.66    0.32
   6   4  10    0.75    0.27
   7   4  10    1.44    0.35
   7   4  10    1.79    0.39
   7   4  10    1.75    0.46
   8   4  10    0.27    0.20
   8   4  10    0.30    0.25
   8   4  10   -0.13    0.26
   4  -5 -10    4.14    0.68
  -4   5  10    3.12    0.50
   3  -5 -10    1.07    0.40
  -3   5  10    1.06    0.38
  -3   5  10    0.69    0.27
  -3   5  10    0.09    0.28
  -2   5  10    1.98    0.45
  -2   5  10    2.77    0.42
  -1   5  10    0.28    0.29
  -1   5  10    1.98    0.42
   0   5  10   21.06    1.31
   0   5  10   20.68    1.19
   1   5  10    7.86    0.60
   1   5  10    8.43    0.71
   1   5  10    7.68    0.55
   1   5  10    8.09    0.73
   2   5  10    1.89    0.38
   2   5  10    1.96    0.28
   2   5  10    1.29    0.33
   2   5  10    1.81    0.32
   3   5  10    8.17    0.71
   3   5  10    9.36    0.67
   3   5  10    9.61    0.61
   3   5  10    9.18    0.73
   4   5  10    1.83    0.35
   4   5  10    2.07    0.23
   4   5  10    1.36    0.32
   4   5  10    1.93    0.40
   5   5  10    5.86    0.56
   5   5  10    4.73    0.51
   5   5  10    5.58    0.63
   6   5  10    1.91    0.38
   6   5  10    2.37    0.46
   7   5  10   11.62    0.86
   7   5  10   11.86    0.94
   7   5  10   12.55    0.79
   8   5  10    3.92    0.55
   8   5  10    2.83    0.57
  -3   6  10    0.66    0.27
  -3   6  10    0.91    0.40
  -3   6  10   -0.06    0.28
  -2   6  10    1.10    0.41
  -2   6  10    1.26    0.31
  -1   6  10    4.40    0.47
  -1   6  10    3.65    0.58
   0   6  10    0.17    0.27
   0   6  10    0.64    0.29
   0   6  10    1.13    0.25
   0   6  10    1.22    0.35
   1   6  10    1.05    0.22
   1   6  10    0.60    0.26
   1   6  10    0.92    0.26
   1   6  10    0.20    0.30
   1   6  10    0.94    0.35
   2   6  10    0.25    0.20
   2   6  10    0.08    0.10
   2   6  10    0.15    0.19
   2   6  10   -0.01    0.18
   2   6  10    0.04    0.27
   3   6  10    3.38    0.45
   3   6  10    3.43    0.51
   3   6  10    3.11    0.48
   4   6  10    0.85    0.28
   4   6  10    1.05    0.31
   4   6  10    0.81    0.29
   5   6  10    3.29    0.47
   5   6  10    2.74    0.47
   5   6  10    2.36    0.42
   6   6  10    4.65    0.57
   6   6  10    5.37    0.62
   7   6  10    0.64    0.29
   7   6  10    0.22    0.21
   8   6  10    0.11    0.21
   8   6  10    0.05    0.25
  -2   7  10    0.10    0.16
  -2   7  10    0.02    0.27
  -1   7  10    0.07    0.14
  -1   7  10    0.04    0.26
  -1   7  10   -0.15    0.22
   0   7  10   12.98    0.96
   0   7  10   12.54    0.77
   0   7  10   11.69    1.04
   1   7  10    0.12    0.10
   1   7  10    0.24    0.23
   1   7  10    0.08    0.21
   1   7  10    0.00    0.27
   2   7  10    7.52    0.67
   2   7  10    7.08    0.76
   3   7  10    0.77    0.29
   3   7  10    0.83    0.32
   3   7  10    0.92    0.31
   4   7  10    3.23    0.54
   4   7  10    3.58    0.50
   4   7  10    3.58    0.51
   5   7  10    0.15    0.21
   5   7  10    0.32    0.23
   5   7  10    0.17    0.23
   6   7  10    1.03    0.34
   6   7  10    1.11    0.35
   7   7  10    2.59    0.48
   7   7  10    2.97    0.50
   8   7  10    0.16    0.24
   8   7  10    0.09    0.25
  -1   8  10    0.23    0.15
   0   8  10    0.06    0.31
   0   8  10    0.28    0.32
   1   8  10    0.09    0.24
   1   8  10    0.11    0.28
   1   8  10    0.09    0.27
   2   8  10    0.05    0.20
   2   8  10    1.33    0.34
   2   8  10    1.43    0.40
   2   8  10    0.71    0.33
   3   8  10    2.14    0.49
   3   8  10    2.44    0.44
   3   8  10    1.65    0.36
   4   8  10    3.96    0.63
   4   8  10    3.81    0.53
   4   8  10    3.42    0.50
   5   8  10    3.63    0.56
   5   8  10    3.06    0.50
   5   8  10    3.66    0.59
   6   8  10    0.26    0.26
   6   8  10    0.12    0.22
   7   8  10    5.01    0.61
   7   8  10    5.09    0.67
   8   8  10    4.99    0.67
   8   8  10    5.30    0.63
   1   9  10    1.62    0.45
   2   9  10   -0.02    0.24
   3   9  10    1.06    0.44
   3   9  10    1.04    0.35
   3   9  10    0.91    0.30
   4   9  10    0.79    0.35
   4   9  10    0.77    0.31
   4   9  10    1.23    0.45
   5   9  10    0.00    0.24
   5   9  10    0.29    0.27
   5   9  10    0.18    0.25
   6   9  10    1.91    0.42
   6   9  10    2.11    0.51
   6   9  10    1.94    0.48
   7   9  10    0.46    0.29
   7   9  10    0.61    0.32
   4   4 -11    4.29    0.59
   3   4 -11    1.18    0.35
   2   4 -11    0.28    0.24
   1   4 -11    0.11    0.24
   0   4 -11    0.24    0.27
   0   4 -11    0.06    0.18
  -1   4 -11    2.50    0.53
   5   3 -11    0.48    0.28
  -5  -3  11    0.85    0.26
   4   3 -11    0.01    0.20
  -4  -3  11    0.02    0.15
   3   3 -11    2.87    0.49
  -3  -3  11    2.32    0.35
   2   3 -11    0.61    0.27
  -2  -3  11    0.78    0.23
   1   3 -11    1.90    0.43
  -1  -3  11    2.35    0.34
   0   3 -11    0.04    0.22
   0   3 -11    0.99    0.33
   0  -3  11    0.74    0.22
  -1   3 -11    3.99    0.60
   1  -3  11    3.66    0.40
  -2   3 -11    2.23    0.25
   2  -3  11    2.52    0.36
   6   2 -11    1.68    0.47
   5   2 -11    0.58    0.30
  -5  -2  11    0.53    0.22
   4   2 -11    1.02    0.35
  -4  -2  11    0.93    0.26
   3   2 -11    0.31    0.23
   3   2 -11    0.01    0.12
  -3  -2  11    0.27    0.17
   2   2 -11    1.80    0.41
  -2  -2  11    2.24    0.33
   1   2 -11    1.23    0.35
  -1  -2  11    1.56    0.28
   0   2 -11    1.26    0.36
   0  -2  11    1.25    0.25
  -1   2 -11    0.00    0.20
  -1   2 -11    0.00    0.20
   1  -2  11    0.16    0.14
  -3   2 -11    0.20    0.31
  -4   2 -11    0.04    0.27
   4  -2  11    1.12    0.38
   6   1 -11    1.52    0.48
   5   1 -11    0.11    0.23
   5   1 -11    0.02    0.11
  -5  -1  11    0.13    0.18
   4   1 -11    4.08    0.59
  -4  -1  11    4.02    0.44
  -3  -1  11    1.00    0.25
   2   1 -11    4.33    0.57
  -2  -1  11    4.53    0.43
   1   1 -11   17.99    1.10
  -1  -1  11   16.53    0.93
   0   1 -11    8.77    0.72
   0  -1  11    8.00    0.57
  -1   1 -11    9.67    0.79
   1  -1  11   10.10    0.65
  -2   1 -11    0.05    0.18
   2  -1  11    0.72    0.21
   3  -1  11    4.01    0.58
   3  -1  11    4.68    0.42
   5  -1  11    2.15    0.47
   6   0 -11    0.02    0.13
   6   0 -11    0.20    0.36
   6   0 -11    0.30    0.29
   5   0 -11    4.00    0.64
   5   0 -11    2.87    0.35
   4   0 -11    0.08    0.23
   4   0 -11    0.37    0.19
  -4   0  11    0.21    0.18
   3   0 -11    1.00    0.36
   3   0 -11    0.83    0.25
  -3   0  11    0.86    0.25
   2   0 -11   -0.05    0.12
   2   0 -11    0.04    0.18
  -2   0  11    0.21    0.15
   1   0 -11    1.23    0.33
  -1   0  11    1.23    0.26
   0   0 -11   -0.08    0.15
   0   0 -11    0.39    0.23
   0   0  11    0.44    0.18
   1   0  11    4.65    0.42
   1   0  11    4.43    0.53
   2   0  11   27.93    1.65
   2   0  11   28.17    1.34
   3   0  11    5.62    0.47
   3   0  11    5.97    0.64
  -4   0 -11   -0.01    0.20
   4   0  11    0.14    0.20
   4   0  11    0.32    0.41
  -5   0 -11   -0.04    0.22
   5   0  11   -0.11    0.34
   5   0  11    0.00    0.18
   6   0  11    0.05    0.42
   5  -1 -11    1.05    0.41
   5  -1 -11    1.21    0.30
   4  -1 -11    0.26    0.28
   4  -1 -11    0.16    0.17
  -4   1  11    0.59    0.25
   3  -1 -11    0.21    0.16
   3  -1 -11    0.71    0.31
  -3   1  11    0.59    0.22
   2  -1 -11    0.74    0.25
   2  -1 -11    0.91    0.32
  -2   1  11    0.90    0.25
   1  -1 -11    4.08    0.47
   1  -1 -11    3.89    0.53
  -1   1  11    4.15    0.43
   0  -1 -11   34.92    1.98
   0   1  11   34.02    1.82
   0   1  11   32.63    1.59
   1   1  11    1.38    0.27
   1   1  11    0.17    0.25
   1   1  11    1.63    0.34
   3   1  11    1.22    0.26
   3   1  11    0.87    0.28
   5   1  11    2.29    0.42
   5   1  11    0.19    0.38
   6   1  11    0.28    0.23
   6   1  11    0.04    0.38
   5  -2 -11    0.65    0.27
   4  -2 -11    4.91    0.55
  -4   2  11    5.55    0.60
   3  -2 -11    0.26    0.19
  -3   2  11    0.19    0.19
   2  -2 -11    2.32    0.42
  -2   2  11    1.82    0.36
  -2   2  11    1.83    0.35
   1  -2 -11    3.59    0.46
  -1   2  11    3.36    0.44
  -1   2  11    3.74    0.46
   0  -2 -11    1.47    0.34
   0   2  11    1.31    0.28
   0   2  11    1.03    0.27
   0   2  11    0.64    0.42
  -1  -2 -11    1.65    0.36
   1   2  11    1.31    0.30
   1   2  11    1.29    0.27
  -2  -2 -11    5.69    0.59
   2   2  11    4.93    0.47
   2   2  11    4.86    0.53
   4   2  11    1.70    0.29
   4   2  11    1.05    0.28
   4   2  11    0.48    0.39
   5   2  11    0.23    0.39
   5   2  11    0.26    0.18
   6   2  11   -0.06    0.32
   7   2  11    0.04    0.43
   5  -3 -11    1.86    0.44
   4  -3 -11    0.17    0.19
  -4   3  11    0.07    0.17
  -4   3  11    0.16    0.24
   3  -3 -11    0.67    0.28
  -3   3  11    0.65    0.26
  -3   3  11    1.08    0.34
   2  -3 -11    2.50    0.46
  -2   3  11    2.06    0.40
  -2   3  11    2.57    0.42
   1  -3 -11    8.89    0.76
  -1   3  11    8.19    0.71
  -1   3  11    6.32    0.90
  -1   3  11    8.69    0.72
   0  -3 -11   17.16    1.18
   0   3  11   16.07    1.07
   0   3  11   16.59    1.05
  -1  -3 -11    0.78    0.26
   1   3  11    0.20    0.33
   1   3  11    0.96    0.26
   1   3  11    0.74    0.23
   2   3  11   23.60    1.32
   2   3  11   20.55    1.20
   3   3  11    0.48    0.19
   3   3  11    0.31    0.17
   3   3  11   -0.11    0.27
   4   3  11    3.15    0.41
   4   3  11    3.02    0.41
   5   3  11    0.08    0.32
   5   3  11    2.28    0.36
   6   3  11    0.81    0.29
   6   3  11   -0.09    0.26
   7   3  11    0.10    0.37
   7   3  11    2.05    0.40
   4  -4 -11    2.58    0.53
  -4   4  11    1.95    0.41
   3  -4 -11    0.14    0.20
  -3   4  11    0.12    0.17
  -3   4  11    0.17    0.23
   2  -4 -11    2.33    0.48
  -2   4  11    2.34    0.42
   1  -4 -11    0.09    0.16
  -1   4  11    0.12    0.18
  -1   4  11    0.22    0.32
  -1   4  11    0.06    0.13
   0  -4 -11    0.94    0.31
   0   4  11    1.08    0.27
   0   4  11    0.87    0.29
   0   4  11    0.56    0.37
   1   4  11    1.93    0.33
   1   4  11    1.76    0.36
   2   4  11    3.20    0.39
   2   4  11    2.87    0.44
   3   4  11    6.63    0.57
   3   4  11    7.08    0.62
   3   4  11    5.92    0.62
   4   4  11    0.08    0.15
   4   4  11   -0.01    0.20
   4   4  11    0.00    0.10
   4   4  11    0.08    0.31
   4   4  11   -0.09    0.15
   5   4  11    0.55    0.18
   5   4  11    0.42    0.27
   5   4  11    0.53    0.24
   5   4  11    0.00    0.26
   6   4  11    0.14    0.31
   6   4  11    0.54    0.33
   6   4  11    0.36    0.24
   7   4  11   -0.01    0.32
   7   4  11    0.29    0.34
   7   4  11    0.57    0.29
   8   4  11    1.70    0.42
   8   4  11    1.18    0.35
   8   4  11    1.12    0.48
   3  -5 -11    1.23    0.43
  -3   5  11    0.97    0.38
  -3   5  11    1.37    0.34
  -3   5  11    0.20    0.36
  -2   5  11    0.34    0.20
  -2   5  11    0.15    0.24
  -2   5  11    0.13    0.31
  -1   5  11    1.41    0.32
  -1   5  11    1.52    0.41
   0   5  11    3.25    0.53
   0   5  11    3.30    0.43
   1   5  11    1.96    0.33
   1   5  11    1.65    0.39
   2   5  11   10.71    0.86
   2   5  11   10.20    0.68
   2   5  11   10.12    0.71
   2   5  11    9.37    0.79
   3   5  11    2.34    0.39
   3   5  11    3.39    0.49
   3   5  11    2.55    0.32
   3   5  11    3.02    0.49
   4   5  11   15.75    0.87
   4   5  11   14.06    1.00
   4   5  11   14.31    0.91
   4   5  11   17.72    1.09
   5   5  11    6.11    0.62
   5   5  11    5.16    0.64
   5   5  11    5.19    0.56
   6   5  11    0.07    0.27
   6   5  11    0.17    0.26
   6   5  11    0.25    0.21
   7   5  11    2.09    0.42
   7   5  11    2.40    0.38
   7   5  11    2.41    0.54
   8   5  11   -0.08    0.28
   8   5  11   -0.05    0.21
  -2   6  11    6.03    0.79
  -2   6  11    6.19    0.63
  -1   6  11    0.04    0.24
  -1   6  11    0.07    0.30
  -1   6  11   -0.01    0.13
   0   6  11    0.04    0.32
   0   6  11    0.15    0.22
   0   6  11   -0.07    0.11
   1   6  11    0.61    0.31
   1   6  11    0.80    0.22
   1   6  11    0.83    0.25
   1   6  11    0.14    0.29
   1   6  11    0.54    0.27
   2   6  11    0.53    0.24
   2   6  11    0.86    0.33
   2   6  11    0.67    0.18
   2   6  11    0.56    0.28
   2   6  11    0.10    0.27
   3   6  11    0.66    0.31
   3   6  11    0.78    0.29
   3   6  11    0.50    0.14
   3   6  11    0.50    0.23
   3   6  11    0.19    0.31
   4   6  11    0.17    0.23
   4   6  11   -0.07    0.15
   4   6  11    0.03    0.18
   4   6  11   -0.03    0.25
   5   6  11    4.95    0.62
   5   6  11    3.85    0.53
   5   6  11    4.12    0.54
   6   6  11    2.40    0.44
   6   6  11    2.28    0.47
   7   6  11    0.16    0.23
   7   6  11    0.03    0.24
   8   6  11    1.73    0.48
   8   6  11    1.54    0.41
  -1   7  11   -0.02    0.27
  -1   7  11    0.92    0.26
   0   7  11    0.52    0.34
   0   7  11   -0.10    0.27
   0   7  11    0.19    0.15
   1   7  11    6.19    0.47
   1   7  11    6.21    0.71
   1   7  11    5.32    0.74
   2   7  11   -0.05    0.23
   2   7  11    0.00    0.25
   2   7  11   -0.06    0.16
   2   7  11    0.08    0.19
   3   7  11   -0.03    0.24
   3   7  11    0.00    0.17
   3   7  11    0.27    0.23
   3   7  11   -0.03    0.22
   4   7  11   -0.05    0.18
   4   7  11    0.46    0.27
   4   7  11    0.33    0.24
   4   7  11    0.59    0.29
   5   7  11    0.29    0.26
   5   7  11    0.32    0.28
   5   7  11    0.46    0.26
   6   7  11   -0.07    0.18
   6   7  11    0.14    0.25
   7   7  11    0.27    0.24
   7   7  11   -0.09    0.24
   8   7  11    4.18    0.62
   8   7  11    4.85    0.66
   0   8  11    0.01    0.30
   1   8  11    0.03    0.26
   1   8  11    0.10    0.26
   2   8  11    0.10    0.22
   2   8  11   -0.03    0.23
   2   8  11    0.15    0.26
   2   8  11    0.02    0.23
   3   8  11   -0.01    0.22
   3   8  11    0.19    0.21
   3   8  11   -0.06    0.21
   3   8  11    0.01    0.18
   4   8  11    0.36    0.31
   4   8  11    0.58    0.28
   4   8  11    0.30    0.27
   5   8  11    0.32    0.26
   5   8  11    0.10    0.24
   5   8  11    0.27    0.27
   6   8  11    2.90    0.51
   6   8  11    3.57    0.57
   7   8  11    0.82    0.36
   7   8  11    1.07    0.37
   2   9  11   -0.03    0.27
   3   9  11    1.69    0.44
   3   9  11    1.18    0.36
   4   9  11    0.02    0.23
   4   9  11    0.04    0.22
   5   9  11    0.63    0.32
   5   9  11    1.20    0.40
   6   9  11    0.67    0.35
   6   9  11    0.25    0.30
   6   9  11    0.36    0.30
   4   3 -12    1.07    0.38
   3   3 -12   -0.01    0.21
   2   3 -12    0.70    0.32
   1   3 -12    0.18    0.25
   1   3 -12    0.06    0.20
   0   3 -12    0.00    0.22
   0   3 -12    0.09    0.23
  -1   3 -12   -0.16    0.25
  -1   3 -12    0.04    0.26
   4   2 -12    0.26    0.26
   3   2 -12    0.35    0.26
   3   2 -12   -0.02    0.12
  -3  -2  12    0.20    0.17
   2   2 -12    0.01    0.16
   2   2 -12    0.06    0.23
  -2  -2  12    0.11    0.15
   1   2 -12    2.94    0.53
  -1  -2  12    3.24    0.40
   0   2 -12    2.35    0.49
   0  -2  12    2.24    0.34
  -3   2 -12    0.06    0.31
   5   1 -12    0.40    0.30
  -5  -1  12    0.72    0.27
   4   1 -12    0.26    0.26
   4   1 -12    0.19    0.17
  -4  -1  12    0.31    0.21
   3   1 -12    1.90    0.46
  -3  -1  12    1.48    0.31
   2   1 -12    0.16    0.25
   2   1 -12    0.07    0.18
  -2  -1  12    0.37    0.20
   1   1 -12    3.71    0.57
  -1  -1  12    3.02    0.39
   0   1 -12   11.27    0.89
   0  -1  12   10.82    0.72
  -1   1 -12    0.08    0.19
   1  -1  12    1.13    0.26
  -2   1 -12   -0.06    0.17
   3  -1  12    1.78    0.43
   3  -1  12    2.19    0.34
   4  -1  12    2.05    0.48
   5   0 -12    0.34    0.35
   5   0 -12   -0.03    0.14
   4   0 -12    2.29    0.51
   3   0 -12    0.60    0.32
  -3   0  12    0.44    0.22
   2   0 -12    2.43    0.49
  -2   0  12    2.09    0.35
   1   0 -12    0.35    0.27
   1   0 -12    0.05    0.19
  -1   0  12    0.14    0.15
   0   0 -12   -0.17    0.18
   0   0  12    0.25    0.15
   1   0  12    2.37    0.35
  -2   0 -12   -0.04    0.18
   2   0  12    0.11    0.18
   2   0  12    0.30    0.17
   3   0  12    2.49    0.48
   3   0  12    2.79    0.37
  -4   0 -12   -0.02    0.21
   4   0  12    0.51    0.26
  -5   0 -12   -0.02    0.25
   5   0  12   -0.04    0.43
   5   0  12    0.07    0.22
   5  -1 -12    0.97    0.29
   4  -1 -12    0.53    0.24
  -4   1  12    0.20    0.21
   3  -1 -12    0.33    0.20
  -3   1  12    0.35    0.20
   2  -1 -12    0.04    0.14
  -2   1  12    0.02    0.15
   1  -1 -12   12.06    0.97
  -1   1  12   14.63    0.90
   0  -1 -12    7.28    0.70
   0   1  12    6.75    0.58
   0   1  12    6.37    0.65
  -1  -1 -12   -0.01    0.15
   1   1  12    0.11    0.17
   1   1  12    0.04    0.13
   3   1  12    3.31    0.42
   3   1  12    3.96    0.55
   5   1  12    0.72    0.29
   5   1  12   -0.01    0.35
   6   1  12    4.10    0.60
   4  -2 -12    2.90    0.43
  -4   2  12    3.04    0.52
   3  -2 -12    3.15    0.45
  -3   2  12    3.11    0.49
   2  -2 -12    3.62    0.47
  -2   2  12    3.39    0.50
  -2   2  12    3.03    0.46
   1  -2 -12    3.16    0.49
  -1   2  12    2.69    0.42
  -1   2  12    3.51    0.48
   0  -2 -12    3.64    0.48
   0   2  12    3.97    0.45
   0   2  12    4.19    0.51
  -1  -2 -12    1.36    0.35
   1   2  12    0.21    0.33
   1   2  12    1.54    0.35
   1   2  12    1.06    0.27
  -2  -2 -12    1.30    0.37
   2   2  12    0.07    0.35
   2   2  12    1.07    0.27
   2   2  12    1.95    0.37
  -3  -2 -12   -0.05    0.16
   3   2  12    0.42    0.21
   3   2  12    0.05    0.37
   3   2  12    0.25    0.19
   4   2  12    1.79    0.32
   4   2  12    1.92    0.39
   4  -3 -12    0.33    0.23
  -4   3  12    0.67    0.34
   3  -3 -12    0.88    0.31
  -3   3  12    0.75    0.29
  -3   3  12    0.77    0.30
   2  -3 -12    0.17    0.20
  -2   3  12    0.36    0.21
  -2   3  12    0.05    0.18
   1  -3 -12    5.69    0.62
  -1   3  12    5.64    0.60
  -1   3  12    5.34    0.58
   0  -3 -12    3.26    0.46
   0   3  12    3.07    0.46
   0   3  12    3.24    0.47
  -1  -3 -12    0.05    0.16
   1   3  12    0.12    0.34
   1   3  12    0.14    0.16
   1   3  12    0.16    0.18
   2   3  12   -0.03    0.28
   2   3  12    0.05    0.14
   2   3  12    0.09    0.14
   3   3  12    0.96    0.28
   3   3  12    0.04    0.34
   3   3  12    0.84    0.25
   4   3  12    1.76    0.33
   4   3  12    1.32    0.31
   5   3  12    0.11    0.35
   5   3  12   -0.05    0.14
   6   3  12    0.13    0.36
   7   3  12    0.20    0.43
   3  -4 -12   11.67    1.00
  -3   4  12   10.66    0.95
  -3   4  12    9.94    0.89
   2  -4 -12    3.06    0.54
  -2   4  12    2.13    0.46
  -2   4  12    1.30    0.51
  -2   4  12    3.26    0.49
   1  -4 -12    1.17    0.36
  -1   4  12    1.07    0.30
  -1   4  12    0.72    0.30
  -1   4  12    0.61    0.42
   0  -4 -12    1.37    0.38
   0   4  12    0.01    0.32
   0   4  12    1.04    0.29
   0   4  12    1.00    0.31
   1   4  12    2.71    0.42
   1   4  12    2.23    0.43
   2   4  12   11.69    0.89
   2   4  12   12.53    0.88
   3   4  12    2.49    0.42
   3   4  12    3.24    0.41
   4   4  12    6.49    0.62
   4   4  12    6.41    0.58
   5   4  12    0.12    0.14
   5   4  12    0.15    0.31
   6   4  12   -0.01    0.28
   7   4  12    1.63    0.40
   7   4  12    0.17    0.40
   3  -5 -12    0.07    0.23
  -3   5  12   -0.09    0.15
  -3   5  12    0.24    0.39
  -2   5  12    0.20    0.38
  -2   5  12    0.48    0.30
  -2   5  12    0.28    0.21
  -1   5  12    0.83    0.27
  -1   5  12    0.17    0.34
  -1   5  12    1.36    0.42
   0   5  12    0.95    0.27
   0   5  12    0.98    0.35
   0   5  12    0.01    0.32
   1   5  12    0.06    0.35
   1   5  12    0.32    0.22
   1   5  12    0.55    0.22
   2   5  12    1.24    0.34
   2   5  12    1.84    0.33
   3   5  12    7.31    0.71
   3   5  12    7.41    0.60
   3   5  12    7.18    0.71
   4   5  12    2.92    0.47
   4   5  12    2.94    0.54
   4   5  12    2.99    0.35
   5   5  12    1.87    0.39
   5   5  12    1.88    0.26
   5   5  12    1.03    0.32
   5   5  12    2.06    0.48
   6   5  12    1.44    0.37
   6   5  12    2.07    0.52
   7   5  12    9.83    0.93
   7   5  12   10.29    0.84
  -2   6  12   -0.07    0.29
  -2   6  12    0.62    0.26
  -1   6  12    0.02    0.16
  -1   6  12   -0.09    0.27
  -1   6  12    0.09    0.25
   0   6  12    0.40    0.29
   0   6  12    0.21    0.17
   0   6  12    0.20    0.35
   1   6  12    0.09    0.14
   1   6  12    0.15    0.21
   1   6  12    0.02    0.30
   2   6  12    0.75    0.33
   2   6  12    0.77    0.33
   2   6  12    0.60    0.20
   2   6  12    0.03    0.28
   3   6  12    9.82    0.83
   3   6  12    8.50    0.81
   3   6  12    8.13    0.58
   4   6  12    4.40    0.54
   4   6  12    4.92    0.66
   4   6  12    3.56    0.56
   5   6  12   10.83    0.91
   5   6  12   11.62    0.92
   5   6  12   11.07    0.85
   6   6  12    6.31    0.75
   6   6  12    7.04    0.72
   7   6  12    2.42    0.55
   7   6  12    2.16    0.46
   0   7  12    0.16    0.36
   0   7  12    0.20    0.17
   1   7  12    0.29    0.15
   1   7  12    0.16    0.33
   1   7  12    0.34    0.28
   2   7  12    3.44    0.63
   2   7  12    2.08    0.48
   2   7  12    1.71    0.36
   2   7  12    2.26    0.26
   3   7  12    1.36    0.42
   3   7  12    1.00    0.32
   3   7  12    1.60    0.44
   4   7  12    0.30    0.26
   4   7  12    0.23    0.28
   4   7  12    0.10    0.24
   4   7  12    0.11    0.21
   5   7  12    0.14    0.20
   5   7  12    0.35    0.26
   5   7  12    0.53    0.29
   5   7  12    0.19    0.27
   6   7  12    0.77    0.35
   6   7  12    0.27    0.27
   7   7  12   13.90    1.04
   7   7  12   15.22    1.09
   1   8  12   -0.12    0.27
   2   8  12    0.45    0.27
   2   8  12    0.04    0.27
   2   8  12    0.66    0.35
   3   8  12    0.96    0.31
   3   8  12    1.21    0.41
   4   8  12    0.75    0.35
   4   8  12    1.07    0.42
   4   8  12    0.72    0.32
   5   8  12    0.97    0.40
   5   8  12    1.14    0.37
   5   8  12    0.81    0.35
   6   8  12    1.50    0.43
   3   2 -13    0.31    0.29
   2   2 -13    0.95    0.38
   1   2 -13    0.06    0.21
   0   2 -13    3.14    0.58
   3   1 -13    0.00    0.24
   3   1 -13    0.03    0.17
   2   1 -13    1.60    0.45
   1   1 -13    3.99    0.63
   0   1 -13   -0.07    0.16
   0  -1  13    0.17    0.17
  -1   1 -13    0.25    0.25
  -2   1 -13    0.18    0.25
   4   0 -13    4.71    0.71
   3   0 -13    0.28    0.30
   3   0 -13   -0.08    0.17
   2   0 -13    4.01    0.63
  -2   0  13    3.47    0.47
  -1   0 -13    0.05    0.22
   1   0  13    0.18    0.16
   2   0  13    4.73    0.48
   2   0  13    4.60    0.64
  -3   0 -13   -0.05    0.19
   3   0  13    0.47    0.22
   3   0  13    0.54    0.28
  -4   0 -13    0.12    0.27
   4   0  13    2.03    0.47
   4  -1 -13    0.28    0.21
   3  -1 -13    0.48    0.25
  -3   1  13    0.64    0.29
   2  -1 -13    0.77    0.28
  -2   1  13    0.49    0.23
   1  -1 -13    2.11    0.44
  -1   1  13    1.84    0.35
   0  -1 -13   -0.03    0.17
   0   1  13    0.07    0.15
   0   1  13    0.06    0.17
   1   1  13    3.13    0.44
   1   1  13    2.92    0.49
   2   1  13    2.76    0.49
   2   1  13    2.60    0.40
  -3  -1 -13    0.04    0.26
   3   1  13    0.71    0.25
   3   1  13   -0.08    0.39
   3   1  13    0.67    0.29
  -4  -1 -13    0.04    0.25
   4   1  13    0.08    0.19
   4   1  13   -0.06    0.40
   5   1  13   -0.01    0.42
   3  -2 -13    5.52    0.61
  -3   2  13    5.64    0.63
   2  -2 -13    0.33    0.20
  -2   2  13    0.44    0.24
   1  -2 -13    0.22    0.20
  -1   2  13    0.11    0.18
  -1   2  13    0.12    0.17
   0  -2 -13    0.00    0.14
   0   2  13   -0.08    0.13
   0   2  13    0.26    0.19
  -1  -2 -13    0.79    0.32
   1   2  13    0.83    0.30
   1   2  13    0.15    0.34
   1   2  13    1.14    0.30
  -2  -2 -13    0.14    0.19
   2   2  13   -0.08    0.35
   2   2  13    0.19    0.20
   2   2  13    0.08    0.15
  -3  -2 -13    0.01    0.21
   3   2  13    0.11    0.15
   3   2  13    0.27    0.42
   3   2  13    0.07    0.19
   4   2  13    1.49    0.37
   4   2  13    1.21    0.29
   4   2  13    0.12    0.40
   5   2  13    0.40    0.25
   5   2  13   -0.17    0.34
   3  -3 -13    0.98    0.34
  -3   3  13    0.76    0.32
   2  -3 -13    4.34    0.56
  -2   3  13    4.26    0.58
  -2   3  13    2.93    0.52
   1  -3 -13    0.33    0.22
  -1   3  13    0.08    0.18
  -1   3  13    0.30    0.20
   0  -3 -13    3.83    0.51
   0   3  13    4.07    0.55
   0   3  13    3.47    0.52
  -1  -3 -13    0.40    0.25
   1   3  13    0.55    0.23
   1   3  13    0.29    0.21
   1   3  13    0.15    0.37
   2   3  13    0.18    0.38
   2   3  13    0.72    0.27
   2   3  13    0.99    0.30
   3   3  13    0.12    0.17
   3   3  13    0.30    0.20
   3   3  13   -0.10    0.31
   4   3  13    0.28    0.20
   4   3  13    0.19    0.18
   4   3  13    0.04    0.35
   5   3  13    0.08    0.18
   5   3  13   -0.05    0.32
   6   3  13    3.02    0.46
   2  -4 -13    0.09    0.20
  -2   4  13    0.19    0.19
   1  -4 -13    0.03    0.19
  -1   4  13   -0.11    0.14
  -1   4  13   -0.02    0.35
  -1   4  13   -0.02    0.19
   0  -4 -13   -0.01    0.18
   0   4  13    0.20    0.21
   0   4  13    0.00    0.14
   0   4  13    0.08    0.41
   1   4  13    0.12    0.16
   1   4  13   -0.07    0.34
   1   4  13    0.33    0.22
   2   4  13    0.09    0.35
   2   4  13    0.31    0.23
   2   4  13    0.85    0.27
   3   4  13    5.16    0.56
   3   4  13    5.11    0.58
   4   4  13    0.18    0.19
   4   4  13   -0.04    0.32
   4   4  13    0.15    0.17
   5   4  13    0.14    0.17
   5   4  13    0.00    0.33
   6   4  13    0.12    0.32
   2  -5 -13    1.25    0.43
  -2   5  13    1.38    0.37
  -2   5  13    0.12    0.37
  -1   5  13    4.21    0.57
   0   5  13    2.36    0.50
   0   5  13    4.00    0.50
   2   5  13    0.11    0.14
   2   5  13   -0.04    0.32
   2   5  13    0.09    0.19
   3   5  13    1.10    0.28
   3   5  13    0.95    0.33
   4   5  13    0.04    0.18
   4   5  13   -0.06    0.12
   4   5  13    0.02    0.29
   5   5  13    0.15    0.14
   5   5  13   -0.02    0.27
   6   5  13    0.01    0.32
  -1   6  13    0.02    0.17
  -1   6  13   -0.17    0.28
   0   6  13    1.45    0.33
   0   6  13    0.11    0.40
   1   6  13    1.17    0.29
   1   6  13    0.13    0.36
   1   6  13    1.13    0.41
   2   6  13   -0.08    0.28
   2   6  13   -0.03    0.21
   2   6  13    0.19    0.15
   3   6  13    3.52    0.59
   3   6  13    4.28    0.42
   4   6  13    2.81    0.30
   4   6  13    2.65    0.55
   4   6  13    2.03    0.46
   5   6  13    1.83    0.44
   5   6  13    3.05    0.59
   6   6  13    0.03    0.28
   1   7  13    0.15    0.15
   1   7  13    0.01    0.33
   2   7  13    0.08    0.32
   2   7  13    0.54    0.18
   3   7  13    0.01    0.29
   3   7  13    0.16    0.33
   4   7  13    0.43    0.30
   4   7  13    0.12    0.29
   4   7  13   -0.09    0.24
   5   7  13   -0.07    0.26
   5   7  13    0.09    0.22
   5   7  13    0.13    0.26
   5   7  13    0.19    0.26
   6   7  13    4.28    0.68
   6   7  13    5.06    0.67
   3   8  13    1.10    0.40
   4   8  13    6.46    0.78
   4   8  13    5.14    0.63
   2   0 -14    0.11    0.25
   1   0 -14   -0.05    0.22
   0   0 -14    0.06    0.23
  -1   0 -14   -0.01    0.23
   2   0  14    1.82    0.46
   2  -1 -14    0.02    0.19
   1  -1 -14    0.05    0.21
   0  -1 -14    0.09    0.22
  -1  -1 -14    0.19    0.26
   1   1  14    1.92    0.44
  -2  -1 -14   -0.01    0.26
   2   1  14    0.38    0.26
  -3  -1 -14    0.05    0.26
   3   1  14    0.19    0.24
   2  -2 -14    0.26    0.22
   1  -2 -14    0.06    0.17
  -1   2  14    0.04    0.19
   0  -2 -14    0.02    0.16
   0   2  14   -0.01    0.15
   0   2  14   -0.03    0.17
   1   2  14    1.46    0.40
   1   2  14    1.66    0.37
   2   2  14    2.65    0.43
   2   2  14    2.03    0.44
   2   2  14    0.13    0.41
  -3  -2 -14    0.11    0.27
   3   2  14   -0.09    0.39
   3   2  14    0.58    0.25
   3   2  14    0.68    0.31
   4   2  14    0.04    0.21
   4   2  14   -0.03    0.38
   2  -3 -14    0.17    0.21
  -2   3  14    0.63    0.30
   1  -3 -14    2.37    0.49
  -1   3  14    3.29    0.53
   0  -3 -14    3.45    0.58
   0   3  14    4.28    0.58
  -1  -3 -14    5.10    0.63
   1   3  14    4.37    0.59
   1   3  14    6.42    0.69
   2   3  14    0.04    0.37
   2   3  14    0.33    0.21
   2   3  14    0.34    0.24
   3   3  14    0.01    0.18
   3   3  14   -0.01    0.33
   3   3  14    0.18    0.19
   4   3  14    1.72    0.40
   4   3  14    1.62    0.38
   1  -4 -14    1.52    0.44
  -1   4  14    2.26    0.45
   0  -4 -14    0.10    0.21
   0   4  14   -0.09    0.39
   0   4  14    0.22    0.21
   1   4  14    0.22    0.39
   1   4  14    0.05    0.19
   1   4  14    0.15    0.20
   2   4  14    0.12    0.18
   2   4  14   -0.04    0.34
   2   4  14    0.30    0.23
   3   4  14    0.58    0.27
   3   4  14    0.47    0.27
   3   4  14   -0.02    0.31
   4   4  14    3.14    0.47
   4   4  14    3.12    0.51
   5   4  14    3.33    0.47
   1   5  14    0.01    0.32
   1   5  14    0.43    0.24
   2   5  14    0.01    0.33
   2   5  14    1.16    0.32
   3   5  14    1.83    0.36
   3   5  14    1.41    0.40
   4   5  14    0.16    0.36
   4   5  14    0.20    0.23
   4   5  14    0.29    0.20
   5   5  14    2.64    0.35
   5   5  14    0.23    0.40
   1   6  14    2.78    0.44
   2   6  14    0.35    0.21
   2   6  14   -0.08    0.30
  -1  -2 -15    0.11    0.25
   1   2  15    0.10    0.20
  -1  -3 -15   -0.05    0.18
   1   3  15    0.40    0.26
   1   3  15    0.16    0.43
   2   3  15    0.27    0.26
   2   3  15    0.28    0.50
   1   4  15    0.96    0.34
   1   4  15    0.01    0.40
   2   4  15    0.20    0.21
   2   4  15    0.14    0.46
   0   0   0    0.00    0.00
;
_shelx_hkl_checksum              98441
loop_
_space_group_symop_operation_xyz
'x, y, z'
'-x, -y, -z'
loop_
_atom_site_label
_atom_site_type_symbol
_atom_site_fract_x
_atom_site_fract_y
_atom_site_fract_z
_atom_site_U_iso_or_equiv
_atom_site_adp_type
_atom_site_occupancy
_atom_site_site_symmetry_order
_atom_site_calc_flag
_atom_site_refinement_flags_posn
_atom_site_refinement_flags_adp
F1 F -0.08534(16) 0.13161(18) 0.64301(10) 0.0424(3) Uani 1 1 d . .
F5 F 1.01180(12) 0.09260(13) 1.10761(9) 0.0281(3) Uani 1 1 d . .
F4 F 0.90269(12) 0.38568(14) 1.01897(8) 0.0288(3) Uani 1 1 d . .
F3 F 0.08720(14) 0.12992(17) 0.48772(10) 0.0426(3) Uani 1 1 d . .
F2 F -0.10402(14) 0.38777(15) 0.52583(10) 0.0402(3) Uani 1 1 d . .
F6 F 1.02271(13) 0.27945(15) 1.19544(9) 0.0343(3) Uani 1 1 d . .
N1 N 0.55943(18) 0.17255(19) 0.85231(12) 0.0220(3) Uani 1 1 d . .
H1 H 0.6739 0.1327 0.8263 0.026 Uiso 1 1 calc R U
N2 N 0.51622(18) 0.22265(18) 0.95703(12) 0.0201(3) Uani 1 1 d . .
C14 C 0.0173(2) 0.2117(2) 0.57707(15) 0.0237(4) Uani 1 1 d . .
C4 C 0.1605(2) 0.1999(2) 0.65025(14) 0.0198(3) Uani 1 1 d . .
C5 C 0.1150(2) 0.2424(2) 0.76076(15) 0.0222(4) Uani 1 1 d . .
H5 H -0.0076 0.2773 0.7898 0.027 Uiso 1 1 calc R U
C6 C 0.2454(2) 0.2343(2) 0.82870(14) 0.0205(4) Uani 1 1 d . .
H6 H 0.2130 0.2632 0.9042 0.025 Uiso 1 1 calc R U
C1 C 0.4250(2) 0.1835(2) 0.78591(14) 0.0190(3) Uani 1 1 d . .
C13 C 0.6416(2) 0.2265(2) 1.00875(15) 0.0209(4) Uani 1 1 d . .
H13 H 0.7603 0.1959 0.9734 0.025 Uiso 1 1 calc R U
C7 C 0.6022(2) 0.2785(2) 1.12307(14) 0.0181(3) Uani 1 1 d . .
C8 C 0.7305(2) 0.2955(2) 1.18163(14) 0.0199(4) Uani 1 1 d . .
C15 C 0.9145(2) 0.2647(2) 1.12693(15) 0.0226(4) Uani 1 1 d . .
C9 C 0.6868(2) 0.3462(2) 1.28937(15) 0.0231(4) Uani 1 1 d . .
H9 H 0.7755 0.3563 1.3279 0.028 Uiso 1 1 calc R U
C10 C 0.5153(2) 0.3820(2) 1.34076(15) 0.0263(4) Uani 1 1 d . .
H10 H 0.4852 0.4171 1.4143 0.032 Uiso 1 1 calc R U
C11 C 0.3875(2) 0.3661(2) 1.28366(15) 0.0255(4) Uani 1 1 d . .
H11 H 0.2691 0.3910 1.3183 0.031 Uiso 1 1 calc R U
C12 C 0.4304(2) 0.3147(2) 1.17750(15) 0.0217(4) Uani 1 1 d . .
H12 H 0.3412 0.3035 1.1403 0.026 Uiso 1 1 calc R U
C3 C 0.3386(2) 0.1510(2) 0.60751(15) 0.0218(4) Uani 1 1 d . .
H3 H 0.3704 0.1230 0.5317 0.026 Uiso 1 1 calc R U
C2 C 0.4699(2) 0.1428(2) 0.67455(15) 0.0222(4) Uani 1 1 d . .
H2 H 0.5920 0.1092 0.6447 0.027 Uiso 1 1 calc R U
loop_
_atom_site_aniso_label
_atom_site_aniso_U_11
_atom_site_aniso_U_22
_atom_site_aniso_U_33
_atom_site_aniso_U_23
_atom_site_aniso_U_13
_atom_site_aniso_U_12
F1 0.0451(7) 0.0676(8) 0.0341(6) -0.0045(6) -0.0038(5) -0.0456(6)
F5 0.0186(5) 0.0272(6) 0.0355(6) -0.0095(4) -0.0016(4) -0.0067(4)
F4 0.0262(5) 0.0328(6) 0.0290(6) -0.0040(4) 0.0040(4) -0.0180(5)
F3 0.0331(6) 0.0681(9) 0.0430(7) -0.0372(6) 0.0012(5) -0.0231(6)
F2 0.0381(7) 0.0330(6) 0.0489(7) -0.0046(5) -0.0228(6) -0.0132(5)
F6 0.0237(5) 0.0538(7) 0.0380(6) -0.0185(5) -0.0023(5) -0.0233(5)
N1 0.0161(7) 0.0308(8) 0.0221(7) -0.0097(6) -0.0001(6) -0.0112(6)
N2 0.0227(7) 0.0214(7) 0.0187(7) -0.0051(5) -0.0006(6) -0.0118(6)
C14 0.0243(9) 0.0263(9) 0.0244(9) -0.0081(7) 0.0003(7) -0.0137(8)
C4 0.0214(8) 0.0186(8) 0.0218(8) -0.0042(6) -0.0022(7) -0.0110(7)
C5 0.0199(8) 0.0258(9) 0.0246(9) -0.0075(7) 0.0025(7) -0.0132(7)
C6 0.0225(8) 0.0254(9) 0.0184(8) -0.0086(7) 0.0023(7) -0.0135(7)
C1 0.0206(8) 0.0172(8) 0.0214(8) -0.0026(6) -0.0032(7) -0.0107(7)
C13 0.0185(8) 0.0223(8) 0.0238(9) -0.0055(7) 0.0009(7) -0.0112(7)
C7 0.0191(8) 0.0156(8) 0.0189(8) -0.0010(6) -0.0029(6) -0.0086(7)
C8 0.0200(8) 0.0175(8) 0.0223(8) -0.0026(6) -0.0019(7) -0.0095(7)
C15 0.0214(8) 0.0247(9) 0.0256(9) -0.0074(7) -0.0034(7) -0.0122(7)
C9 0.0266(9) 0.0240(9) 0.0216(8) -0.0042(7) -0.0038(7) -0.0138(8)
C10 0.0310(10) 0.0279(9) 0.0218(9) -0.0089(7) 0.0039(8) -0.0143(8)
C11 0.0217(9) 0.0273(9) 0.0262(9) -0.0055(7) 0.0051(7) -0.0122(8)
C12 0.0191(8) 0.0220(8) 0.0243(9) -0.0014(7) -0.0037(7) -0.0112(7)
C3 0.0243(9) 0.0232(8) 0.0198(8) -0.0070(7) 0.0009(7) -0.0116(7)
C2 0.0175(8) 0.0272(9) 0.0225(8) -0.0079(7) 0.0023(7) -0.0105(7)
loop_
_atom_type_symbol
_atom_type_description
_atom_type_scat_dispersion_real
_atom_type_scat_dispersion_imag
_atom_type_scat_source
C C 0.0033 0.0016 'International Tables Vol C Tables 4.2.6.8 and 6.1.1.4'
H H 0.0000 0.0000 'International Tables Vol C Tables 4.2.6.8 and 6.1.1.4'
N N 0.0061 0.0033 'International Tables Vol C Tables 4.2.6.8 and 6.1.1.4'
F F 0.0171 0.0103 'International Tables Vol C Tables 4.2.6.8 and 6.1.1.4'
loop_
_geom_angle_atom_site_label_1
_geom_angle_atom_site_label_2
_geom_angle_atom_site_label_3
_geom_angle
N2 N1 C1 120.44(13)
N2 N1 H1 119.8
C1 N1 H1 119.8
C13 N2 N1 117.74(13)
F3 C14 F1 106.31(13)
F3 C14 F2 106.07(14)
F1 C14 F2 104.76(14)
F3 C14 C4 113.29(14)
F1 C14 C4 112.45(14)
F2 C14 C4 113.27(13)
C3 C4 C5 119.46(15)
C3 C4 C14 120.27(15)
C5 C4 C14 120.26(14)
C6 C5 C4 120.91(14)
C6 C5 H5 119.5
C4 C5 H5 119.5
C5 C6 C1 119.51(15)
C5 C6 H6 120.2
C1 C6 H6 120.2
N1 C1 C6 120.97(14)
N1 C1 C2 119.52(14)
C6 C1 C2 119.50(15)
N2 C13 C7 119.88(14)
N2 C13 H13 120.1
C7 C13 H13 120.1
C12 C7 C8 117.32(15)
C12 C7 C13 119.77(14)
C8 C7 C13 122.92(14)
C9 C8 C7 120.96(14)
C9 C8 C15 118.71(14)
C7 C8 C15 120.30(14)
F6 C15 F4 106.80(12)
F6 C15 F5 105.58(13)
F4 C15 F5 105.29(13)
F6 C15 C8 113.05(14)
F4 C15 C8 112.55(14)
F5 C15 C8 112.94(13)
C10 C9 C8 120.38(15)
C10 C9 H9 119.8
C8 C9 H9 119.8
C9 C10 C11 119.16(16)
C9 C10 H10 120.4
C11 C10 H10 120.4
C12 C11 C10 120.70(15)
C12 C11 H11 119.7
C10 C11 H11 119.7
C11 C12 C7 121.47(15)
C11 C12 H12 119.3
C7 C12 H12 119.3
C2 C3 C4 120.13(15)
C2 C3 H3 119.9
C4 C3 H3 119.9
C3 C2 C1 120.48(15)
C3 C2 H2 119.8
C1 C2 H2 119.8
loop_
_geom_bond_atom_site_label_1
_geom_bond_atom_site_label_2
_geom_bond_distance
F1 C14 1.3366(19)
F5 C15 1.3579(19)
F4 C15 1.3406(19)
F3 C14 1.3318(19)
F2 C14 1.341(2)
F6 C15 1.3358(18)
N1 N2 1.3535(17)
N1 C1 1.3818(19)
N1 H1 0.8800
N2 C13 1.2751(19)
C14 C4 1.490(2)
C4 C3 1.384(2)
C4 C5 1.391(2)
C5 C6 1.377(2)
C5 H5 0.9500
C6 C1 1.393(2)
C6 H6 0.9500
C1 C2 1.394(2)
C13 C7 1.469(2)
C13 H13 0.9500
C7 C12 1.396(2)
C7 C8 1.406(2)
C8 C9 1.389(2)
C8 C15 1.490(2)
C9 C10 1.382(2)
C9 H9 0.9500
C10 C11 1.386(2)
C10 H10 0.9500
C11 C12 1.375(2)
C11 H11 0.9500
C12 H12 0.9500
C3 C2 1.376(2)
C3 H3 0.9500
C2 H2 0.9500
loop_
_geom_torsion_atom_site_label_1
_geom_torsion_atom_site_label_2
_geom_torsion_atom_site_label_3
_geom_torsion_atom_site_label_4
_geom_torsion
C1 N1 N2 C13 -173.54(14)
F3 C14 C4 C3 15.1(2)
F1 C14 C4 C3 135.70(16)
F2 C14 C4 C3 -105.75(17)
F3 C14 C4 C5 -166.40(15)
F1 C14 C4 C5 -45.8(2)
F2 C14 C4 C5 72.72(19)
C3 C4 C5 C6 -0.7(2)
C14 C4 C5 C6 -179.20(14)
C4 C5 C6 C1 0.2(2)
N2 N1 C1 C6 -4.2(2)
N2 N1 C1 C2 175.88(14)
C5 C6 C1 N1 -179.43(14)
C5 C6 C1 C2 0.4(2)
N1 N2 C13 C7 -179.51(13)
N2 C13 C7 C12 3.1(2)
N2 C13 C7 C8 -176.45(14)
C12 C7 C8 C9 0.0(2)
C13 C7 C8 C9 179.59(14)
C12 C7 C8 C15 -178.13(14)
C13 C7 C8 C15 1.4(2)
C9 C8 C15 F6 4.0(2)
C7 C8 C15 F6 -177.76(13)
C9 C8 C15 F4 -117.10(16)
C7 C8 C15 F4 61.12(19)
C9 C8 C15 F5 123.83(16)
C7 C8 C15 F5 -58.0(2)
C7 C8 C9 C10 -0.4(2)
C15 C8 C9 C10 177.84(14)
C8 C9 C10 C11 0.2(2)
C9 C10 C11 C12 0.3(2)
C10 C11 C12 C7 -0.6(3)
C8 C7 C12 C11 0.4(2)
C13 C7 C12 C11 -179.12(15)
C5 C4 C3 C2 0.6(2)
C14 C4 C3 C2 179.09(14)
C4 C3 C2 C1 0.0(2)
N1 C1 C2 C3 179.33(13)
C6 C1 C2 C3 -0.5(2)
