#------------------------------------------------------------------------------
#$Date: 2019-12-26 21:22:11 +0200 (Thu, 26 Dec 2019) $
#$Revision: 246100 $
#$URL: file:///home/coder/svn-repositories/cod/cif/2/31/17/2311745.cif $
#------------------------------------------------------------------------------
#
# This file is available in the Crystallography Open Database (COD),
# http://www.crystallography.net/. The original data for this entry
# were provided by IUCr Journals, http://journals.iucr.org/.
#
# The file may be used within the scientific community so long as
# proper attribution is given to the journal article from which the
# data were obtained.
#
data_2311745
loop_
_publ_author_name
'Ende, Martin'
'Effenberger, Herta'
'Miletich, Ronald'
_publ_section_title
;
 Evolution of the \a-BaMg(CO<sub>3</sub>)<sub>2</sub> low-temperature
 superstructure and the tricritical nature of its \a-\b phase transition.
;
_journal_issue                   'Pt 5'
_journal_name_full
'Acta crystallographica Section B, Structural science, crystal engineering and materials'
_journal_page_first              827
_journal_page_last               835
_journal_paper_doi               10.1107/S2052520617009295
_journal_volume                  73
_journal_year                    2017
_chemical_formula_sum            'C6 Ba3 Mg3 O18'
_chemical_formula_weight         845.01
_space_group_crystal_system      trigonal
_space_group_IT_number           167
_space_group_name_Hall           '-R 3 2"c'
_space_group_name_H-M_alt        'R -3 c :H'
_audit_creation_method           SHELXL-2014/7
_cell_angle_alpha                90
_cell_angle_beta                 90
_cell_angle_gamma                120
_cell_formula_units_Z            2
_cell_length_a                   5.01350(10)
_cell_length_b                   5.01350(10)
_cell_length_c                   33.4784(9)
_cell_measurement_reflns_used    9496
_cell_measurement_temperature    250(2)
_cell_measurement_theta_max      45
_cell_measurement_theta_min      1.5
_cell_volume                     728.75(3)
_computing_structure_refinement  'SHELXL-2014/7 (Sheldrick, 2014)'
_diffrn_ambient_temperature      250(2)
_diffrn_measured_fraction_theta_full 0.993
_diffrn_measured_fraction_theta_max 0.997
_diffrn_measurement_device_type  StoeStadiVari
_diffrn_radiation_type           MoK\a
_diffrn_radiation_wavelength     0.71073
_diffrn_reflns_av_R_equivalents  0.0314
_diffrn_reflns_av_unetI/netI     0.0143
_diffrn_reflns_Laue_measured_fraction_full 0.993
_diffrn_reflns_Laue_measured_fraction_max 0.997
_diffrn_reflns_limit_h_max       9
_diffrn_reflns_limit_h_min       -10
_diffrn_reflns_limit_k_max       10
_diffrn_reflns_limit_k_min       -9
_diffrn_reflns_limit_l_max       65
_diffrn_reflns_limit_l_min       -34
_diffrn_reflns_number            9496
_diffrn_reflns_point_group_measured_fraction_full 0.993
_diffrn_reflns_point_group_measured_fraction_max 0.997
_diffrn_reflns_theta_full        25.242
_diffrn_reflns_theta_max         45.548
_diffrn_reflns_theta_min         3.652
_exptl_absorpt_coefficient_mu    8.260
_exptl_absorpt_correction_T_max  0.8
_exptl_absorpt_correction_T_min  0.7
_exptl_absorpt_correction_type   numerical
_exptl_absorpt_process_details   '(Stoe & Cie GmbH 2016)'
_exptl_crystal_density_diffrn    3.851
_exptl_crystal_description       prismatic
_exptl_crystal_F_000             768
_exptl_crystal_size_max          0.060
_exptl_crystal_size_mid          0.030
_exptl_crystal_size_min          0.030
_refine_diff_density_max         0.432
_refine_diff_density_min         -0.599
_refine_diff_density_rms         0.107
_refine_ls_extinction_method     none
_refine_ls_goodness_of_fit_ref   0.947
_refine_ls_hydrogen_treatment    undef
_refine_ls_matrix_type           full
_refine_ls_number_parameters     17
_refine_ls_number_reflns         697
_refine_ls_number_restraints     0
_refine_ls_restrained_S_all      0.947
_refine_ls_R_factor_all          0.0215
_refine_ls_R_factor_gt           0.0096
_refine_ls_shift/su_max          0.000
_refine_ls_shift/su_mean         0.000
_refine_ls_structure_factor_coef Fsqd
_refine_ls_weighting_details
'w=1/[\s^2^(Fo^2^)+(0.0112P)^2^] where P=(Fo^2^+2Fc^2^)/3'
_refine_ls_weighting_scheme      calc
_refine_ls_wR_factor_gt          0.0193
_refine_ls_wR_factor_ref         0.0207
_reflns_Friedel_coverage         0.000
_reflns_number_gt                488
_reflns_number_total             697
_reflns_threshold_expression     'I > 2\s(I)'
_cod_data_source_file            xk5041sup1.cif
_cod_data_source_block           norse_250
_cod_original_cell_volume        728.75(4)
_cod_original_sg_symbol_H-M      'R -3 c'
_cod_database_code               2311745
_shelx_shelxl_version_number     2014/7
_shelx_space_group_comment
;
The symmetry employed for this shelxl refinement is uniquely defined
by the following loop, which should always be used as a source of
symmetry information in preference to the above space-group names.
They are only intended as comments.
;
_shelx_estimated_absorpt_t_min   0.637
_shelx_estimated_absorpt_t_max   0.790
_shelx_res_file
;

    norse_250.res created by SHELXL-2014/7


TITL norse_100K_woo_a.res in R-3c
REM Old TITL norse_100k_woo in R-3c

REM SHELXT solution in R-3c
REM R1 0.027,  Rweak 0.000,  Alpha 0.038,  Orientation as input
REM Formula found by SHELXT:  C2 O6 Mg Ba

CELL  0.71073   5.0135   5.0135  33.4784   90.000   90.000  120.000
ZERR    2.000   0.0001   0.0001   0.0009    0.000    0.000    0.000
LATT  3
SYMM -Y, X-Y, Z
SYMM -X+Y, -X, Z
SYMM Y, X, 1/2-Z
SYMM X-Y, -Y, 1/2-Z
SYMM -X, -X+Y, 1/2-Z
SFAC C O MG BA
UNIT 12 36 6 6
L.S. 20
TEMP -23.15
SIZE 0.06 0.03 0.03
BOND $H
ACTA
LIST 4
FMAP 2
PLAN 20
REM EXTI    0.000000
WGHT    0.011200
FVAR       0.21822
BA1   4    0.000000    0.000000    0.250000    10.16667    0.00793    0.00793 =
         0.01153    0.00000    0.00000    0.00396
MG2   3    0.000000    0.000000    0.000000    10.16667    0.00632    0.00632 =
         0.00942    0.00000    0.00000    0.00316
O3    2    0.115876    0.823454    0.129226    11.00000    0.02193    0.01771 =
         0.01850   -0.00410   -0.00704    0.01633
C4    1    0.000000    0.000000    0.130392    10.33333    0.00766    0.00766 =
         0.00849    0.00000    0.00000    0.00383
HKLF 4

REM  norse_100K_woo_a.res in R-3c
REM R1 =  0.0096 for     488 Fo > 4sig(Fo)  and  0.0215 for all     697 data
REM     17 parameters refined using      0 restraints

END

WGHT      0.0112      0.0000

REM Highest difference peak  0.432,  deepest hole -0.599,  1-sigma level  0.107
Q1    1   0.0772  0.1251  0.1299  11.00000  0.05    0.43
Q2    1  -0.0906  0.1964  0.2702  11.00000  0.05    0.36
Q3    1   0.2714  0.8769  0.1347  11.00000  0.05    0.34
Q4    1  -0.1371  0.7381  0.1030  11.00000  0.05    0.32
Q5    1   0.4655  1.0461  0.1207  11.00000  0.05    0.30
Q6    1   0.1142  0.6847  0.1425  11.00000  0.05    0.29
Q7    1  -0.2748 -0.1793  0.2702  11.00000  0.05    0.29
Q8    1  -0.2889 -0.2889  0.2500  10.50000  0.05    0.27
Q9    1   0.1722  0.1866  0.2596  11.00000  0.05    0.27
Q10   1   0.3152  0.9842  0.1198  11.00000  0.05    0.26
Q11   1   0.1079  0.5673  0.1148  11.00000  0.05    0.25
Q12   1   0.3333  0.6667  0.1012  10.33333  0.05    0.24
Q13   1   0.0000  0.0000  0.3078  10.33333  0.05    0.23
Q14   1  -0.1356 -0.1303  0.1035  11.00000  0.05    0.23
Q15   1   0.3106  1.0113  0.1048  11.00000  0.05    0.23
Q16   1   0.1271  0.7884  0.1528  11.00000  0.05    0.23
Q17   1   0.0000  0.0000  0.1038  10.33333  0.05    0.22
Q18   1  -0.0479  0.5691  0.1415  11.00000  0.05    0.22
Q19   1  -0.1352 -0.1603  0.2636  11.00000  0.05    0.21
Q20   1   0.0510  0.7760  0.1780  11.00000  0.05    0.21
;
_shelx_res_checksum              36541
_shelx_hkl_file
;
   0   2  19    4.16    8.27   0
   0   5  -2  429.63   13.79   0
   0   5   1    3.10    7.89   0
   1   0 -26  614.26   21.45   0
   0   4  14  373.52   12.22   0
   1   3  28  818.27   17.34   0
   1   2  29   11.02    8.35   0
   0   1  14 1789.49   32.27   0
   0   4 -13    1.58    7.87   0
   1   0  25   -3.38    8.06   0
   0   4  11    1.50    7.21   0
   1  -2   0 3660.99   44.57   0
   0   3  15   -5.75    7.11   0
   1  -2   3   42.02    8.68   0
   1   1  27   -6.40    8.04   0
   0   4 -10  469.94   15.47   0
   0   4   8 1686.58   22.46   0
   1   4  21   13.34    7.10   0
   2  -1  30  627.45   23.77   0
   1   5 -13    9.26    8.09   0
   0   4  -7    2.12    7.83   0
   0   4   5   -0.02    6.82   0
   2   2  33   -3.04    8.10   0
   0   3  12 2130.79   26.13   0
   0   4  -4 1680.62   24.19   0
   0   4   2 1487.88   21.54   0
   1   2  26  560.28   15.27   0
   0   3 -15    2.57    7.35   0
   1   4  18  807.02   16.21   0
   0   1  11    2.82    8.78   0
   0   2 -17    0.14   10.32   0
   0   2  13    4.31    6.30   0
   1   5  -7   -1.87    7.69   0
   1   5   2  355.34   12.41   0
   2   0  32  649.31   19.45   0
   1   5  -4  767.14   15.67   0
   1   5  -1   17.29    7.39   0
   0   3   9    0.69    6.59   0
   1   3  22  384.56   12.07   0
   1   4  15    8.86    7.81   0
   0   0  -6 1492.18   62.95   0
   0   2  10  191.39   11.66   0
   0   3 -12 2583.49   35.14   0
   0   3   6 2062.31   26.18   0
   1   1  24 1895.48   27.79   0
   2  -3  17   10.88    7.57   0
   2   2  30  210.43   11.04   0
   0   3   3    0.30    7.65   0
   1  -2   9   51.67    9.01   0
   1   0  22  491.84   18.65   0
   1   3  19   20.70    7.81   0
   1   4  12 1232.73   18.40   0
   2   1  31    6.19    7.66   0
   0   3  -9    1.75    6.73   0
   0   1   8 9616.72   76.70   0
   0   3   0 2681.17   31.24   0
   3   1  35   10.96    8.17   0
   0   2   7    1.78    8.15   0
   0   3  -3    2.64    7.13   0
   1   4   9   21.68    6.96   0
   0   0  -9    0.24   10.63   0
   1   4 -15   22.78    7.78   0
   1   4   6  401.72   12.45   0
   1   2  20 1547.11   23.28   0
   1   3  16 2163.62   24.71   0
   2   2  27    4.77    7.85   0
  -1   1  22  479.89   14.56   0
   0   0  -6 1651.17   44.70   0
  -4  -2  16  776.18   16.70   0
  -3  -1  25   -0.43    6.36   0
  -1   2  21   22.15    7.46   0
  -3  -2  14  409.99   13.50   0
  -3   0  30  605.87   13.77   0
  -2  -2   9   -4.01    7.38   0
  -2   2  29    4.35    8.08   0
   0   0  -9   -3.18    7.61   0
  -2   0  25   -7.86    8.65   0
  -1  -1  12 4130.48   42.28   0
  -4  -2  13    1.58    8.69   0
   0   2   1    0.10   10.13   0
  -4  -1  24  755.60   16.27   0
  -3  -2  11    8.19    9.35   0
  -3   3  33    6.75    9.48   0
  -2   1  27   -5.28    8.35   0
  -1   0  17   -1.66    7.81   0
   0   0 -12  313.96   16.20   0
  -2   4  24 1936.14   35.13   0
  -1   3  17   17.73   11.56   0
  -3   0  27   -0.38    9.54   0
  -1   1  19   -2.36    7.76   0
  -2  -1  17   19.55    9.94   0
  -4  -1  21    8.78    7.58   0
  -1  -1   9   76.13   10.18   0
  -1   2   9   60.16    9.67   0
   0   3   3    1.68    7.98   0
  -3   6  12  821.42   18.42   0
  -2   6   7   -1.12    9.54   0
   0   2   4 4650.28   48.23   0
  -2   5  11   -0.00    7.79   0
   1   2  -4 3098.88   38.91   0
   2   2 -24 1901.97   36.95   0
  -4   3  17    0.30    9.38   0
  -3   0   6 1947.77   37.00   0
  -1   5   6  403.53   13.36   0
   0   4   2 1473.37   23.13   0
   2   1 -20 1478.09   41.82   0
  -4   5  18  415.21   15.51   0
  -3   5  16 1979.76   27.53   0
   0   5  -2  416.05   13.07   0
   1   4  -9   -2.62    8.73   0
  -3   4  17   -2.87    8.83   0
   1  -1 -16 5343.93   61.96   0
   1   5 -19    0.47    8.64   0
  -4   6  17   -1.11    9.29   0
  -2   6  10  387.22   14.06   0
  -1   3  11   29.42    7.46   0
  -1   4  10 1198.27   20.92   0
  -3   6  15    2.07    9.08   0
   0   3   6 2118.45   28.76   0
   1   5 -16  663.40   16.79   0
  -4   4  19    1.15    9.51   0
   1   1  -3   45.08   11.15   0
  -1   5   9   22.29    8.20   0
   0  -1  -8 9999.99   79.31   0
   0   4   5    8.12    8.97   0
   0   5   1   -0.55    7.56   0
   1   4  -6  923.00   18.43   0
   1   5 -13   11.56    9.20   0
  -2   2  14  321.32   16.78   0
   1   2  -1   52.83    8.35   0
   2   1 -17   13.13   11.49   0
   1  -1 -19   -0.55    7.46   0
   0   2   7   -3.16    7.59   0
   1   5 -10  517.56   15.13   0
   2   2 -15   -1.49    9.14   0
   2   3 -19   12.98    9.06   0
  -3   3  18 1362.76   29.26   0
  -3   5  19   -8.57    9.16   0
  -1   4  13   14.73    7.81   0
   0   5   4 1280.68   20.05   0
  -3   6  18  466.67   15.33   0
   0   1   5   -2.01    9.50   0
   2   3 -16 1987.95   30.08   0
  -4   5  21    9.11    9.80   0
  -1   5  12 1219.05   19.93   0
   1   5  -7   -2.18    9.02   0
  -2   5  17   -0.04    8.97   0
  -1   3  14 1711.25   26.86   0
   0   3   9    3.31    7.27   0
   0   4   8 1674.98   23.35   0
   1   3   1   22.07    8.05   0
  -3   4  20  923.52   21.42   0
  -2   4  18 1142.87   21.71   0
   0  -1 -11   -0.13    7.60   0
   2   3 -13    0.09    8.33   0
   0   5   7   -3.28    8.75   0
   1   2   2  713.66   19.21   0
   2   1 -14 1710.18   39.84   0
  -3   2  16 2120.84   50.45   0
   1   5  -4  785.00   16.52   0
  -2   0   4 4802.22   65.93   0
  -1   4  16 2155.82   26.70   0
  -1   5  15    8.99    7.38   0
   1   1   0 4024.68   52.27   0
   2   2  -9    1.77    7.53   0
   2   3 -10  784.38   18.86   0
  -3   5  22  331.91   13.71   0
   0   4  11   -2.97    7.48   0
   1   3   4 1352.66   22.18   0
   1   4   3   -3.01    8.43   0
   1   5  -1   17.04    8.71   0
  -4   6  23    0.62    9.27   0
   0   2  10  191.83   11.50   0
   2   4 -14  312.99   13.14   0
   0   3  12 2107.07   27.78   0
   0   5  10  758.61   15.85   0
  -2   3  19    6.03    8.24   0
  -1   1  10 3845.00   65.12   0
   2   3  -7   12.92    8.68   0
   2   1 -11   24.79    9.83   0
   2   4 -11    0.64    8.20   0
  -2   4  21   -1.57    7.43   0
   1   2   5   16.60    7.12   0
   2   2  -6  870.15   20.71   0
   1   4   6  396.96   12.79   0
   2   4  -8  962.64   19.13   0
  -3   4  23   21.44    9.66   0
   0   4  14  350.76   13.18   0
   1   3   7   36.25    7.94   0
   0   5  13    4.39    7.41   0
   2   3  -4  770.43   17.41   0
  -3   3  21   -0.21    8.56   0
  -2   2  17    0.55    8.38   0
   2   4  -5   -0.54    8.53   0
  -3   5  25   -0.04    8.48   0
  -2   5  23    8.45    8.92   0
   0   1   8 9663.97   81.95   0
   2   2  -3   -3.18    7.84   0
   0   3  15    1.84    7.44   0
   1   4   9   34.53    8.90   0
   2   1  -8 3464.00   48.58   0
   0   2  13    7.24    8.54   0
   1   1   3   45.33    9.35   0
   2   3  -1    5.08    8.36   0
   2   4  -2  646.72   16.00   0
   0   4  17    8.00    8.49   0
   0   5  16  776.99   15.65   0
   1   2   8 3428.47   35.88   0
   1   3  10 1200.59   20.07   0
  -1   0   2 1919.09   57.14   0
  -2   4  24 1976.12   26.99   0
  -2   3  22  495.81   16.53   0
   2   3   2  874.88   18.26   0
   2   4   1    0.25    8.23   0
   1   4  12 1237.68   19.90   0
  -2   5  26  682.78   16.60   0
   2   1  -5   13.05    7.90   0
  -3   4  26  687.19   18.89   0
  -3   5  28  445.75   14.93   0
   1   3  13    9.01    7.43   0
   2   4   4  957.59   17.72   0
   0   4  20 1324.18   20.13   0
   1   2  11   19.69    8.88   0
   0   2  16 3024.20   34.26   0
   1   1   6 1949.93   32.17   0
   1   4  15   -0.98    7.30   0
  -1   4  25    2.42    7.99   0
  -2   4  27    4.12    8.26   0
  -1   3  23    3.89    8.61   0
  -3   3  24 1125.81   26.34   0
  -2   0  -2 4994.06   51.76   0
   0   1  11    0.01    7.73   0
   1   3  16 2228.64   26.20   0
   2   3   8 2252.39   25.80   0
  -2   5  29    1.71    8.64   0
   0   3  21   -1.90    8.38   0
   3   3  -9   11.35    8.72   0
   0   4  23   -0.62    8.27   0
  -2   2  20 3532.82   47.04   0
  -2   3  25   15.38    8.96   0
   1   0  -5    0.82   15.79   0
   1   4  18  801.20   15.72   0
   3   2 -14  406.47   16.68   0
   3   3  -6  493.71   14.76   0
   1   2  14 1681.48   24.21   0
   3   2 -11    6.42    9.24   0
   2   1   1   61.20    9.15   0
   2   3  11   11.38    7.00   0
   3   2  -8 2293.87   31.27   0
   3   3  -3    5.04    8.05   0
  -3   4  29    3.31    8.39   0
   0   2  19   -2.27    7.97   0
  -3   2  19    0.67   10.88   0
  -1   4  28  768.72   16.88   0
   1   0 -23   -0.79    8.01   0
   1   1   9   61.86    8.79   0
   1   3  19   23.82    8.64   0
   2   2   9    1.14    8.21   0
  -1   2  21   21.25    7.85   0
   1   4  21   11.56    8.21   0
   3   2  -5   10.89    8.68   0
   3   3   0 1129.93   19.23   0
  -3   1   8 3355.82   58.55   0
  -2   4  30  225.34   11.83   0
  -2   5  32  729.62   16.74   0
  -1   3  26  569.35   15.31   0
   0   3  24 1686.06   22.90   0
  -1   0  -1   -0.68    8.31   0
   1   2  17   12.70    8.71   0
   2   3  14  408.23   12.29   0
   3   2  -2  892.54   19.22   0
   2   1   4 3114.59   36.40   0
   3   3   3    3.74    8.03   0
   0   1  14 1642.45   29.69   0
   1   0 -20 1592.77   35.29   0
   2   2  12  826.85   16.89   0
   1   3  22  380.84   12.19   0
   3   2   1   -2.08    7.89   0
  -2   3  28 1463.24   25.45   0
   3   3   6  503.00   14.13   0
  -1   4  31    7.97    8.39   0
   0   2  22 2010.37   27.11   0
   1   1  12 4034.58   40.75   0
   2   3  17    4.35    7.03   0
  -3   3  27    0.12    7.51   0
   2   1   7   -0.17    6.25   0
   3   2   4  768.36   17.07   0
  -1   0  -4 2568.96   44.72   0
   1   2  20 1539.27   22.12   0
   2   2  15    0.11    8.11   0
   3   3   9    0.48    7.88   0
  -2   4  33   -4.23    7.77   0
  -1   3  29    4.89    7.34   0
   1   0 -17    1.26    8.63   0
  -2   2  23    1.28    7.98   0
  -1   2  24 1840.72   27.41   0
   1   3  25    0.64    7.46   0
   3   1 -10 1194.77   27.54   0
   2   3  20  653.38   14.13   0
   3   1  -7   24.79    9.26   0
   3   2   7   18.17    8.09   0
  -1   0  -7   -0.30    6.87   0
  -3   1 -16 2006.51   63.15   0
  -5   1  21    8.19    7.33   0
  -1  -2  40  501.16   16.42   0
  -1  -1  33    6.37    8.60   0
  -1   0 -19   -0.33    9.16   0
  -4   1  22  400.52   13.57   0
  -2   1   9   60.20    9.29   0
  -3   1  20 1556.81   23.17   0
  -2  -1  38  376.62   14.18   0
  -2   1  12 4051.27   42.58   0
   0  -1  28 1426.10   27.49   0
   1  -2  30  650.64   22.39   0
  -4   1  25   10.75    7.27   0
   1  -1 -10 3626.70   43.48   0
   0   0   6 1594.86   54.44   0
  -3   1  23    4.83    7.68   0
  -2   0  31    5.61    7.28   0
  -5   2   2  885.12   19.19   0
  -5   2   5   12.56    8.66   0
  -2   1  15    5.37    6.92   0
  -1  -1  36 1029.52   21.22   0
  -6   2   4  958.49   18.85   0
  -5   2  -1    6.36    8.53   0
  -5   2   8 2240.37   27.44   0
  -6   2   1    1.18    8.34   0
  -6   2   7   -1.60    8.42   0
  -4   1  28  768.30   16.13   0
  -3   0  36  595.06   16.13   0
  -6   2  -2  613.65   16.96   0
  -6   2  10  377.15   12.57   0
  -5   2  -4  772.34   19.94   0
  -2  -1  41    3.23    8.98   0
  -1   0  26 1204.43   22.79   0
   0   0   9   -0.91   11.37   0
  -6   2  13   -3.63    8.37   0
  -5   2  14  413.28   13.66   0
  -3   1  26  590.80   15.21   0
  -2   1  -9   58.45   16.14   0
  -2   1  18 1213.61   22.44   0
  -6   2  -5   -1.51    8.73   0
   1  -1  -7   -0.08    7.13   0
   1  -1  17    0.26    9.88   0
  -4   2   9   -6.13    7.54   0
  -2   0  34  312.81   12.30   0
   0  -1  31    0.13    8.29   0
  -5   2  -7   11.69    9.25   0
  -5   2  17   -3.52    7.30   0
  -4   1  31    8.00    7.63   0
  -4   2   0 4239.42   42.14   0
  -4   2  12  866.32   18.62   0
  -5   2  20  692.73   16.01   0
  -4   2  -3   -0.84    7.99   0
  -3   1  29    9.14    8.39   0
  -2   1  21   34.65    8.30   0
  -1  -1  39    0.89    9.47   0
   0   0  12  249.67   18.32   0
  -4   2  15   -0.60    7.43   0
  -1   0  29   -0.90    8.89   0
  -2   0 -23   -0.79    9.07   0
   1  -2  33    7.70    8.96   0
  -5   2  23    4.36    8.65   0
  -4   2  18 1159.90   19.79   0
  -2   0  37   -7.56    8.85   0
  -1   0 -16 5078.12   70.08   0
  -5   2 -10  733.22   21.46   0
  -4   2  -6  833.48   22.82   0
  -2   1  24 1886.86   26.41   0
   1  -1  -4 2380.48   42.71   0
  -4   2  21    2.51    7.49   0
   0   0  15   -0.95    9.00   0
   0  -1  34 1018.74   23.55   0
  -4   2  24 2016.14   24.95   0
  -1   0  32 1903.87   27.89   0
   2  -2   1   -0.25    6.92   0
  -3   2   7    2.20    8.12   0
  -3   2  10 2102.28   29.09   0
  -3   1  35   -2.42    8.35   0
  -3   2   4 3040.52   37.14   0
  -3   2  13   35.22    8.24   0
  -2   0  40  959.23   19.51   0
  -4   2  27   -0.63    7.28   0
  -3   2  16 2101.38   27.30   0
  -4   2  -9    5.70    8.91   0
  -3   2  19   -2.53    7.68   0
   1  -1  -1    0.38   10.21   0
  -1   0  35    1.90    8.44   0
   2  -2  13    0.66   10.55   0
  -6   3   9    3.69    7.52   0
  -6   3  12  819.70   16.78   0
  -6   3  15    6.84    8.71   0
  -4   2  30  216.12   10.44   0
  -3   1  38  371.32   13.75   0
   0   0  21    1.81    8.94   0
   2  -2   7    1.49    7.21   0
  -3   2  22  518.02   14.45   0
   0  -1  37    1.01    8.17   0
   2  -2  10  176.58   16.24   0
  -6   3   3   10.91    8.36   0
  -2   0  43   -3.98    9.06   0
  -1   1  10 3694.74   47.31   0
  -1   1  13    4.39    7.47   0
  -6   3   0 1133.97   21.19   0
  -5   3   7   17.36    8.63   0
  -4   2  33   -3.42    7.39   0
  -3   2  25   14.95    7.65   0
  -2   1  33    9.20    7.36   0
  -1   1   7    2.39   10.86   0
  -5   3  16 1896.07   23.93   0
  -1   1  16 5066.08   49.40   0
   1  -1  23   -0.20    9.41   0
  -5   3   4  778.87   18.27   0
  -5   3  19    4.65    7.34   0
   0   0  24 4900.54   51.64   0
  -3   2  28 1510.26   22.44   0
  -1   1  19    0.31    6.70   0
  -6   3  -3    8.66    8.69   0
  -5   3  22  345.12   11.81   0
  -5   3   1    3.19    8.40   0
  -2   1  36 1025.70   19.60   0
  -1   1   4 2341.08   45.11   0
  -5   3  25    2.47    7.25   0
  -4   2 -12  790.02   26.95   0
  -3   2  31    3.70    8.50   0
  -3   2  -5   15.33    7.85   0
   1  -1   2 1773.91   48.33   0
  -5   3  -2  874.37   19.89   0
   0   0  27    0.38    7.47   0
  -4   3  11   35.71    8.10   0
  -4   3  14  726.15   16.16   0
  -4   3  17    3.40    7.26   0
  -1   0  41    6.20    8.10   0
  -4   3  20  974.39   18.50   0
  -2   0 -20 3366.85   53.49   0
  -2   1  39   -1.02    8.46   0
   1  -1  26 1206.67   33.11   0
  -4   3  23   23.76    7.73   0
  -2   2  14  355.13   14.16   0
  -2   2  11    1.98    7.00   0
  -2   2  17   -2.96    7.16   0
  -1   1  28 1397.08   24.15   0
  -4   3  26  734.78   15.58   0
  -2   2  20 3641.74   35.64   0
   0   0  30  163.25   11.91   0
  -5   3  -5   19.24    8.62   0
  -3   2  37   -1.38    8.45   0
  -2   2   8 2151.80   31.74   0
  -1   1   1   -1.06   11.77   0
  -4   3   2  872.63   19.53   0
  -4   3  29   -1.51    8.38   0
  -2   1  42  362.79   13.47   0
  -2   2  23   -5.92    7.24   0
  -2   2  26 1353.61   22.16   0
  -1   1  31    2.13    7.21   0
  -6   4  11   -4.03    8.34   0
  -6   4  14  324.89   11.69   0
  -4   3  32  961.87   17.54   0
  -2   2   5    3.74    7.11   0
   0   0  33   -0.68    8.55   0
   1  -1  29    1.50    8.54   0
  -6   4   8  923.60   18.22   0
  -4   3  -1   36.93    8.44   0
  -3   2  -8 3252.48   51.31   0
  -2   1  45    1.40    8.68   0
  -1   1  34 1080.67   20.99   0
  -6   4   5    0.13    8.17   0
   0  -1 -11   -1.52    4.99   0
  -5   3  -8 2196.40   33.99   0
  -5   4  18  417.74   13.30   0
  -3   3  15    0.46    8.50   0
  -3   3  18 1426.56   21.71   0
  -3   3  21   -4.40    8.61   0
  -2   2  32  684.58   15.98   0
  -5   4  21    2.89    7.36   0
  -3   3  12 2615.32   30.05   0
  -2   2   2 5098.94   52.92   0
  -6   4   2  646.81   16.54   0
  -3   3  24 1185.55   19.51   0
   0   0  36  662.03   19.16   0
  -5   4   9   -1.03    8.20   0
  -3   3  27   -0.39    8.15   0
  -2   2  35   -9.38    8.19   0
  -1   1  37   -1.57    8.24   0
   1  -1   5   -0.42   11.22   0
  -3   3   9    4.36    6.74   0
   1  -1  32 1884.15   38.28   0
  -4   3  -4 1363.64   26.00   0
  -5   4   6  927.15   18.62   0
  -3   3  30  338.83   11.79   0
  -6   4  -1   -1.03    7.95   0
  -3   3   6  578.19   16.53   0
  -2   2  38  288.97   11.74   0
  -1   1  40  842.14   18.73   0
   0   0  39    0.44    8.32   0
  -5   4   3   25.93    8.85   0
  -4   2 -15   -0.27   11.52   0
  -4   4  19    3.12    8.50   0
  -4   4  22  773.75   16.33   0
  -2   2  -1   -1.57    8.87   0
  -2   2  41   -2.20    8.48   0
  -6   4  -4  942.49   21.20   0
  -5   3 -11    5.11    9.33   0
  -4   4  16 1690.97   22.72   0
  -4   4  25   -0.78    7.18   0
  -3   3   3    7.85    6.35   0
  -1   1  -2 1755.98   50.48   0
  -4   4  13    8.92    7.27   0
  -4   4  28  723.41   15.76   0
  -1   1  43    4.86    8.40   0
  -5   4   0 1560.65   24.77   0
  -4   3  -7   17.27    9.76   0
   0  -1  -8 9658.04   79.72   0
  -3   3  -9    0.91    6.83   0
  -2   3  22  490.56   14.07   0
  -5   5  -1   -1.13    6.76   0
  -3   4  17    6.52    6.89   0
  -3   4  20  980.55   17.70   0
  -2   2  41    4.89    8.44   0
  -1   2  15   -0.49    7.93   0
   0  -1  -8 9643.83   78.82   0
  -3   4  11   37.63    7.55   0
  -2   3   7    3.34    6.16   0
  -1   2  12 4068.60   41.73   0
  -1   2  18 1174.26   22.06   0
  -5   4 -15    9.44    7.87   0
  -4   4  -8 1607.17   24.61   0
  -3   4   8 2804.19   28.97   0
  -3   4  23   21.90    6.99   0
  -5   5  -4 1200.42   19.87   0
  -2   3  28 1464.91   21.45   0
  -1   2   9   64.18    8.61   0
  -1   2  24 1890.91   27.00   0
   0   0  33    0.51    8.15   0
  -3   4   5    4.50    6.88   0
  -2   2 -10  184.18   14.52   0
  -2   3   4 3001.65   32.77   0
   1  -2   6 1905.26   33.02   0
  -4   5  12 1001.22   17.52   0
  -4   5  15   14.59    6.95   0
  -4   5  18  431.53   11.98   0
  -4   5  21   -0.83    8.08   0
  -3   4  29    2.62    6.81   0
  -2   4  18 1142.44   19.04   0
  -2   4  48  347.56   14.22   0
  -2   5  38  109.31   11.62   0
  -1   4   7   27.15    7.39   0
  -1   6  26  266.11   12.51   0
  -1   6  38  183.84   13.48   0
  -2   5  32  802.68   17.03   0
  -2   5  35    9.31    8.53   0
  -1   6  29    3.79    9.28   0
  -1   6  32  485.79   16.08   0
  -1   6  35  -13.93   10.89   0
   0   6  18  289.10   13.68   0
   3   6  21    5.17   11.07   0
  -1   3   5    6.11    6.63   0
   1   5   5    1.19    9.37   0
   2   3  -7   13.10    7.92   0
   2   6  17   -6.94   11.09   0
  -2   4  45    7.46    9.34   0
  -1   5  15   11.83    9.24   0
  -1   5  51    6.78   10.87   0
   0   6  21   12.51   10.73   0
   1   3  -5    9.03    6.88   0
   3   6  24  222.36   12.81   0
  -2   4  42  491.37   15.17   0
   0   6  24  687.81   17.71   0
   0   6  42  189.56   13.67   0
   2   4  -2  591.55   16.13   0
   2   6  20  239.54   13.95   0
   3   5   7   -1.54    9.88   0
  -1   5  48  160.90   13.24   0
   0   6  27   -6.94   11.10   0
   0   6  39   -2.67   11.29   0
   1   4   0 1539.14   23.16   0
   2   5   6  500.13   15.53   0
  -2   4  27   -1.50    8.59   0
  -2   4  39   -1.37    9.26   0
  -1   4  10 1183.97   19.36   0
  -1   5  18  785.75   16.53   0
   0   6  30  189.74   13.86   0
   0   6  33   -0.28   11.32   0
   0   6  36  181.21   13.83   0
   1   6  22  171.71   11.70   0
   1   6  43    8.28   11.82   0
   2   6  23   -2.36   11.43   0
  -2   4  30  207.38   11.78   0
  -2   4  33    1.93    9.10   0
  -2   4  36  460.79   14.91   0
  -1   5  45   -1.17   11.06   0
   1   5   8  880.84   18.08   0
   1   6  25   -0.69   10.99   0
   1   6  40  290.33   14.39   0
  -2   3  22  468.44   14.30   0
  -2   3  43    1.32    9.18   0
  -1   5  21   24.59    9.42   0
   1   6  28  171.46   13.74   0
   1   6  37   -1.22   11.11   0
   2   6  32  239.12   13.71   0
   2   6  35   -7.14   11.42   0
  -1   5  42  269.17   14.22   0
   0   4   5   -1.57    7.67   0
   0   5  13  -13.10    9.10   0
   0   5  52  203.50   13.23   0
   1   6  31    1.90   10.59   0
   1   6  34  202.59   13.28   0
   3   5  10  268.71   13.56   0
  -2   2  23   -1.05    6.63   0
  -2   3  40  530.88   16.46   0
  -1   3   8 3389.83   33.38   0
  -1   4  52  243.23   13.17   0
  -1   5  24  735.57   17.04   0
   0   4  59    8.42   10.72   0
   2   5   9   -1.18    9.34   0
  -2   3  25    7.28    7.68   0
  -1   4  13    5.02    7.40   0
  -1   5  27   12.71   10.14   0
   4   5  17    4.79   10.08   0
  -2   3  37    8.04    8.32   0
  -1   5  30  209.90   12.42   0
  -1   5  33   -4.60    9.96   0
   0   5  49    1.22   10.71   0
  -2   2  26 1310.55   23.76   0
  -2   3  31   -0.54    8.12   0
  -2   3  34  644.52   16.57   0
   0   5  16  803.26   16.77   0
   2   4   1   -6.37    8.29   0
   3   5  13    5.81   10.06   0
   4   5  20  144.16   13.94   0
  -1   4  49   -8.26   10.69   0
   1   4   3    4.79    7.03   0
   2   5  12  475.13   15.47   0
   3   4   2  283.55   13.11   0
  -2   2  29   -0.08    7.16   0
  -2   2  32  672.34   18.02   0
  -2   2  35    1.10    7.69   0
  -1   4  16 2233.08   26.25   0
   0   4  56   98.61   11.75   0
   0   5  46  117.00   11.77   0
   1   3  -2  883.81   18.99   0
   4   5  23    8.42   11.23   0
   0   4   8 1625.46   22.51   0
   0   5  19   -2.71    8.42   0
   2   3  -4  751.38   18.22   0
   3   5  16  493.20   16.55   0
  -1   4  46  109.42   11.68   0
   0   3   3    1.10    7.45   0
   4   5  26  181.48   13.69   0
   4   5  29    2.34   11.43   0
  -1   3  11   19.75    7.14   0
   0   5  22  280.31   12.47   0
   0   5  40  274.38   14.54   0
   1   5  47    5.21   11.21   0
   2   5  15    5.39   10.46   0
  -1   4  19   25.66    7.74   0
  -1   4  43   18.18   10.20   0
   0   4  53    9.44   11.54   0
   0   5  25   -0.33    9.82   0
   1   5  17   11.58    8.73   0
   3   5  19   -2.54   10.84   0
   0   5  28  716.01   17.36   0
   0   5  34  343.72   14.61   0
   0   5  37   -0.09    9.79   0
   1   5  44  191.59   13.55   0
   2   4   4  974.57   19.35   0
   2   5  45    2.05   12.28   0
  -1   3  50  199.09   12.87   0
  -1   4  22  427.56   13.99   0
  -1   4  40  540.51   16.46   0
   0   4  11   -4.56    8.58   0
   0   5  31   10.34    9.45   0
   1   4   6  388.14   12.68   0
   1   5  20  592.18   16.19   0
   2   5  18  231.51   12.05   0
   3   4   5   15.47    9.18   0
   3   5  22  140.11   13.19   0
   1   5  41   11.58   11.44   0
   2   5  42  142.59   13.45   0
   3   3  -3    6.35    8.24   0
   3   5  25   -0.73   11.20   0
   3   5  37    6.19   11.60   0
  -1   4  25    1.62    7.81   0
  -1   4  37    8.23    9.66   0
   0   3  57    5.33   11.73   0
   0   4  50  197.68   13.40   0
   1   5  23    9.95   10.78   0
   1   5  38  191.60   14.48   0
   3   5  34  177.84   13.57   0
   4   4   9    4.63    9.60   0
  -1   3  14 1659.96   23.46   0
  -1   4  28  780.24   16.76   0
   1   4  54   76.70   12.01   0
   1   5  26  246.97   13.68   0
   1   5  35   -2.05   11.63   0
   2   5  24  509.75   16.67   0
   2   5  39    6.50   11.83   0
  -1   3  47   -4.44    9.77   0
   1   5  29    2.66    9.98   0
   1   5  32  455.61   15.28   0
   2   5  27    7.91   11.21   0
   2   5  36  217.03   14.14   0
   5   4  19    1.44   11.75   0
   0   4  14  334.44   12.29   0
   0   4  47   -2.24   10.97   0
   1   3   1   33.32    8.42   0
   2   4   7   -3.01    8.97   0
   2   5  30  193.90   12.62   0
   2   5  33    6.89   10.43   0
   0   3   6 1970.27   25.76   0
   3   4   8  606.87   16.88   0
   4   4  12  317.16   14.31   0
   5   4  22  101.28   13.20   0
  -1   3  17   14.55    8.24   0
  -1   3  44  372.26   14.44   0
   0   3  54  137.41   13.87   0
   1   4  51   -3.39   11.18   0
   2   3  -1    4.98    6.58   0
   0   4  17    4.06    8.52   0
   0   4  44  485.97   16.70   0
   5   4  25    5.25   11.45   0
   5   4  28  117.42   13.62   0
   1   3  58  142.11   13.27   0
  -1   3  41    5.45    9.38   0
   1   4  12 1246.39   20.74   0
   2   4  10  409.04   14.29   0
   3   4  11    0.72   10.07   0
   4   4  15    1.07   10.81   0
  -1   3  20 1512.29   22.36   0
   0   4  20 1402.85   21.13   0
   2   4  49    6.79   12.61   0
   3   3   0 1124.32   21.35   0
  -1   3  38  395.66   14.46   0
   0   3  51   -3.50   10.87   0
   3   4  47    4.40   12.74   0
   4   4  18  260.53   14.37   0
  -1   3  23    5.35    7.04   0
   0   3   9    0.48    6.71   0
   0   4  23   -6.04    8.19   0
   0   4  35    9.04    9.68   0
  -1   2  45    8.69    8.73   0
  -1   3  35    7.77    7.50   0
   0   4  26  838.09   17.16   0
   0   4  29   -3.22   10.06   0
   0   4  32  517.55   14.96   0
   1   3  55   13.49   11.46   0
   1   4  15    3.39    7.83   0
   2   4  13    0.02    9.43   0
   2   4  46  151.68   13.39   0
   3   4  14  396.53   14.73   0
   4   4  21   -1.92   11.44   0
   4   4  39   14.63   11.66   0
  -1   3  29   12.18    7.45   0
  -1   3  32 1305.87   21.07   0
   1   4  42  288.71   14.58   0
   3   4  44  184.40   14.17   0
   4   4  36  164.16   13.75   0
   0   3  48  384.83   15.79   0
   1   4  18  795.11   17.77   0
   2   3   2  866.74   18.58   0
   4   4  24  390.79   15.40   0
   4   4  27    0.01   11.38   0
   4   4  30  115.63   13.18   0
   1   4  39    0.91   11.36   0
   2   3  56  148.06   14.04   0
   2   4  43    5.84   10.88   0
   3   4  17   14.51   10.70   0
   3   4  41    1.70   11.78   0
   4   3   4  711.67   17.94   0
  -1   2  42  352.44   14.11   0
   0   3  12 2092.61   26.46   0
   1   2  59   -3.02   11.33   0
   1   4  21   19.13    9.96   0
   6   3  24  250.89   14.27   0
   0   3  45   -7.37   10.38   0
   1   3  52  263.82   15.46   0
   1   4  36  565.77   15.94   0
   2   4  40  304.36   14.41   0
   3   2  -5    9.65    8.35   0
   3   3   3   -2.18    8.54   0
   3   4  20  503.12   15.31   0
   3   4  38  188.09   13.39   0
   6   3  27   -0.52   10.45   0
   0   2  52  226.24   14.16   0
   1   4  24  744.24   16.78   0
   1   4  27   16.09   10.03   0
   1   4  30  216.12   12.93   0
   1   4  33   10.14    9.40   0
   2   4  19   -1.71    8.97   0
   2   4  37   -4.96   11.96   0
   3   4  35   -1.79   12.50   0
   5   3  11   -6.06    9.70   0
  -1   2  39   -1.84    8.47   0
   1   3   7   15.36    8.28   0
   2   3  53    8.25   12.10   0
   2   4  22  394.72   14.56   0
   3   4  29    8.48   11.53   0
   3   4  32  330.27   14.14   0
   0   3  42  293.33   14.02   0
   2   2  60  127.72   13.43   0
   2   4  25  -10.42   10.33   0
   2   4  28  500.19   16.62   0
   2   4  31   10.63   10.95   0
   2   4  34  216.26   12.93   0
  -1   2  36  962.11   19.65   0
   0   3  15   -2.48    6.96   0
   1   3  49   -8.52    9.83   0
   2   3   5   17.72    8.35   0
   4   3   7    4.24    9.66   0
   5   3  14  185.09   12.96   0
   1   2  56  235.37   13.63   0
   3   3  51   -1.65   12.10   0
  -1   2  33    2.33    8.23   0
   0   2  49    2.41   10.07   0
   0   3  39    5.80    8.52   0
   3   3   6  511.06   15.45   0
  -1   2  24 1844.74   26.31   0
  -1   2  30  638.11   16.73   0
   0   3  18  575.17   14.79   0
   1   3  46   97.06   12.47   0
   4   3  46   90.54   13.72   0
   5   3  17    0.35   10.52   0
  -1   2  27   -1.03    6.45   0
   1   3  10 1157.55   19.94   0
   3   3  48  214.48   15.04   0
   4   3  10  414.50   15.02   0
   0   3  21   -8.83    7.47   0
   2   2  57   -5.60   11.46   0
   5   3  20  258.72   14.43   0
   0   3  24 1809.37   24.47   0
   0   3  30  638.46   16.26   0
   1   2  53   -4.78   11.39   0
   2   3   8 2291.71   27.84   0
   4   3  43    7.80   12.34   0
   5   3  23    6.54   11.36   0
   5   3  26  237.85   14.68   0
   5   3  29  -11.93   11.48   0
   5   3  32  262.99   15.60   0
   0   3  27   -2.19    7.88   0
   3   3   9   14.52    9.40   0
   3   3  45   -2.93   12.68   0
  -1   1  37    0.95    8.33   0
   1   3  13   12.64    8.89   0
   2   1  61    0.95   12.23   0
   4   3  13   16.91    9.24   0
   4   3  40  181.59   14.79   0
   2   3  44  297.92   13.81   0
   4   2  -1    0.05    8.38   0
  -9   3  18  242.51   15.23   0
  -4   0  35   -4.28   11.26   0
  -2  -1  32 1262.15   25.59   0
  -9   4   8  420.17   17.52   0
  -7   4  10  453.30   15.49   0
  -6   3  21    0.78   11.41   0
  -5   1  33    3.36   12.09   0
  -3   1  26  531.42   16.54   0
  -8   3  22  147.23   13.63   0
  -8   4  12  324.23   16.69   0
  -7   3  23   -6.80   12.24   0
  -5   0  37   -4.27   12.39   0
  -3   2  16 2109.51   27.74   0
 -10   4   1   -0.71   11.35   0
  -7   1  34  208.13   16.10   0
  -7   2  30  230.66   15.28   0
  -4   1  31   14.68    9.30   0
  -4   3  11   43.17   10.09   0
  -9   3  21    6.75   13.15   0
  -8   2  29   -1.03   12.04   0
  -7   4  13   16.66   11.74   0
  -6   1  35    0.98   13.69   0
  -3   0  33    2.05    9.79   0
  -8   1  33   -0.04   12.15   0
  -2   0  28 1158.84   23.30   0
  -8   4  15    9.03   11.09   0
  -6   4  11    0.67   10.84   0
  -5   4  -9   30.41    8.89   0
  -5   4  -6  390.16   14.85   0
  -5   4  -3   -5.06    9.40   0
  -9   4  14   92.86   13.44   0
  -8   3  25   -4.20   12.06   0
  -7   0  38   37.69   12.35   0
  -7   3  26  204.56   15.56   0
  -6   0  39    4.06   12.66   0
  -5   4   0 1574.29   25.00   0
  -7   4  16  530.63   16.62   0
  -4   3  14  719.71   17.14   0
  -3   2  19   -3.54    8.70   0
  -9   3  24  232.25   15.89   0
  -8   4  18  246.15   15.95   0
  -5   1  36  584.05   19.17   0
  -5   4   3   28.68    9.90   0
  -9   4  17   10.43   13.27   0
  -7   1  37   -3.16   13.35   0
  -6   4  14  351.08   15.39   0
  -5   3  22  345.31   14.11   0
  -4   0  38  149.38   13.55   0
  -3   1  29   -2.58    9.64   0
  -8   3  28  195.92   16.03   0
  -8   5  -4  317.94   16.68   0
  -5   0  40  257.33   16.20   0
  -4   1  34  585.38   18.32   0
  -4   2  27   18.87    8.95   0
  -9   5  -5    7.87   11.74   0
  -9   5  -2  203.02   14.84   0
  -8   5  -7   -1.71   11.32   0
  -8   5  -1    8.25   10.89   0
  -7   4  19   -9.95   11.09   0
  -6   1  38  165.67   13.92   0
  -6   2  34  238.49   16.25   0
  -6   3  27   -4.86   10.81   0
  -9   3  27    2.02   13.87   0
  -9   5   1    0.52   11.39   0
  -8   4  21    7.87   13.25   0
  -8   5   2  293.51   15.56   0
  -4   3  17   -4.22    8.40   0
  -9   5   4  193.15   14.60   0
  -8   5   5   16.94   12.49   0
  -6   4  17   -5.14   10.21   0
  -7   5  -6  464.54   17.43   0
  -7   5  -3    9.14   10.41   0
  -6   0  42  144.42   16.21   0
  -5   3  25   -3.59   11.46   0
  -3   0  36  613.55   18.66   0
  -3   2  22  488.39   16.03   0
  -9   5   7    7.91   12.01   0
  -8   2  35   22.04   12.00   0
  -8   5   8  555.43   18.30   0
  -7   2  36  190.11   15.20   0
  -7   4  22  224.79   13.89   0
  -7   5  -9   -5.20   10.85   0
  -7   5   0  703.63   19.18   0
  -2   0  31    1.89    8.56   0
 -10   5   0  208.78   13.95   0
  -8   3  31    0.40   13.50   0
  -8   4  24  407.47   18.11   0
  -7   1  40  255.67   15.70   0
  -7   5   3    0.83   11.22   0
  -5   1  39    4.83   12.65   0
  -5   4  12  989.36   20.11   0
 -10   5   3    3.82   11.19   0
  -9   4  23    2.24   13.28   0
  -9   5  10  165.06   14.45   0
  -8   5  11    6.31   13.06   0
  -7   3  32  368.30   17.39   0
  -7   5   6  189.04   13.79   0
  -6   4  20  747.10   18.23   0
  -4   3  20 1003.45   20.36   0
  -2   1  24 1791.91   26.88   0
 -10   5   6  105.11   12.73   0
  -6   1  41    1.06   13.46   0
  -6   2  37   -0.22   13.64   0
  -3   1  32 1294.19   23.77   0
  -3   3   6  548.44   16.48   0
  -9   5  13   16.21   12.66   0
  -7   4  25   12.81   12.49   0
  -7   5   9   16.16   10.90   0
  -5   2  35   11.81   10.36   0
  -4   0  41    6.72   10.95   0
  -4   1  37    4.43   11.28   0
  -2   2  11   -4.69    8.17   0
  -1  -1  30  625.42   20.13   0
  -5   3  28  468.96   15.97   0
  -5   4  15   19.13    9.25   0
  -9   4  26  212.00   14.97   0
  -8   3  34  163.77   15.45   0
  -8   4  27   -0.17   14.08   0
  -7   2  39   -2.79   13.74   0
  -6   4  23    2.56   11.72   0
  -3   2  25   15.64    8.48   0
  -3   3   9    0.91    8.66   0
  -6   3  33    0.34   13.02   0
  -4   3  23   23.62   10.86   0
  -8   5  17    3.12   13.20   0
  -6   5  -2  377.65   15.04   0
  -6   5   1   15.43   10.57   0
  -7   1  43    7.21   12.03   0
  -7   4  28  458.53   18.75   0
  -7   5  15   15.05   11.56   0
  -6   5  -5    0.34    9.49   0
  -6   5   4  832.70   19.78   0
  -5   4  18  451.00   14.86   0
  -4   2  33   -3.33    9.29   0
  -3   0  39   -2.21   10.19   0
  -9   4  29  -15.12   13.94   0
  -9   5  19    1.50   12.72   0
  -6   2  40  318.79   17.34   0
  -6   5  -8  865.09   20.35   0
  -5   1  42  289.82   16.07   0
  -3   3  12 2598.00   30.58   0
  -2   1  27    0.98    8.41   0
  -2   2  14  347.12   13.43   0
  -8   4  30  119.94   13.52   0
  -8   5  20  267.34   16.15   0
  -6   4  26  462.60   16.16   0
  -6   5   7    0.73    9.03   0
  -5   2  38  117.14   13.63   0
  -5   3  31    5.85   10.22   0
  -4   4  -2 1410.88   24.57   0
  -4   4   1   -0.39    8.33   0
  -2   0  34  304.59   14.20   0
  -7   5  18  464.29   17.33   0
  -6   1  44  201.32   16.46   0
  -4   1  40  530.90   18.25   0
  -4   4  -5    1.08    7.86   0
  -3   1  35    0.83   10.07   0
  -9   5  22  107.46   14.60   0
  -7   2  42  127.70   15.56   0
  -5   4  21    6.19    9.89   0
  -4   3  26  744.09   17.71   0
  -7   4  31  -13.45   12.22   0
  -4   4  -8 1537.84   27.06   0
  -3   3  15    0.45    7.75   0
  -8   4  33  -10.40   13.77   0
  -8   5  23   -5.29   12.01   0
  -2   2  17    1.33    7.21   0
  -9   6   0  373.25   16.78   0
  -9   6   3   16.74   13.86   0
  -7   5  21  -11.07   11.00   0
  -6   4  29    9.43   10.89   0
  -4   2  36  441.22   16.21   0
  -4   4  10  451.33   14.47   0
  -9   5  25    0.95   13.15   0
  -9   6   6  220.09   15.10   0
  -5   4  24 1023.82   20.31   0
  -9   6   9    4.58   13.08   0
  -8   3  40  180.21   14.80   0
  -8   5  26  245.95   16.54   0
  -8   6   1   12.86   13.10   0
  -6   2  43   -5.44   13.46   0
  -4   4 -11   -1.93    8.02   0
  -4   4  13   -5.99    9.20   0
  -3   3  18 1418.13   23.15   0
  -8   6  -2  280.15   15.16   0
  -8   6   4  271.99   15.43   0
  -7   4  34  219.66   16.39   0
  -7   5  24  420.22   16.92   0
  -5   1  45   10.78   13.13   0
  -5   2  41    2.71   10.70   0
  -4   3  29   10.95    9.24   0
  -2   1  30  688.06   18.08   0
  -9   6  12  173.15   14.39   0
  -8   6   7   12.37   10.69   0
  -6   3  39  -10.68   13.85   0
  -3   2  31    3.37    8.57   0
  -9   5  28  127.64   14.33   0
  -8   4  36  181.07   15.93   0
  -8   6  10  259.58   15.65   0
  -7   2  45    7.47   12.45   0
  -7   3  41    4.42   12.80   0
  -6   4  32  442.00   16.48   0
  -6   5  19  -13.88   10.23   0
  -5   4  27    7.89   11.59   0
  -4   1  43    7.04   11.71   0
  -4   4  16 1663.83   24.68   0
  -3   1  38  396.69   16.03   0
  -2   2  20 3607.14   36.32   0
  -9   6  15    4.95   12.52   0
  -8   5  29   -7.97   13.90   0
  -2   0  37    0.79    9.03   0
  -8   6  13   -3.32   10.63   0
  -7   5  27   10.10   13.23   0
  -5   5   2  373.46   14.82   0
  -3   3  21    5.77    8.18   0
  -9   6  18  123.16   14.29   0
  -7   4  37   -0.48   14.00   0
  -6   5  22  249.30   13.69   0
  -5   5  -1   -7.61    9.12   0
  -5   5   5   -1.59    8.21   0
  -5   5   8 1014.45   20.69   0
  -4   2  39  -10.23    9.62   0
  -4   3  32 1010.26   21.19   0
  -8   6  16  465.45   16.34   0
  -7   6  -1   -7.23   11.86   0
  -7   6   2  412.85   16.14   0
  -7   6   5    3.96   10.80   0
  -5   5  -4 1207.19   23.21   0
  -4   4  19    4.50    8.79   0
  -7   6   8  765.24   20.02   0
  -6   2  46  128.78   15.57   0
  -6   3  42  210.85   16.12   0
  -6   4  35   -1.98   13.47   0
  -5   2  44  302.19   16.76   0
  -5   4  30  360.85   15.80   0
  -1   0  29   -0.37    8.01   0
  -8   5  32  285.09   16.84   0
  -7   5  30  109.09   14.56   0
  -7   6  -4  292.20   14.73   0
  -7   6  11   11.57   11.42   0
  -6   5  25   12.00   12.47   0
  -3   2  34  687.96   18.21   0
  -2   2  23    4.90    7.18   0
  -5   5  -7    0.22    8.52   0
  -5   5  14  677.08   17.09   0
  -4   4  22  780.33   18.73   0
  -3   3  24 1175.57   20.99   0
  -2   1  33    6.20    7.62   0
  -7   6  14  170.62   12.70   0
  -5   3  40  525.37   18.34   0
  -9   6  24  287.82   15.91   0
  -8   6  22  143.25   15.04   0
  -5   5  17    1.07   10.23   0
  -3   1  41    1.51   10.79   0
  -8   5  35    5.70   13.65   0
  -6   4  38  121.24   15.21   0
  -6   5  28  490.05   18.01   0
  -5   4  33    2.09   11.63   0
  -4   1  46  113.81   13.33   0
  -4   2  42  459.64   17.53   0
  -7   5  33   -1.46   11.59   0
  -4   4  25   -4.12   10.60   0
  -9   6  27    4.46   12.71   0
  -8   6  25    4.64   13.12   0
  -6   3  45   18.03   13.57   0
  -3   3  27    3.98    8.39   0
  -1   1  22  463.47   15.19   0
  -7   3  47   14.54   13.85   0
  -6   2  49   -5.27   13.75   0
  -5   2  47   10.40   12.57   0
  -3   2  37    2.69    9.92   0
  -6   5  31   -8.25   13.39   0
  -8   5  38   96.76   14.07   0
  -8   6  28  199.17   15.16   0
  -7   4  43    6.95   13.07   0
  -7   5  36  314.79   17.54   0
  -7   6  23    2.90   13.33   0
  -6   6   3   -1.64    9.68   0
  -6   6   6  277.36   14.42   0
  -6   6   9   -6.86   11.10   0
  -5   3  43    6.96   12.42   0
  -5   5  23   12.72   10.95   0
  -2   1  36 1021.10   21.99   0
  -1   0  32 1868.61   30.54   0
  -9   7   5   -1.59   12.20   0
  -9   7   8  261.28   16.63   0
  -6   6   0  971.70   21.07   0
  -6   6  12  519.62   17.12   0
  -5   4  36  398.57   15.69   0
  -4   3  38  205.07   12.63   0
  -4   4  28  701.42   17.43   0
  -9   7  11    7.35   11.79   0
  -9   7  14  181.24   14.09   0
  -7   6  26  288.61   16.27   0
  -6   6  -3   -2.30    9.39   0
  -4   2  45    2.46   11.43   0
  -3   1  44  400.00   16.31   0
  -3   4   8 2789.52   31.85   0
  -2   3   7   -2.92    8.18   0
  -1   1  25    3.68    7.55   0
  -8   6  31   -3.85   12.82   0
  -6   5  34  285.67   16.77   0
  -5   5  26  246.13   13.29   0
  -3   4   2  879.66   19.10   0
  -3   4  11   35.86    8.41   0
  -2   3  10 2067.28   28.48   0
  -9   7  17   -8.39   13.24   0
  -8   7   6  242.06   14.96   0
  -8   7   9   -4.57   12.69   0
  -7   5  39    8.66   13.22   0
  -6   3  48  211.93   16.40   0
  -6   6  18  422.86   15.45   0
  -4   4  31   -7.81   10.78   0
  -3   2  40  563.76   17.76   0
  -3   4  14  745.54   17.96   0
  -8   7   3  -12.16   11.78   0
  -8   7  12  202.21   14.38   0
  -7   4  46  106.71   14.11   0
  -7   6  29    9.07   13.67   0
  -3   4  -1   30.30    8.46   0
  -2   3  13   32.94    8.26   0
  -8   7  15    6.83   12.80   0
  -6   4  44  264.31   16.58   0
  -6   6  21   -2.96   10.37   0
  -5   2  50  222.92   15.87   0
  -5   3  46   71.32   13.28   0
  -5   5  29    1.06   11.38   0
  -4   3  41    1.65   11.17   0
  -4   5   6  920.30   19.73   0
  -8   6  34  168.06   15.15   0
  -4   5   3   32.29    9.55   0
  -4   5  12  970.68   20.11   0
  -3   4  17   -5.00    8.04   0
  -2   3  16 2134.94   27.55   0
  -9   7  23   -9.40   12.16   0
  -8   7  18  167.04   14.48   0
  -6   5  37    5.38   11.35   0
  -2   1  39   -1.34    9.34   0
  -2   2  32  674.11   17.14   0
  -4   4  34  315.01   15.36   0
  -4   5   0 1498.82   24.80   0
  -4   5  15   27.03    9.02   0
  -3   4  20  948.19   19.92   0
  -1   1  28 1374.11   24.44   0
  -8   7  21   -2.70   12.99   0
  -7   5  42  191.69   14.61   0
  -5   5  32  569.77   17.74   0
  -4   2  48  378.14   17.40   0
  -4   5  18  425.06   15.53   0
  -2   3  19    1.80    7.76   0
  -1   0  35   -0.67    8.18   0
  -8   6  37    9.84   12.74   0
  -6   3  51    3.49   12.27   0
  -6   6  27    1.81   12.63   0
  -5   4  42  210.16   15.11   0
  -7   7   7   12.97   11.67   0
  -7   7  10  275.45   14.93   0
  -6   4  47    4.58   14.09   0
  -6   5  40  245.46   16.76   0
  -4   5  -3   -2.13    8.14   0
  -3   2  43    4.79   10.65   0
  -3   3  36  970.92   20.66   0
  -3   4  23   15.01   10.60   0
  -7   6  35   17.39   13.15   0
  -7   7   4  235.35   14.43   0
  -7   7  13   -7.18   12.41   0
  -5   3  49   10.12   12.86   0
  -4   3  44  323.46   16.13   0
  -4   5  21    4.14    9.28   0
  -2   3  22  490.36   14.73   0
  -7   7   1   -3.39   11.02   0
  -7   7  16  627.17   19.19   0
  -5   5  35   -6.61   12.55   0
  -5   6   7    0.86   10.17   0
  -5   6  10  557.93   16.90   0
  -2   2  35    2.33    9.32   0
  -8   7  27   -6.89   12.92   0
  -7   7  19   -2.93   12.37   0
  -6   6  30  122.43   12.93   0
  -5   6   4  833.28   19.41   0
  -4   5  24 1027.89   20.63   0
  -3   4  26  743.15   18.30   0
  -1   2  15    4.79    8.18   0
  -5   6   1   18.40    9.60   0
  -4   5  -6  383.21   14.66   0
  -2   1  42  371.30   15.29   0
  -1   1  31   -0.38    8.17   0
  -7   6  38   66.40   13.73   0
  -5   4  45   11.34   13.25   0
  -5   6  19    6.29   11.20   0
  -2   3  25    5.80    8.16   0
  -8   7  30   80.46   14.38   0
  -6   6  33   10.91   12.68   0
  -4   5  27   -1.85   10.83   0
  -3   3  39    0.85    9.08   0
  -1   2  18 1205.79   21.93   0
  -7   7  25   -2.18   12.41   0
  -6   4  50  132.52   14.56   0
  -5   5  38  241.36   15.66   0
  -5   6  -2  370.69   14.60   0
  -5   6  22  271.41   13.53   0
  -3   4  29    6.33   10.48   0
  -4   3  47    9.13   11.96   0
  -3   2  46  165.40   13.52   0
  -8   7  33    0.59   12.45   0
  -5   3  52  184.30   14.57   0
  -5   6  25    4.43   11.23   0
  -2   2  38  270.63   12.73   0
  -2   3  28 1458.38   22.73   0
  -1   2  21   29.40    7.66   0
  -7   6  41    9.58   13.09   0
  -7   7  28  188.51   15.21   0
  -6   6  36  286.90   16.39   0
  -4   5  30  337.46   14.19   0
  -6   5  46   99.42   13.93   0
  -6   7  11    5.99   11.46   0
  -5   4  48  288.63   16.05   0
  -5   6  -5   -1.67    9.18   0
  -4   5  -9   18.76    8.37   0
  -3   4  32 1039.02   20.95   0
  -1   1  34 1037.41   21.67   0
  -6   7   8  733.36   19.28   0
  -6   7  14  160.25   11.96   0
  -6   7  17   22.66   12.35   0
  -5   5  41  -10.11   10.73   0
  -5   6  28  499.84   16.12   0
  -3   3  42  378.39   15.99   0
  -7   7  31   -4.57   12.06   0
  -4   4  43   -1.06   11.84   0
  -4   5  33   -6.05   11.41   0
  -8   8  11   -7.94   13.32   0
  -6   4  53    3.91   13.00   0
  -6   6  39  -14.85   12.73   0
  -6   7   2  415.58   16.57   0
  -8   8   8  309.03   14.96   0
  -8   8  14  185.08   14.57   0
  -8   8  17    0.82   12.90   0
  -7   6  44  161.95   15.22   0
  -6   7  23    6.37   12.10   0
  -5   6  31   -8.97   10.70   0
  -4   3  50  255.71   15.48   0
  -3   4  35    9.46   11.19   0
  -2   2  41   -3.57    9.91   0
  -8   8  20  170.76   14.82   0
  -7   7  34  192.71   15.25   0
  -3   2  49   10.12   11.11   0
  -6   5  49    2.05   12.60   0
  -6   7  -1    0.34    9.73   0
  -6   7  26  319.88   15.87   0
  -4   5  36  399.00   16.02   0
  -8   8  23    0.95   11.93   0
  -5   4  51   -8.12   13.22   0
  -5   6  34  264.99   15.11   0
  -3   3  45   -2.30   11.11   0
  -3   5  13   -4.83    8.22   0
  -3   5  16 1943.84   26.01   0
  -7   7  37   10.85   13.56   0
  -6   6  42  179.46   14.29   0
  -4   4  46  167.51   13.06   0
  -3   5  19   12.46   10.34   0
  -1   1  37   -1.31    8.20   0
  -8   8  26  117.34   14.18   0
  -6   7  29    0.56   10.88   0
  -4   6  11    5.36    9.39   0
  -2   4  12  812.49   18.26   0
  -2   4  15    4.00    8.94   0
  -4   5  39   10.92   11.71   0
  -4   6   8  925.74   19.86   0
  -4   6  17    1.42    9.27   0
  -3   5   4  753.31   18.05   0
  -3   5  22  332.28   13.22   0
  -2   4   9    0.94    7.18   0
  -2   4  18 1168.28   20.24   0
  -1   2  30  640.25   16.28   0
  -6   7  32  339.71   16.45   0
  -5   5  47   -1.84   12.38   0
  -5   6  37    2.83   11.47   0
  -4   3  53   12.12   13.69   0
  -4   6  20  750.39   17.76   0
  -2   2  44  862.82   20.49   0
  -2   3  37    1.45    9.96   0
  -2   4  21   -4.42    9.44   0
  -7   7  40  219.40   14.95   0
  -7   8   9    3.29   11.52   0
  -7   8  12  210.42   14.29   0
  -7   8  15    1.52   11.96   0
  -7   8  18  162.56   13.98   0
  -6   6  45   -2.37   12.89   0
  -4   6   5    5.73    7.97   0
  -4   6  23    2.46   11.33   0
  -3   5  25   -3.60    9.17   0
  -2   4   6  833.68   18.00   0
  -7   8  21   -2.27   11.79   0
  -3   5   1    5.61    8.38   0
  -2   4  24 2031.24   26.34   0
  -7   8   6  219.02   14.14   0
  -6   7  35    8.46   13.05   0
  -5   4  54   87.60   14.12   0
  -4   4  49  -15.95   12.78   0
  -4   6  26  460.30   15.44   0
  -3   3  48  239.49   14.87   0
  -3   4  41   13.21    9.59   0
  -3   5  28  465.88   16.04   0
  -7   8  24  315.71   15.10   0
  -5   7   9    5.79   10.58   0
  -5   7  12  582.05   16.18   0
  -5   7  15   -4.85    9.48   0
  -1   1  40  857.41   20.15   0
  -1   2  33   -0.59    7.49   0
  -4   6  29    1.12   11.14   0
  -2   3  40  537.10   16.89   0
  -2   4  27   -3.56    8.51   0
  -5   5  50  101.01   13.91   0
  -5   7   6  186.09   12.81   0
  -5   7  24  403.92   15.73   0
  -3   5  31   -1.93    9.54   0
  -6   7  38   65.37   13.87   0
  -4   6  -1   -2.46    8.68   0
  -3   5  -2  861.50   19.38   0
  -1   3  14 1672.78   24.39   0
  -1   3  17   19.46    8.77   0
  -5   6  43   -4.04   12.52   0
  -5   7   3    2.93    9.63   0
  -5   7  27    3.21   12.92   0
  -4   6  32  433.96   15.30   0
  -3   4  44  331.62   15.67   0
  -2   2  47   -5.22    9.98   0
  -2   4   0 4113.62   39.91   0
  -2   4  30  229.87   12.09   0
  -1   3  11   19.91    7.52   0
  -1   3  20 1558.41   23.32   0
  -4   4  52  185.46   14.38   0
  -4   5  45   -6.68   10.28   0
  -3   5  34  533.69   17.20   0
  -1   2  36 1040.17   20.20   0
  -7   8  33   -4.38   12.22   0
  -5   7  30  119.80   13.57   0
  -3   3  51    4.63   11.47   0
  -1   3   8 3346.53   34.79   0
  -1   3  23    4.13    7.67   0
   0   1  23   -0.25    7.15   0
  -6   7  41    3.36   11.47   0
  -4   6  35   -0.02   10.35   0
  -2   3  43    2.59   10.70   0
  -2   4  33   -0.05    8.96   0
  -6   8  13   -4.90   11.16   0
  -6   8  16  453.94   17.37   0
  -6   8  19    3.71   11.61   0
  -5   5  53    3.42   11.97   0
  -5   7   0  712.49   18.22   0
  -4   6  -4  948.83   20.63   0
  -3   5  37   -2.05   11.54   0
  -1   1  43   -1.61    9.07   0
  -1   3  26  605.71   15.53   0
  -6   8  10  250.43   14.39   0
  -6   8  22  125.99   12.79   0
  -5   7  33  -13.00   11.45   0
  -3   4  47   -6.28   11.85   0
  -3   5  -5    8.72    7.76   0
  -1   3   5   10.60    7.70   0
   0   0  33   -0.40    7.34   0
   0   1  26 1224.01   22.99   0
  -6   8   7   -1.66   11.00   0
  -4   5  48  257.68   15.56   0
  -4   6  38  117.69   14.06   0
  -1   2  39    5.75    9.17   0
  -6   7  44  153.91   13.58   0
  -6   8  28  203.20   14.90   0
  -5   7  36  308.25   16.25   0
  -2   4  -3    2.87    6.98   0
  -4   4  55    0.57   11.52   0
  -3   5  40  529.67   17.32   0
  -6   8   4  265.40   14.16   0
  -6   8  31    8.92   12.69   0
  -3   3  54  111.84   13.51   0
  -2   3  46  170.64   13.11   0
   0   1  29   -3.24    7.47   0
  -5   6  49   -2.34   11.49   0
  -4   6  41   10.13   10.45   0
  -3   6  15    5.50   10.14   0
  -3   6  18  453.37   15.64   0
  -3   6  21  -11.30   10.78   0
  -5   7  39    4.91   11.46   0
  -4   5  51    7.16   13.05   0
  -3   4  50  231.01   14.60   0
  -3   6  24  672.40   17.72   0
  -6   8  34  190.58   14.49   0
  -4   7  13   16.49   10.51   0
  -4   7  22  211.93   13.82   0
  -3   6   9   15.20    9.52   0
  -2   5  14  391.89   14.17   0
  -2   5  17   -2.43    8.36   0
  -2   5  20  672.23   16.94   0
  -1   2  42  364.02   14.49   0
  -4   7  25    7.89   10.99   0
  -3   6  27   -6.55    9.82   0
  -2   5  23   -4.47    8.82   0
  -1   3  35    1.31    8.99   0
  -7   9  17    7.54   11.63   0
  -7   9  20  185.51   13.91   0
  -5   7  42  185.23   14.71   0
  -4   6  44  292.15   14.44   0
  -4   7  10  423.07   15.56   0
  -2   5  11   11.78    7.68   0
  -2   5  26  736.44   18.02   0
   0   1  32 1837.09   27.29   0
  -7   9  14  156.35   12.52   0
  -7   9  23  -10.04   11.05   0
  -6   8  37   -9.35   11.04   0
  -4   7  28  465.00   15.51   0
  -3   6  30  229.20   12.95   0
  -2   3  49    6.30   10.20   0
  -2   4  42  481.82   15.20   0
  -4   7   7   12.57   10.04   0
  -2   5  29   -2.36    9.18   0
  -5   8  17    8.39   11.64   0
  -5   8  20  256.92   15.19   0
  -4   5  54   87.16   13.38   0
  -4   7  31   12.57   10.90   0
  -3   4  53    6.86   12.02   0
  -3   5  46   69.25   13.23   0
  -3   6  33   21.36   10.26   0
  -1   3  38  389.49   14.77   0
   0   2  19   -3.76    7.75   0
  -5   7  45   -8.59   11.91   0
  -3   6   3    3.56    8.91   0
  -2   5  32  824.46   19.09   0
  -1   2  45   -4.67    9.20   0
   0   2  16 3091.27   33.12   0
   0   2  22 2043.31   26.71   0
  -5   8  11    1.36   11.18   0
  -4   7   4  733.20   18.23   0
  -4   7  34  226.48   13.20   0
  -3   6  36  380.13   16.07   0
  -2   4  45    2.73   11.06   0
  -2   5   5    9.94    7.47   0
  -1   4  16 2195.40   26.74   0
  -1   4  19   21.21    8.24   0
  -1   4  22  402.26   14.14   0
   0   1  35    6.34    7.66   0
   0   2  13   -0.79    7.57   0
  -5   8  29  -13.67   11.26   0
  -1   4  13   21.98    8.74   0
  -1   4  25    3.84    9.51   0
  -5   8   8  545.76   16.81   0
  -5   8  32  292.90   15.82   0
  -4   7  37   10.65   12.18   0
  -2   5  35   -0.25    9.54   0
   0   2  28 1113.01   20.63   0
  -4   7   1    5.49   10.36   0
  -3   5  49    8.21   12.21   0
  -2   3  52  335.68   15.38   0
  -1   3  41    8.61    8.45   0
  -1   4  10 1144.89   20.32   0
  -1   4  28  791.49   17.20   0
  -5   8   5   -3.45   10.37   0
  -4   6  50  140.51   13.53   0
  -3   6   0 1097.75   20.84   0
  -2   5   2  843.15   18.57   0
  -5   8  35    1.10   11.18   0
  -4   5  57   -0.26   10.81   0
  -4   7  40  191.30   14.22   0
  -3   4  56  187.28   14.02   0
  -2   4  48  383.92   16.13   0
  -2   5  38  113.80   11.11   0
  -1   4  31   11.13    8.69   0
   0   1  38  287.33   13.17   0
   0   2  31    2.32    8.19   0
  -6   9  18  131.94   12.60   0
  -6   9  21    1.62   11.00   0
  -6   9  24  256.34   14.34   0
  -1   2  48  372.05   14.80   0
  -6   9  15   14.18   11.61   0
  -6   9  27    0.00   11.18   0
  -5   8  38   57.85   12.71   0
  -3   6  42  186.10   12.62   0
  -1   3  44  394.88   15.15   0
  -1   4   7   16.02    7.36   0
  -6   9  12  168.32   12.80   0
  -3   5  52  180.47   13.66   0
   0   2  34  298.65   13.03   0
  -4   6  53    0.28   11.11   0
  -4   7  -2  292.12   13.23   0
  -4   7  43   -2.25   11.14   0
  -3   6  -3    3.56    8.25   0
  -3   7  20  513.70   16.38   0
  -2   5  -1    4.98    7.72   0
  -3   7  23   -2.58    9.66   0
  -3   7  26  194.14   13.31   0
  -2   4  51    5.51   11.40   0
   0   1  41    1.09    8.43   0
  -4   7  46   82.55   12.68   0
  -3   7  14  428.48   14.89   0
  -3   7  29   -3.12   11.53   0
  -2   5  44  286.26   15.14   0
  -2   6  16  792.57   18.22   0
  -2   6  19    4.06    8.88   0
  -2   6  22  389.32   13.80   0
  -2   6  25    1.99   10.85   0
   0   2  37    1.99    8.53   0
  -4   8  18  260.35   14.12   0
  -4   8  21    4.46    9.86   0
  -2   6  28  514.46   16.56   0
  -1   3  47    3.16   10.04   0
  -1   4  40  538.33   16.62   0
   0   3  21   -5.99    7.37   0
  -4   8  15   -2.15   11.26   0
  -4   8  27   -5.24   10.98   0
  -3   5  55   -1.14   11.03   0
  -3   7  11    2.83    8.44   0
  -3   7  32  346.91   14.19   0
  -2   6  31    4.74   10.69   0
   0   3  18  575.04   14.87   0
   0   3  27    0.14    8.51   0
  -4   8  12  307.52   14.48   0
  -4   8  30  129.41   13.50   0
  -3   6  48  176.78   13.05   0
   0   3  15   -0.09    7.15   0
  -4   8  33  -11.40   11.23   0
  -3   7   8  606.52   16.70   0
  -3   7  35  -11.21   10.02   0
  -2   5  47   15.02   11.48   0
  -2   6  34  230.32   13.91   0
   0   2  40  938.59   19.57   0
  -4   8   9   -2.38   10.35   0
  -3   6  -6  474.68   15.67   0
  -2   4  54   49.33   11.67   0
  -2   5  -4  735.60   17.55   0
  -1   4   1   30.72    8.05   0
  -1   4  43   12.28   10.25   0
  -1   5  18  824.97   18.02   0
  -1   5  21   14.56    8.69   0
  -1   5  24  777.55   16.89   0
  -1   5  27    1.23   10.38   0
   0   3  12 2108.32   26.32   0
  -5   9  19    0.31   11.78   0
  -5   9  22  114.80   12.31   0
  -5   9  25    7.36   11.74   0
  -4   8  36  191.12   13.33   0
  -3   7  38  175.24   14.13   0
  -2   6  37   -4.94   11.54   0
  -1   3  50  226.61   13.65   0
  -1   5  15    2.73    8.97   0
   0   3  33   -0.90    9.23   0
  -5   9  16  388.24   15.07   0
  -5   9  28  108.68   12.14   0
  -3   6  51    8.88   11.15   0
  -3   7   5    3.52    9.34   0
  -2   6   7   -6.17    7.67   0
  -1   5  30  204.49   12.04   0
  -4   8   6  221.88   12.87   0
  -3   5  58  134.35   12.42   0
  -2   5  50  242.96   14.90   0
  -1   5  12 1197.86   20.09   0
  -1   5  33   -7.60   10.20   0
  -5   9  13   -1.64   11.29   0
  -4   8  39    9.19   10.57   0
  -3   7  41  -11.34   11.00   0
  -2   6  40  292.89   14.83   0
  -1   4  46  113.64   12.37   0
   0   2  43    0.21    8.69   0
   0   3   9   -3.01    6.67   0
   0   3  36  599.27   15.47   0
  -2   6   4  958.87   19.07   0
  -1   5  36  581.36   16.93   0
  -5   9  10  165.87   12.70   0
  -3   7   2  285.54   13.03   0
  -1   5   9   16.43    7.86   0
  -4   8   3    9.70    9.80   0
  -3   7  44  166.31   13.98   0
   0   3  39    0.17    9.54   0
  -2   5  53   -1.02   11.76   0
  -1   4  49   14.69   10.83   0
   0   2  46  315.99   13.78   0
   0   3   6 2024.52   25.97   0
   0   4  23  -13.76    9.51   0
  -2   5  -7   11.72    7.47   0
  -2   6   1    4.32    8.35   0
   0   3  42  308.52   13.62   0
   0   4  20 1418.79   21.15   0
   0   4  26  844.21   17.15   0
   0   4  29   -0.31    9.60   0
   1   1  24 1822.00   25.99   0
   0   4  17   -3.69    7.81   0
   1   1  21   23.21    7.39   0
   1   1  27    1.61    7.32   0
  -3   7  -1    3.55    8.47   0
  -3   8  19  -11.95   10.89   0
  -3   8  25    1.89   10.01   0
  -3   8  28  184.84   13.50   0
  -2   7  21    1.82   10.72   0
  -2   7  24  545.37   15.39   0
  -2   7  27   11.50   11.17   0
  -3   8  16  496.92   16.46   0
  -3   8  31    3.49   11.25   0
  -2   7  30  223.68   12.78   0
   0   4  14  349.43   12.32   0
   1   1  30  650.72   16.63   0
  -3   8  34  185.42   13.86   0
  -2   5  56  138.83   12.22   0
  -2   6  49    6.17   11.39   0
  -2   7  33   28.33   11.95   0
  -1   4  52  258.41   13.69   0
  -1   5   3   -1.52    8.15   0
  -1   5  45    2.91   10.97   0
   1   0  31    1.28    6.64   0
  -4   9  20  146.20   13.25   0
  -4   9  23   -4.45   10.79   0
  -4   9  26  197.45   12.89   0
  -3   8  13    1.46   10.34   0
  -1   6  23   -2.03   10.11   0
  -1   6  26  271.60   13.57   0
   0   3   3    0.58    7.15   0
   0   3  45   -1.32    8.36   0
   0   4  11   -2.64    8.35   0
   1   1  33   11.78    7.88   0
  -4   9  17    8.68   11.28   0
  -3   8  37    4.59   11.36   0
  -2   7  12  455.21   15.24   0
  -2   7  36  210.22   13.35   0
  -1   6  20  543.32   15.08   0
  -1   6  29   14.50    9.54   0
   0   4  38  155.38   12.08   0
  -2   6  -2  594.11   16.00   0
  -1   6  17    1.68    8.68   0
  -1   6  32  448.27   14.67   0
   1   0  34  980.60   21.67   0
   1   2  20 1572.11   22.99   0
   1   2  29    1.35    8.17   0
  -4   9  14  113.24   11.74   0
  -3   8  40  169.41   13.87   0
  -2   7  39   -3.59   10.44   0
  -1   4  -5    8.83    7.01   0
  -1   5  48  186.23   13.05   0
  -1   6  14  444.83   14.43   0
  -1   6  35  -11.62   10.93   0
   1   1  36  998.87   19.99   0
  -2   6  52  146.45   13.43   0
  -2   7   9   -3.42    8.12   0
   0   3  48  409.19   15.21   0
   0   4   8 1614.10   22.74   0
   0   4  41   -2.03   10.41   0
   1   2  17    5.44    7.84   0
   1   2  32 1281.07   21.25   0
  -4   9  11   -0.15   10.12   0
  -2   7  42  116.59   12.36   0
  -1   4  55   -4.71   11.02   0
  -1   5   0 1505.66   22.75   0
  -1   6  38  176.77   13.11   0
  -3   8   7    1.23    8.65   0
   1   2  35    0.82    8.34   0
  -2   7   6  505.09   15.55   0
  -1   5  51    5.38   11.65   0
   0   4  44  515.56   16.16   0
   0   5  25    9.19    9.61   0
   1   1  39    6.78    7.50   0
   1   2  14 1714.63   23.65   0
  -4   9   8  436.41   15.05   0
  -2   7  45    5.81   10.81   0
  -1   6  41   -0.26    9.97   0
   0   5  19   -9.53    9.79   0
   0   5  22  282.89   12.17   0
   0   5  31    6.21    9.99   0
  -2   6  -5    1.68    8.50   0
  -1   6   8  868.07   17.20   0
   0   3  51    6.63   10.43   0
   0   4   5   -4.66    6.74   0
   1   2  38  405.45   14.05   0
   1   3  25   10.83    8.71   0
   0   5  16  752.17   16.32   0
   0   5  34  337.47   13.14   0
   1   3  22  412.86   12.98   0
  -2   7   3    7.35    9.00   0
   0   4  47   -1.52   10.53   0
   0   5  37    2.53   10.71   0
   1   2  11   25.76    6.94   0
   1   3  19   15.28    7.68   0
  -1   5  54   72.98   11.99   0
   0   5  13   -4.80    9.32   0
   1   2  41    5.22    8.58   0
   1   3  34  605.32   15.95   0
  -2   8  26  233.86   13.50   0
  -1   5  -3   35.09    8.11   0
  -1   6   5    3.35    7.48   0
   1   3  16 2203.55   25.34   0
  -3   8   1    0.44    9.91   0
  -2   8  29   17.33   10.07   0
  -2   8  32  231.01   13.79   0
  -1   6  47   -6.08   10.29   0
   1   3  37    1.71    9.33   0
  -3   9  21   -8.30   11.03   0
  -3   9  24  217.87   12.59   0
  -2   8  17    6.73   10.82   0
  -1   4  -8 2680.27   32.85   0
  -1   7  25   -7.48   10.88   0
  -1   7  28  166.67   12.90   0
   0   4  50  201.28   12.34   0
   0   5  10  720.08   15.73   0
  -3   9  18  236.93   13.67   0
  -2   8  35    6.85    9.93   0
  -1   7  19    3.65   10.67   0
  -1   7  22  185.52   12.07   0
  -1   7  31    2.26   10.27   0
   0   5  43    3.56   10.55   0
   1   2   8 3518.57   33.66   0
   1   2  44  381.48   13.83   0
   1   3  13   14.38    7.27   0
  -2   7   0  694.97   16.93   0
  -2   8  14  130.13   11.58   0
  -1   6  50  108.22   12.44   0
  -1   7  34  204.28   13.76   0
   1   3  40  530.68   14.79   0
  -1   6   2  348.13   12.17   0
  -9   8  10   93.23   13.08   0
  -7   8   3    1.16   12.02   0
  -6   8 -14  139.63   13.46   0
  -5   7   0  756.25   17.89   0
  -3   5   4  762.23   16.35   0
  -1   3  -7    1.44    5.98   0
  -8   7  18  176.49   13.65   0
  -6   8 -20  245.46   14.30   0
  -6   8 -11   -0.36   12.04   0
  -5   7 -33   -6.73   11.32   0
  -4   5  15   23.86    8.04   0
  -7   7  16  608.06   17.90   0
  -6   8 -23    1.39   11.37   0
  -6   8  -8  543.70   17.46   0
  -4   6   5    8.37    8.35   0
  -2   4   3   -1.12    8.18   0
  -8   9 -11  -13.29   11.19   0
  -7   6  23    5.10   11.02   0
  -6   8 -26  231.53   13.45   0
  -6   8  -5   11.50   12.02   0
  -5   7   3    0.58   10.13   0
  -4   4  22  789.31   18.63   0
  -1   3  -4 3077.93   33.54   0
  -8   8  11   -1.11   11.19   0
  -8   9  -8  177.86   13.51   0
  -7   8   6  247.16   13.30   0
  -8   9  -5    2.15   11.83   0
  -6   6  21   -1.42   10.22   0
  -6   8 -29    6.31   10.89   0
  -6   8  -2  292.71   15.29   0
  -5   6  16  729.16   17.78   0
  -3   5   7   16.80    7.89   0
  -4   6   8  947.97   18.94   0
  -3   3  21    0.79    7.15   0
  -8   9  -2  133.62   13.08   0
  -5   5  23   -2.38    9.51   0
  -5   7   6  202.61   11.95   0
  -3   6 -18  470.68   14.93   0
  -3   6 -15   -8.18    9.19   0
  -8   7  21   -5.24   11.52   0
  -7   7  19    8.29   11.05   0
  -6   8 -32  212.54   12.81   0
  -6   8   1   -1.02   10.35   0
  -4   5  18  419.30   14.56   0
  -3   6 -21   10.04    9.36   0
  -3   6  -9   14.03    9.46   0
  -2   4   6  874.65   17.41   0
  -1   3  -1   55.45    8.57   0
  -8   8  14  160.89   13.21   0
  -8   9   1   -3.48   12.00   0
  -4   7 -20  499.06   16.02   0
  -4   7 -17   21.88    8.70   0
  -4   7 -11   -4.90    9.88   0
  -3   4  17    0.13    6.84   0
  -7   9 -19   -6.48   10.83   0
  -7   9 -13   -2.04   11.60   0
  -4   7 -23   -4.27   10.15   0
  -4   7  -8  645.46   16.77   0
  -3   5  10  783.91   17.47   0
  -3   6 -24  682.58   17.20   0
  -3   6  -6  503.01   15.01   0
  -2   5 -16 1924.19   25.61   0
  -2   5 -13    0.04    7.82   0
  -7   9 -22   68.39   11.15   0
  -7   9 -10  217.65   13.33   0
  -5   7   9   -2.02    9.33   0
  -4   6  11    1.72    9.84   0
  -2   5 -19    7.43    6.83   0
  -8   9   4  221.66   13.96   0
  -7   8  12  217.61   14.15   0
  -7   9  -7   16.61   10.75   0
  -6   7  17    3.41   11.08   0
  -5   6  19    1.65   10.09   0
  -4   7 -26  189.69   12.39   0
  -4   7  -5    9.88    9.19   0
  -3   6 -27   -1.78    8.73   0
  -3   6  -3    1.58    8.97   0
  -2   5 -22  333.24   13.32   0
  -7   9  -4  241.55   14.21   0
  -6   6  24  528.06   17.16   0
  -5   8 -16  486.02   16.29   0
  -2   5  -7   15.10    7.40   0
  -8   8  17   -1.38   10.84   0
  -6   8   7    6.76   11.43   0
  -5   8 -19   -4.19    9.60   0
  -5   8 -10  252.08   12.77   0
  -4   7  -2  286.61   12.67   0
  -2   4   9   -4.61    8.35   0
  -2   5 -25    2.15    8.06   0
  -1   3   2  702.11   16.63   0
  -7   7  22  130.89   12.69   0
  -7   9  -1    2.76   11.42   0
  -5   8 -22  174.00   12.30   0
  -5   8  -7   -1.84    9.42   0
  -4   4  25    1.66    7.93   0
  -4   7 -29    5.69    9.50   0
  -3   6 -30  205.28   12.90   0
  -3   6   0 1113.48   19.05   0
  -2   5  -4  731.99   15.99   0
  -7   8  15   -3.77   12.45   0
  -5   5  26  265.44   14.44   0
  -5   8 -25   -0.39   10.18   0
  -5   8  -4  305.52   14.51   0
  -4   5  21    4.66    9.29   0
  -4   7   1   -2.09   10.36   0
  -3   5  13   12.08    8.87   0
  -7   9   2  104.78   12.63   0
  -6   8  10  226.90   14.46   0
  -5   8 -28  209.25   14.19   0
  -5   8  -1   16.44   11.53   0
  -3   4  20  951.96   19.67   0
  -3   6   3    1.66    9.71   0
  -2   5 -28  437.01   14.73   0
  -2   5  -1    7.39    7.39   0
  -8   9  10  112.08   12.42   0
  -6   7  20  293.17   14.79   0
  -5   6  22  244.70   13.42   0
  -4   7   4  738.72   17.51   0
  -8   8  20  166.16   12.88   0
  -7   9   5   15.60   11.23   0
  -6   9 -18  239.59   13.83   0
  -1   4 -14  711.04   17.00   0
  -6   9 -21   -1.47   11.35   0
  -6   9  -9    8.73   10.74   0
  -5   8   2  266.66   12.98   0
  -2   4  12  850.98   17.99   0
  -2   5   2  884.11   17.87   0
  -1   3   5    8.98    6.69   0
  -1   4 -17   -1.11    7.33   0
  -1   4 -11   41.91    7.18   0
  -7   7  25    0.75   12.33   0
  -7   8  18  152.15   13.58   0
  -6   6  27   -9.69   10.41   0
  -6   9  -6   89.83   12.98   0
  -4   6  17    9.82    9.65   0
  -3   6   6  502.20   14.11   0
  -1   4 -20  953.84   19.83   0
  -7   9   8  274.30   14.59   0
  -6   9 -24  202.53   13.52   0
  -6   9  -3    6.76   11.40   0
  -4   7   7   15.75    9.20   0
  -5   8   5   14.70    9.72   0
  -1   4  -5    8.97    7.73   0
  -6   7  23    9.95   11.38   0
  -6   9 -27    1.62    9.64   0
  -6   9   0  426.42   15.70   0
  -4   5  24 1043.98   20.84   0
  -2   5   5   11.78    8.95   0
  -1   4 -23   14.18    7.47   0
  -5   7  18  444.11   15.93   0
  -3   6   9   -1.40    9.67   0
  -6   8  16  486.06   16.91   0
  -5   6  25    1.42    9.93   0
  -5   8   8  530.73   17.27   0
  -4   7  10  451.57   14.33   0
  -1   4  -2  903.13   18.06   0
  -7   8  21    3.96   11.41   0
  -6   9   3   20.69   10.44   0
  -3   4  23   28.24    8.36   0
  -3   7 -16  502.77   15.26   0
  -3   7 -13   21.70   10.50   0
  -2   3  19    4.42    6.86   0
  -1   3   8 3362.14   33.66   0
  -4   6  20  728.88   17.86   0
  -4   8 -18  238.21   13.65   0
  -4   8 -15   -7.22   11.12   0
  -3   7 -19   -1.04    9.83   0
  -3   7  -7    6.51    9.76   0
  -1   4 -26  652.16   17.59   0
  -6   9   6  208.29   13.59   0
  -4   8  -6  230.09   13.75   0
  -3   5  19    1.89    8.90   0
  -3   7 -22  201.99   12.54   0
  -2   5   8 2341.41   26.23   0
  -7   9  14  149.94   13.17   0
  -5   8  11   11.55    9.71   0
  -4   7  13   -1.48   10.32   0
  -4   8 -21   -4.61   10.82   0
  -3   6  12  814.91   16.96   0
  -3   7  -4  741.18   16.65   0
  -2   6 -14  333.24   13.26   0
  -2   6 -11    2.80    8.64   0
  -1   4   1   36.08    7.52   0
  -6   8  19    0.90   11.05   0
  -5   7  21   -0.06   10.69   0
  -4   8 -24  386.91   14.98   0
  -4   8  -3   -3.93    9.62   0
  -2   6 -17   -2.51    7.47   0
  -6   7  26  306.60   14.40   0
  -5   9 -17   10.94   10.90   0
  -5   9 -14   99.55   12.55   0
  -5   9  -8  423.24   16.06   0
  -3   7 -25   20.11    9.57   0
  -3   7  -1   12.43    9.02   0
  -2   6 -20  718.53   17.34   0
  -2   6  -5    6.26    8.72   0
  -7   8  24  300.29   15.39   0
  -6   9   9    6.33   10.72   0
  -5   9 -20  148.51   12.97   0
  -5   9  -5    5.26   11.85   0
  -4   8   0  575.60   15.80   0
  -4   5  27    3.68    9.01   0
  -4   8 -27   -3.52    9.47   0
  -3   3  27    0.39    7.61   0
  -3   7 -28  409.92   15.65   0
  -3   7   2  282.64   12.39   0
  -2   5  11    5.09    7.93   0
  -2   6 -23   -0.13    8.58   0
  -2   6  -2  634.81   16.00   0
  -1   3  11   29.02    7.85   0
  -1   4   4 1401.47   21.05   0
  -7   9  17   -3.59   11.14   0
  -5   6  28  506.53   16.67   0
  -5   9 -23   -4.95    9.95   0
  -5   9  -2  214.77   14.26   0
  -4   6  23    5.01    9.50   0
  -4   8   3   -4.58   11.08   0
  -3   6  15    7.59    9.87   0
  -6   8  22  129.84   12.88   0
  -5   9 -26  146.93   11.71   0
  -5   9   1   -5.35   11.76   0
  -3   5  22  348.86   13.82   0
  -3   7   5    5.75    9.17   0
  -2   6 -26  404.32   14.54   0
  -2   6   1  -11.09    8.13   0
  -5   7  24  368.50   15.30   0
  -4   8   6  222.53   12.45   0
  -3   4  26  703.23   17.46   0
  -5   8  17    6.05    9.51   0
  -5   9   4  174.85   13.41   0
  -2   3  22  463.68   14.82   0
  -2   5  14  422.09   14.19   0
  -2   6   4  983.92   18.90   0
  -1   4   7   23.78    7.42   0
  -1   5 -15   16.37    8.60   0
  -1   5 -12  998.05   19.34   0
  -7   9  20  162.12   12.92   0
  -6   9  15    4.10   11.79   0
  -3   7   8  629.02   16.91   0
  -1   5 -18  407.62   13.72   0
  -4   7  19   -1.62    8.84   0
  -4   8   9   -9.04   11.11   0
  -6  10  -1   -6.06   10.12   0
  -5   9   7    5.21   12.00   0
  -1   5 -21    8.86    8.18   0
  -1   5  -3   33.70    8.96   0
   0   3 -12 2550.87   31.22   0
  -6   8  25   17.79   11.56   0
  -4   6  26  424.13   15.33   0
  -2   6   7   11.77    8.27   0
  -1   3  14 1578.93   23.25   0
   0   3 -15    3.22    6.89   0
   0   3  -9    0.30    6.86   0
  -5   8  20  265.02   14.59   0
  -4   5  30  360.78   14.96   0
  -3   7  11   -5.51    9.28   0
  -2   4  21    3.20    7.74   0
  -1   4  10 1232.97   20.44   0
  -1   5   0 1555.17   22.29   0
  -6   9  18  120.10   12.44   0
  -5   7  27    6.11   10.44   0
  -5   9  10  179.78   13.27   0
  -4   8  12  324.88   13.48   0
  -3   5  25    2.61    8.91   0
  -1   5 -24  972.59   20.24   0
   0   3 -18 1305.22   23.92   0
  -4   7  22  206.53   13.25   0
  -3   8 -14  171.26   12.89   0
  -3   8 -11   -8.08   10.82   0
  -4   9 -16  398.79   15.60   0
  -4   9 -13    4.48   10.66   0
  -4   9 -10  183.92   13.21   0
  -3   6  21    2.73    9.87   0
  -3   8 -17   -2.84   10.61   0
  -3   8  -5   10.65   11.10   0
  -2   6  10  403.83   13.36   0
  -1   5   3    1.06    8.37   0
   0   3  -3   -3.32    6.14   0
  -4   9  -4  172.19   13.06   0
  -3   7  14  427.79   15.34   0
  -3   8 -20  264.24   13.31   0
  -3   8  -2  258.29   13.21   0
  -2   7 -12  571.35   16.14   0
  -2   7  -9    8.23    9.91   0
  -5   9  13    0.12   10.78   0
  -4   8  15    0.85    9.51   0
  -4   9 -19   -5.72   10.97   0
  -2   7 -15    7.27    9.93   0
  -6   9  21   -0.72   10.92   0
  -5   8  23   11.33   10.55   0
  -4   9 -22  103.93   12.76   0
  -4   9  -1   13.87   10.08   0
  -3   4  29    1.65    7.68   0
  -3   8 -23    0.18   10.18   0
  -3   8   1    6.70   11.54   0
  -2   7 -18  457.35   15.40   0
  -2   7  -3    8.33    9.62   0
  -1   4  13   12.11    8.30   0
   0   3   0 2710.69   29.73   0
  -6   8  28  199.26   13.84   0
  -4   6  29   -1.93    9.96   0
  -4   9   2  235.95   13.78   0
  -2   6  13    9.79    9.82   0
  -1   5   6  392.42   12.77   0
  -5  10  -6  103.87   11.15   0
  -5  10  -3  -17.38   11.79   0
  -3   8   4  293.63   14.51   0
  -2   3  25   11.87    7.17   0
  -2   7 -21    2.54    9.45   0
  -2   7   0  712.31   16.29   0
  -5   7  30  105.93   11.94   0
  -4   7  25    6.62   11.16   0
  -3   7  17    5.31    9.12   0
  -5  10   0  272.47   13.94   0
  -4   9   5   -8.78   10.27   0
  -3   5  28  477.06   15.28   0
  -3   6  24  675.76   16.37   0
  -2   4  24 1905.29   25.28   0
  -2   7 -24  359.09   15.00   0
  -2   7   3   12.01   10.43   0
   0   3   3   -2.94    6.28   0
  -3   8   7    0.85    9.46   0
  -1   5   9   32.45    8.34   0
  -1   6 -10  531.48   15.26   0
  -6   9  24  285.64   14.81   0
  -5   8  26  224.40   14.16   0
  -2   6  16  787.11   17.01   0
  -1   6 -13   18.38    7.90   0
   0   4 -13    2.90    7.52   0
   0   4 -10  465.39   14.07   0
  -5   9  19   16.95   11.28   0
  -2   7   6  504.23   14.71   0
  -1   4  16 2182.96   25.79   0
  -1   6 -16  699.66   16.48   0
   0   4  -4 1641.23   23.09   0
  -5  10   6  109.57   12.08   0
  -4   8  21   -4.89   11.08   0
  -3   8  10  261.91   12.68   0
  -1   6 -19  -12.11    8.94   0
  -1   6  -1   16.06    9.62   0
   0   4 -16 1629.10   24.57   0
  -4   9  11   -1.16   11.30   0
  -2   5  23    4.66    8.92   0
  -1   5  12 1208.95   19.58   0
   0   3   6 2097.82   25.78   0
   0   4  -1   -0.72    7.99   0
  -4   6  32  430.83   16.28   0
  -4   7  28  467.88   16.38   0
  -2   7   9    1.91    9.03   0
  -1   6   2  386.68   14.00   0
   0   4 -19    2.49    7.09   0
  -3   6  27  -15.67    9.99   0
  -3   8  13    9.75   10.94   0
  -2   6  19   -4.65    9.43   0
  -1   3  20 1454.94   22.80   0
  -1   6 -22  254.05   12.46   0
  -6   9  27    1.45   10.23   0
  -5   9  22  102.25   12.33   0
  -1   6   5    0.23    9.72   0
   0   4   2 1450.77   21.16   0
  -5   8  29   -0.18   11.34   0
  -4   9  14  106.81   11.97   0
  -3   7  23    6.55   10.64   0
  -2   4  27   -4.02    7.86   0
  -2   7  12  457.17   15.58   0
  -4   8  24  367.66   15.46   0
  -3   5  31    4.72    8.56   0
  -3   9 -12  153.99   12.47   0
  -3   9  -9    3.63   10.31   0
  -1   5  15    1.40    7.92   0
   0   3   9   -0.88    6.42   0
   0   4 -22  683.40   17.71   0
  -3   8  16  515.36   16.95   0
  -3   9 -15    8.09   11.17   0
  -2   3  28 1444.78   24.69   0
  -2   8 -10  231.45   13.40   0
  -2   8  -7    1.92   10.49   0
  -1   6   8  885.82   18.36   0
   0   4   5    4.05    8.17   0
  -4   9  17    8.91   11.73   0
  -3   9 -18  121.42   11.46   0
  -3   9   0  379.66   15.54   0
  -2   8 -13    9.49   10.74   0
  -5   9  25    5.82   11.59   0
  -4   7  31   -3.17   11.02   0
  -3   9   3   14.76   11.22   0
  -2   5  26  695.73   17.08   0
  -2   7  15    7.34    9.29   0
  -2   8 -16  448.08   15.44   0
  -2   8  -1    7.58   11.23   0
  -3   9 -21    9.71    9.33   0
  -2   8 -19   -0.87   11.48   0
  -2   8   2  285.46   13.84   0
   0   5 -11    2.78    8.45   0
   0   5  -8 1083.96   19.49   0
  -3   6  30  246.91   13.08   0
  -3   7  26  195.17   13.71   0
  -3   8  19    9.10   10.95   0
  -1   5  18  814.22   17.55   0
  -1   6  11    6.81    8.53   0
   0   4   8 1637.56   22.01   0
   0   5 -14  676.60   16.61   0
  -5   8  32  255.14   13.78   0
  -4   8  27   -1.96   11.34   0
  -2   8   5    1.03   11.00   0
  -1   7  -8  752.94   17.80   0
   0   3  12 2057.71   25.26   0
   0   5  -2  380.37   12.70   0
  -2   7  18  198.58   13.00   0
  -2   8 -22  114.98   11.07   0
  -1   3  23    6.28    6.12   0
  -1   7 -11    5.47   10.09   0
   0   5 -17   -1.08    8.01   0
  -3   9   9    6.72   11.65   0
  -1   7 -14  175.34   11.27   0
  -5   9  28  122.70   13.85   0
  -2   6  25  -12.21    9.90   0
  -2   8   8  536.67   15.53   0
  -1   6  14  468.61   14.08   0
  -1   7 -17    8.35    9.82   0
  -1   7   1    1.57    8.90   0
   0   4  11    6.69    7.09   0
   0   5   4 1235.48   20.28   0
  -3   5  34  486.28   16.14   0
  -2   4  30  203.84   11.42   0
   0   5 -20  752.72   17.71   0
  -4   9  23    2.77   11.96   0
  -3   9  12  228.83   13.22   0
  -2   5  29   -3.16    8.90   0
  -2   8  11    6.96   11.46   0
  -1   7 -20  297.45   14.09   0
  -1   7   4  300.01   12.55   0
  -4   7  34  201.67   13.61   0
  -4   8  30  123.82   12.13   0
  -3   7  29   -5.74   11.19   0
   0   3  15   -1.63    6.39   0
   0   5   7   -8.80    9.32   0
  -3   6  33    6.37    9.70   0
  -1   6  17   -2.10    8.89   0
  -1   7   7   23.68    9.12   0
  -3   9  15    5.50   11.54   0
  -2   8  14  121.41   13.11   0
  -1   4  25    6.85    7.95   0
   0   4  14  342.20   12.02   0
  -3   8  25   -0.71   11.29   0
  -2   3  31    4.58    7.69   0
  -1   7  10  255.41   13.71   0
   0   5  10  769.93   16.70   0
  -2   6  28  480.45   14.61   0
   0   6  -9   -1.59    9.46   0
   0   6  -6  270.95   12.73   0
  -4   9  26  193.29   13.92   0
  -1   3  26  571.84   15.54   0
  -1   5  24  739.94   17.06   0
  -1   6  20  579.51   16.26   0
   0   6 -12  503.43   14.97   0
  -3   9  18  218.22   13.05   0
  -2   8  17    7.98   11.19   0
  -2   9 -11    2.04   10.06   0
  -2   9  -8  268.18   14.02   0
  -2   9  -5  -10.41   11.52   0
  -1   7  13  -12.30   10.83   0
   0   6   0  981.85   18.43   0
  -4   8  33   -2.04   11.45   0
  -3   7  32  368.19   14.93   0
  -2   5  32  785.27   18.09   0
  -2   9 -14  155.14   12.76   0
  -2   9   1  -17.06   11.10   0
   0   4  17   -1.36    7.32   0
   0   5  13   -2.84    7.93   0
   0   6 -15   -4.06    9.19   0
   0   6   3   -5.56    9.97   0
   1   3  -8 2837.81   30.92   0
  -2   9   4  246.78   13.80   0
   1   3 -11   44.78    8.17   0
   1   3  -2  888.01   17.33   0
  -3   8  28  213.84   14.46   0
  -2   9 -17   -3.39    9.39   0
  -1   8  -9    2.43   10.97   0
  -1   8  -6  229.97   13.43   0
  -1   8  -3   -0.42   11.27   0
   0   6 -18  416.39   14.42   0
   0   6   6  447.04   14.98   0
   1   2  -1   53.40    8.10   0
   1   3   1   40.10    8.25   0
  -4   9  29    2.30   11.22   0
  -2   7  27    6.33   11.47   0
  -2   8  20  238.08   13.77   0
  -2   9   7    3.54   10.88   0
  -1   8 -12  212.84   13.16   0
   1   3 -14  719.83   17.30   0
  -2   6  31    2.47    8.66   0
  -1   4  28  744.97   16.32   0
  -1   8   3  -15.73   11.36   0
   0   5  16  796.07   16.39   0
   0   6   9    5.61   10.25   0
  -2   9  10  206.14   13.68   0
  -1   5  27    2.49    8.05   0
  -1   8 -15   -2.30   10.10   0
   0   4  20 1428.95   21.32   0
   0   6 -21    1.06    8.53   0
   1   2   2  690.76   16.22   0
   1   3   4 1319.42   20.23   0
   1   4  -9    1.55    7.93   0
   1   4  -6  931.85   17.59   0
  -1   8   6  125.80   12.38   0
   1   4 -12 1014.52   19.33   0
   1   4   0 1506.21   21.32   0
  -3   9  24  221.09   13.43   0
  -1   7  19   13.10    9.66   0
  -1   8 -18  147.83   11.60   0
   0   2  19    1.49    5.50   0
   0   6  12  420.30   14.49   0
   1   3 -17    0.57    6.41   0
   1   4   3   -7.18    8.43   0
  -3   7  35    0.96   10.67   0
  -3   8  31    1.84   11.32   0
  -2   9  13    8.16   10.84   0
  -1   8   9   12.48   10.92   0
   0   5  19    0.91    9.50   0
   1   2   5   13.34    6.53   0
   1   3   7   17.25    7.05   0
  -2   7  30  198.98   13.64   0
  -1   3  29    6.08    7.34   0
  -1   6  26  252.96   13.26   0
   0   7  -4  221.19   13.48   0
   1   4 -15   23.62    8.05   0
   1   4   6  371.42   13.33   0
  -2   5  35    6.46    8.97   0
   0   6  15   -4.06   10.53   0
   0   7 -10  269.92   13.59   0
   0   7  -7   12.68    9.03   0
  -2   6  34  210.84   12.84   0
  -2   9  16  209.17   13.51   0
  -1   7  22  205.23   13.46   0
   0   7   2  260.54   12.51   0
   1   3  10 1198.28   19.64   0
  -3   9  27   -1.98   10.44   0
  -2   8  26  232.17   13.86   0
  -1   4  31   10.51    8.38   0
  -1   5  30  186.79   10.51   0
   0   7 -13   -5.13   10.20   0
   0   7   5   11.11   10.31   0
   1   2   8 3398.55   32.82   0
   1   4 -18  419.14   14.02   0
   1   4   9   18.82    9.16   0
   1   5  -7   -5.77    9.12   0
   1   5  -4  817.68   16.81   0
  -1   8  15   -1.14   11.24   0
   0   5  22  285.60   12.52   0
   1   3 -20  843.87   19.91   0
   1   5 -10  538.09   15.29   0
   1   5   2  381.80   13.81   0
  -3   8  34  174.39   13.63   0
  -2   9  19   -7.45   11.61   0
   0   3  24 1649.15   23.29   0
   0   6  18  308.70   13.88   0
   0   7 -16  569.37   16.34   0
   0   7   8  664.02   17.70   0
   1   5 -13   10.91    8.80   0
  -1   6  29   -0.68   10.44   0
   1   3  13   15.53    8.16   0
   1   4  12 1226.17   19.78   0
   1   5   5    2.79    8.07   0
  -2   7  33    5.97   10.95   0
  -1   8  18  237.72   14.31   0
   0   7  11   -3.20   10.97   0
   1   2  11   25.44    7.92   0
  -2   8  29   -7.87   11.31   0
  -1   9  -4  224.56   13.44   0
  -1   9  -1    4.47   11.24   0
   1   5 -16  690.09   17.18   0
  -2   9  22   72.23   11.58   0
  -1   9 -10  113.67   12.72   0
  -1   9  -7   -1.66   10.66   0
   0   4  26  842.97   16.93   0
   0   6  21   -3.48   10.43   0
  -2   6  37    1.57   10.07   0
  -1   5  33    8.32    9.11   0
  -1   9   5   -5.40   10.72   0
   0   7  14  170.13   11.51   0
   1   4  15   -2.41    7.81   0
   1   5  11   10.67    9.77   0
  -1   3  32 1247.23   22.24   0
  -1   8  21    2.96   10.88   0
   1   3  16 2201.15   25.14   0
   1   5 -19   -0.59    9.03   0
  -1   6  32  457.90   15.24   0
  -1   7  28  207.21   12.04   0
  -1   9   8  170.36   13.54   0
   1   2  14 1736.64   23.84   0
   1   6  -8  771.31   17.87   0
   1   6  -5    6.79    8.52   0
   1   6  -2  393.71   13.50   0
  -3   8  37   -4.11   11.06   0
   0   3  27   -2.70    7.51   0
   0   7  17   12.91    9.39   0
   0   8  -5   -1.35   11.24   0
   0   8  -2  106.25   12.18   0
   1   5  14  445.57   13.51   0
   1   6   4  295.57   13.89   0
  -2   7  36  194.92   13.08   0
  -2   8  32  236.13   13.64   0
  -1   9  11  -10.02   11.53   0
   0   6  24  669.80   16.41   0
   0   8  -8  298.63   13.55   0
   0   8   1    0.85   11.08   0
   1   4  18  799.20   16.28   0
   1   6 -11    1.31    8.50   0
   1   6   7   11.15   10.84   0
  -1   8  24  252.15   13.97   0
   0   4  29   -1.06    8.64   0
   0   5  28  687.70   16.59   0
   0   8 -11   -2.73   10.49   0
   0   2  25    4.81    6.56   0
   0   7  20  197.70   13.37   0
   0   8   7  -22.60   10.63   0
   1   3  19   12.54    7.43   0
   1   5  17   -0.76    9.63   0
  -1   7  31    4.47   10.96   0
   0   8 -14  151.57   12.20   0
  -1   5  36  560.36   16.20   0
   0   8  10  194.64   12.60   0
   1   2  17   10.46    6.64   0
   1   4  21    7.54    9.24   0
   1   6 -17   -0.83   10.16   0
  -1   6  35   -1.00    9.81   0
   1   6  13   10.21    9.24   0
  -2   8  35   -4.27   10.46   0
   0   7  23   -2.93   11.00   0
   0   8  13  -12.52   11.82   0
   1   5  20  585.46   15.89   0
  -2   7  39    7.84   11.79   0
   0   3  30  612.56   15.78   0
   0   5  31   -2.12    9.68   0
   1   6  16  731.45   17.73   0
   2   3  -4  747.13   16.51   0
   2   3   2  878.30   17.40   0
  -1   4  37    2.39    8.31   0
   0   8  16  221.61   13.32   0
   1   7  -6  222.69   13.33   0
   1   7  -3   -5.16   10.95   0
   1   7   0  476.84   16.09   0
   2   3  -7   10.89    7.69   0
   2   4  -5    4.06    8.36   0
  -1   3  35   -0.23    7.02   0
  -1   7  34  203.20   13.09   0
   0   4  32  531.25   15.32   0
   1   4  24  707.66   16.35   0
   1   7  -9    4.11   10.39   0
   1   7   6  141.86   12.19   0
   2   3   5   13.94    7.52   0
   2   4  -8  972.87   18.70   0
   2   4   4  954.01   17.56   0
  -1   8  30   65.60   12.12   0
   0   6  30  193.95   11.38   0
   0   7  26  246.14   13.67   0
   1   5  23    1.32    9.75   0
   1   6  19    9.67   11.60   0
   2   3 -10  783.80   17.32   0
   2   3   8 2273.69   25.81   0
   2   4   7   -2.44    8.55   0
   0   8  19   -3.13   11.19   0
   1   7 -12  207.82   12.74   0
   1   7   9    0.30   10.33   0
   2   4 -11    4.13    8.28   0
  -1   6  38  159.95   12.38   0
   0   2  28 1173.75   21.58   0
   1   7  12  248.79   14.01   0
   2   2   0 4256.99   35.87   0
   2   2   3    5.32    7.41   0
   2   4  10  397.92   13.86   0
   2   5  -3   -5.89    9.83   0
  -1   5  39   -1.14    9.60   0
   2   2  -6  856.85   17.93   0
   2   3 -13    0.06    7.24   0
   2   3  11    2.18    7.44   0
   2   5  -6  183.29   11.74   0
   0   5  34  329.11   13.78   0
   0   8  22   91.31   12.51   0
   1   6  22  162.00   12.87   0
   2   2   6  842.23   16.58   0
   2   4 -14  331.76   13.09   0
   2   4  13    8.49    9.46   0
   2   5   6  499.46   14.23   0
  -1   7  37   14.40   11.18   0
   0   6  33   -0.40   10.96   0
   1   5  26  253.77   11.73   0
   1   7  15   -0.41   10.20   0
   2   2  -9    0.91    6.65   0
   2   5  -9    0.02    8.30   0
   2   5   9    3.46    9.73   0
  -1   8  33    8.44   11.37   0
   0   3  33    4.38    8.15   0
   0   4  35    5.36    8.89   0
   2   3  14  408.60   12.56   0
   1   2  23    6.24    6.37   0
   1   7  18  273.18   14.51   0
   2   4  16  838.84   17.32   0
   2   5 -12  531.39   15.77   0
   2   5  12  437.67   15.20   0
   0   8  25  -12.16   10.64   0
   1   6  25   12.71   11.17   0
   2   3 -16 1851.97   26.49   0
   2   4 -17    2.40    8.92   0
   1   3  28  785.20   17.06   0
   1   8  -1    0.72   11.08   0
   1   8   2  120.99   12.53   0
   2   2 -12  799.46   18.21   0
   2   2  12  834.34   16.54   0
   2   3  17    7.11    7.42   0
   2   5  15   -0.06    9.91   0
   2   6  -1    4.15   10.51   0
   2   6   2  266.57   14.15   0
  -1   6  41   -0.64   10.31   0
   0   7  32  292.31   14.38   0
   1   4  30  204.21   11.48   0
   1   7  21   -9.14   11.39   0
   1   8  -4  221.58   12.57   0
   1   8   5   10.93   10.39   0
   2   4  19   -1.80    9.66   0
   2   5 -15    7.63    8.83   0
   2   6  -4  273.68   13.92   0
   0   5  37   -2.73   10.02   0
   0   6  36  173.67   12.98   0
   1   8  -7   -5.77    9.58   0
   2   6  -7    0.82   10.13   0
   2   6   8  530.24   16.64   0
  -1   7  40  270.97   15.14   0
   1   8  11    1.99   11.33   0
   2   2  15   -1.55    7.95   0
   2   5  18  197.43   12.95   0
   2   6  11    6.24   11.34   0
   0   2  31    2.57    7.04   0
   1   2  26  528.39   14.55   0
   2   3  20  658.35   15.00   0
   2   6 -10  221.27   13.03   0
   1   7  24  274.91   14.15   0
   2   3 -19   10.38    7.44   0
   2   4  22  398.21   13.83   0
   2   6  14  128.41   12.28   0
   0   4  38  154.72   11.28   0
   0   7  35   -2.87   10.52   0
   1   5  32  438.20   15.32   0
   2   2 -15   -3.50    6.61   0
   2   5  21    3.00   10.08   0
   2   6 -13   -2.46    9.84   0
   1   3  31   10.42    7.25   0
   1   4  33    3.88    9.57   0
   2   2  18 1187.44   19.57   0
   2   1   1   58.62    7.56   0
   2   1   4 3080.85   32.10   0
   2   3  23   12.46    7.83   0
   2   6  17  -12.23   10.20   0
   0   5  40  237.73   13.30   0
   0   6  39    5.90    9.97   0
   1   7  27    0.26   10.24   0
   2   1   7    2.34    7.31   0
   2   4  25  -11.69    9.49   0
   2   7   1   -6.88   10.13   0
   2   7   4  232.05   13.43   0
   2   5  24  536.00   14.87   0
   2   6  20  223.58   13.54   0
   2   7  -2   88.28   12.12   0
   1   1  21   19.82    7.10   0
   2   2  21   -5.15    8.10   0
   2   7  -5   -1.68   10.57   0
   2   7  10  213.56   13.28   0
   3   3   3    6.86    8.91   0
   3   4  -1   15.08    9.40   0
   3   4   5   17.38    9.77   0
   0   7  38   31.33   11.15   0
   1   2  29   10.68    7.53   0
   1   5  35   -1.46    8.94   0
   2   1  10 2118.27   25.99   0
   2   7  -8  258.79   12.99   0
   3   3  -3    5.89    8.11   0
   3   3   6  494.64   13.68   0
   3   4  -4  734.10   17.14   0
   3   4   8  619.50   15.95   0
   1   6  34  215.12   13.16   0
   2   6  23    1.53   10.98   0
   2   7  13   -3.89   10.21   0
   3   3   9    7.83    7.99   0
   0   4  41    0.39    9.77   0
   1   3  34  569.18   15.59   0
   2   5  27   -0.57    9.37   0
   2   7  16  227.14   14.02   0
   3   3  -6  479.85   13.66   0
   3   4  -7    3.23    9.14   0
   3   4  11    5.53    8.85   0
   0   2  34  276.41   12.46   0
   2   1  13   27.02    7.11   0
   3   3  12  806.57   16.52   0
   3   4  14  423.72   14.82   0
   3   5  -2  250.51   13.35   0
   3   5   1    0.84    8.57   0
   3   5   7    0.62   10.09   0
   0   3  39   -5.95    8.78   0
   0   6  42  176.21   13.12   0
   3   2   1    9.19    7.90   0
   3   2   4  763.78   16.33   0
   3   3  -9    2.84    8.29   0
   3   4 -10  438.80   14.60   0
   3   5  -5    0.01   10.20   0
   3   5  10  251.16   13.26   0
   0   5  43   -5.29   11.07   0
   1   7  33   -1.44   11.53   0
   2   7  19    9.85   11.53   0
   3   2   7   13.90    7.45   0
   3   3  15   -0.81    8.13   0
   1   5  38  171.96   12.67   0
   2   1  16 2173.70   26.24   0
   2   3  29    9.30    7.83   0
   2   4  31    7.37    9.93   0
   3   2  10  770.05   16.68   0
   3   4  17   13.56    8.87   0
   3   5  -8  559.84   16.28   0
   3   5  13    2.39    9.43   0
   1   1  24 1780.66   25.47   0
   1   2  32 1265.26   21.24   0
   1   6  37    0.43   10.02   0
   2   7  22   60.35   12.60   0
   3   2  -5   10.34    6.76   0
   3   3 -12  821.22   18.58   0
   3   3  18  463.08   14.38   0
   3   5  16  498.34   16.11   0
   3   2  13   -3.18    7.49   0
   3   4 -13   10.63    9.00   0
   3   4  20  532.03   15.31   0
   1   3  37   -7.38    8.50   0
   1   4  39    5.15    9.66   0
   2   2  27   -4.41    8.13   0
   2   6  29    4.90   10.16   0
   3   5 -11    4.95    9.68   0
   3   6   0  389.68   14.72   0
   3   6   3  -10.23   11.01   0
   3   6   6   98.50   11.86   0
   2   1  19   -6.32    7.36   0
   3   2  -8 2268.70   26.91   0
   3   2  16 1991.08   24.32   0
   3   3  21    9.42    9.47   0
   3   5  19   -1.23    9.44   0
   3   6  -3   -0.54   10.10   0
   2   3  32  765.37   17.53   0
   2   5  33    3.91    9.98   0
   3   4  23   -2.17    9.78   0
   3   6  -6  213.55   13.11   0
   3   6  12  223.52   13.03   0
   1   5  41    2.09   10.78   0
   2   4  34  204.81   11.45   0
   3   3 -15    2.06    7.89   0
   3   5  22  143.94   13.07   0
   3   6  15    1.42   10.89   0
   1   6  40  246.21   13.90   0
   3   2 -11    3.15    7.48   0
   3   2  19    9.84    8.60   0
   3   3  24  698.45   15.91   0
   3   6  -9   -1.53   10.24   0
   3   6  18  251.40   13.57   0
   1   1  27   -0.34    6.75   0
   2   2  30  221.71   11.03   0
   3   4  26  186.54   11.48   0
   3   5  25   -2.65   11.47   0
   1   2  35    1.85    7.74   0
   1   4  42  259.36   14.04   0
   2   5  36  185.92   13.15   0
   3   1   2  907.43   17.88   0
   3   1   5    0.89    6.87   0
   3   6  21   13.41   11.49   0
   1   3  40  505.89   15.44   0
   2   3  35   -0.42    9.33   0
   2   4  37   -1.84   10.56   0
   3   1   8 2892.36   28.83   0
   3   2  22  327.55   11.89   0
   3   3  27    2.10    9.96   0
   2   6  35    7.54   10.08   0
   3   1  11   44.62    7.64   0
   3   4  29    2.87   11.19   0
   1   6  43   -0.41   10.64   0
   3   2 -14  403.20   13.85   0
   3   5  28  204.69   13.26   0
   3   6  24  211.86   12.92   0
   4   3   7   10.17    9.49   0
   4   4   3   12.18   10.36   0
   1   5  44  173.10   12.61   0
   2   1  25    8.70    7.52   0
   3   1  -4 1311.67   20.90   0
   3   2  25  -11.04    9.11   0
   4   3   1    5.65    8.21   0
   4   3  10  450.45   13.70   0
   4   4   0  566.72   16.51   0
   4   4   9  -15.93    8.98   0
   2   2  33    1.93    8.44   0
   2   5  39   -8.12   10.73   0
   4   3  -2  301.26   11.97   0
   4   3  13    9.99   10.29   0
   4   4  -3   -1.89    9.71   0
   4   4  12  320.50   13.01   0
   3   1  17    1.00    8.05   0
   3   6  27    1.44   11.50   0
   4   4  15    8.00   11.44   0
   4   5   5    8.38   11.08   0
   1   1  30  642.77   16.48   0
   2   3  38  118.55   10.95   0
   3   1  -7   23.70    7.29   0
   3   5  31   -9.69   11.14   0
   4   2   5   -5.43    9.08   0
   4   2   8  951.55   18.08   0
   4   3  -5   23.86    7.99   0
   4   3  16  472.91   14.17   0
   4   4  -6  231.68   12.59   0
   4   5   2  207.66   13.24   0
   4   5  11    1.25   10.51   0
   1   2  38  367.16   14.10   0
   4   2  11    4.12    9.44   0
   4   4  18  255.48   12.31   0
   4   5  -1    4.68   10.74   0
   4   5  14  110.54   12.56   0
   3   1  20  963.65   17.83   0
   4   2  -1    2.97    7.42   0
   4   2  14  322.11   12.83   0
   4   3  -8  614.89   16.01   0
   4   3  19    4.63    8.97   0
   4   5  -4  164.82   12.37   0
  -6   9   6  204.72   14.24   0
  -4   9 -10  172.34   13.01   0
  -3   7   5   13.26   10.44   0
  -1   5   0 1486.68   21.35   0
   0   4  -7   -0.51    7.00   0
  -2   6   4  926.63   17.63   0
  -2   7  -6  197.75   11.49   0
  -1   6 -10  543.62   14.53   0
  -3   5  16 1950.27   26.19   0
  -3   6  12  833.77   17.59   0
  -3   8  -5   -5.36    9.62   0
   0   3   0 2698.61   29.42   0
   0   5 -29   -1.92    8.77   0
   0   5 -26  256.21   12.47   0
   0   5 -23   -7.09    8.97   0
   0   5 -20  748.46   17.30   0
  -5   8  11    1.21   11.15   0
  -4   6  17   -0.55    9.11   0
  -4   9  -7    7.36   11.68   0
  -1   4   7   20.70    7.87   0
  -4   7  13   12.59   10.36   0
  -2   7  -3   -0.39   10.43   0
  -1   6  -7   -5.37    8.30   0
   0   4  -4 1660.95   23.01   0
   0   5 -17    3.26    7.28   0
  -6   9   9   -4.22   11.61   0
  -5   9   4  160.14   13.08   0
  -1   5   3    9.32    8.46   0
   1   3 -26  669.51   17.78   0
   1   3 -23   16.58    8.41   0
  -4   9  -4  164.22   12.06   0
   0   5 -14  649.91   15.32   0
   1   3 -20  960.61   19.53   0
  -2   6   7   -1.05    8.25   0
  -1   6  -4  816.64   17.50   0
  -4   5  21    7.13    8.91   0
  -2   4  15    1.91    6.29   0
  -2   7   0  731.11   17.61   0
  -2   8 -28  201.48   12.88   0
  -2   8 -25   10.36   10.84   0
  -2   8 -22  128.29   12.21   0
   1   3 -17    0.63    7.48   0
  -5  10  -6  111.90   12.90   0
  -4   8   9    1.82   10.85   0
  -4   9  -1    9.01   11.01   0
  -3   8   1   -0.00   11.20   0
  -3   9 -27    4.42   10.05   0
  -3   9 -24  265.67   13.56   0
  -2   8 -31    4.08   10.96   0
  -2   8 -19   -4.30   10.10   0
  -5   8  14  164.96   13.45   0
  -5   9   7   -3.90   11.03   0
  -3   6  15   12.21    9.20   0
  -1   7 -26  307.27   14.41   0
  -1   7 -23   10.26   10.69   0
   0   3   3   -3.50    7.59   0
   0   4  -1    2.32    7.04   0
  -3   9 -15   14.48   10.78   0
  -2   8 -34  133.25   11.25   0
  -2   8 -13   -6.62   10.83   0
  -1   6  -1    5.06    9.82   0
  -1   7 -29    1.90   10.13   0
  -1   7 -20  303.61   14.02   0
   0   5  -8 1029.41   19.04   0
   1   3 -14  726.34   16.89   0
  -5  10  -3   -5.31   11.70   0
  -4   7  16  490.82   16.15   0
  -1   4  10 1180.46   20.07   0
  -1   5   6  413.65   13.02   0
  -1   7 -32  309.52   14.85   0
  -1   7 -17   19.87    8.87   0
  -4   6  20  734.91   18.13   0
  -4   9   2  207.60   13.63   0
  -3   5  19   12.75    8.39   0
  -3   8   4  317.30   14.80   0
  -3   9 -12  176.03   12.53   0
  -2   6  10  416.80   14.46   0
  -2   7   3   19.39    9.03   0
  -2   8 -10  213.82   13.43   0
   1   3 -11   38.40    7.79   0
  -5   9  10  164.32   13.86   0
  -4   8  12  314.83   15.11   0
  -3   9  -9  -12.28   10.65   0
  -1   7 -11   15.83    9.89   0
   0   5  -5   -2.13    7.73   0
  -2   8  -7   -3.06    9.54   0
  -1   6   2  370.93   13.14   0
   0   4   2 1447.86   21.13   0
  -5   8  17    0.01   10.87   0
  -3   9  -6  201.19   13.64   0
  -1   7  -8  763.31   17.92   0
   0   6 -24  520.24   15.83   0
   0   6 -21   -2.62    9.59   0
  -3   8   7    5.25   10.99   0
  -2   7   6  514.22   14.81   0
  -1   5   9   19.77    9.40   0
   0   6 -27    1.35    9.71   0
   0   6 -18  416.69   14.83   0
   1   4 -27    2.21    8.77   0
   1   4 -24 1030.99   20.24   0
   1   4 -21    0.19    8.21   0
  -6   9  15   10.40   11.04   0
  -3   6  18  460.17   15.50   0
  -3   7  14  422.07   14.98   0
   0   3   6 2030.07   25.82   0
   0   5  -2  405.65   13.67   0
   0   6 -30  119.10   10.94   0
   0   6 -15   11.33    9.35   0
  -5  10   3   -5.25   11.75   0
  -4   7  19    4.05   10.13   0
  -3   9  -3   10.94   11.85   0
  -2   4  18 1125.86   20.62   0
  -1   7  -5    2.08   10.47   0
   1   4 -15   18.66    8.51   0
  -5   9  13    0.18   12.01   0
  -1   6   5    0.04    8.57   0
   0   6 -12  479.46   15.15   0
  -4   8  15   -0.70   11.17   0
  -4   9   8  448.08   16.00   0
  -2   5  17   -2.45    8.61   0
  -2   8  -1    6.20    9.51   0
  -1   4  13   15.49    6.98   0
  -3   9   0  396.38   15.38   0
  -2   7   9    1.80   10.56   0
  -1   7  -2  404.00   15.07   0
   0   4   5    0.14    7.25   0
   1   4 -12 1038.93   18.64   0
  -5  10   6  110.18   12.18   0
  -4   6  23    5.05    9.73   0
  -4  10  -2  127.65   11.96   0
   0   5   1    2.58    7.96   0
  -3   5  22  317.94   13.31   0
  -2   8   2  283.61   14.24   0
   1   4  -9    5.59    8.12   0
  -5   8  20  251.55   14.34   0
  -3   7  17    8.12   10.93   0
  -2   9 -20  151.98   13.00   0
  -2   9 -17   10.17   10.65   0
  -1   5  12 1202.37   19.74   0
  -1   6   8  926.93   18.86   0
   0   6  -6  247.53   12.98   0
  -4   9  11   -1.68   10.93   0
  -3   9   3    4.68   11.81   0
  -1   7   1    0.29   10.21   0
  -1   8 -24  332.23   14.20   0
  -1   8 -21  -10.23   10.33   0
  -1   8 -18  146.59   12.77   0
  -5   9  16  396.44   15.62   0
  -3   4  23   23.88    8.13   0
  -3   6  21    6.08    9.41   0
  -1   8 -27    0.04    9.77   0
  -1   8 -15    7.21   10.85   0
  -4   7  22  203.41   13.07   0
  -4   8  18  246.19   13.76   0
  -3   8  13   -4.05   11.13   0
  -2   7  12  443.77   14.44   0
  -2   8   5   10.55   11.92   0
  -2   9 -11   -7.51   10.22   0
   0   3   9    0.71    6.53   0
   0   4   8 1680.01   22.99   0
   0   5   4 1220.75   19.60   0
   0   6  -3   -8.56    9.54   0
   1   3  -2  868.57   17.10   0
  -2   9  -8  312.02   14.58   0
   1   2  -1   48.54    7.21   0
   1   5 -25   15.09    8.81   0
   1   5 -22  260.97   12.87   0
   1   5 -19    1.67    8.94   0
  -3   9   6   96.30   12.91   0
  -1   7   4  323.26   13.99   0
  -1   8  -9   -6.57   10.93   0
  -2   5  20  642.95   16.42   0
  -1   6  11    6.33    9.69   0
   0   7 -22  125.21   11.86   0
   0   7 -19    0.45   10.65   0
   1   5 -13   16.73    9.01   0
  -4   9  14  106.47   12.28   0
  -2   4  21   -1.58    7.45   0
  -2   9  -5   -4.01   10.49   0
  -1   5  15    5.59    8.46   0
  -1   8  -6  233.66   14.12   0
   0   6   0  950.72   18.20   0
   0   7 -25    5.40   10.63   0
   0   7 -16  568.72   16.89   0
   1   4  -3   37.29    7.82   0
  -3   7  20  516.17   16.40   0
   0   5   7   -0.06    9.45   0
   0   7 -13    2.02   10.56   0
   1   5 -10  545.25   15.44   0
  -5   9  19   -0.19   11.42   0
  -3   8  16  496.98   16.91   0
  -2   6  19   -4.02    9.59   0
  -2   9  -2  113.47   12.76   0
  -1   3  17    9.89    7.41   0
   1   3   1   32.95    7.20   0
  -1   7   7    6.93    9.52   0
  -1   8  -3    5.56   11.80   0
  -4   8  21   -3.19   11.31   0
   0   4  11   -0.69    7.23   0
   1   4   0 1483.44   21.66   0
  -3   6  24  690.17   17.72   0
  -2   9   1    7.99   11.15   0
  -1   6  14  443.08   15.00   0
   0   3  12 2039.20   25.32   0
   1   2   2  689.91   16.21   0
  -4   7  25   18.65    9.94   0
  -4   9  17    1.27   10.92   0
  -2   8  11    8.74    9.65   0
  -1   8   0  467.46   16.52   0
  -1   7  10  260.22   13.90   0
   0   5  10  745.27   16.09   0
   0   7  -4  225.81   13.53   0
  -1   4  19   13.85    8.18   0
   1   3   4 1336.40   20.40   0
  -3   7  23   -3.09   10.38   0
  -3   8  19    1.80   11.54   0
  -2   5  23   13.13    8.66   0
  -2   7  18  205.44   11.88   0
  -2   9   4  231.22   14.15   0
   1   4   3    3.42    7.38   0
   1   6 -23    2.09    9.92   0
   1   6 -20  318.46   13.87   0
   1   6 -17    7.50    9.83   0
  -2   3  22  472.73   15.70   0
   0   7  -1   -0.98    9.30   0
   1   5  -1   15.49    8.29   0
   1   6 -14  167.84   12.33   0
  -2   6  22  405.77   14.85   0
   0   4  14  341.81   12.81   0
   1   6 -11    5.48   10.20   0
   2   2 -21    0.53    7.36   0
   2   2 -18 1082.29   22.27   0
   2   3 -22  312.96   13.35   0
   2   3 -19    9.95    7.98   0
   2   3 -16 1938.72   26.88   0
  -4   8  24  398.55   15.79   0
   2   2 -15   -1.50    6.77   0
  -4   9  20  148.27   12.90   0
  -3   9  15   16.88   10.76   0
  -2   4  24 1952.31   27.07   0
  -2   9   7    5.30   10.44   0
  -1   7  13   -7.82    9.49   0
   0   5  13   10.68    9.57   0
   0   6   9   12.88    8.93   0
   0   7   2  271.86   14.00   0
   1   2   5    3.26    7.50   0
   1   6  -8  721.48   16.88   0
   2   3 -13   -3.18    7.63   0
  -1   9  -7   -1.21   11.81   0
   0   8 -20  181.46   13.01   0
   0   8 -17   17.59   11.23   0
   1   4   6  403.11   13.51   0
   1   5   2  362.36   12.87   0
   0   3  15   -0.92    6.43   0
   0   8 -23   -1.45    9.41   0
   0   8 -14  156.36   12.81   0
   1   3   7   22.35    7.29   0
   2   3 -10  784.27   17.24   0
  -3   6  27   -3.34    9.80   0
  -3   8  22  154.58   12.73   0
  -2   7  21   -0.98    9.12   0
  -1   9  -4  226.10   13.74   0
   0   8 -11    6.25   11.40   0
   2   4 -20  717.91   17.47   0
   2   4 -17   -1.38    8.10   0
  -2   8  17    1.23   10.24   0
  -2   9  10  196.78   13.95   0
  -1   5  21    8.92    7.80   0
  -1   8   9   -3.51   11.32   0
   0   7   5    5.03    9.54   0
   0   8  -8  302.14   14.12   0
   2   2  -9    2.22    7.11   0
   2   3  -7   21.60    8.00   0
   2   4 -14  334.63   13.15   0
  -3   7  26  195.59   13.05   0
  -3   9  18  234.37   14.68   0
  -1   7  16  730.41   17.96   0
   1   5   5   -8.49    8.33   0
   1   6  -2  393.92   13.63   0
   2   4 -11   15.15    8.75   0
  -1   4  22  391.66   13.30   0
  -1   9  -1    8.84   11.39   0
   0   4  17   -5.81    8.43   0
  -4   9  23   -1.40   10.46   0
  -2   5  26  689.17   17.18   0
  -2   6  25    1.02    8.59   0
   0   5  16  765.65   16.40   0
   1   4   9   28.67    7.99   0
   2   4  -8  943.03   18.52   0
  -2   9  13   -2.07   11.29   0
  -1   8  12  260.76   14.85   0
   0   7   8  730.69   17.07   0
   0   8  -2  120.93   12.49   0
   1   3  10 1213.85   20.06   0
   1   6   1    3.11    9.30   0
   2   2  -6  820.16   17.36   0
  -1   9   2  113.37   11.94   0
   1   2   8 3364.80   32.92   0
   1   5   8  940.57   18.32   0
   1   7 -21   -5.68    9.76   0
   1   7 -18  149.38   12.73   0
   1   7 -15   -4.77   11.30   0
   1   7 -12  209.37   13.46   0
   2   4  -5   -1.71    8.70   0
  -2   7  24  545.04   16.87   0
  -2   8  20  231.40   13.98   0
   0   6  15    5.56   10.65   0
   1   7  -9  -11.08   11.14   0
  -3   8  25    6.69   11.32   0
   0   8   1    2.46   11.60   0
   1   6   4  303.09   14.30   0
   2   5 -21   -0.37   10.02   0
   2   5 -18  450.33   15.12   0
   2   5 -12  582.60   16.25   0
  -3   9  21   -1.96   11.76   0
  -1   5  24  736.04   17.40   0
  -1   9   5    5.70   10.33   0
   0   7  11  -19.56   11.77   0
   1   7  -6  241.45   13.67   0
  -1   6  23    2.63   10.49   0
  -1   8  15    9.53   11.24   0
   0   5  19   -7.56    9.42   0
   1   4  12 1190.77   19.27   0
   2   5  -9    4.32    8.16   0
  -2   4  27    2.41    7.71   0
   0   8   4  290.57   14.75   0
   1   5  11   20.32    9.53   0
   2   5  -6  204.93   12.26   0
  -3   7  29    3.61   10.48   0
  -1   9   8  181.36   13.00   0
   1   6   7   12.83    9.51   0
   2   4   1    3.61    9.06   0
  -2   3  25    9.33    7.50   0
  -2   6  28  501.72   15.81   0
  -2   8  23   -5.86   11.22   0
  -1   3  23    4.92    7.14   0
  -1   4  25   -0.61    8.11   0
   0   6  18  315.10   13.86   0
   1   3  13   13.79    7.20   0
   1   7   0  444.32   15.91   0
   2   2   0 4194.58   36.41   0
   2   3   2  858.49   16.75   0
  -1   7  22  176.91   13.96   0
   0   7  14  160.73   12.30   0
   0   8   7   10.19   11.22   0
   1   2  11   31.00    7.96   0
   2   5  -3   -4.75    8.39   0
  -3   9  24  203.52   14.14   0
  -2   5  29   -2.53    8.42   0
  -2   7  27    4.89   11.11   0
  -3   8  28  200.86   14.02   0
  -2   9  19   -3.82   12.17   0
  -1   9  11   -3.74   11.11   0
   1   4  15    3.53    7.88   0
   1   6  10  261.61   12.60   0
   1   7   3  -11.74   11.28   0
   2   4   4  954.58   18.55   0
   2   3   5    6.16    7.48   0
   2   6 -19    0.88   11.42   0
   2   6 -16  448.42   15.25   0
   2   6 -13   -4.22    9.96   0
  -1   5  27    4.29    9.34   0
  -1   6  26  266.41   13.66   0
   0   8  10  177.00   14.35   0
   2   6 -10  224.34   13.55   0
   0   3  21    4.70    6.45   0
   0   6  21   -2.59    9.89   0
   1   7   6  135.85   12.80   0
   2   2   3    3.27    6.49   0
   2   5   3    8.75    9.60   0
   2   6  -7   -9.21   10.86   0
  -2   8  26  239.13   14.05   0
   1   3  16 2208.36   25.44   0
   1   6  13   -3.18   10.53   0
   1   8 -10  113.68   11.51   0
   2   4   7    6.93    8.86   0
   2   6  -4  266.50   14.25   0
  -2   9  22   78.34   12.70   0
  -1   7  25   -0.84   11.04   0
   1   8  -7   -0.36   11.34   0
  -2   6  31    0.96   10.91   0
   0   8  13   -1.69   11.75   0
   1   4  18  820.51   17.29   0
   1   5  17    2.25    8.84   0
   1   8  -4  214.35   13.03   0
   2   3   8 2250.32   25.51   0
   2   5   6  495.55   15.46   0
  -3   9  27    9.18   11.20   0
  -2   7  30  213.61   13.77   0
   1   2  14 1652.36   23.23   0
   1   7   9   12.94   10.92   0
  -1   4  28  754.24   17.49   0
   0   2  19   -0.68    6.72   0
   0   7  20  185.34   14.18   0
   2   2   6  842.37   16.85   0
  -2   4  30  207.80   11.60   0
   0   5  25   -3.28    9.78   0
   1   6  16  755.94   17.32   0
   2   4  10  410.37   13.18   0
  -1   3  26  545.10   15.58   0
  -1   6  29    2.15   10.32   0
   0   8  16  238.64   13.99   0
   2   5   9    5.33    9.86   0
   3   3 -15    1.74    8.92   0
   3   3 -12  833.34   18.18   0
  -2   5  32  729.34   18.12   0
  -2   8  29    2.25   11.70   0
  -1   8  24  255.28   14.46   0
   1   3  19    9.49    8.70   0
   2   3  11    1.22    7.55   0
   3   3  -9    9.56    8.45   0
  -1   5  30  196.72   12.21   0
  -1   7  28  172.36   13.21   0
   0   4  26  832.38   17.82   0
   1   5  20  526.68   14.86   0
   2   6   5   -1.45    9.55   0
   2   7 -14  141.84   11.59   0
   2   7 -11    7.11   10.25   0
   3   3  -6  512.71   14.88   0
   3   4 -16  508.10   15.68   0
   3   4 -13   17.97    9.34   0
   3   4 -10  444.72   14.87   0
   1   4  21   21.53    8.24   0
   1   8   5   -8.16   11.41   0
   2   4  13    1.36    9.23   0
   2   7  -8  300.95   14.46   0
   3   4  -7    6.24    9.41   0
   1   6  19   26.11   11.62   0
   2   2   9    3.99    6.79   0
   2   5  12  466.01   15.12   0
   2   7  -5   -4.56   11.55   0
   3   3  -3    7.27    8.17   0
   3   4  -4  743.73   17.53   0
   0   8  19    9.82   11.56   0
   1   7  15   -2.78   10.44   0
   2   7  -2  103.41   12.21   0
   3   2 -14  402.23   13.86   0
   3   2 -11    6.55    7.69   0
  -2   7  33   -1.38   10.24   0
   0   6  27  -11.54   10.61   0
   1   2  17   11.65    6.68   0
   1   8   8  181.08   12.26   0
   2   3  14  418.76   13.70   0
   3   2 -17    3.51    7.76   0
   3   2  -8 2350.89   28.48   0
   3   4  -1   11.74    9.32   0
  -2   6  34  206.37   12.59   0
  -1   8  27    1.75   11.18   0
   2   7   1    5.47   10.73   0
   3   2  -5   13.43    7.71   0
   3   3   0 1158.57   19.31   0
   3   5 -14  181.30   12.57   0
   3   5 -11   -8.65   10.30   0
   3   5  -8  567.45   16.36   0
  -1   6  32  467.55   15.99   0
   1   5  23   11.35    8.95   0
   2   4  16  870.94   17.75   0
   2   6  11   12.23   11.02   0
   3   5  -5   -2.06   10.15   0
  -2   8  32  249.96   14.64   0
  -1   4  31   13.99    8.56   0
  -1   7  31   10.66   11.54   0
   0   7  26  259.81   14.52   0
   1   3  22  402.59   13.56   0
   1   6  22  200.36   13.41   0
   1   7  18  274.15   14.57   0
   1   8  11    8.51   11.04   0
   2   1   4 3058.70   32.45   0
   2   5  15   13.10    9.46   0
   3   5  -2  279.32   13.66   0
   1   4  24  738.72   16.19   0
   2   2  12  822.34   16.48   0
   3   2  -2  887.09   17.38   0
  -1   5  33    4.45    9.45   0
   0   4  29   -6.54    8.91   0
   3   5   1    6.27   10.34   0
   2   3  17    7.52    9.09   0
   2   6  14  147.06   12.81   0
   2   7   7   -7.86   11.47   0
   0   3  27    2.39    6.64   0
   0   6  30  185.70   13.25   0
   2   5  18  221.18   12.83   0
   3   3   6  514.96   14.01   0
  -1   3  29   10.97    7.61   0
  -1   8  30   60.92   11.59   0
   0   5  31    4.23   10.05   0
   1   2  20 1536.03   22.58   0
   1   7  21   -2.35   11.09   0
   2   4  19   -4.20    8.66   0
   3   4   8  617.36   16.36   0
   3   6 -12  162.76   13.33   0
   3   6  -9    5.68   10.99   0
   1   6  25  -10.57   11.62   0
   2   1   7    1.28    6.33   0
   2   7  10  187.36   13.72   0
   3   2   4  754.56   16.62   0
   3   6  -6  217.53   13.53   0
   0   7  29   12.68   12.07   0
   2   2  15   -0.43    6.89   0
   2   6  17   -6.09   11.20   0
   3   3   9    4.05    8.81   0
   3   5   7    7.11   10.59   0
   3   6  -3   22.55   11.66   0
  -1   6  35   -2.41   10.46   0
  -1   7  34  198.75   13.93   0
   3   6   0  383.67   15.01   0
   2   3  20  681.58   16.10   0
   2   5  21    1.40   10.32   0
   2   7  13   -5.44   11.53   0
   3   4  11    2.23    8.82   0
   1   7  24  259.31   14.73   0
   2   4  22  413.29   14.76   0
   3   2   7    8.04    8.51   0
   3   5  10  246.44   13.64   0
   3   6   3  -10.13   10.66   0
   0   4  32  547.22   15.75   0
   2   6  20  234.64   14.38   0
   3   1 -10 1194.81   22.55   0
   3   1  -7   26.43    7.60   0
   3   3  12  835.24   17.54   0
  -1   4  34  575.00   16.23   0
  -1   5  36  566.98   17.36   0
  -1   8  33   -0.16   10.59   0
   0   6  33    2.77   11.45   0
   1   1  15    5.67    5.96   0
   2   1  10 2099.84   26.12   0
   3   1 -13    8.42    7.47   0
   3   1  -4 1345.25   22.35   0
   0   2  25    2.64    7.21   0
   0   7  32  326.19   15.01   0
   2   2  18 1139.10   18.92   0
   2   7  16  227.34   13.20   0
   3   4  14  405.68   13.56   0
   0   3  30  626.53   16.10   0
   0   5  34  315.85   14.09   0
   2   5  24  511.04   16.15   0
   3   1  -1   37.15    7.89   0
   3   2  10  747.68   15.89   0
   3   5  13   -2.80    9.39   0
   1   4  30  196.51   11.61   0
   2   3  23    9.22    8.93   0
   3   3  15    0.57    9.14   0
   3   6   9   -3.18   10.33   0
   1   3  28  755.10   17.11   0
   2   4  25    1.84    8.72   0
   2   6  23    1.82   11.21   0
   4   3  -8  637.32   16.63   0
  -1   6  38  150.93   13.81   0
  -1   7  37   -1.78   11.20   0
   2   7  19    0.96   10.48   0
   3   4  17   16.10    9.33   0
   3   5  16  463.50   16.04   0
   4   3 -11    7.56    8.73   0
   4   3  -5   27.49    9.20   0
   4   4 -12  319.70   14.35   0
   4   4  -9    4.44    9.55   0
   4   4  -6  236.75   13.21   0
   4   4  -3   -0.44    9.92   0
  -1   3  32 1275.15   22.98   0
   1   5  32  455.18   15.68   0
   1   6  31   -5.31   11.21   0
   2   1  13   28.49    7.17   0
   3   2  13    2.07    8.21   0
   4   3  -2  279.86   12.12   0
   4   4   0  606.14   16.59   0
   0   6  36  180.50   13.36   0
   2   2  21   -1.23    8.49   0
   4   3   1    7.29    9.77   0
   0   7  35    5.13   11.66   0
   2   5  27   -2.06    9.42   0
   3   1   5   11.95    7.72   0
   3   3  18  468.51   13.93   0
   4   4   3   -1.90   10.22   0
   0   4  35    4.45    9.33   0
   1   7  30   44.75   12.30   0
   2   7  22   81.69   11.85   0
   3   4  20  509.17   15.97   0
   3   5  19  -11.42   11.09   0
   3   6  15   -0.83   11.56   0
   4   2  -7   -4.34    8.03   0
   4   2  -4  985.09   19.10   0
   4   3   4  739.02   16.25   0
   4   5  -7    1.71   10.48   0
   4   5  -4  159.22   12.04   0
   0   5  37   -2.36   10.20   0
   2   3  26  704.83   15.90   0
   2   4  28  484.85   14.56   0
   4   2 -10  394.33   13.87   0
   4   2  -1    3.55    8.80   0
   4   4   6  244.83   13.25   0
   4   5  -1   -3.98   11.26   0
   1   4  33    2.19    8.21   0
   3   2  16 1885.70   23.41   0
   4   2 -13   -6.20    8.53   0
   4   5   2  225.26   13.32   0
   0   2  28 1130.97   20.87   0
   1   3  31   13.48    8.88   0
   1   6  34  197.79   14.09   0
   3   1   8 2855.20   28.96   0
   3   6  18  250.64   14.14   0
   4   2   2  640.08   15.85   0
   4   5   5    6.03   11.83   0
   1   5  35    8.60   11.08   0
   2   1  16 2083.59   25.31   0
   2   5  30  233.63   13.82   0
   3   3  21   21.36    8.58   0
   3   5  22  142.61   12.83   0
   2   2  24 2057.11   25.06   0
   2   6  29    2.01   11.39   0
   3   4  23   10.42    9.29   0
   4   3  10  443.86   13.92   0
   0   6  39    9.87   12.24   0
   1   7  33    4.76   10.70   0
   4   4  12  285.93   13.94   0
   4   5   8  437.41   15.17   0
   0   7  38   54.33   11.19   0
   3   1  11   37.70    7.35   0
   3   2  19    6.13    7.95   0
   3   6  21   10.93   11.37   0
   4   3  13   11.26    8.92   0
   0   4  38  152.64   11.59   0
   3   3  24  698.15   15.97   0
   3   5  25   -2.90   11.66   0
   4   4  15    2.16   10.68   0
   0   5  40  236.44   13.32   0
   1   2  29    8.46    7.87   0
   1   4  36  542.49   15.24   0
   1   6  37   -0.68   11.09   0
   2   1  19    7.83    6.48   0
   3   4  26  191.05   11.66   0
   4   2  11    1.66    8.75   0
   1   3  34  622.99   16.30   0
   3   1  14  735.52   15.54   0
   3   6  24  220.85   13.57   0
   4   3  16  512.71   15.64   0
   4   5  14   89.58   11.60   0
   1   5  38  165.05   12.99   0
   2   2  27    0.86    7.51   0
   3   2  22  355.56   12.31   0
   4   1  -6  416.44   13.83   0
   4   1  -3    2.73    7.62   0
   4   4  18  244.36   13.89   0
   0   3  36  600.42   16.28   0
   2   4  34  199.22   12.98   0
   4   1  -9   28.50    8.75   0
   4   1   0 1535.00   22.20   0
   4   2  14  344.13   13.26   0
   3   3  27    2.16    8.80   0
   3   5  28  221.86   13.16   0
   4   1   3   34.42    7.52   0
   4   5  17    6.77   10.55   0
   0   2  31   -3.15    7.23   0
   0   6  42  154.32   12.22   0
   4   3  19    0.34    9.06   0
   2   1  22  483.02   14.12   0
   3   1  17    6.06    7.18   0
   3   6  27   -5.95   12.03   0
   4   1 -12 1134.04   21.87   0
   4   4  21   16.40   11.10   0
   2   5  36  193.05   13.71   0
   2   6  35    9.24   10.92   0
   3   2  25    0.06    9.49   0
   4   2  17   -4.29    8.32   0
   4   5  20  162.51   12.84   0
   5   3  -4  317.57   13.87   0
   5   3  -1   -3.24   10.14   0
   1   1  24 1820.30   24.88   0
   1   4  39   12.22    8.90   0
   1   6  40  254.19   14.19   0
   4   1   9    1.37    8.50   0
   5   3  -7    2.26    9.67   0
   5   3   2  282.74   13.85   0
   5   4  -5    2.34    9.50   0
   5   4  -2  203.43   12.82   0
   5   4   1   -4.15   10.13   0
   0   4  41    0.67    9.04   0
   1   2  32 1309.60   21.38   0
   3   3  30  218.79   13.09   0
   3   5  31   -4.74   10.54   0
   4   3  22  225.74   11.90   0
   5   3   5   -3.35   10.80   0
   5   4   4  168.81   12.46   0
   1   3  37    4.75    9.09   0
   1   5  41   -2.52   10.91   0
   2   4  37    2.22   10.55   0
   3   1  20  967.90   18.15   0
   3   4  32  322.09   14.42   0
   4   4  24  374.98   15.32   0
   5   3   8  576.00   16.58   0
   5   4   7   11.83   10.35   0
   2   3  35   12.73    8.41   0
   3   0   3   -5.81    7.35   0
   4   1  12  990.60   17.73   0
   4   2  20  744.88   16.22   0
   4   5  23   -8.41   10.39   0
   5   2  -3    7.69    9.16   0
   5   2   0  756.22   17.61   0
   5   2  -6  486.21   15.34   0
   5   2   3    4.48    8.40   0
   5   4  10  171.92   12.59   0
   5   5   0  210.57   12.42   0
   2   0  11    2.76    6.23   0
   2   1  25   13.12    8.11   0
   2   5  39  -14.16   11.12   0
   3   0   6  568.14   15.11   0
   3   2  28  438.24   13.58   0
   4   3  25   14.81    9.58   0
   5   2  -9   -0.11    8.47   0
   5   2   6  196.01   10.87   0
   5   5   3    3.47   10.50   0
   0   3  39   -6.32    9.02   0
   3   5  34  179.84   12.92   0
   4   1  15   27.02    8.01   0
   4   4  27   -6.76   11.20   0
   5   2   9    5.05    9.69   0
   5   4  13   -5.98   10.64   0
   1   6  43    3.29   11.03   0
   3   1  23   13.74    8.96   0
   3   3  33   10.18   10.54   0
   4   2  23   -5.72    8.79   0
   4   5  26  187.49   12.62   0
   0   2  34  290.09   12.38   0
   1   1  27   -4.83    7.18   0
   1   4  42  252.90   13.29   0
   2   2  33   -7.47    7.66   0
   3   0   9    0.98    6.41   0
   2   4  40  342.33   14.75   0
   4   3  28  434.61   15.42   0
   5   3  17   15.43   10.51   0
   1   2  35    5.52    6.95   0
   1   3  40  518.88   15.75   0
   1   5  44  191.35   12.83   0
   2   0  14  364.03   12.49   0
   2   3  38  119.69   11.39   0
   3   2  31    0.13    9.34   0
   4   1  18  415.90   13.06   0
   3   0  12 2634.58   28.26   0
   4   2  26  440.25   14.57   0
   4   4  30  111.85   12.83   0
   4   5  29    6.02   10.88   0
   5   2  15    8.61    8.86   0
   5   4  19    3.69   10.77   0
   2   5  42  117.19   12.74   0
   5   1  -2  369.55   13.48   0
   5   1   1   23.62    7.78   0
   5   1   4  824.46   17.76   0
   5   3  20  252.08   13.92   0
   3   1  26  717.81   15.56   0
   4   1  21   15.13    9.10   0
   5   1  -5    6.19    8.42   0
   5   1   7   10.36    9.12   0
   3   4  38  162.57   13.43   0
   4   0  -2 1479.55   23.02   0
   4   0   1   -7.18    7.52   0
   4   3  31   -6.67   11.00   0
   5   2  18  463.75   14.28   0
   5   4  22  120.16   12.53   0
   2   0  17   -2.72    6.35   0
   2   2  36  427.99   14.47   0
   3   0  15   -2.28    6.54   0
   4   0   7    2.83    7.91   0
   5   1  -8  878.58   19.02   0
   4   0  -5    1.15    6.89   0
   4   2  29   -9.77    8.95   0
   4   4  33    5.08   10.53   0
   5   3  23   14.38   10.62   0
   1   1  30  656.38   16.24   0
   1   4  45    2.71   10.03   0
   2   3  41   -1.02   10.19   0
   2   4  43   -0.23   11.24   0
   4   0  10  470.84   13.57   0
   4   1  24 1043.95   19.11   0
   5   1  13    9.03    8.51   0
   5   2  21   -2.07    9.27   0
   1   2  38  377.85   13.76   0
   3   1  29    4.77    8.54   0
   5   4  25    4.32   11.04   0
   0   2  37   -1.39    7.95   0
   1   3  43   -0.15    9.45   0
   2   1  31    3.59    6.99   0
   3   0  18 1408.11   20.74   0
   3   3  39   -2.04   10.70   0
   4   0  -8 1595.23   25.40   0
   4   3  34  208.34   13.26   0
   5   1  16  742.44   17.17   0
   6   3   0  375.58   15.59   0
   6   3   3    5.90   10.91   0
   2   0  20 3667.94   34.21   0
   2   5  45    0.85   11.09   0
   3   4  41    7.76   10.52   0
   4   0  13    1.02    7.05   0
   5   2  24  394.13   14.89   0
   6   3   6  220.69   13.47   0
   4   2  32  411.83   13.66   0
   4   4  36  150.28   13.22   0
   6   2   1   -1.12   10.16   0
   6   2   4  263.53   13.77   0
   6   3   9    3.04   11.15   0
   0   1  29    1.88    7.16   0
   2   2  39    5.29    9.54   0
   3   2  37   -2.61    9.86   0
   4   0  16 1612.78   22.07   0
   4   1  27   14.34    8.44   0
   5   1  19    7.18    8.56   0
   5   4  28  116.86   11.50   0
   6   2  -2  270.96   13.45   0
   6   2   7    3.70   10.09   0
   6   3  12  155.53   12.31   0
   3   0  21   -2.44    6.97   0
   5   3  29   -5.44   10.92   0
   6   2  10  218.42   13.12   0
   2   4  46  147.77   12.67   0
   4   0 -11    4.50    6.82   0
   4   3  37   19.69   10.75   0
   5   2  27   -7.68    9.38   0
   6   2  13    3.02   10.72   0
   6   3  15    3.13   11.38   0
   2   3  44  283.05   14.02   0
   4   0  19   -9.09    8.65   0
   5   1  22  240.71   12.00   0
   1   1  33    3.73    6.29   0
   2   0  23   -0.16    6.49   0
   2   1  34  696.57   16.38   0
   3   3  42  182.83   13.17   0
   4   1  30  367.37   14.06   0
   4   2  35   -3.69   11.03   0
   5   0   2  378.80   13.40   0
   5   0   5    3.04    7.16   0
   1   2  41    1.59    9.48   0
   3   4  44  159.67   13.25   0
   5   0  -1    0.13    8.04   0
   5   3  32  258.07   13.75   0
   1   3  46  108.67   12.02   0
   3   0  24 1180.70   19.05   0
   5   0  -4 1258.28   21.92   0
   5   0  11   -0.83    7.62   0
   5   1  25   11.48    9.88   0
   5   2  30   99.37   11.15   0
   6   1  -1   -0.81   10.13   0
   6   1   2  402.73   14.52   0
   6   1   5   15.61    8.68   0
   6   1   8  736.47   17.52   0
   3   2  40  503.21   14.61   0
   4   0  22  764.16   16.00   0
   5   0  14  680.39   16.31   0
   6   1  11   20.82   10.28   0
   2   2  42  472.30   15.02   0
   6   1  -4  311.01   13.42   0
   1   0  22  474.13   14.67   0
   4   1  33    5.80    9.73   0
   5   0  -7   -0.10    8.42   0
   5   0  17    8.52    9.38   0
   6   2  22  138.11   12.37   0
   6   3  24  260.77   13.78   0
   3   0  27    4.18    8.37   0
   5   1  28  499.54   15.57   0
   5   2  33    1.81   11.12   0
   5   3  35  -10.27   11.61   0
   3   3  45    1.60   10.17   0
   4   0  25   -9.44    7.81   0
   3  -3  24 1730.24   25.27   0
   5  -6  23    0.38   11.70   0
   5  -4  30  189.37   14.10   0
   5  -2  31   18.72   11.86   0
   7  -8  18  263.71   15.99   0
   3   0  24 1160.57   23.03   0
   6  -7  22  189.13   14.46   0
   6  -2  32  418.19   18.04   0
   2  -1  21   30.90    8.62   0
   3  -2  26  589.43   16.40   0
   5  -5  28  678.40   18.21   0
   5  -1  30  345.37   15.49   0
   6  -3  33    9.86   11.71   0
   8  -8  22   90.33   14.26   0
   3  -5  17    7.75    9.46   0
   4  -5  24  748.42   19.14   0
   4  -2  30  229.95   14.37   0
   5  -3  32  772.49   19.40   0
   7  -7  26  253.87   15.99   0
   7  -1  29    1.44   13.59   0
   8  -4  33   -7.36   13.52   0
   8  -3  32  254.23   16.19   0
   5  -7  18  210.66   13.54   0
   6  -1  31    1.70   13.59   0
   6   0  27   -2.37   12.01   0
   7  -5  33   13.13   13.86   0
   4  -6  19  -20.15   10.27   0
   6  -5  32  475.52   18.53   0
   7  -6  31    1.70   13.46   0
   6  -4  34  204.03   14.49   0
   7  -8  21    8.92   12.89   0
   7  -4  35    0.54   14.49   0
   7  -2  33   -1.41   14.82   0
   8  -6  32  253.80   16.23   0
   8  -2  31    6.80   14.04   0
   2  -4  15    5.80    8.37   0
   2  -2  22 2036.04   27.74   0
   4  -4  29   -2.56   10.04   0
   4  -3  31    8.55   11.50   0
   4   0  28  686.27   19.59   0
   5  -6  26  264.14   15.13   0
   8  -5  34  177.55   15.21   0
   2  -3  20 1503.65   24.98   0
   5  -4  33    3.01   12.31   0
   5   0  29   -2.10   11.95   0
   6  -7  25    3.42   12.65   0
   3  -3  27    2.93    9.12   0
   3  -1  28 1473.45   24.38   0
   5  -5  31   14.36   12.55   0
   6  -2  35   -1.50   13.66   0
   8  -8  25    3.77   13.19   0
   2   1  19    4.02    8.66   0
   3   1  23   29.64   10.74   0
   5  -1  33   13.69   12.97   0
   6  -3  36  403.66   16.56   0
   7  -7  29    8.84   13.44   0
   8  -4  36  149.20   15.94   0
   8  -3  35  -14.42   13.64   0
   3  -5  20  634.15   18.17   0
   3  -2  29   -5.54    9.40   0
   4  -5  27    9.88    9.85   0
   5  -7  21   -3.86   11.50   0
   5  -3  35   -5.80   11.16   0
   7  -5  36  203.54   17.04   0
   7  -1  32  310.44   17.25   0
   2  -1  24 1934.03   27.45   0
   3   0  27   -6.88    8.37   0
   4  -6  22  407.31   16.03   0
   4  -2  33   -0.47   10.01   0
   4  -1  32 1016.51   21.37   0
   6  -5  35   10.48   13.55   0
   7  -8  24  254.76   15.45   0
   7  -6  34  221.88   16.27   0
   6  -4  37  -17.26   13.69   0
   6  -1  34  266.32   16.80   0
   8  -6  35   16.36   14.05   0
   5  -6  29  -11.21   12.36   0
   7  -4  38  171.44   16.11   0
   7  -2  36  314.16   18.57   0
   8  -5  37    3.45   12.96   0
   4  -4  32  544.12   16.92   0
   4  -3  34  576.39   18.64   0
   6  -7  28  183.29   15.48   0
   2  -4  18 1141.91   22.87   0
   2  -2  25   -5.97    9.87   0
   4   0  31    4.11   11.23   0
   7  -7  32  294.82   17.47   0
   2  -3  23    1.63    8.33   0
   3  -3  30  625.26   17.20   0
   5  -7  24  514.58   19.04   0
   5  -5  34  323.59   15.17   0
   5   0  32  583.74   19.64   0
   3  -1  31    2.15    9.34   0
   4   1  27    6.53   10.51   0
   6  -3  39    0.97   12.54   0
   6  -2  38  129.28   13.79   0
   7  -8  27   -5.95   12.91   0
   8  -3  38   71.06   14.40   0
   3  -6  15   -6.29   10.35   0
   3  -5  23    7.27    8.81   0
   3  -2  32 1349.59   24.27   0
   4  -6  25   -6.75   11.18   0
   5  -3  38  107.65   13.07   0
   5  -1  36  393.30   17.85   0
   7  -6  37    3.71   13.77   0
   7  -5  39   -5.70   13.72   0
   7  -1  35    6.64   15.37   0
   4  -2  36  419.04   17.41   0
   4  -1  35   16.79   11.99   0
   6  -5  38  150.27   14.05   0
   7  -3  40  204.48   16.57   0
   2  -1  27   -1.17    8.59   0
   2   1  22  489.09   17.17   0
   3   0  30  339.24   15.34   0
   3   1  26  722.64   19.78   0
   5  -6  32  428.89   17.91   0
   6  -7  31    2.67   13.21   0
   6  -4  40  315.51   16.07   0
   6  -1  37   -5.92   14.28   0
   7  -4  41   -1.38   14.87   0
   8  -2  37   -1.93   15.36   0
   4  -4  35    9.62   12.56   0
   7  -2  39   -7.84   15.18   0
   2  -4  21    6.61    9.34   0
   4  -3  37   -8.71   12.02   0
   5  -4  39   -2.51   13.51   0
   7  -7  35    1.44   13.10   0
   1  -2  18 1208.45   23.17   0
   2  -5  13   -6.21    9.36   0
   5  -7  27    3.92   11.59   0
   5  -5  37    8.58   13.08   0
   1  -1  20 1548.24   25.70   0
   1   0  19    0.66    7.23   0
   2  -2  28 1141.63   21.45   0
   3  -3  33    1.26    9.76   0
   4   0  34  312.13   15.82   0
   5   0  35   -1.41   13.85   0
   6  -3  42  219.58   16.67   0
   7  -8  30   62.68   14.05   0
   3  -6  18  453.99   17.12   0
   3  -5  26  701.56   18.00   0
   3  -4  31   10.53   11.29   0
   3  -1  34  693.47   18.84   0
   4  -6  28  491.56   17.12   0
   5  -3  41    2.10   13.71   0
   6  -2  41    9.18   12.61   0
   7  -6  40  285.28   17.13   0
   7  -5  42  122.45   15.84   0
   3  -2  35   15.88   10.87   0
   4   1  30  352.98   16.14   0
   5  -1  39  -11.38   12.67   0
   6  -5  41    9.88   14.46   0
   4  -2  39    1.83   11.06   0
   5  -6  35   -5.34   13.49   0
   6  -7  34  228.01   15.28   0
   6  -4  43   11.93   13.98   0
   7  -3  43    5.88   13.68   0
   3   0  33   -1.49   10.57   0
   4  -1  38  176.10   13.36   0
   7  -4  44  181.53   16.58   0
   1  -3  16 2052.11   30.47   0
   3   1  29    8.68   10.38   0
   4  -4  38  141.26   13.17   0
   5  -7  30  214.42   16.79   0
   6  -1  40  227.36   17.53   0
   7  -7  38   54.44   13.49   0
   7  -2  42  178.58   17.27   0
   2  -5  16 1858.01   29.71   0
   2  -4  24 1979.61   27.92   0
   2   1  25    5.10    9.27   0
   4  -3  40  538.81   17.63   0
   5  -5  40  249.85   16.12   0
   5  -4  42  247.30   15.24   0
   7  -8  33   -8.85   11.94   0
   1  -2  21   26.64    8.30   0
   2  -3  29    7.76    9.89   0
   2  -2  31   -2.31   10.09   0
   3  -6  21   11.10   10.13   0
   3  -5  29    0.92   11.11   0
   3  -3  36  596.37   18.45   0
   1  -1  23   -0.47    7.97   0
   1   0  22  499.88   16.47   0
   3  -4  34  555.71   18.03   0
   4  -6  31   17.81   12.12   0
   6  -2  44  291.88   18.50   0
   7  -6  43  -12.33   13.62   0
   7  -5  45    6.06   14.02   0
   4   0  37    4.30   10.73   0
   5  -3  44  285.53   15.69   0
   5   0  38  241.70   16.31   0
   6  -5  44  212.55   16.78   0
   3  -2  38  386.04   15.53   0
   5  -6  38  158.25   14.77   0
   5  -1  42  209.26   16.21   0
   6  -7  37    2.92   12.34   0
   6  -4  46  125.05   16.28   0
   7  -3  46   65.34   14.83   0
   4  -1  41   -9.30   13.03   0
   4   1  33    8.27   10.82   0
   7  -4  47    2.47   13.92   0
   1  -3  19   -0.54    8.63   0
   2  -5  19    9.17    9.19   0
   2  -4  27    5.38    9.52   0
   2  -1  33    7.33    9.11   0
   4  -4  41   -0.50   11.39   0
   5  -7  33    4.40   12.11   0
   7  -2  45    0.59   16.01   0
   3  -6  24  692.24   19.31   0
   3   0  36  936.49   20.72   0
   4  -3  43    2.74   12.89   0
   5  -5  43   -4.38   13.30   0
   5  -4  45   -9.22   14.42   0
   6  -1  43    4.77   14.40   0
   1  -2  24 1914.64   27.25   0
   2  -3  32 1265.08   23.36   0
   2  -2  34  305.12   14.97   0
   2   1  28 1429.41   25.75   0
   3  -5  32  765.28   20.30   0
   3  -3  39    4.47   11.76   0
   3   1  32 1023.87   22.79   0
   4  -6  34  222.59   15.12   0
   3  -4  37   12.71   11.28   0
   1   0  25    7.32    7.63   0
   1   1  21   25.92    8.56   0
   2   2  21   -1.98    8.28   0
   5  -3  47   -5.00   13.92   0
   6  -7  40  248.08   15.56   0
   6  -5  47  -13.26   14.09   0
   6  -2  47  -10.01   14.06   0
   2  -5  22  342.88   15.09   0
   3  -2  41    3.58   12.03   0
   5  -6  41    5.62   13.61   0
   5   0  41    9.53   13.35   0
   1  -3  22  480.97   16.00   0
   2  -4  30  216.48   13.63   0
   4  -2  45   -3.49   13.53   0
   5  -7  36  214.55   14.81   0
   5  -1  45    3.57   13.56   0
   6  -4  49  -10.34   13.25   0
   3  -6  27   -1.13   10.46   0
   4  -4  44  487.91   17.51   0
   4  -1  44  355.99   17.13   0
   1  -2  27    4.85    8.52   0
   3  -5  35   -1.84   11.42   0
   3   0  39    5.38   11.87   0
   4  -7  29    8.10   11.68   0
   4  -6  37    5.74   12.52   0
   4  -3  46  108.47   14.38   0
   5  -5  46   99.71   15.43   0
   5  -4  48  179.85   16.82   0
   1  -4  14  692.67   19.83   0
   2  -3  35    3.08    9.50   0
   2  -2  37   -2.41   11.03   0
   3  -3  42  279.17   16.22   0
   6  -1  46   84.70   15.63   0
   1  -1  29   -0.02    8.41   0
   2   1  31   -5.16    9.76   0
   3  -4  40  563.23   17.27   0
   3   1  35    9.11   10.63   0
   1   0  28 1460.43   23.97   0
   2  -5  25   -3.22    9.74   0
   5  -6  44  186.36   15.47   0
   5  -3  50  226.34   16.52   0
   5  -2  49   -1.78   14.82   0
   6  -7  43    8.60   13.51   0
   6  -5  50   99.48   14.84   0
   2  -4  33   -3.40   10.84   0
   2   2  24 1888.83   31.89   0
   3  -6  30  233.85   15.54   0
   3  -2  44  417.44   17.15   0
   4   0  43    4.09   12.39   0
   5  -7  39   11.20   12.99   0
   6  -2  50  155.61   16.85   0
   1  -4  17   -1.85    8.72   0
   4  -4  47    0.73   14.07   0
   4  -2  48  404.43   18.08   0
   5   0  44  237.90   16.64   0
   6  -4  52  163.84   15.73   0
   1  -2  30  658.79   17.16   0
   2  -1  39    1.51   11.54   0
   3  -5  38  117.48   13.93   0
   4  -1  47    2.12   13.55   0
   5  -1  48  282.69   17.86   0
   2  -3  38  384.17   14.85   0
   4  -6  40  305.86   15.04   0
   4  -3  49   -0.79   13.64   0
   5  -5  49    6.78   12.73   0
   5  -4  51   12.06   13.85   0
   1  -1  32 1961.75   26.88   0
   2  -5  28  465.31   16.61   0
   2  -2  40  966.56   20.47   0
   2   0  38  297.11   14.77   0
   3  -4  43   -4.10   12.41   0
   3  -3  45   -9.47   11.29   0
   3   0  42  365.36   15.44   0
   6  -1  49    0.69   15.35   0
   1  -4  20  931.13   21.29   0
   1   0  31    3.32    9.76   0
   2   1  34  686.26   19.12   0
   3   1  38  200.06   13.93   0
   1   1  27   -1.53    8.77   0
   3  -6  33    1.42   11.05   0
   5  -6  47   -2.04   13.44   0
   5  -2  52  193.03   16.12   0
   2   2  27   -1.67    9.21   0
   3  -2  47    9.70   13.11   0
   4  -7  35    0.03   13.46   0
   5  -7  42  126.58   14.32   0
   6  -2  53    6.79   14.84   0
   1  -2  33   -9.32    9.04   0
   3  -5  41    8.36   12.86   0
   4  -4  50  211.19   15.91   0
   4  -2  51   10.60   13.70   0
   4   0  46  185.25   15.49   0
   1  -4  23   16.31    9.56   0
   2  -5  31    3.82   10.74   0
   2  -3  41   12.00   12.23   0
   2  -1  42  366.50   15.13   0
   4  -6  43   -4.97   13.15   0
   5  -1  51    5.06   13.75   0
   0  -1  19    3.65    7.29   0
   1  -1  35    4.25    9.25   0
   2  -2  43  -11.49   12.13   0
   3  -4  46   87.02   14.17   0
   3  -3  48  413.25   17.33   0
   4  -3  52  267.35   17.11   0
   4  -1  50  227.76   16.84   0
   5  -4  54   92.54   14.84   0
   2   0  41   -2.41   11.29   0
   3  -6  36  349.43   16.37   0
   3   0  45    1.73   10.65   0
   1   1  30  634.20   17.91   0
   2   1  37    8.32   10.22   0
   3   1  41    4.22   12.47   0
   5  -6  50  103.59   13.96   0
   1  -2  36 1029.65   21.32   0
   4  -7  38  164.63   13.59   0
   5  -7  45    7.69   11.92   0
   5  -2  55  -10.42   15.01   0
   0  -1  22  502.70   15.43   0
   0   0  21    1.54    7.33   0
   1  -4  26  694.18   17.68   0
   2  -5  34  492.74   17.45   0
   2   2  30  238.74   14.03   0
   3  -5  44  274.48   16.10   0
   3  -2  50  197.00   14.62   0
   5  -3  56  147.78   14.46   0
   2  -3  44  383.88   15.42   0
   2  -1  45    2.16   10.57   0
   4  -6  46  128.98   14.71   0
   4  -4  53   -3.69   12.16   0
   4   0  49   -1.67   12.69   0
   1  -1  38  298.98   13.57   0
   2  -2  46  343.26   15.97   0
   5  -5  55    1.02   12.93   0
   0  -1  25  -10.09    9.04   0
   1   0  37   -5.22    8.78   0
   1   1  33    9.97    9.55   0
   2   0  44  856.01   20.95   0
   3  -6  39    5.74   11.85   0
   3  -4  49   -2.44   11.52   0
   4  -3  55   -3.43   14.38   0
   4  -1  53    5.82   13.91   0
   5  -4  57   -1.57   13.09   0
   5  -1  54  101.35   15.43   0
   0   0  24 5080.91   43.37   0
   1  -4  29    0.02    8.42   0
   1  -2  39   -3.48   11.16   0
   1   2  23    3.06    7.92   0
   2   1  40  525.15   17.48   0
   3   0  48  248.22   14.29   0
   2  -5  37    0.58   11.06   0
   3   1  44  317.17   16.96   0
   4  -7  41    1.80   12.22   0
   0  -2  23   -8.98    7.62   0
   1  -3  37    8.61   10.94   0
   2   2  33    0.74   10.05   0
   3  -5  47    1.58   12.64   0
   3  -2  53    0.29   13.18   0
   0  -1  28 1486.10   24.23   0
   0   0  27   -2.74    9.18   0
   1  -1  41    7.13    9.72   0
   2  -3  47   -1.90   11.01   0
   2  -1  48  430.70   17.50   0
   4  -6  49    4.47   12.36   0
   4  -4  56   87.22   14.37   0
   5  -2  58  141.88   15.08   0
   1   0  40  860.26   19.64   0
   1   2  26  549.63   17.37   0
   2  -2  49    1.00   12.44   0
   3  -6  42  192.37   14.72   0
   4   0  52  208.85   17.22   0
   0  -2  26 1311.60   22.51   0
   1   1  36 1020.58   21.37   0
   3  -4  52  252.01   15.87   0
   3  -3  54  109.75   14.77   0
   1  -2  42  372.18   14.75   0
   2  -5  40  507.24   17.79   0
   2   0  47   -6.53    9.98   0
   2   1  43   10.13   11.17   0
   3   0  51   -4.44   13.02   0
   4  -3  58  136.32   14.27   0
   4  -1  56  182.13   15.73   0
   5  -1  57    4.20   13.70   0
   0  -1  31    2.74    9.81   0
   1  -3  40  507.26   16.06   0
   0  -2  29    0.51    9.56   0
   1  -4  35    9.67   10.94   0
   1  -1  44  529.11   17.66   0
   2  -3  50  236.35   15.91   0
   2   2  36  411.56   16.83   0
   3  -5  50  218.76   15.74   0
   3   1  47   -6.69   12.09   0
   0  -3  15   -2.07    7.95   0
   0  -3  18 1382.23   25.43   0
   1   2  29   15.94    8.50   0
   2  -1  51   -1.29   12.97   0
   3  -2  56  265.00   16.03   0
   3  -1  55   14.15   13.06   0
   4  -6  52  141.22   13.93   0
   0  -3  21    4.53    8.36   0
   1   0  43    1.36    9.66   0
   1   1  39   10.52    9.64   0
   2  -2  52  244.27   15.88   0
   3  -6  45    0.51   12.88   0
   4  -4  59  -10.36   13.11   0
   0  -1  34 1051.31   20.26   0
   0   0  33   -5.10    9.74   0
   1  -2  45    5.13   10.46   0
   2  -5  43   -0.87   11.77   0
   3  -4  55    6.67   13.45   0
   3  -3  57   -1.87   13.22   0
   0  -3  24 1171.81   22.52   0
   0  -2  32  671.92   16.93   0
   1  -4  38  209.63   13.88   0
   1  -3  43  -12.79   10.32   0
   2   0  50  249.15   13.93   0
   4  -7  47    1.05   10.88   0
   4  -3  61    3.42   14.21   0
   4   0  55    8.15   13.23   0
   1   2  32 1312.18   24.18   0
   2   1  46  178.44   12.75   0
   3   0  54  112.92   14.17   0
   4  -1  59   -4.88   12.98   0
   1  -5  27    8.99    9.57   0
   1  -1  47    7.61   10.52   0
   2  -6  35   -2.27   11.04   0
   2  -3  53   12.17   12.89   0
   2   2  39   -2.19    9.62   0
   3  -5  53    8.69   13.79   0
   0  -3  27   -0.62    7.83   0
   0  -2  35    7.25    9.73   0
   0  -1  37    1.58    8.86   0
   0   0  36  674.05   17.66   0
   1   1  42  370.61   15.79   0
   2  -1  54  148.95   14.79   0
   3  -6  48  187.62   14.42   0
   3  -2  59  -11.94   13.07   0
   3   1  50  228.28   14.74   0
   1  -5  30  353.07   15.79   0
   2  -5  46   79.30   12.88   0
   2  -2  55    3.59   13.13   0
   3  -1  58  143.60   13.93   0
   0  -3  30  353.35   14.55   0
   1  -4  41   -3.89    9.89   0
   1  -3  46  165.63   12.58   0
   3  -4  58  121.81   14.63   0
   1   2  35   -2.05    9.26   0
   2  -6  38  111.23   12.50   0
   2   0  53    1.70   12.74   0
   3  -3  60  152.37   14.19   0
   0  -2  38  301.58   13.32   0
   0  -1  40  874.71   20.04   0
   0   0  39   -9.06    9.97   0
   1  -5  33   16.36   11.58   0
   1  -1  50  315.82   16.20   0
   2   1  49    0.89   10.25   0
   4   0  58   77.68   13.03   0
   0  -3  33   -6.60   10.01   0
   1   1  45    5.30   11.06   0
   2  -3  56  256.76   16.62   0
   3  -6  51  -10.30   13.69   0
   3  -5  56  140.93   13.57   0
   3   0  57   -0.04   13.40   0
   1  -4  44  330.94   15.90   0
   1  -3  49    4.78   12.35   0
   1  -2  51    8.78   12.57   0
   2  -5  49   -6.35   11.96   0
   2  -1  57    4.27   12.88   0
   1   2  38  383.84   15.12   0
   2  -6  41    2.40   11.49   0
   2  -2  58   96.39   15.32   0
   3  -2  62   56.75   12.60   0
   3  -1  61    4.77   13.03   0
   3   1  53    1.23   12.19   0
   0  -2  41   -6.56    9.63   0
   0  -1  43  -20.02   10.77   0
   0   0  42  924.89   20.26   0
   1  -5  36  363.70   15.49   0
   3  -4  61   -7.98   12.73   0
   0   2  22 1936.34   30.03   0
   1  -1  53   -9.21   12.46   0
   2   0  56  121.84   14.92   0
   2   1  52  337.38   18.03   0
   3  -3  63  -13.77   12.73   0
   0   2  25    0.16    7.99   0
   1  -4  47   11.98   12.62   0
   0  -3  39    7.86   10.62   0
   0   2  28 1155.15   22.39   0
   1  -5  39    1.99   11.13   0
   1  -3  52  367.47   16.36   0
   1  -2  54  148.22   14.72   0
   1   1  48  394.45   15.00   0
   2  -5  52  160.99   14.09   0
   2  -3  59    4.68   12.11   0
   3   0  60  214.79   17.03   0
   0  -4  22  727.08   19.06   0
   0  -2  44  842.11   19.20   0
   0  -1  46  145.81   13.53   0
   1   2  41    2.20    9.91   0
   0  -4  19    1.32    8.40   0
   0  -4  25   -8.10    8.98   0
   0   0  45    7.87    9.78   0
   2  -2  61   -7.01   13.58   0
   0   2  31    1.64    7.20   0
   3  -1  64   87.51   13.48   0
  -1  -1  21   26.57    8.84   0
  -1  -1  24 1879.85   26.63   0
  -1   0  20 1575.21   25.29   0
  -1   0  23    5.70    7.40   0
  -1   0  26 1252.77   21.53   0
   0  -4  31   -8.09    9.58   0
   1  -5  42  196.22   14.02   0
   1  -4  50  239.46   15.00   0
   1  -1  56  266.95   14.60   0
   2   0  59    4.60   12.44   0
  -1  -1  27   -1.58    7.81   0
  -1   0  29    5.15    9.17   0
   0  -2  47   -5.76   10.25   0
   0   2  34  297.22   13.63   0
   1  -3  55   12.21   12.77   0
   1  -2  57    7.57   13.41   0
   1   1  51   -2.86   11.63   0
   1   2  44  399.73   15.86   0
   2  -6  47    5.13   11.08   0
   2  -5  55   -0.49   12.78   0
   2   1  55  -12.14   12.90   0
  -1  -1  18 1231.95   22.56   0
  -1  -1  30  655.67   16.41   0
   0  -4  34  283.05   14.31   0
   0  -1  49   -1.53   10.45   0
   0   0  48  576.93   16.76   0
   0   1  44  487.76   15.57   0
   2  -3  62   52.60   12.89   0
  -1   0  32 1966.35   25.96   0
  -1  -1  33    8.94    8.59   0
   0   2  37    0.39    9.45   0
   1  -5  45    7.40   11.63   0
   2  -2  64  164.01   15.13   0
  -1   0  35   -9.40    8.57   0
   0  -4  37   -5.56   10.35   0
   1  -4  53   -5.53   11.41   0
   1  -1  59    9.68   13.30   0
  -1  -2  22  498.55   15.58   0
  -1  -2  25   10.66    7.67   0
  -1  -1  36 1020.76   19.54   0
  -1   1  22  487.83   15.60   0
  -1   1  25   -2.16    7.16   0
  -1   1  28 1463.23   23.00   0
   0  -1  52  396.55   16.66   0
   0   0  51  -12.13   11.39   0
   0   1  47   -6.05    9.45   0
   1  -3  58  150.62   14.67   0
   1   1  54  157.67   13.74   0
   1   2  47    7.59   10.30   0
   2  -6  50  126.22   13.43   0
   2   0  62  112.27   13.68   0
  -1   0  38  303.19   14.08   0
  -1   1  31    2.82    8.03   0
   0  -4  40  530.45   17.45   0
   0   2  40  932.68   20.36   0
   1  -2  60  190.91   15.50   0
   2  -5  58  121.05   12.98   0
   2   1  58  128.91   14.30   0
  -1  -2  19   -0.91    8.21   0
  -1  -1  39   -0.73   10.63   0
  -1   1  19    2.62    7.90   0
  -1   1  34 1033.25   19.61   0
   0  -2  53    0.27   11.84   0
   1  -4  56  209.49   15.44   0
  -1   0  41   -0.68    9.03   0
   0  -4  43   -6.79   11.26   0
   0   1  50  349.95   15.80   0
   1  -1  62   70.03   13.81   0
   2  -6  53   -9.48   12.64   0
  -1  -2  16 2029.18   29.52   0
  -1  -1  42  379.02   14.20   0
  -1   1  37    1.48    8.62   0
   0  -1  55    6.83   10.76   0
   0   0  54   52.07   11.31   0
   0   2  43    2.39    9.98   0
   1   1  57   12.61   12.44   0
   1   2  50  206.07   13.71   0
   1  -5  51    1.06   11.32   0
   1  -3  61  -10.01   11.69   0
   1  -2  63    5.83   12.19   0
   1   0  61    8.79   12.81   0
   2   0  65   -1.52   12.93   0
  -1   0  44  531.31   15.87   0
  -1   1  40  849.76   18.19   0
   2   1  61   -2.30   11.34   0
  -1  -1  45   11.73    9.75   0
   0  -4  46  191.19   14.20   0
   0  -2  56  120.11   12.63   0
   0   1  53   -8.85   12.31   0
   0   2  46  330.10   14.84   0
   1  -4  59    7.91   12.84   0
  -1  -2  43   -6.26   10.69   0
   0   0  57    2.46   12.26   0
  -1  -3  26  725.49   18.20   0
  -1  -3  29   10.05    9.37   0
  -1  -3  32 1008.44   20.76   0
  -1   0  47    4.84    9.83   0
  -1   1  43   12.57    8.96   0
   1  -5  54   68.07   13.90   0
   1  -1  65    0.52   12.71   0
   1   2  53    3.58   10.58   0
  -1  -3  35   -3.44   10.41   0
  -1  -1  48  414.31   15.10   0
  -1   2  27   -3.99    8.08   0
  -1   2  30  619.04   16.72   0
   0  -4  49  -12.65   11.61   0
   1  -3  64   98.23   13.07   0
   1   0  64  107.59   14.48   0
   1   1  60  187.78   14.77   0
  -1  -3  23   17.67    8.84   0
  -1  -2  46  188.94   13.60   0
  -1   2  33    7.91    7.67   0
   0  -2  59    3.46   12.22   0
   0   2  49   -2.19   11.20   0
  -1  -3  38  213.58   13.37   0
  -1   0  50  373.54   15.39   0
  -1   1  46  153.92   11.50   0
  -1   2  36 1002.68   20.21   0
   0   1  56  259.76   15.99   0
  -1  -3  20  946.16   20.56   0
  -1  -1  51   -2.13   11.77   0
   0  -1  61    9.75   12.48   0
   0   0  60  204.00   14.79   0
   0   3  30  614.43   18.15   0
  -1  -3  41    1.62   11.04   0
  -1  -2  49   -8.18   11.16   0
  -1   2  21   23.57    7.83   0
  -1   2  39    1.97    9.59   0
   0  -4  52  200.75   13.75   0
   0   3  27    0.02    7.98   0
   0   3  33   -1.76    8.79   0
   1  -5  57    6.33   10.80   0
   1   2  56  241.25   14.07   0
  -1   1  49   -9.64    9.71   0
   0   2  52  228.21   14.18   0
   1   1  63    2.41   12.32   0
  -1  -3  44  332.75   15.41   0
  -1   0  53   -7.61   10.41   0
  -1   2  42  391.59   14.97   0
   0  -2  62   92.16   13.60   0
  -1  -2  52  360.90   16.57   0
  -1  -1  54  137.03   13.00   0
   0   1  59   -9.72   11.62   0
   0   3  39   -1.91    8.95   0
  -1  -3  17    4.10    7.32   0
   0  -5  44  227.14   14.23   0
   0  -4  55   -5.66   11.42   0
   0  -1  64  105.77   13.81   0
  -2   0  31    5.91    9.26   0
  -2   0  34  290.69   13.04   0
  -1  -3  47    3.60   11.85   0
  -1   2  45   10.60    8.89   0
   0   3  42  271.13   14.50   0
  -2   0  28 1218.01   20.53   0
  -2   0  37   -3.40   10.25   0
   0   2  55   -1.14   11.74   0
  -2  -1  29   15.64    9.22   0
  -2  -1  32 1290.20   21.17   0
  -2  -1  35    0.11    9.51   0
  -2   0  25   -2.83    8.70   0
  -2   0  40  979.45   19.80   0
  -1  -2  55   -9.63   11.88   0
  -1  -1  57    6.91   10.37   0
  -1   2  48  431.84   16.01   0
   0  -5  47    0.23   10.33   0
   0  -2  65  -10.45   11.96   0
   0   1  62   66.73   13.38   0
  -2  -1  38  379.65   14.99   0
  -2   1  30  685.17   15.99   0
  -2   1  33    8.07    8.21   0
  -2   1  36 1059.44   20.24   0
  -1  -3  50  242.72   14.95   0
   0  -4  58   84.19   12.31   0
   0   3  45    4.19    9.56   0
  -2  -1  26  556.96   15.13   0
  -2  -1  41   -8.59   10.42   0
  -2   0  43   -0.70    9.54   0
  -2   1  27   -5.63    7.52   0
  -2   1  39   -5.11   10.39   0
  -1  -4  33    9.70    9.83   0
  -2   0  22 2032.90   26.23   0
  -1  -4  30  338.28   14.54   0
  -1   0  59  -18.25   11.63   0
  -1   2  51   -7.75   11.14   0
   0  -5  50   94.36   11.58   0
   0   2  58  120.54   13.07   0
  -2  -1  44  396.45   15.38   0
  -2   0  46  340.76   13.92   0
  -2   1  24 1961.08   26.04   0
  -2   1  42  372.19   13.96   0
  -1  -4  27    9.82    9.37   0
  -1  -4  39   -1.75   10.23   0
  -1  -3  53   11.02   11.98   0
  -1  -2  58  132.87   14.05   0
  -1  -1  60  200.27   14.28   0
  -2   1  45   -7.01   11.13   0
  -1  -4  42  205.03   13.34   0
  -2  -2  30  220.32   12.49   0
  -2  -2  33   -5.39    9.47   0
  -2  -2  36  450.96   15.50   0
  -2  -1  47   -9.17   11.33   0
  -2   0  49   -0.30   11.16   0
  -1   3  32 1342.29   23.12   0
  -1   3  35    0.58    8.61   0
   0   1  65    1.91   12.43   0
  -2  -2  39   -1.89    9.01   0
  -2   0  19    1.99    6.91   0
  -1  -4  45   12.83   10.68   0
  -1  -3  56  183.82   14.14   0
  -1   0  62   46.76   13.44   0
  -1   2  54  156.98   13.24   0
  -1   3  29    3.62    9.06   0
  -1   3  38  364.43   14.28   0
  -2  -2  27   10.69    8.79   0
  -2  -2  42  480.24   16.19   0
  -2  -1  50  212.41   14.15   0
  -2   1  21   22.55    7.55   0
  -2   1  48  389.33   14.45   0
  -1  -2  61   -5.36   12.03   0
  -1  -1  63    5.08   11.87   0
  -1   3  41    4.88    9.27   0
   0   2  61    2.79   10.85   0
  -2  -2  45    2.92   11.32   0
  -2   0  52  220.35   15.00   0
  -1  -4  48  270.70   14.45   0
  -2  -2  24 2062.23   27.30   0
  -2   1  51   10.82   11.48   0
  -1   3  26  543.83   16.31   0
  -1   3  44  397.03   15.02   0
  -2  -1  53   -8.49   11.65   0
  -2   2  26 1343.59   22.08   0
  -1  -3  59    3.87   11.25   0
  -1   0  65    1.57   12.42   0
  -1   2  57  -13.30   11.96   0
  -2   0  55  -18.83   12.54   0
  -1  -4  51   -4.45   10.80   0
  -1  -2  64   96.63   12.63   0
  -1   3  47   -2.41    9.54   0
  -2   0  16 3021.75   32.71   0
  -2   1  18 1230.03   21.29   0
  -2   1  54  128.93   13.70   0
  -1   1  64   94.74   13.85   0
   0   2  64  164.19   12.68   0
  -2  -2  21   -1.53    8.27   0
  -2  -1  56  226.11   14.74   0
  -1   3  23    3.26    7.50   0
  -2   0  58  102.09   13.17   0
  -2   2  23   -2.03    6.85   0
  -2   2  50  254.21   14.05   0
  -1  -4  54   84.43   11.65   0
  -1   2  60  216.94   14.65   0
  -1   3  50  220.85   13.61   0
  -2  -3  34  538.70   16.04   0
  -2  -3  37    8.10    9.97   0
  -2  -3  40  527.61   16.74   0
  -2   1  57   -0.20   11.72   0
  -2  -3  31    0.16    9.74   0
  -2  -3  43   17.11   10.55   0
  -2  -1  59   -8.79   12.29   0
  -2   2  53    7.54   11.76   0
  -2  -3  46   87.32   12.59   0
  -1  -4  57    3.43   11.33   0
  -1   3  53    5.72   10.80   0
  -2  -3  28  465.87   15.45   0
  -2  -2  18 1119.62   21.36   0
  -2   0  61  -13.55   11.30   0
  -2   1  60  225.37   14.53   0
  -2   2  20 3556.78   35.12   0
  -1   2  63    0.28   11.12   0
  -3   0  36  604.45   15.60   0
  -3   0  39    4.92    9.14   0
  -3   0  42  279.65   14.25   0
  -3   1  38  406.32   14.82   0
  -2  -3  49   -1.29   11.24   0
  -2  -1  14 1588.46   25.09   0
  -2   1  15    6.02    6.64   0
  -2   2  56  144.15   13.66   0
  -2   3  34  660.57   16.93   0
  -2   3  37    5.84    7.95   0
  -2   3  40  553.46   16.26   0
  -3   0  33    7.20    8.27   0
  -3   0  45    1.54   11.31   0
  -3   1  35   -4.03    8.47   0
  -3   1  41    7.21    9.30   0
  -2  -1  62   71.98   12.74   0
  -2   0  13    0.08    6.34   0
  -2   3  31   -3.57    8.41   0
  -2   3  43   -0.02    8.56   0
  -1   3  56  253.47   13.75   0
  -3   0  30  625.16   15.46   0
  -3   1  32 1329.81   20.84   0
  -3   1  44  406.03   14.28   0
  -2  -3  25    3.83    8.31   0
  -2   3  46  154.40   12.58   0
  -3   0  48  401.35   14.72   0
  -3   1  29   -0.92    8.97   0
  -3   1  47   15.63    9.80   0
  -2  -3  52  164.66   13.69   0
  -2   0  64  161.58   12.83   0
  -2   1  63   -1.18   11.53   0
  -3   0  27    3.33    8.77   0
  -3   1  50  231.68   14.78   0
  -2   2  59   -2.12   11.09   0
  -2   3  28 1435.12   22.80   0
  -2   3  49   -4.03   10.84   0
  -3   0  51  -14.53    9.94   0
  -3   2  37    7.78    8.40   0
  -3   2  40  528.92   14.99   0
  -9   4  26  186.43   14.14   0
  -9   6 -12  214.76   14.06   0
  -9   6  -9   -3.02   11.24   0
  -9   6  -3    4.67   11.07   0
  -9   6   0  387.30   16.30   0
  -8   4  27    9.04   12.07   0
  -8   6  -8  498.39   16.72   0
  -6   5  10  556.42   15.47   0
  -5   3  28  452.24   15.93   0
  -5   4  18  416.92   13.96   0
  -4   2  30  216.82   12.34   0
  -4   4   7    3.44    7.72   0
  -9   6 -15   -0.23   11.83   0
  -9   6   3    9.07   11.29   0
  -8   6 -11   -0.54   11.76   0
  -8   6  -2  283.02   13.91   0
  -8   6   1    3.69   12.41   0
  -6   5 -23    3.65    9.25   0
  -4   4 -20 1321.79   23.69   0
  -3   3  12 2603.35   29.74   0
  -9   6 -18  231.98   15.18   0
  -9   6   6  205.22   14.45   0
  -8   6 -14  120.48   12.65   0
  -7   5  18  458.90   16.24   0
  -4   3  23   23.03    9.09   0
  -8   6   4  291.47   13.95   0
  -7   4  28  458.19   16.97   0
  -6   5  13    8.68   11.01   0
  -9   5  22  122.60   13.55   0
  -9   6   9    2.31   11.94   0
  -8   6 -17   -5.49   11.27   0
  -5   5 -10  751.83   17.62   0
  -5   5  -4 1200.47   20.30   0
  -5   5  -1    7.93    9.56   0
  -4   4  10  438.37   13.52   0
  -3   2  25   11.05    7.94   0
  -9   4  29    4.92   11.66   0
  -9   6 -21    7.13   10.12   0
  -8   4  30  140.22   12.95   0
  -8   6   7   -5.44   10.32   0
  -7   6  -7    9.24   11.26   0
  -6   3  33   14.68   10.67   0
  -6   4  26  430.45   14.91   0
  -8   5  23   -5.27   11.98   0
  -8   6 -20  233.37   14.09   0
  -7   6 -10  280.39   14.08   0
  -7   6  -1   -0.00   11.32   0
  -5   5 -13    3.82    7.55   0
  -3   3  15   -0.16    8.13   0
  -9   6  12  198.22   14.46   0
  -8   6  10  238.54   15.44   0
  -7   6 -13    6.69   10.13   0
  -7   6   2  421.84   16.27   0
  -6   5  16  753.48   17.40   0
  -5   5   5   -0.01    9.86   0
  -4   4 -23    1.92    7.90   0
  -7   6   5   26.23   11.63   0
  -5   3  31    5.86    9.92   0
  -5   5 -16  748.67   18.08   0
  -4   4  13    7.10    7.90   0
  -9   5  25    3.56   11.44   0
  -7   6 -16  720.97   18.32   0
  -9   6  15    8.01   13.02   0
  -8   6  13    9.79   11.13   0
  -7   4  31   -4.35   11.78   0
  -7   6   8  771.92   19.17   0
  -5   5   8 1032.49   19.00   0
  -4   3  26  712.42   17.89   0
  -8   5  26  214.95   14.47   0
  -6   4  29    1.00   10.46   0
  -6   5  19    3.15   11.02   0
  -5   4  24 1045.94   20.59   0
  -5   5 -19   -2.00    8.52   0
  -4   2  33    4.55    9.18   0
  -8   4  33   10.01   11.09   0
  -7   6 -19    8.37   10.35   0
  -4   4  16 1647.02   24.08   0
  -2   2  17   -3.43    7.12   0
  -9   6  18  117.64   13.49   0
  -8   6  16  484.13   15.83   0
  -7   6  11   -6.47   10.12   0
  -5   5  11   -0.84    8.66   0
  -9   5  28  108.19   14.36   0
  -7   6 -22  185.75   12.45   0
  -6   6   0  986.48   20.07   0
  -5   5 -22  259.05   13.52   0
  -3   2  28 1455.22   25.15   0
  -9   7  -7   -1.04   11.44   0
  -9   7  -1    4.93   11.55   0
  -8   6  19    0.95   12.02   0
  -7   6  14  163.59   12.34   0
  -6   6  -9   -0.88    8.58   0
  -5   5  14  705.44   17.43   0
  -9   7 -10  202.98   13.48   0
  -9   7   2  114.24   13.18   0
  -8   5  29   -4.12   12.74   0
  -7   4  34  211.19   14.44   0
  -7   5  27    2.87   12.06   0
  -6   6 -12  425.55   15.14   0
  -6   6   3    6.27    9.31   0
  -5   3  34  512.62   17.67   0
  -5   4  27    5.37   10.19   0
  -9   7 -13    5.24   10.91   0
  -9   7   5    1.05   11.73   0
  -6   4  32  400.72   16.28   0
  -6   6   6  289.13   14.01   0
  -4   3  29   -5.89    8.83   0
  -3   4  -4 1310.00   21.87   0
  -7   6  17    0.50   11.76   0
  -6   6 -15    5.43    9.71   0
  -3   3  21   -1.22    8.04   0
  -2   3  -2  674.98   17.49   0
  -9   7 -16  205.48   13.05   0
  -8   7  -9  -10.28   11.70   0
  -8   7  -6  133.94   11.89   0
  -8   7   0  480.97   16.73   0
  -6   6   9   -2.54   10.49   0
  -5   5  17   -0.71    8.68   0
  -3   4 -10 1136.63   20.95   0
  -3   4   2  889.63   17.85   0
  -8   7   3   10.21   12.54   0
  -6   5  25   17.32    9.56   0
  -2   3   1   54.36    7.81   0
  -9   7  11    3.17   12.14   0
  -8   7 -12  232.63   13.67   0
  -8   7   6  233.99   14.63   0
  -6   6 -18  309.85   13.89   0
  -4   5  -3   11.10    8.47   0
  -3   4   5    4.83    7.38   0
  -9   7 -19    1.16   10.74   0
  -8   5  32  270.25   14.89   0
  -8   7 -15    0.94   11.56   0
  -7   5  30   90.73   12.01   0
  -7   6  20  306.92   13.94   0
  -6   6  12  494.06   15.31   0
  -4   5  -9   26.66    8.91   0
  -4   5   0 1486.20   22.06   0
  -3   4 -13   13.66    6.51   0
  -2   3   4 3044.55   32.93   0
  -9   7  14  171.59   14.08   0
  -8   7   9   -7.84   12.65   0
  -5   4  30  352.98   14.73   0
  -5   5  20  768.55   17.91   0
  -4   5   3   30.63    8.69   0
  -3   4   8 2864.33   30.36   0
  -8   6  25    0.27   11.11   0
  -6   6 -21   -0.05    9.29   0
  -4   5 -12 1175.19   20.97   0
  -9   6  27    5.87   11.29   0
  -8   7 -18  247.89   13.60   0
  -8   7  12  213.39   14.37   0
  -6   4  35    1.70   10.35   0
  -6   5  28  491.89   17.13   0
  -4   5   6  920.24   17.97   0
  -3   2  31    4.11    8.79   0
  -3   4 -16 2107.14   29.33   0
  -2   3   7    5.06    6.70   0
  -9   7  17    6.97   11.94   0
  -7   7  -8  689.40   18.47   0
  -7   7  -5   -5.72   11.16   0
  -7   7   1   -3.07   11.29   0
  -4   3  32 1017.70   21.14   0
  -3   3  24 1134.70   20.96   0
  -7   7   4  226.45   14.40   0
  -4   5 -15   -1.05    8.24   0
  -4   5   9    3.28    8.19   0
  -3   4  11   45.75    8.10   0
  -8   7  15    9.32   11.72   0
  -7   5  33    2.02   11.13   0
  -7   7 -11   -9.94    9.65   0
  -7   7   7    3.55   11.68   0
  -5   6  -2  367.24   14.28   0
  -5   6   1   15.93    9.98   0
  -4   4  25   -5.57    9.25   0
  -9   7  20  183.09   14.22   0
  -8   5  35   -6.88   11.91   0
  -7   7 -14  150.16   12.81   0
  -5   6  -8  912.29   18.90   0
  -5   6   4  854.92   18.64   0
  -2   3  10 2083.87   27.11   0
  -7   7  10  276.36   14.30   0
  -5   6 -11   13.62    9.51   0
  -4   5  12 1018.37   18.81   0
  -2   2  23   -5.52    7.34   0
  -8   7  18  182.86   13.61   0
  -6   5  31   -4.21   11.27   0
  -5   4  33    0.73   10.08   0
  -5   6   7    8.59    8.93   0
  -4   5 -18  772.88   18.39   0
  -3   4 -19   19.18    7.80   0
  -3   4  14  718.31   16.31   0
  -7   7 -17    1.54    9.97   0
  -7   7  13    1.19   12.40   0
  -6   6  21   14.50   11.31   0
  -9   8  -5   15.98   12.09   0
  -9   8  -2  135.69   12.99   0
  -5   5  26  252.80   13.58   0
  -5   6 -14  452.82   15.03   0
  -5   6  10  538.43   15.27   0
  -4   5  15   23.55    8.63   0
  -2   3  13   29.41    8.46   0
  -9   8  -8  183.93   12.94   0
  -9   8   4  243.87   14.08   0
  -8   6  31   -5.43   11.70   0
  -8   7  21   -2.41   11.81   0
  -3   3  27    2.87    8.24   0
  -9   8 -11   -0.75   12.27   0
  -9   8   7   19.86   11.66   0
  -7   5  36  339.72   15.45   0
  -7   7 -20  191.89   14.03   0
  -7   7  16  629.45   17.93   0
  -5   6  13   25.48   10.81   0
  -4   4  28  719.77   16.97   0
  -3   4  17   -3.85    7.47   0
  -7   6  29   17.86   11.35   0
  -5   6 -17    3.39    8.99   0
  -4   3  35    5.77    9.75   0
  -4   5 -21    7.15    8.83   0
  -9   8  10  124.25   12.95   0
  -6   7  -7    4.65   10.66   0
  -6   7  -4  310.82   13.15   0
  -6   7   2  407.09   14.27   0
  -4   5  18  435.52   13.78   0
  -8   8  -4  290.50   15.06   0
  -8   8   2  112.27   13.47   0
  -7   7  19   -1.48   11.74   0
  -6   5  34  281.33   14.88   0
  -6   7   5   22.70    9.89   0
  -5   6  16  734.55   17.99   0
  -3   4 -22  348.98   14.34   0
  -9   8  13   -5.47   11.44   0
  -8   8  -7    3.77   10.93   0
  -8   8   5   -7.46   11.76   0
  -6   7 -10  243.46   12.61   0
  -6   7   8  752.12   18.85   0
  -5   4  36  392.87   15.53   0
  -5   5  29   -7.73    9.87   0
  -2   3  16 2050.22   26.56   0
  -8   6  34  178.08   13.49   0
  -8   8 -10  210.41   13.79   0
  -8   8   8  307.90   15.49   0
  -5   6 -20  550.80   16.22   0
  -2   2  26 1329.28   24.16   0
  -7   6  32  336.81   15.59   0
  -6   6  27   -6.76   11.85   0
  -6   7 -13   10.09   10.36   0
  -6   7  11   -3.61    9.87   0
  -4   5  21    6.69    9.32   0
  -8   7  27   12.14   11.47   0
  -8   8 -13    0.36   10.56   0
  -8   8  11   -8.07   11.79   0
  -7   7  22  140.96   11.93   0
  -5   6  19    7.89    9.08   0
  -4   4  31   -3.40    9.36   0
  -3   3  30  332.16   13.64   0
  -6   7 -16  693.17   17.78   0
  -6   7  14  160.96   12.66   0
  -8   8  14  182.42   13.72   0
  -8   8 -16  194.05   13.47   0
  -6   5  37    1.90   12.41   0
  -3   4  23   18.21    8.98   0
  -7   8  -3   -5.04   11.72   0
  -6   6  30  143.50   13.05   0
  -6   7  17  -10.19    9.83   0
  -5   6  22  257.59   12.38   0
  -4   6  -1    7.82    9.59   0
  -3   5   1    1.03    7.40   0
  -3   5   4  774.59   16.92   0
  -8   6  37    1.68   11.36   0
  -8   7  30  104.21   12.60   0
  -8   8  17    6.59   11.01   0
  -7   6  35    0.99   12.23   0
  -7   8  -6  140.37   12.56   0
  -7   8   3   -0.44   10.08   0
  -7   8   6  256.57   14.78   0
  -6   7 -19    9.61   10.12   0
  -4   6   2  655.96   15.59   0
  -4   6   5   -2.85    9.97   0
  -7   8  -9    1.64   11.23   0
  -4   6  -7   -3.57    9.08   0
  -3   5  -8 2246.91   27.53   0
  -3   5   7   11.53    7.84   0
  -7   8   9   -1.43   11.18   0
  -6   7  20  293.05   14.86   0
  -4   6   8  944.94   18.18   0
  -8   8  20  191.47   13.07   0
  -7   7  28  178.13   13.84   0
  -7   8  12  238.39   14.48   0
  -4   4  34  298.62   13.89   0
  -4   6 -10  407.84   14.16   0
  -3   5 -11    6.13    8.05   0
  -3   5  10  790.18   16.58   0
  -2   4   0 4171.21   36.19   0
  -2   4   3   -0.78    7.90   0
  -5   7   3   -6.27   10.40   0
  -4   5  27    5.74    9.93   0
  -4   6  11   -4.87    8.73   0
  -3   4  26  694.76   17.11   0
  -2   2  29   -0.98    7.25   0
  -2   3  22  467.26   13.78   0
  -2   4  -3    1.06    6.54   0
  -8   7  33   -5.26   12.07   0
  -7   8  15   -0.63   12.37   0
  -6   6  33    0.02   11.66   0
  -5   5  35   -5.15   10.44   0
  -5   7  -6  447.55   15.30   0
  -5   7   6  207.35   11.72   0
  -3   3  33   -1.17    8.16   0
  -3   5  13   -1.24    9.19   0
  -2   4   6  840.84   17.18   0
  -8   8  23    2.55   11.49   0
  -7   8 -15   -5.94    9.90   0
  -6   7  23    4.23   10.46   0
  -5   7  -9   -6.22    9.96   0
  -5   7   9    2.76   11.02   0
  -4   6 -13   -2.87    7.82   0
  -4   6  14  336.29   12.98   0
  -7   6  38   73.75   11.91   0
  -3   5 -14  389.67   13.86   0
  -2   4   9   -0.68    6.99   0
  -7   7  31    6.95   11.27   0
  -7   8  18  150.50   13.41   0
  -5   6  28  486.63   16.17   0
  -5   7  12  535.32   15.62   0
  -3   5  16 2002.23   25.26   0
  -2   4  -9   -2.65    6.08   0
  -5   7 -12  432.53   15.08   0
  -4   6 -16  810.59   18.17   0
  -4   6  17   -3.41    8.85   0
  -2   4  12  827.61   17.56   0
  -5   7  15    5.06   11.18   0
  -4   5  30  363.22   14.19   0
  -8   9  -2  135.06   12.48   0
  -8   9   1    1.40   11.85   0
  -7   8  21   -9.07   12.06   0
  -6   6  36  274.78   14.28   0
  -6   8  -5   14.79   11.02   0
  -6   8  -2  258.88   12.76   0
  -6   8   4  250.06   12.88   0
  -6   8   7   -8.99   11.73   0
  -4   4  37   -1.44    9.41   0
  -3   4  29    4.54    8.75   0
  -2   3  25   14.03    6.86   0
  -2   4 -12  801.60   18.16   0
  -8   9  -5   -6.21   11.39   0
  -8   9   7   -1.68   10.38   0
  -5   7 -15    2.54    9.29   0
  -4   6  20  713.59   17.62   0
  -3   5 -17    3.55    7.78   0
  -3   5  19   14.34    8.19   0
  -8   9  -8  171.33   12.38   0
  -8   9  10  113.22   13.72   0
  -7   7  34  186.36   14.59   0
  -6   8  -8  514.72   16.71   0
  -6   8  10  231.84   12.82   0
  -5   5  38  259.17   14.41   0
  -5   6  31    4.36   10.81   0
  -2   4  15   -0.91    7.15   0
  -8   9  13   -0.65   11.35   0
  -7   8  24  311.60   15.02   0
  -6   7  29   10.60   11.41   0
  -6   8  13    3.30   11.59   0
  -4   6 -19   -5.84    8.34   0
  -8   9 -11    5.34    9.76   0
  -6   8 -11    6.84   10.39   0
  -3   3  36  913.90   20.33   0
  -6   8  16  500.65   17.09   0
  -5   7 -18  177.05   11.92   0
  -5   7  21   -2.53    9.63   0
  -4   5  33    1.07   10.01   0
  -4   6  23   -6.17    9.08   0
  -2   2  32  656.13   18.04   0
  -2   4  18 1163.55   20.18   0
  -2   4 -15    3.49    7.17   0
  -1   3   2  729.36   17.27   0
  -6   6  39    4.84   10.57   0
  -6   8 -14  147.61   12.14   0
  -3   4  32  993.82   20.16   0
  -3   5 -20  594.08   16.87   0
  -2   3  28 1484.25   23.84   0
  -1   3  -1   50.56    7.39   0
  -1   3   5   17.45    6.68   0
  -7   7  37    4.66   11.88   0
  -7   9  -1   -9.91   11.80   0
  -7   9   5    7.27   11.54   0
  -6   7  32  336.38   15.61   0
  -6   8  19  -10.28   12.02   0
  -5   6  34  269.15   14.45   0
  -5   7  24  385.13   15.24   0
  -7   9  -4  233.97   13.49   0
  -7   9   8  246.02   14.07   0
  -1   2  21   30.59    7.30   0
  -1   3   8 3402.44   33.67   0
  -7   9  -7   -4.81   12.49   0
  -7   9  11   10.25   11.20   0
  -6   8 -17    2.17    9.93   0
  -4   7   1   11.38    9.56   0
  -4   7   4  696.48   16.89   0
  -3   6   0 1123.43   20.02   0
  -3   6   3    4.69    8.86   0
  -7   8  30   94.10   12.44   0
  -6   8  22  122.73   13.59   0
  -4   7   7   12.38    9.18   0
  -3   6   6  502.93   14.07   0
  -1   3  11   21.73    7.10   0
  -7   9 -10  184.82   13.91   0
  -7   9  14  170.63   13.49   0
  -4   5  36  391.93   15.08   0
  -4   7  -5   10.33    8.43   0
  -4   7  10  448.36   14.12   0
  -3   6   9    7.12    8.32   0
  -6   7  35    4.49   11.47   0
  -4   7  13   17.02   10.82   0
  -3   6  -6  487.53   13.99   0
  -3   6  12  820.70   17.57   0
  -2   4 -18 1049.94   21.97   0
  -7   9  17   -0.78   11.55   0
  -6   8  25   19.23   11.17   0
  -5   6  37    1.53   10.46   0
  -5   8  -1   -2.56    8.99   0
  -5   8   5   -7.32    9.57   0
  -5   8   8  547.38   16.41   0
  -4   6  29   -4.74    8.81   0
  -4   7  -8  619.33   15.79   0
  -3   5  28  448.64   14.71   0
  -1   3  14 1686.09   24.19   0
  -7   9 -13    5.24    9.62   0
  -5   8  -4  340.57   13.06   0
  -5   8  11   -5.00   11.22   0
  -4   7  16  482.85   16.08   0
  -3   4  35    7.99    9.24   0
  -3   6  -9    6.30    8.75   0
  -3   6  15   -2.44    9.35   0
  -2   3  31    9.29    7.76   0
  -2   4  24 1875.65   24.48   0
  -2   5  -1    1.79    8.15   0
  -2   5   2  860.53   17.09   0
  -2   5   5   19.49    8.77   0
  -7   8  33   -2.33   10.79   0
  -7   9  20  168.36   13.20   0
  -5   8  -7    6.98   10.14   0
  -4   7 -11    0.28    8.75   0
  -2   5   8 2312.25   25.90   0
  -5   7  30   99.14   10.99   0
  -5   8  14  180.62   13.84   0
  -2   5  11    8.24    8.82   0
  -1   2  24 1892.51   27.55   0
  -5   8 -10  243.64   13.41   0
  -4   7  19   -1.64   10.88   0
  -3   6 -12  794.36   17.76   0
  -3   6  18  465.07   14.21   0
  -1   3  17   22.59    8.09   0
  -7   9  23    8.76   10.94   0
  -6   7  38   73.43   12.37   0
  -5   8  17   -9.55   11.81   0
  -4   6  32  431.32   15.47   0
  -4   7 -14  405.73   15.18   0
  -2   5  -7   13.45    8.11   0
  -2   5  14  427.87   14.01   0
  -6   9  -3   23.28   11.67   0
  -6   9   0  393.09   15.84   0
  -6   9   6  209.25   13.03   0
  -6   9   9   -4.78   10.97   0
  -4   5  39    4.46    9.96   0
  -3   5  31   13.12    9.58   0
  -2   4  27   -0.39    8.58   0
  -6   9  12  194.88   13.40   0
  -5   6  40  237.71   13.63   0
  -5   7  33   -7.93   11.42   0
  -5   8 -13   -7.20   10.18   0
  -5   8  20  246.37   14.21   0
  -4   7  22  208.26   13.45   0
  -3   6  21   18.84    8.54   0
  -6   8  31    4.20   10.90   0
  -6   9  -6  100.29   11.34   0
  -3   6 -15    1.57    8.46   0
  -2   5 -10  737.57   16.98   0
  -2   5  17    1.54    7.88   0
  -6   9  15    5.40   11.99   0
  -3   4  38  195.95   12.13   0
  -2   4 -21   -0.45    7.36   0
  -6   9  -9   -0.62   10.23   0
  -5   8  23   -4.22   11.22   0
  -4   7 -17   10.10    9.08   0
  -4   7  25    8.69   10.92   0
  -3   6  24  685.63   17.21   0
  -2   3  34  669.38   17.26   0
  -5   8 -16  451.78   15.40   0
  -4   6  35   -0.74    9.38   0
  -2   5  20  656.67   16.25   0
  -6   7  41    2.05   10.22   0
  -3   5  34  500.16   15.47   0
  -2   4  30  224.56   12.03   0
  -1   2  27   -4.60    6.83   0
  -6   8  34  172.89   12.79   0
  -6   9 -12  177.08   12.93   0
  -6   9  21    0.83   11.29   0
  -5   7  36  331.78   15.03   0
  -2   5 -13    2.69    7.36   0
  -1   4   1   35.46    7.29   0
  -1   4   4 1326.40   20.50   0
  -1   4   7   21.55    7.41   0
  -3   6 -18  438.80   14.42   0
  -1   3  23    0.03    7.50   0
  -1   4  -2  887.08   17.90   0
  -1   4  10 1213.64   19.49   0
  -6   9  24  255.17   13.87   0
  -4   8   6  236.90   12.29   0
  -4   8   9   -5.45   10.89   0
  -3   7   5   16.20    8.86   0
  -3   7   8  641.69   15.88   0
  -1   4  13   13.27    7.31   0
  -4   6  38  128.75   12.88   0
  -4   8  -3   -8.10   10.38   0
  -4   8  12  323.93   14.70   0
  -3   7  11    0.36    9.04   0
  -6   8  37    2.51   10.67   0
  -4   7  31    1.07   11.45   0
  -4   8  15    7.04   11.54   0
  -3   7  -4  748.96   17.41   0
  -3   7  14  402.65   14.57   0
  -2   5 -16 1851.27   26.18   0
  -1   4  16 2271.47   26.59   0
  -6   9  27   -0.31   10.93   0
  -5   7  39   12.34   11.42   0
  -5   9   1    0.80   10.81   0
  -5   9   7    2.60   11.40   0
  -5   9  10  141.92   13.41   0
  -4   8  -6  244.12   13.52   0
  -3   5  37   -5.41    9.75   0
  -3   6  30  219.66   12.92   0
  -2   4  33   -0.19    8.65   0
  -2   6   4  955.48   18.58   0
  -5   9  -2  196.32   13.00   0
  -5   9  13    3.30   11.73   0
  -4   8  18  246.14   13.62   0
  -3   7  -7    1.34    9.42   0
  -3   7  17   26.60    9.33   0
  -2   3  37    2.49    7.98   0
  -2   6   1    2.79    9.05   0
  -2   6   7    1.29    8.15   0
  -2   6  10  413.02   13.82   0
  -1   3  26  562.50   15.35   0
  -1   4  -8 2761.95   30.60   0
  -5   8  32  255.97   14.44   0
  -4   8  -9   -0.99   10.28   0
  -2   6  13    4.10    9.74   0
  -1   2  30  654.87   17.70   0
  -1   4  19   18.73    8.20   0
  -5   9  -5   12.28   10.08   0
  -5   9  16  401.19   15.94   0
  -3   7  20  503.47   15.48   0
  -4   7  34  224.04   13.50   0
  -4   8  21    5.52    9.77   0
  -3   7 -10  445.19   14.61   0
  -2   5  29    3.06    9.17   0
  -2   6  -5   -2.52    8.71   0
  -2   6  16  852.75   17.86   0
  -5   9  -8  434.64   15.61   0
  -5   9  19  -18.44   11.60   0
  -4   6  41   -4.79   10.46   0
  -4   8 -12  311.79   13.66   0
  -3   6  33    5.58   10.30   0
  -5   7  42  195.41   13.44   0
  -4   8  24  390.41   15.33   0
  -3   7  23    0.53   10.91   0
  -2   6  19    6.49    9.99   0
  -1   4 -11   45.50    7.81   0
  -5   8  35   -6.87   10.91   0
  -5   9 -11    3.17   11.37   0
  -5   9  22  124.03   12.54   0
  -3   5  40  524.93   16.27   0
  -3   7 -13   13.86    9.23   0
  -2   4  36  423.27   14.50   0
  -2   5 -19   10.18    7.67   0
  -2   6  -8  917.64   17.71   0
  -1   3  29    8.87    7.86   0
  -4   7  37   -2.41   11.31   0
  -4   8 -15   -0.34   10.27   0
  -4   8  27    9.24   11.46   0
  -3   7  26  176.66   12.87   0
  -2   6  22  433.68   14.57   0
  -1   5   6  394.18   13.45   0
  -5   9  25  -12.54   11.21   0
  -3   6  36  367.41   14.99   0
  -2   5  32  782.02   17.15   0
  -2   6 -11    0.38    8.42   0
  -1   4  25   -2.76    8.50   0
  -1   5   3    1.03    7.19   0
  -1   5   9   33.15    7.87   0
  -1   5   0 1473.16   21.26   0
  -1   5  12 1204.52   19.43   0
  -5   8  38   61.22   11.25   0
  -3   7 -16  478.36   15.01   0
  -2   6  25    2.21   10.00   0
  -1   5  15   -1.86    8.65   0
  -5   9  28  107.78   12.15   0
  -1   2  33    5.31    6.93   0
  -1   4 -14  713.99   17.32   0
  -3   8   7    1.02   10.72   0
  -3   8  10  244.73   14.21   0
  -1   3  32 1289.56   22.01   0
  -1   5  18  803.18   17.06   0
  -4   7  40  188.18   13.32   0
  -4   9   2  221.39   13.56   0
  -4   9   8  458.58   15.82   0
  -4   9  11  -10.96   11.01   0
  -3   8  13   -6.96   10.91   0
  -2   4  39    4.84    8.46   0
  -2   5  35    9.31    9.50   0
  -2   6 -14  334.20   13.00   0
  -1   4  28  803.65   17.34   0
  -1   5  -6  929.26   18.02   0
   0   3   3    2.74    7.27   0
   0   3   6 2089.97   25.72   0
   0   3   9    2.68    6.48   0
  -4   9  -1   -2.05   10.79   0
  -4   9  14  112.35   12.40   0
  -3   6  39   -2.44   10.50   0
  -3   8  -2  260.99   13.28   0
   0   2  19   -0.55    5.60   0
   0   3  12 2093.99   25.36   0
  -4   8  33   11.85   10.76   0
  -3   7  32  356.84   15.21   0
  -3   8  16  481.55   15.40   0
  -2   7   3   13.11   10.17   0
  -2   7   9    5.45   10.29   0
  -1   5  21   10.03    8.15   0
   0   3   0 2782.41   30.35   0
  -4   9  -4  177.39   12.26   0
  -4   9  17   -0.55   10.46   0
  -3   8  -5   -2.43    9.89   0
  -3   8  19   -5.50   10.92   0
  -2   7  12  458.00   14.18   0
   0   3  15    1.41    6.45   0
  -5  10   3    6.09   10.05   0
  -5  10   6  120.56   11.22   0
  -4   9  20  162.62   12.73   0
  -2   7  15   -3.89    9.09   0
  -1   5  -9    7.71    7.72   0
  -5  10   0  245.73   12.79   0
  -4   9  -7    5.07   10.55   0
  -3   8  22  142.24   13.40   0
  -2   6  31   -0.90    9.49   0
  -2   7  -3    1.94    9.50   0
  -2   7  18  232.63   13.17   0
  -1   4  31   18.88    8.65   0
   0   3  -3   -6.21    6.93   0
  -5  10  -3    5.53   10.42   0
  -3   7  35   -6.31   10.97   0
  -3   8  -8  532.60   15.95   0
  -2   6 -17   -0.06    7.96   0
  -1   4 -17    1.54    6.61   0
   0   3  18  544.27   13.99   0
  -4   7  43   -2.38   11.11   0
  -4   8  36  160.27   13.52   0
  -4   9  23  -11.09   10.36   0
  -2   5  38  113.60   11.19   0
  -2   7  -6  187.07   11.75   0
  -2   7  21   -3.38   10.62   0
  -1   3  35   -1.94    7.58   0
  -4   9 -10  170.17   12.36   0
  -3   6  42  188.65   12.72   0
  -3   8  25   11.23   11.00   0
  -4   9  26  183.96   12.95   0
  -3   8 -11    4.24    9.19   0
  -1   5 -12 1001.90   19.16   0
  -1   5  27    2.42    8.15   0
  -1   6   5    0.16    8.15   0
  -1   6   8  894.17   17.31   0
  -1   6  11   13.39   10.03   0
  -2   6  34  213.15   13.37   0
  -2   7  -9    7.85    9.15   0
  -2   7  24  547.92   16.29   0
  -1   6   2  349.71   12.45   0
  -1   6  14  467.68   14.84   0
   0   4   5    2.58    8.09   0
   0   4   8 1676.50   22.21   0
   0   4  11   -5.57    7.93   0
  -3   8  28  210.47   13.13   0
  -1   4  34  604.21   16.05   0
  -1   6  17    6.38   10.16   0
   0   4   2 1493.97   21.78   0
   0   4  14  363.10   12.97   0
  -4   8  39   10.10   10.12   0
  -3   7  38  178.06   12.33   0
   0   2  25    1.87    6.58   0
  -3   8 -14  169.50   12.12   0
  -2   7  27   -9.81   10.61   0
  -1   5  30  207.41   12.13   0
  -1   6  -4  807.40   17.21   0
  -1   6  20  559.88   15.82   0
   0   3  24 1663.69   23.27   0
   0   4  -1    6.06    7.64   0
   0   4  17    4.97    8.70   0
  -2   5  41    4.60    9.23   0
  -2   7 -12  529.42   15.39   0
  -2   6  37   -7.66   10.06   0
  -1   5 -15   24.79    7.81   0
   0   3  -9    1.63    6.54   0
  -3   9   9   15.84   10.58   0
  -3   9  12  196.60   13.47   0
  -1   6  -7    1.27    8.77   0
  -1   6  23   -0.18    8.71   0
   0   4  20 1375.12   20.37   0
  -3   7  41    0.85   11.17   0
  -3   9   3    0.60   10.95   0
  -3   9  15    8.98   10.88   0
  -1   4 -20  836.96   20.05   0
  -3   8  34  174.58   13.17   0
  -3   9   0  407.90   14.89   0
  -3   9  18  220.66   14.02   0
  -2   8   5  -11.79   10.93   0
  -2   8   8  534.70   15.00   0
  -2   8  11   -4.60    9.22   0
  -2   8  14  157.61   12.81   0
  -1   4  37   -1.01    8.49   0
  -1   5  33    2.48    8.15   0
   0   2  28 1159.19   21.15   0
   0   3  27    2.15    7.38   0
  -2   8  17    8.39   11.24   0
  -3   9  -3   -4.40   11.02   0
  -3   9  21   -2.30   10.89   0
  -2   7  33    2.37   11.11   0
  -2   8  -1   -9.78   10.16   0
  -1   6 -10  529.46   15.05   0
   0   4  -7   -3.65    7.28   0
   0   5   7   10.94    8.99   0
   0   5  10  763.53   16.94   0
  -2   6  40  316.09   14.19   0
  -2   8  20  232.28   13.50   0
   0   5   4 1226.08   19.95   0
   0   5  13   -0.54    7.98   0
  -3   9  24  233.34   13.49   0
  -2   8  -4  276.26   13.17   0
  -1   5 -18  397.94   14.16   0
   0   4  26  805.35   17.20   0
   0   5   1    4.00    8.48   0
   0   5  16  774.06   17.16   0
  -3   8  37    2.57   10.16   0
  -1   5  36  566.05   16.07   0
  -1   7   4  325.03   13.23   0
  -1   7   7    5.27    9.11   0
  -1   7  10  246.87   12.08   0
  -1   7  13   10.97   10.61   0
   0   3 -12 2512.35   31.18   0
   0   3  30  618.35   15.98   0
  -3   7  44  167.01   13.07   0
  -1   7  16  721.94   16.62   0
   0   5  19   -8.78    8.14   0
  -3   9  -9   -4.16    9.52   0
  -3   9  27    4.63   10.42   0
  -2   7  36  214.30   13.75   0
  -2   8  -7    0.94   10.04   0
  -2   8  26  261.80   13.97   0
  -1   4  40  525.75   15.50   0
  -1   6 -13    8.07    8.52   0
  -1   7  19   10.56   10.62   0
   0   4 -10  464.94   13.91   0
  -1   6  32  438.53   15.62   0
  -1   7  -2  388.52   14.18   0
   0   2  31   -0.49    6.59   0
   0   4  29    6.97    8.53   0
   0   5  22  276.69   11.55   0
  -2   6  43   -5.19   10.27   0
  -1   7  22  204.07   12.84   0
   0   5  -5    0.02    8.27   0
  -2   8 -10  233.01   12.47   0
  -1   7  -5   11.97    9.83   0
  -1   5  39    2.16    9.23   0
  -1   7  25   10.47   11.07   0
   0   3  33    4.28    7.69   0
  -2   7  39    0.54   11.14   0
  -1   6  35    1.30   10.11   0
  -1   6 -16  664.84   16.56   0
   0   4 -13    0.11    7.03   0
   0   4  32  529.55   14.32   0
   0   5  -8 1072.89   19.07   0
   0   6   9    2.42    9.48   0
   0   6  12  415.35   14.09   0
  -2   8 -13   12.44   10.73   0
  -2   8  32  244.81   13.48   0
   0   5  28  699.60   15.90   0
   0   6   3  -12.40    9.50   0
   0   6   6  462.04   13.78   0
   0   6  15   -1.31    8.62   0
   1   2   8 3426.81   32.79   0
   1   2  11   23.92    6.62   0
   1   3  10 1229.23   19.56   0
  -2   9  10  182.11   12.92   0
  -2   9  13    1.49   10.81   0
   0   6  18  306.06   13.21   0
   1   2   5   10.92    6.31   0
   1   2  14 1657.56   22.96   0
   1   3   7   18.41    6.89   0
   1   3  13    3.14    6.95   0
  -2   9   4  229.33   12.60   0
  -2   9  16  233.14   13.27   0
   0   2  34  288.50   12.38   0
   1   3   4 1349.73   20.21   0
   1   3  16 2239.65   25.23   0
  -2   7  42  103.40   12.50   0
  -2   9   1   -5.16   10.21   0
  -2   9  19    4.28   10.57   0
  -1   5  42  244.72   13.02   0
  -1   6  38  172.27   11.96   0
  -1   7 -11    8.58    9.36   0
  -1   7  31   -0.02   11.09   0
   0   6  21   -8.99    8.86   0
   1   2   2  728.78   16.68   0
  -2   8  35   -3.57   11.24   0
  -1   8   9    6.57   10.55   0
  -1   8  12  243.62   13.35   0
   0   4  35    3.50    8.70   0
   0   5 -11    6.77    8.04   0
   0   5  31    0.51    8.32   0
   0   6  -3   -2.84    9.24   0
   1   3   1   45.56    7.19   0
   1   3  19   21.75    7.09   0
  -2   9  -2   88.93   11.07   0
  -2   9  22   62.91   11.24   0
  -1   8  15  -10.93   11.28   0
   0   6  24  683.22   16.27   0
   1   2  20 1468.03   22.04   0
   1   4   6  398.16   13.22   0
   1   4   9   28.60    7.79   0
   1   4  12 1220.84   19.05   0
   1   4  15   -0.07    7.52   0
  -2  -5  18  439.97   17.18   0
  -2  -4  20  716.76   19.08   0
  -2  -3  19    8.67    8.76   0
  -1  -3  29   -4.36    9.46   0
  -1  -2  25   20.22    8.67   0
   0  -6  36  267.42   15.05   0
   1  -5  42  215.91   16.30   0
   2  -2  34  296.91   14.49   0
  -1  -5  31   -1.36   12.59   0
   0  -5  38  251.75   15.99   0
   1  -4  41   11.29   10.69   0
   1  -1  26 1184.52   23.46   0
  -1  -7  24  315.99   16.66   0
  -1  -6  29   -7.15   12.58   0
  -1  -1  18 1171.57   21.89   0
   0  -3  36  995.20   20.53   0
   1  -7  41    7.13   13.33   0
   1  -6  43  -15.10   13.30   0
   2  -7  45   -8.32   12.01   0
   3  -6  48  174.28   16.03   0
   3  -5  47    1.60   13.84   0
  -2  -5  21    6.49   12.13   0
  -2  -4  23   14.29   11.24   0
  -1  -4  33   15.97   12.02   0
   2  -5  46   82.41   14.90   0
   2  -3  41   -0.06   11.51   0
  -1  -3  32 1020.37   21.48   0
  -1  -2  28 1527.71   24.37   0
   0  -1  25   -1.71    7.60   0
   4  -6  49    1.99   12.51   0
  -1  -7  27   -2.65   13.12   0
  -1  -5  34  269.54   16.60   0
   0  -6  39   -9.37   12.07   0
   2  -4  45   -5.39   12.70   0
   2  -1  27   -0.09    8.09   0
  -1  -1  21   18.17    8.45   0
   0  -7  37    3.35   12.91   0
   0  -5  41   -6.51   13.97   0
   0  -4  40  537.17   17.31   0
   1  -5  45   11.18   13.56   0
   1  -2  36  999.49   21.55   0
   3  -2  35   -4.86    9.67   0
  -2  -6  19    3.26   11.40   0
  -2  -5  24  385.93   16.62   0
  -2  -4  26  423.78   16.24   0
   3  -4  46  108.97   14.19   0
   3  -3  42  297.98   16.66   0
  -2  -2  21   -1.76    8.43   0
   0  -3  39  -13.97   12.10   0
   1  -7  44  145.01   14.62   0
   2  -2  37   -2.84   10.16   0
  -1  -4  36  365.87   15.53   0
   0  -2  35   -6.35   10.19   0
   1  -6  46   80.27   14.87   0
   1  -1  29   -0.45    8.72   0
  -2  -6  22  126.09   13.87   0
  -1  -7  30   84.27   14.39   0
  -1  -3  35    0.51   12.11   0
  -1  -2  31    5.03   10.94   0
   0  -6  42  163.38   15.20   0
   0  -1  28 1444.06   24.64   0
   2  -5  49   -4.61   13.98   0
   3  -6  51   -0.31   14.18   0
  -2  -5  27    8.67   10.74   0
  -1  -5  37   -7.79   11.47   0
  -1  -1  24 1948.49   27.36   0
   0  -7  40  215.21   15.14   0
   2  -6  50  127.56   15.69   0
   3  -5  50  214.89   16.56   0
  -3  -3   6  481.29   17.38   0
  -2  -3  28  450.61   15.44   0
  -2  -2  24 1930.70   26.41   0
   0  -4  43    2.84   12.41   0
   1  -3  43    4.41   10.24   0
   2  -3  44  375.82   17.03   0
  -3  -3   9   10.89    9.32   0
  -2  -1  14 1605.47   25.51   0
   0  -5  44  239.13   14.84   0
   1  -5  48  267.81   16.51   0
   2  -4  48  374.95   18.39   0
  -3  -3  12  808.57   20.03   0
  -2  -6  25    9.57   12.92   0
  -1  -7  33    9.96   12.03   0
  -1  -4  39   -4.54   12.55   0
   1  -2  39    0.32   10.73   0
  -3  -4  13   19.47   10.75   0
  -2  -5  30  112.65   14.62   0
   0  -3  42  369.08   16.84   0
   1  -6  49   13.42   14.26   0
   2  -1  30  640.11   19.39   0
  -3  -3  15   -2.11   10.22   0
  -2  -3  31   13.36   11.46   0
  -2  -2  27   -0.56   10.13   0
  -2  -1  17   18.07    7.98   0
  -1  -5  40  250.78   16.29   0
  -1  -3  38  195.71   13.27   0
  -1  -2  34  662.16   17.48   0
   0  -6  45   -7.66   13.09   0
   0  -2  38  294.72   13.74   0
   3  -4  49   -6.64   13.22   0
  -3  -4  16  500.11   17.37   0
  -2  -6  28  215.01   15.69   0
  -1  -1  27   -7.24    8.49   0
   1  -1  32 1894.93   28.73   0
   2  -2  40  932.53   22.24   0
   3  -3  45   -3.63   11.37   0
   2  -5  52  174.54   15.54   0
  -3  -3  18  450.99   15.41   0
  -3  -2   5   13.15    9.42   0
  -3  -2   8 2206.03   31.35   0
  -2  -5  33  -18.71   13.06   0
  -2  -1  20 1505.34   24.47   0
   0  -5  47   -1.54   14.52   0
   1  -3  46  177.85   15.08   0
   2  -6  53    6.34   12.96   0
   3  -5  53    1.58   14.36   0
  -3  -2  11    3.84    9.06   0
  -2  -4  35    2.35   13.56   0
  -1  -4  42  236.80   14.71   0
   2  -3  47    4.22   11.75   0
  -3  -3  21   -4.04   11.14   0
  -3  -2  14  426.46   15.52   0
  -2  -6  31    4.92   12.33   0
  -2  -3  34  518.31   16.81   0
  -2  -2  30  225.26   12.76   0
  -1  -6  41    3.96   13.25   0
  -1  -5  43    8.85   14.22   0
  -1  -3  41    7.64   13.03   0
  -1  -2  37    6.56   11.67   0
   0  -3  45   -2.44   12.89   0
   1  -4  50  227.49   16.42   0
   1  -2  42  394.24   16.64   0
   2  -4  51   -0.99   13.81   0
  -3  -4  22  226.33   14.82   0
  -1  -1  30  651.62   17.07   0
   0  -6  48  143.63   14.97   0
  -3  -2  17    2.44    9.77   0
  -2  -5  36  322.67   17.21   0
  -2  -1  23    5.20    8.54   0
  -3  -5  20  250.12   14.96   0
  -3  -3  24  689.98   19.06   0
   1  -1  35   -3.92   10.01   0
   2  -1  33    4.02    9.10   0
  -3  -4  25    8.59   12.00   0
  -3  -2  20  660.23   18.15   0
  -2  -6  34  183.34   15.62   0
  -2  -2  33    4.90   11.03   0
  -1  -4  45    0.10   14.38   0
   0  -5  50  104.82   14.71   0
   0  -4  49    2.81   14.21   0
   2  -2  43    4.31   10.90   0
  -3  -5  23  -16.62   12.38   0
  -2  -3  37    7.85   11.31   0
  -2  -1  26  581.89   17.16   0
  -1  -6  44  178.56   14.75   0
   1  -3  49   -6.16   12.83   0
   2  -5  55   -8.77   14.73   0
  -3  -3  27    3.39   11.24   0
  -1  -5  46   80.05   14.28   0
  -1  -3  44  360.22   16.84   0
  -1  -2  40  531.16   16.85   0
  -1  -1  33    8.53    9.28   0
   1  -5  54   82.20   14.56   0
  -3  -4  28  463.18   17.87   0
  -3  -2  23   10.74    9.10   0
   1  -4  53   -5.19   14.35   0
   2  -3  50  217.69   16.08   0
   3  -5  56  139.69   14.64   0
  -3  -5  26  217.04   14.93   0
  -2  -6  37  -11.95   13.13   0
   0  -1  37   -7.41   10.34   0
   1  -2  45    5.90   10.64   0
   2  -4  54   44.41   14.36   0
  -2  -4  41    5.96   13.82   0
  -2  -3  40  504.51   18.82   0
  -2  -2  36  474.40   16.00   0
  -2  -1  29    3.03   10.14   0
  -3  -4  31   14.77   12.36   0
  -1   0  20 1513.95   25.51   0
   0  -5  53    9.86   14.10   0
   0  -4  52  166.86   15.81   0
   1  -1  38  293.66   14.88   0
  -3  -5  29   10.35   12.36   0
  -1  -2  43   -4.01   12.84   0
   2  -1  36 1005.49   23.56   0
  -3  -1  10 1181.49   23.17   0
  -3  -1  13   10.63    7.78   0
  -3  -1  16 2125.53   28.99   0
  -1  -5  49   11.08   12.54   0
  -1  -3  47    5.65   11.64   0
   1  -3  52  368.98   18.37   0
   2  -2  46  304.15   16.18   0
  -3  -1   7   19.20    8.59   0
  -2  -2  39    4.23   12.76   0
  -2  -1  32 1363.48   23.37   0
  -1   0  23    1.91    7.73   0
   1  -5  57    3.24   12.90   0
   2  -5  58  158.11   15.94   0
  -3  -5  32  252.12   16.49   0
  -3  -4  34  232.74   15.84   0
  -2  -4  44  289.01   17.28   0
  -2  -3  43   -7.97   13.42   0
   0  -2  47  -10.06   11.76   0
   0  -1  40  876.34   20.73   0
   1  -4  56  185.70   16.87   0
   1  -2  48  404.90   17.48   0
   2  -3  53   -0.76   13.11   0
  -3  -2  32  784.37   20.03   0
  -1  -4  51   11.21   14.43   0
  -1  -1  39   -6.93   10.90   0
   0   0  27   -1.36    7.34   0
   2  -4  57   13.96   13.37   0
  -2  -5  45   -2.49   11.98   0
  -2  -1  35    0.60   10.96   0
  -2   0  13   -3.67    7.21   0
  -2   0  16 3054.36   35.28   0
  -1  -2  46  158.32   14.45   0
   1  -1  41   -1.03   10.43   0
  -3  -5  35   11.22   12.19   0
  -3  -4  37   -7.80   12.16   0
  -3  -1  25    0.20    8.92   0
  -2  -2  42  467.15   17.45   0
  -2   0  19    4.53    9.10   0
  -1  -3  50  223.29   15.46   0
  -2  -4  47  -10.65   14.16   0
  -2  -3  46   74.67   14.38   0
   2  -1  39    3.66    9.99   0
  -4  -3  17   16.29   10.79   0
  -3  -2  35    0.33   10.72   0
  -3  -1  28  786.76   19.18   0
  -2   0  22 1967.48   27.25   0
  -1   0  29    0.24    9.62   0
   0  -3  54  100.03   14.96   0
   0  -1  43  -12.17   11.37   0
   0   0  30  163.50   12.08   0
   1  -3  55   -9.90   14.19   0
   2  -2  49   -7.68   12.77   0
  -4  -3  20  482.27   17.29   0
  -3  -3  39   -8.72   11.08   0
   0  -2  50  230.68   14.25   0
  -4  -3  23   -1.73   11.35   0
  -3  -5  38   77.27   14.25   0
  -2   0  25   -0.14    9.22   0
  -1  -4  54   56.60   14.83   0
   1  -4  59    3.69   13.60   0
   1  -2  51    4.03   12.17   0
   1   0  28 1381.50   27.17   0
  -4  -2  16  805.84   20.27   0
  -3  -2  38  127.46   14.24   0
  -3  -1  31    1.80   11.00   0
  -2  -2  45    5.24   13.50   0
  -1  -3  53  -22.07   14.50   0
  -1  -2  49   -5.42   11.24   0
  -4  -4  24  365.23   18.03   0
  -4  -3  26  188.99   14.67   0
  -4  -2  13    4.39    9.56   0
  -4  -2  19    0.22   10.45   0
  -2  -4  50  155.15   14.98   0
  -2  -3  49    4.19   13.77   0
  -1   0  32 1854.43   26.58   0
   1  -1  44  528.48   17.98   0
   2  -4  60  131.15   14.56   0
  -4  -2  10  388.53   16.16   0
  -4  -2  22  412.87   16.49   0
  -2   0  28 1169.96   21.28   0
   0   0  33   -3.07    7.93   0
  -4  -4  27    1.76   12.34   0
  -4  -3  29    2.67   12.61   0
  -4  -2  25    1.11   11.45   0
  -3  -1  34  603.55   18.13   0
  -2  -1  41   -7.74   10.64   0
   0  -1  46  136.71   13.99   0
  -3  -2  41   -9.73   13.03   0
   0  -3  57   -9.54   13.41   0
   0  -2  53   -7.99   13.19   0
   1  -3  58  140.46   15.37   0
   1   0  31    4.79    9.46   0
  -4  -4  30  107.52   14.27   0
  -4  -2  28  511.64   17.41   0
  -2  -2  48  382.11   17.93   0
  -2   0  31    1.68    8.93   0
  -1  -4  57    2.69   13.39   0
  -4  -3  32  327.35   16.45   0
  -3  -3  45   13.96   13.25   0
  -2  -4  53    9.49   13.30   0
  -1  -3  56  173.42   15.95   0
   1  -2  54  152.87   15.00   0
  -4  -2  31    4.95   12.06   0
  -3  -1  37   -7.32   10.46   0
  -3   0  18  542.51   16.69   0
  -2  -3  52  180.16   15.26   0
  -2  -1  44  423.32   17.15   0
   0   0  36  645.63   17.40   0
  -4  -4  33   11.24   12.13   0
  -3  -2  44  270.00   16.50   0
  -3   0  21   -0.49    8.27   0
  -2   0  34  319.01   14.70   0
   1  -1  47    3.41   11.29   0
  -4  -3  35  -10.35   12.34   0
  -4  -1  15    4.14    9.73   0
  -4  -1  18  777.06   18.33   0
  -4  -1  21   16.93   10.34   0
  -3   0  24 1727.54   25.08   0
   0  -1  49   -3.05   12.19   0
  -4  -2  34  202.10   14.81   0
  -4  -1  24  755.51   18.14   0
  -3  -1  40  554.13   17.94   0
  -3   0  27    6.96    9.92   0
  -2  -2  51   -7.05   14.11   0
   0  -2  56  158.30   16.00   0
   1   0  34 1002.81   22.55   0
  -4  -4  36  171.05   14.32   0
  -4  -1  27   15.74   11.14   0
  -3  -3  48  214.09   15.10   0
   0   0  39   13.61   10.15   0
  -4  -3  38  163.30   14.45   0
  -2  -3  55   11.25   13.77   0
  -2  -1  47  -11.31   12.25   0
  -2   0  37   -1.35    9.50   0
   1  -3  61   -7.11   14.19   0
  -4  -1   9   26.58   10.26   0
  -3  -2  47    4.84   11.82   0
  -3   0   9    3.51    6.80   0
   1  -2  57    3.25   14.87   0
  -4  -4  39   -0.16   11.93   0
  -3  -1  43    2.84   12.81   0
  -1  -1  51   -0.40   13.12   0
   1  -1  50  333.82   16.43   0
  -4  -3  41  -15.01   12.48   0
  -3  -3  51   14.25   13.49   0
  -3   0  33   -0.35    9.61   0
  -2  -2  54   62.87   14.23   0
  -2   0  40  947.16   20.72   0
   0  -1  52  376.54   17.42   0
   1   0  37   -2.23    9.02   0
   0   0  42  953.14   21.54   0
  -4  -1  36  595.63   18.73   0
  -3  -2  50  239.78   16.12   0
  -3   0  36  618.36   17.84   0
  -2  -3  58  120.27   15.81   0
  -2  -1  50  220.33   14.10   0
  -1  -2  58  142.52   15.65   0
   0  -3  63    9.47   13.73   0
   0  -2  59    4.08   13.08   0
  -3  -1  46   95.47   14.68   0
  -1   0  44  535.66   17.73   0
  -2   0  43    4.42   11.97   0
  -4  -1  39    0.35   12.22   0
  -3   0  39    7.56   11.36   0
  -1  -1  54  161.30   15.62   0
   1   0  40  833.84   21.09   0
  -4   0  20 1331.99   23.37   0
  -2  -2  57  -11.16   12.63   0
   0   0  45   -6.20   10.90   0
   1  -1  53    2.25   11.59   0
  -4  -3  47   -7.88   12.76   0
  -4   0  17   -0.38    9.33   0
  -4   0  29    9.21   11.09   0
  -3  -2  53   12.25   12.47   0
  -3  -1  49   -0.98   13.62   0
  -2  -1  53    6.77   11.44   0
   0  -1  55   -4.70   13.46   0
  -5  -2  21    2.63   10.93   0
  -5  -2  24  524.48   17.90   0
  -5  -2  27    9.85   11.87   0
  -4  -2  46  135.62   14.98   0
  -4  -1  42  271.48   16.21   0
  -3   0  42  285.30   15.87   0
  -2   0  46  335.23   15.81   0
  -1  -2  61    9.80   14.31   0
  -1   0  47    6.79   10.27   0
  -5  -3  31   10.56   13.55   0
  -5  -2  30  216.87   14.94   0
  -4   0  14  341.25   14.46   0
  -4   0  32  541.93   16.48   0
  -2   1  21   24.61    8.35   0
  -2   1  24 1927.58   26.80   0
  -2   1  27    2.19    9.80   0
  -1   1  22  463.79   15.32   0
   0  -2  62  104.55   14.56   0
  -2   1  18 1224.33   23.10   0
  -1   1  19   -0.75    7.18   0
   1   0  43    0.86   10.90   0
  -5  -3  34  166.22   14.86   0
  -5  -2  33   11.86   12.46   0
  -4  -1  45    4.82   13.78   0
  -4   0  35    4.07   10.33   0
  -3  -2  56  130.49   15.75   0
  -3  -1  52  270.14   16.99   0
  -2   1  30  661.89   17.08   0
  -1  -1  57   -5.20   12.72   0
  -5  -1  23    7.04   10.28   0
  -4  -2  49   17.04   12.28   0
  -4   0  11    0.89    8.39   0
  -3   0  45   -8.23   12.73   0
  -2   1  33    3.45   10.53   0
   0   0  48  563.27   18.49   0
  -5  -3  37    2.04   13.30   0
  -5  -2  36  207.56   15.67   0
  -5  -1  20  558.95   17.77   0
  -5  -1  29    3.33   11.66   0
  -4   0  38  143.29   14.16   0
  -2   1  15    0.01    7.47   0
  -1   0  50  350.03   15.40   0
   0  -1  58  197.55   15.35   0
  -5  -1  17   11.07   10.01   0
  -5  -1  32  459.55   17.38   0
  -3   1  20 1554.27   24.47   0
  -3   1  23    2.63    8.34   0
  -3   1  26  550.95   15.69   0
  -3   1  29   12.79   10.16   0
  -1   1  34  980.20   20.30   0
  -5  -2  39   -0.99   12.27   0
  -4  -1  48  190.57   15.34   0
  -3   1  32 1303.78   22.99   0
  -2   1  36 1008.64   20.20   0
  -5  -1  14  445.21   17.07   0
  -5  -1  35   -0.71   10.41   0
  -4  -2  52  149.21   15.20   0
  -4   0  41    2.08   10.78   0
  -3  -1  55    5.00   13.34   0
  -3   0  48  424.46   16.18   0
  -3   1  17   15.68    9.36   0
  -1   1  37    3.61    9.84   0
   0  -2  65   -3.07   13.45   0
   1   0  46  127.32   12.90   0
  -4   0   8 1599.40   27.23   0
  -3   1  35   10.54   10.96   0
  -2   1  39   -3.55   10.55   0
   0   0  51    1.26   11.44   0
   0   1  26 1169.69   23.77   0
  -5  -2  42  107.52   14.72   0
  -5  -1  38  182.33   13.22   0
  -4   0  44  477.59   18.44   0
  -1   0  53   12.61   11.00   0
   0   1  29   -0.73    6.99   0
  -4  -1  51   -0.44   13.61   0
  -3   1  14 1596.45   25.68   0
  -3   1  38  390.62   15.58   0
  -1   1  40  878.88   20.27   0
   0   1  32 1863.32   28.77   0
  -5  -1  41    1.62   13.24   0
  -5   0  25   -0.96   10.92   0
  -5   0  28  738.74   19.20   0
   0  -1  61   12.13   13.47   0
  -5  -2  45   11.20   11.73   0
  -5   0  22  271.86   14.43   0
  -5   0  31    3.28   11.78   0
  -4   1  25   -1.51   10.27   0
  -4   1  28  803.44   19.15   0
  -3  -1  58  147.41   14.66   0
   0   1  35   -6.24    9.15   0
  -5   0  19    5.51   10.21   0
  -4   0  47    7.38   11.60   0
  -4   1  22  390.49   14.87   0
  -4   1  31    3.95    9.82   0
  -3   1  41    4.99   10.64   0
  -2   0  55    7.08   11.32   0
  -4  -1  54   74.78   13.74   0
  -4   1  34  635.88   18.05   0
  -2  -1  62   65.50   13.98   0
  -1  -1  63    5.36   14.08   0
  -1   0  56  282.14   15.94   0
  -1   1  43   -0.96    9.38   0
   0   0  54   62.76   12.85   0
  -5   0  16  767.35   19.34   0
  -3   0  54  122.84   15.57   0
  -3   1  11   23.44    8.79   0
  -3   1  44  424.73   16.67   0
   0   1  38  282.62   14.03   0
  -5   0  40  271.33   16.28   0
  -4   0   5    2.75    8.01   0
  -4   0  50  209.94   15.69   0
  -4   1  37    2.47   10.21   0
  -4   1  40  554.68   18.19   0
  -3  -1  61    0.78   12.61   0
  -1   1  46  128.76   13.14   0
  -4  -1  57    2.54   12.95   0
  -2   0  58  126.07   14.12   0
  -2   1  48  412.03   17.23   0
   0   1  41   -5.73    9.94   0
  -5   0  13   -0.04    9.42   0
  -5   0  43   -1.13   10.67   0
  -3   0  57  -11.23   12.93   0
  -3   1  47   -5.24   10.59   0
  -1   0  59  -13.52   13.19   0
  -5  -1  50  112.59   14.68   0
  -4   0  53  -11.06   12.07   0
  -4   1  43   10.19   10.82   0
   0   0  57   -4.11   11.97   0
  -5   0  46  116.42   13.96   0
  -4   1  13    6.53    8.77   0
  -1   1  49   -2.14   11.27   0
  -6  -1  25   -4.85   11.14   0
  -6  -1  28  178.97   14.57   0
  -6  -1  31    9.15   11.49   0
  -4   1  46   85.41   13.88   0
  -3   1  50  205.38   15.28   0
  -2   1  51    6.99   12.51   0
   0   1  44  505.11   17.51   0
  -6  -1  34  225.18   15.14   0
  -5   1  24  722.92   18.16   0
  -5   1  33    0.78   10.20   0
  -2   0  61   -1.16   12.65   0
  -6  -1  37    3.88   12.69   0
  -5   0  10  724.67   19.01   0
  -5   0  49   15.94   12.73   0
  -5   1  36  583.24   17.04   0
  -6  -1  40  271.96   15.86   0
  -5   1  21   14.17    8.89   0
  -5   1  39   -6.58   12.29   0
  -4   1  49  -19.98   13.32   0
  -1   0  62   50.67   14.21   0
  -6   0  30  198.70   14.71   0
  -2   1  54  143.66   14.38   0
  -1   1  52  366.86   16.53   0
   0   1  47   -1.38   10.81   0
  -6  -1  43  -12.47   12.84   0
  -6   0  27    2.94   11.32   0
  -6   0  33    0.44   12.32   0
  -6   0  36  173.55   15.11   0
  -5   0  52  176.90   15.53   0
  -5   1  18  814.15   19.04   0
  -4   1  10 1133.13   21.42   0
  -3   2  28 1477.79   23.11   0
  -3   2  31   -4.49    8.90   0
  -6   0  24  689.10   19.02   0
  -4   0  59   -7.45   12.84   0
  -3   2  25    6.10    8.34   0
  -3   2  37    4.15   10.99   0
  -2   0  64  163.52   15.48   0
  -2   2  29    1.85    8.03   0
   1   1  30  613.18   19.57   0
  -6   0  21    9.57   10.55   0
  -6   0  39   10.51   12.67   0
  -5   1  45   -4.06   13.31   0
  -4   1  52  249.02   15.04   0
  -3   0  63    6.96   12.40   0
  -3   2  22  499.76   15.87   0
  -2   2  26 1334.21   22.21   0
   1   1  33    7.91    8.06   0
  -6   0  42  175.48   14.80   0
  -5   1  15    6.28    9.53   0
  -4   2  27  -14.72   10.48   0
  -4   2  30  222.93   12.18   0
  -4   2  33   -2.81    9.38   0
  -4   2  36  443.62   16.40   0
  -3   2  40  505.69   15.82   0
  -2   1  57    5.27   13.66   0
  -2   2  23    5.72    8.52   0
  -2   2  38  289.38   13.26   0
  -1   1  55   12.71   12.33   0
   0   1  50  317.29   16.35   0
  -5   0   7    0.41    8.76   0
  -5   0  55    0.36   12.42   0
  -5   1  48  172.12   15.26   0
  -4   2  24 1969.44   26.60   0
  -1   0  65    8.17   14.21   0
  -6   0  45   14.36   13.08   0
  -4   1  55  -10.87   12.89   0
  -4   2  39   19.69   10.52   0
  -3   2  19   -1.96    9.13   0
  -3   2  43   -0.91   10.16   0
  -2   2  41    1.73    9.20   0
  -4   2  21    4.54    9.61   0
  -4   2  42  515.41   17.18   0
  -2   2  20 3640.48   36.44   0
  -6   1  29   -1.11   11.64   0
  -6   1  32  498.48   17.42   0
  -6   1  35    8.87   12.67   0
  -5   1  51   -1.62   12.87   0
  -4   1   7   19.83    8.59   0
  -3   1  59  -17.31   12.57   0
  -2   2  44  832.66   18.94   0
  -6   0  48  212.42   14.36   0
  -5   1  12 1205.13   22.41   0
  -4   2  45   -2.58   11.97   0
  -2   1  60  193.23   15.83   0
  -1   1  58  197.03   15.03   0
  -1   2  30  635.26   16.67   0
  -1   2  33    9.90    7.90   0
  -1   2  36 1013.93   21.19   0
  -5   2  29   -4.24   11.19   0
  -5   2  32  809.55   18.36   0
  -5   2  35   -2.85   12.13   0
  -4   1  58  125.57   14.34   0
  -4   2  18 1125.01   21.12   0
  -3   2  16 2116.92   27.94   0
  -2   2  47   -4.07   11.63   0
  -1   2  27   -3.15    7.17   0
  -1   2  39    1.39    9.97   0
  -6   1  23    3.26   10.73   0
  -5   1  54   69.38   14.16   0
  -5   2  26  726.11   18.28   0
  -5   2  38  130.59   12.10   0
  -5   2  41    4.87   13.03   0
  -4   2  48  395.98   15.55   0
  -2   2  17    0.44    7.18   0
  -1   2  24 1856.74   27.52   0
  -1   2  42  366.15   15.37   0
  -6   1  20  545.53   17.06   0
  -5   2  23    3.61    8.80   0
  -3   1  62   77.61   14.30   0
  -6   1  47   -2.55   12.16   0
  -5   2  44  293.01   14.49   0
  -4   2  51   19.63   12.54   0
  -3   2  52  351.48   17.08   0
  -2   1  63    8.55   14.22   0
  -2   2  50  253.21   13.68   0
  -5   1  57   -0.42   12.53   0
  -4   2  15   -5.56    7.58   0
  -1   2  45    9.31   10.34   0
  -6   1  17   11.29   10.20   0
  -5   1   9   27.64    9.06   0
  -5   2  47    6.00   11.69   0
  -3   2  13   28.80    8.03   0
  -6   1  50  104.41   12.75   0
  -4   2  54   67.55   13.95   0
  -3   2  55   -9.82   13.35   0
  -2   2  53  -16.38   11.81   0
  -7   0  32  305.62   15.66   0
  -7   0  35   -4.25   12.00   0
  -7   0  38   32.29   11.69   0
  -5   2  50  218.51   15.72   0
  -4   1   4 1290.86   24.36   0
  -2   2  14  347.99   13.40   0
  -1   2  48  406.87   16.08   0
  -6   2  28  511.42   17.01   0
  -6   2  37   -5.79   10.53   0
  -6   2  40  318.12   16.54   0
  -5   2  17    3.95    8.31   0
  -6   1  14  449.14   16.00   0
  -6   2  25   -0.39   11.14   0
  -6   2  43   10.33   11.95   0
  -5   2  53   -0.05   11.93   0
  -3   2  58  144.43   14.12   0
  -2   2  56  135.73   13.56   0
  -1   2  51    1.00   11.15   0
  -7   1  34  217.02   14.10   0
  -7   1  37   -6.10   12.73   0
  -6   2  46  129.39   14.17   0
  -4   3  35    5.76   10.71   0
  -7   1  28  188.86   15.24   0
  -7   1  31    8.98   12.31   0
  -7   1  40  263.59   14.76   0
  -6   2  22  402.97   15.41   0
  -5   2  14  411.87   14.69   0
  -4   3  29   -2.88   10.21   0
  -4   3  32 1032.65   19.81   0
  -4   3  38  196.07   12.52   0
  -4   3  41    8.07   12.10   0
  -3   2  10 2070.18   28.31   0
  -3   3  33   -3.97    9.83   0
  -3   3  36  952.61   20.09   0
  -7   1  43    5.06   11.54   0
  -6   2  49  -12.84   12.07   0
  -5   1   6  387.12   14.79   0
  -5   2  56  136.93   15.05   0
  -3   3  30  364.81   14.61   0
   0   2  31    3.16    9.13   0
   0   2  34  281.69   13.53   0
   0   2  37    1.54    9.32   0
  -7   1  25   10.62   11.21   0
  -5   3  31   -1.63   11.35   0
  -5   3  34  513.68   17.09   0
  -5   3  37   -2.42   11.99   0
  -4   2  60  165.05   14.88   0
  -4   3  26  743.17   17.13   0
  -4   3  44  360.44   14.82   0
  -3   2  61   -1.61   13.15   0
  -3   3  27    1.28    9.81   0
  -2   2  59    0.20   12.07   0
  -1   2  54  131.55   13.47   0
   0   2  40  926.25   21.31   0
  -6   2  19   -1.26    9.70   0
  -5   3  40  535.36   16.63   0
  -3   3  45    9.24   11.27   0
  -2   2  11   -0.45    6.84   0
  -6   1  11    5.00    9.06   0
  -6   2  52  146.07   13.23   0
  -5   3  28  451.65   14.69   0
  -5   3  43   12.77   10.64   0
  -4   3  23   22.66   10.21   0
  -4   3  47   13.24   10.52   0
   0   2  28 1122.70   22.79   0
  -7   1  22  162.20   13.33   0
  -5   3  25    2.42    9.97   0
  -5   3  46   78.91   13.44   0
  -3   3  24 1163.28   20.32   0
  -3   3  48  270.58   15.42   0
  -7   2  36  225.52   15.06   0
  -5   2  11   11.51    8.81   0
  -2   3  34  649.29   16.59   0
  -2   3  37    2.94    8.60   0
  -2   3  40  535.94   17.02   0
  -7   2  30  205.73   14.77   0
  -7   2  33    0.99   11.48   0
  -7   2  39    2.92   13.16   0
  -7   2  42  137.15   14.17   0
  -6   2  16  845.91   19.09   0
  -5   3  49   11.63   12.42   0
  -4   3  20  979.27   19.28   0
  -3   2  64   93.38   12.83   0
  -2   2  62   89.12   12.69   0
  -2   3  31   -4.70    8.06   0
   0   2  25   -5.94    7.38   0
  -6   3  33    3.13   10.29   0
  -6   3  36  389.99   15.18   0
  -6   3  39   -6.20   11.07   0
  -5   3  22  335.07   13.25   0
  -3   3  21    0.28    7.99   0
  -3   3  51   -0.94   12.45   0
  -2   3  43   -6.41    9.15   0
  -7   2  27    1.49   11.60   0
  -7   2  45    7.55   12.44   0
  -6   3  30  235.33   13.02   0
  -6   3  42  178.97   13.45   0
  -5   3  52  193.39   14.84   0
  -2   3  46  184.98   13.44   0
  -6   3  45   15.92   11.55   0
  -3   2   7   -2.95    6.86   0
  -7   2  24  544.93   17.47   0
  -6   3  48  200.48   14.53   0
  -5   3  19   -0.82   10.02   0
  -3   3  54  105.30   13.84   0
  -6   2  13    0.27    9.27   0
  -5   1   3   -1.50    8.35   0
  -5   3  55   -0.45   12.44   0
  -4   3  17    0.43    7.82   0
  -3   3  18 1419.12   22.87   0
  -2   3  49   -2.25    9.90   0
  -6   3  51    7.77   12.61   0
  -5   2   8 2277.98   29.22   0
  -7   2  21   -3.14   10.71   0
  -4   2   6  824.27   18.43   0
  -3   3  57    4.57   11.48   0
  -2   3  22  505.59   15.34   0
  -2   3  52  356.10   16.13   0
  -5   3  16 1880.81   25.65   0
  -4   3  59    6.75   13.09   0
  -7   2  18  220.26   13.29   0
  -7   3  32  337.77   14.28   0
  -7   3  44  182.72   13.92   0
  -4   3  14  727.50   16.69   0
  -1   3  38  379.15   14.98   0
  -7   3  29   16.69   11.77   0
  -7   3  47    2.70   12.03   0
  -6   3  18  455.60   15.59   0
  -3   3  15   -3.89    7.53   0
  -3   3  60  210.38   14.50   0
  -2   3  55    4.29   11.53   0
  -1   3  35    0.76    8.92   0
  -1   3  41   -4.41    9.93   0
  -6   2  10  417.62   14.85   0
  -5   4  33   10.61   11.23   0
  -5   4  36  359.80   14.68   0
  -5   4  39   -0.02   10.48   0
  -5   4  42  225.59   14.90   0
  -4   4  34  321.08   14.35   0
  -4   4  37    2.46    9.85   0
  -4   4  40  562.99   17.58   0
  -2   3  19    8.67    8.56   0
  -1   3  32 1247.54   22.63   0
  -1   3  44  382.72   15.43   0
  -8   2  35    2.65   11.72   0
  -7   3  26  194.87   12.55   0
  -5   4  30  347.78   14.97   0
  -5   4  45   -5.58   12.35   0
  -4   4  31    5.69   10.22   0
  -6   4  38  103.22   13.75   0
  -5   4  48  240.51   15.80   0
  -1   3  29    8.80    8.61   0
  -1   3  47    6.23   10.37   0
  -8   2  29   -6.91   12.46   0
  -7   2  15    8.86    9.88   0
  -7   3  23   -1.88   10.89   0
  -6   4  32  411.02   16.20   0
  -6   4  35    3.19   10.25   0
  -6   4  41    6.39   10.77   0
  -6   4  44  301.25   15.79   0
  -5   4  27    4.83    9.47   0
  -4   4  28  702.38   16.79   0
  -3   2   4 2937.23   34.65   0
  -6   3  15   12.72    9.72   0
  -6   4  47   17.38   12.72   0
  -5   2   5    9.79    7.04   0
  -4   3  11   42.29    9.41   0
  -4   4  49   -8.87   10.50   0
  -3   4  35    2.07   10.44   0
  -3   4  38  213.89   13.00   0
  -3   4  41  -10.04   11.49   0
  -6   4  29    6.92    9.82   0
  -5   4  24 1043.22   20.20   0
  -4   4  25   -0.79   10.26   0
  -3   4  44  343.86   15.16   0
  -1   3  26  575.16   16.29   0
  -7   3  20  523.64   16.63   0
  -6   4  26  439.10   16.18   0
  -4   2   3   -0.45    7.59   0
  -4   4  52  198.25   14.20   0
  -3   3  12 2614.38   29.71   0
  -2   3  16 2123.96   27.69   0
  -3   4  47   -3.27   10.24   0
  -8   3  34  153.54   14.32   0
  -8   3  37   -1.84   11.23   0
  -7   4  37   -3.98   12.16   0
  -7   4  40  185.60   14.39   0
  -6   2   7   -2.95    8.82   0
  -6   4  53  -16.99   11.94   0
  -5   4  21   13.31   10.02   0
  -4   4  22  785.64   17.87   0
  -4   4  55    1.29   12.22   0
  -3   4  50  247.21   15.29   0
  -7   4  34  208.36   13.19   0
  -7   4  43    3.68   11.23   0
  -2  -1  26  606.68   15.36   0
  -4  -5  10  152.93   13.38   0
  -4  -4  18  247.66   14.77   0
  -4  -3  17   15.62   10.82   0
  -4  -2   4  954.64   19.79   0
  -4  -2   7    2.02    9.02   0
  -4  -2  10  398.30   14.61   0
   0  -1  31   -3.69    8.15   0
   1  -2  39   -0.02    9.44   0
  -4  -5  13   -4.66   11.30   0
  -4  -2   1    6.00    8.43   0
  -3  -5  32  267.81   15.77   0
  -3  -1  19   15.50    8.13   0
  -1  -5  46   92.52   12.46   0
  -1  -4  45    8.37   12.65   0
   1  -5  51   -5.40   11.23   0
  -4  -5  16  396.34   16.19   0
  -4  -2  13   -4.11    8.08   0
  -3  -4  34  204.82   14.18   0
  -3  -2  29   -6.29   10.57   0
  -2  -4  41   -8.53   12.58   0
   0  -3  45   -1.37   10.73   0
  -4  -4  21    5.89    9.62   0
  -4  -2  -2  595.09   16.98   0
  -3  -3  33   -1.72   10.09   0
   0  -5  50   83.16   13.01   0
  -4  -5  19   17.26   11.11   0
  -3  -1  22  403.65   13.33   0
  -2  -5  42  160.20   13.19   0
  -2  -3  40  503.90   15.74   0
  -2  -1  29    6.20    8.14   0
  -1  -3  44  358.66   15.42   0
   0  -4  49    8.98   11.78   0
   1  -3  46  147.68   12.66   0
  -3  -5  35   -9.85   12.26   0
  -1  -2  40  522.61   16.03   0
   0  -2  41    5.17    8.61   0
  -4  -5  22  103.10   13.11   0
  -2   0  13   -0.59    6.75   0
  -1  -1  33    7.27    8.85   0
  -3  -4  37   -0.38   11.15   0
  -3  -3  36  368.45   15.36   0
  -3  -2  32  785.62   17.79   0
  -3  -1  25    5.16    9.61   0
  -4  -3  26  186.81   12.00   0
  -4  -2  22  405.29   13.96   0
  -2  -4  44  269.42   14.44   0
  -2   0  16 3115.76   33.29   0
  -1  -5  49  -11.96   12.40   0
  -1  -4  48  240.71   14.80   0
   0  -1  34 1032.31   21.00   0
   1  -1  32 1872.83   30.23   0
  -4  -5  25   -3.63   11.22   0
  -3  -5  38   71.89   13.08   0
  -2  -5  45   12.60   11.76   0
  -2  -2  39   -0.94   10.18   0
  -2  -1  32 1347.55   21.32   0
  -1   0  20 1495.49   24.81   0
  -4  -1   9   34.22    9.10   0
   0  -3  48  234.29   14.67   0
   1  -2  42  340.43   14.65   0
  -4  -3  29   16.42   12.13   0
  -4  -2  25    6.75    9.08   0
  -4  -1   6  406.86   13.25   0
  -4  -1  12 1178.78   20.21   0
  -3  -4  40  192.48   14.79   0
  -3  -2  35    7.77   10.57   0
  -3  -1  28  813.12   18.07   0
  -2   0  19   -2.14    8.33   0
  -1  -3  47   -4.72   11.49   0
   0  -5  53   -6.20   12.06   0
  -4  -5  28   95.00   12.35   0
  -4  -4  30  100.76   11.95   0
  -4  -1   3    0.21    7.92   0
  -3  -3  39    4.77   12.55   0
  -1  -2  43    7.15   10.86   0
  -1  -1  36  997.26   20.13   0
   0  -4  52  176.47   14.00   0
  -4  -1  18  806.48   17.85   0
   0  -2  44  852.19   20.09   0
  -4  -3  32  366.51   16.22   0
  -4  -2  28  523.30   15.35   0
  -4  -1   0 1472.67   24.33   0
  -2  -1  35  -11.21    9.86   0
  -4  -4  33    1.52   11.53   0
  -4  -1  21   21.19   10.02   0
  -3  -1  31    3.48   10.36   0
  -3   0   9   -3.02    6.58   0
  -3   0  12 2043.86   26.68   0
  -2   0  22 2037.99   26.10   0
  -1  -4  51    3.56   10.95   0
   0  -1  37   -0.81    8.61   0
  -3  -4  43   21.65   12.24   0
  -3  -2  38  105.44   11.41   0
  -3   0  15    1.67    8.37   0
  -5  -3   7   -5.01   11.18   0
  -5  -3  10  240.80   13.52   0
  -5  -3  13   -6.57   10.90   0
  -4  -2  31    7.00   10.84   0
  -3  -3  42  220.30   14.87   0
  -5  -4  14   96.69   13.46   0
  -5  -3  16  474.46   16.65   0
  -4  -3  35    6.25   11.85   0
  -4  -1  -3   33.68    8.94   0
  -4  -1  24  770.42   16.86   0
  -3   0   3   -1.69    7.12   0
  -3   0  18  559.39   14.82   0
  -2   0  25   -0.10    8.52   0
  -1  -3  50  223.57   14.46   0
   0  -3  51    3.59   10.95   0
   1  -1  35    1.24    8.04   0
  -5  -4  17   16.68   11.30   0
  -5  -3  19   18.36   10.86   0
  -4  -4  36  140.77   13.86   0
  -3  -1  34  632.34   16.76   0
  -1  -2  46  179.09   13.10   0
  -1  -1  39    4.34    8.15   0
  -5  -2   9    2.48    9.14   0
  -5  -2  12  445.43   15.45   0
  -5  -2  15    4.77   10.41   0
  -3   0  21    1.90    7.49   0
  -2  -4  50  145.86   14.02   0
  -5  -4  20  142.57   13.62   0
  -5  -3  22  130.35   13.31   0
  -5  -2   6  498.39   15.75   0
  -5  -2  18  223.80   13.46   0
  -4  -2  34  225.67   12.73   0
  -4  -1  27   -4.15    9.01   0
  -3  -2  41   -1.36   10.05   0
  -2  -3  49   -2.05   12.35   0
  -2  -2  45   -1.89   11.45   0
   0  -4  55    3.94   11.96   0
   0  -2  47   -1.79   10.04   0
  -5  -4  23    8.82   11.69   0
  -4  -3  38  175.26   13.99   0
  -3  -4  46   86.37   11.89   0
  -3  -3  45  -16.00   12.00   0
  -2   0  28 1228.35   21.13   0
  -1  -4  54   62.99   12.64   0
  -5  -3  25    8.23   11.82   0
  -5  -2   3    3.83    9.02   0
  -5  -2  21    2.16    9.45   0
  -4  -4  39    5.24   11.69   0
  -3   0  24 1749.11   23.50   0
   0  -1  40  854.59   19.76   0
  -4  -1  30  214.63   12.06   0
  -3  -1  37   -2.45    9.50   0
  -1   0  29    4.94    6.79   0
  -5  -4  26  184.53   13.79   0
  -5  -3  28  213.17   13.89   0
  -4  -2  37  -12.91   10.17   0
  -2  -1  41   -2.40   10.38   0
  -1  -3  53    4.81   12.45   0
  -1  -1  42  397.72   15.13   0
  -4  -3  41    0.34   11.93   0
  -3  -2  44  293.92   13.82   0
  -3   0  27   -5.42    7.95   0
  -2  -4  53    8.92   11.45   0
  -1  -2  49   -5.62   11.38   0
  -5  -4  29   -5.56   10.93   0
  -5  -1  11    7.27    9.60   0
  -5  -1  14  467.69   15.14   0
  -4  -1  33  -13.06   11.22   0
  -4   0  14  343.19   12.36   0
  -4   0  17   -4.60    9.00   0
  -3  -3  48  175.77   14.37   0
  -2  -2  48  390.44   16.83   0
  -5  -1   8  915.41   19.24   0
  -5  -1  17    7.04    8.66   0
  -4   0   8 1618.88   23.43   0
  -4   0  20 1381.39   21.58   0
  -3  -1  40  537.73   16.91   0
  -2  -3  52  165.43   13.82   0
   0   0  27    0.60    7.41   0
  -5  -2  30  206.96   13.87   0
  -4  -2  40  317.47   14.03   0
  -1   0  32 1854.67   26.21   0
   0  -2  50  238.32   14.03   0
  -5  -1   5    4.73    8.56   0
  -4   0   5   -3.11    6.57   0
  -4   0  23   -0.68    8.19   0
  -5  -3  34  180.38   13.65   0
  -4  -3  44  176.79   14.19   0
  -4  -1  36  566.13   15.92   0
  -2  -1  44  396.22   14.34   0
   0  -1  43   -5.07    9.09   0
  -5  -2  33   -1.65   11.58   0
  -5  -1  26  266.10   13.83   0
  -4   0  26  825.41   18.09   0
  -3   0  33   -3.93    9.89   0
  -1  -1  45   -2.96    9.98   0
  -5  -1   2  355.43   13.89   0
  -4  -2  43  -13.91   11.71   0
  -4   0   2 1429.27   23.58   0
  -2  -2  51   -5.47   11.93   0
  -1  -3  56  183.40   13.62   0
  -1  -2  52  335.53   15.96   0
  -5  -3  37   -1.85   11.50   0
  -5  -1  29   12.89   10.54   0
  -4  -1  39   15.21   12.02   0
  -1   0  35   -2.61    8.47   0
   0   0  30  159.13   10.73   0
  -5  -2  36  211.55   13.90   0
  -4   0  29   -2.55    8.70   0
  -2  -3  55   -4.30   12.31   0
  -4  -3  47   -6.59   10.72   0
  -3   0  36  624.80   16.95   0
  -2   0  37   -0.48    8.10   0
  -5  -1  32  441.57   14.81   0
  -4   0  32  551.73   16.06   0
  -3  -2  50  205.04   13.71   0
  -2  -1  47   -0.61    9.52   0
  -4  -2  46  136.65   12.83   0
  -4   0  -1    2.14    7.94   0
  -6  -3  21    5.42   10.43   0
  -6  -2  14  137.33   12.20   0
  -6  -2  17    0.67   10.59   0
  -6  -2  20  243.09   14.05   0
  -5  -2  39   -8.48   11.14   0
  -5   0  13   -5.84    9.33   0
  -4  -1  42  264.23   13.39   0
  -1  -1  48  424.92   15.81   0
   0  -1  46  131.74   11.68   0
  -6  -3  24  203.79   12.94   0
  -6  -2  11    2.43   10.10   0
  -6  -2  23    8.86   10.73   0
  -5  -1  35   10.20    9.77   0
  -5   0  10  757.62   17.47   0
  -5   0  22  264.73   12.06   0
  -2  -2  54   56.10   11.77   0
  -1   0  38  288.04   13.10   0
   0   0  33    1.93    7.29   0
  -6  -3  27   10.97   12.17   0
  -6  -2  26  245.12   14.84   0
  -5   0  25    1.50   10.32   0
  -4   0  35   -9.88    9.17   0
  -1  -2  55    2.57   11.63   0
  -5  -2  42  111.13   13.23   0
  -5   0   7    5.65    8.39   0
  -3  -2  53   -1.07   11.91   0
  -6  -2  29   -2.63   11.17   0
  -6  -1  16  708.33   18.19   0
  -6  -1  19   12.32   11.39   0
  -5  -1  38  171.33   12.19   0
  -5   0  28  707.66   16.62   0
  -4  -2  49   -5.85   10.78   0
  -4  -1  45   -0.45   12.24   0
  -3   1  17   14.54    7.32   0
  -3   1  20 1600.83   23.33   0
  -2  -1  50  204.98   13.84   0
  -6  -1  13   -1.79   10.16   0
  -6  -1  22  190.46   13.66   0
  -4   0  38  157.09   12.85   0
  -3  -1  49   -1.72    9.73   0
  -3   1  14 1666.60   23.83   0
  -3   1  23    7.35    8.79   0
  -6  -2  32  226.05   13.98   0
  -6  -1  10  248.44   13.19   0
  -6  -1  25   -7.42   11.21   0
  -5   0   4 1202.01   21.51   0
  -5   0  31    8.05    9.55   0
  -3   1  11   20.62    8.24   0
  -2   1  15    5.61    6.73   0
  -2   1  18 1213.92   21.21   0
  -2   1  21   27.07    8.42   0
  -5  -2  45   -9.83   12.20   0
  -5  -1  41    2.89   11.67   0
  -3   1  26  586.24   15.79   0
  -2   0  43   -5.60    8.44   0
  -1  -1  51    3.48   10.10   0
  -1   0  41   -1.92    8.15   0
   0   0  36  639.65   17.68   0
  -6  -1   7    7.61    9.61   0
  -5   0  34  315.93   14.36   0
  -4   1  16 2163.92   25.88   0
  -4   1  19   17.25    8.00   0
  -4   1  22  412.14   14.15   0
  -2  -2  57    7.13   11.33   0
  -2   1  24 1854.09   25.13   0
  -4  -1  48  168.61   13.05   0
  -4   0  41   -1.76    9.80   0
  -4   1  13   15.19    7.31   0
  -4   1  25   -7.42    9.54   0
  -3   1   8 3322.13   34.74   0
  -3   1  29    2.28    8.96   0
  -3  -2  56  134.81   12.67   0
  -3  -1  52  258.45   15.09   0
  -2  -1  53   -2.51   11.41   0
  -5  -1  44  217.86   14.18   0
  -5   0   1    6.35    7.65   0
  -5   0  37   11.33   11.01   0
  -4   1  28  820.46   17.98   0
  -3   0  45   -8.92    9.30   0
  -6  -1  34  223.17   13.48   0
  -6   0  18  281.33   13.77   0
  -6   0  21   -6.40   10.49   0
  -3   1  32 1292.04   20.86   0
  -2   0  46  336.73   14.45   0
  -6   0  15   -4.50   10.11   0
  -4   0  44  496.67   15.50   0
  -4   1  31   12.38   10.07   0
  -1   0  44  507.26   16.37   0
   0   0  39    1.31    8.69   0
  -6  -1  37    7.18   11.23   0
  -6   0  12  419.12   14.49   0
  -5   0  40  276.69   14.63   0
  -3   1   5    5.08    7.40   0
  -5  -1  47    0.45   12.15   0
  -5   1  18  794.75   16.84   0
  -5   1  21   -2.76    8.70   0
  -5   1  24  746.00   17.31   0
  -2  -2  60  138.26   12.76   0
  -2   1  33    8.68    8.73   0
  -6   0   9    3.59    9.23   0
  -6   0  30  180.14   12.09   0
  -5   1  27   -1.05   10.10   0
  -4   1  34  617.45   16.01   0
  -3  -1  55   -5.13   11.31   0
  -3   0  48  429.95   14.77   0
  -6  -1  40  252.45   14.22   0
  -6   0  33    7.99   11.90   0
  -5   1  12 1190.23   20.63   0
  -2  -1  56  245.57   14.47   0
  -5   0  43  -17.50   10.17   0
  -5   1  30  211.82   11.94   0
  -4   1  37   -0.29   10.72   0
  -2   0  49    1.34   10.94   0
  -1   1  25   -4.17    6.15   0
  -7  -2  22   52.65   11.44   0
  -6   0   6  446.70   15.02   0
  -5  -1  50  100.95   13.43   0
  -5   1   9   34.47    9.00   0
  -4  -1  54   67.14   13.00   0
  -4   1   4 1365.49   22.39   0
  -2   1  36 1019.15   19.22   0
  -1   0  47   -3.38    9.39   0
  -6  -1  43    9.47   11.57   0
  -6   0  36  187.34   13.14   0
  -5   1  33    0.64    9.23   0
  -1   1  28 1367.80   23.35   0
  -7  -1  18  241.58   14.02   0
  -7  -1  21   -8.72   10.69   0
  -7  -1  24  247.31   13.84   0
  -3   0  51    0.31   11.86   0
  -7  -1  15    2.00   10.68   0
  -7  -1  27    0.58   10.86   0
  -6   0  39    6.83   11.66   0
  -5   0  46  103.18   12.23   0
  -5   1  36  580.96   17.16   0
  -4   0  50  216.28   14.50   0
  -3  -1  58  145.81   13.78   0
  -3   1  41   -0.89   10.34   0
  -7  -1  30   63.94   11.63   0
  -6   0   3    0.62    9.69   0
  -5   1   6  382.91   13.74   0
  -2   1  39    1.99    7.79   0
  -1   1  31   -1.89    6.44   0
  -6   1  17    2.19    9.51   0
  -6   1  26  279.20   14.17   0
  -4  -1  57  -13.87   12.01   0
  -2  -1  59    0.86   10.79   0
  -2   0  52  215.26   14.04   0
  -7  -1  33   -1.22   11.47   0
  -6   0  42  188.37   13.52   0
  -6   1  29   12.26   10.64   0
  -5   1  39    5.71    9.84   0
  -4   1   1   36.22    7.75   0
  -1   0  50  343.63   15.73   0
  -7   0  20  208.52   13.34   0
  -7   0  23   -4.56   10.63   0
  -6   1  14  457.97   14.13   0
  -6   1  32  469.29   16.56   0
  -5   0  49   -2.78   10.87   0
  -3   0  54  131.87   13.69   0
  -3   1  44  389.78   14.91   0
  -1   1  34 1031.46   20.51   0
  -7   0  17   -8.43    9.96   0
  -7   0  26  257.15   13.88   0
  -7   0  29    1.19   11.68   0
  -4   0  53    2.12   12.36   0
  -2   1  42  386.20   14.76   0
  -7   0  14  179.78   12.81   0
  -6   0  45   -2.04   12.21   0
  -6   1  11    8.18    8.04   0
  -6   1  35   11.39   11.37   0
  -5   1   3    1.36    7.80   0
  -5   1  42  287.73   13.36   0
  -7   0  32  320.83   15.35   0
  -3  -1  61   -0.75   10.55   0
  -7   0  11   -8.13   11.18   0
  -6   1  38  169.11   14.10   0
  -3   1  47   12.73   10.76   0
  -2   0  55   -8.79   11.06   0
  -1   1  37   -0.35    8.09   0
  -6   1   8  930.77   19.13   0
  -5   1  45    5.49   11.53   0
  -4   2  21    1.95    7.69   0
  -4   2  24 2030.13   24.89   0
  -4   2  27   -1.72    9.50   0
  -6   0  48  198.96   13.48   0
  -5   2  23   17.90    9.93   0
  -4   0  56  110.92   12.66   0
  -4   2  18 1156.67   19.41   0
  -4   2  30  233.91   12.81   0
  -3   0  57   -5.54   12.08   0
  -2   1  45   -1.22    8.71   0
  -7   0  38   54.48   10.90   0
  -6   1  41   -6.09   11.65   0
  -5   2  20  663.25   15.71   0
  -5   2  26  704.52   16.33   0
  -5   2  29    0.65    9.89   0
  -4   1  49   -3.18   11.23   0
  -4   2  15   -7.37    8.39   0
  -3   2  22  523.42   14.73   0
  -3   2  25   10.54    8.33   0
  -7   1  22  179.11   13.52   0
  -7   1  25   -2.38   11.56   0
  -5   2  17   10.96    7.77   0
  -4   1  -2  855.21   19.51   0
  -4   2  33   -5.55    8.57   0
  -3   2  19    5.57    8.31   0
  -3   2  28 1450.65   21.81   0
  -1   1  40  838.99   19.09   0
  -7   1  19    6.12   10.50   0
  -6   1   5    7.08    8.43   0
  -5   1   0 1492.00   24.09   0
  -5   1  48  158.53   14.17   0
  -5   2  32  764.17   17.26   0
  -3   1  50  216.62   14.25   0
  -7   1  16  712.59   18.16   0
  -6   1  44  214.72   13.92   0
  -5   2  14  395.91   12.81   0
  -5   2  35    4.45   10.25   0
  -4   2  12  842.03   17.78   0
  -4   2  36  430.56   14.18   0
  -3   2  16 2133.30   26.19   0
  -7   1  34  217.76   13.85   0
  -6   2  25  -13.72   10.60   0
  -2   1  48  398.88   15.42   0
  -7   1  13    2.42   10.29   0
  -6   2  22  392.68   13.56   0
  -6   2  28  526.04   15.19   0
  -5   2  38   96.62   12.08   0
  -4   0  59   -3.88   12.05   0
  -4   1  52  243.08   14.84   0
  -7   1  37    3.05   11.65   0
  -6   1  47    7.28   11.47   0
  -6   2  31    4.62    9.55   0
  -3   0  60  127.12   12.73   0
  -3   2  13   39.21    7.64   0
  -3   2  37    3.24    9.50   0
  -1   1  43   -5.34    8.79   0
  -6   1   2  363.92   14.40   0
  -6   2  34  222.91   13.87   0
  -4   2   9    0.79    6.80   0
  -3   1  53    2.24   11.47   0
  -7   1  10  272.36   12.81   0
  -7   1  40  274.65   14.25   0
  -5   2  41   -2.58    9.66   0
  -8   0  22   83.23   10.95   0
  -8   0  25   -0.01   10.99   0
  -6   2  13    4.90    9.31   0
  -6   2  37  -10.12    9.92   0
  -5   2   8 2268.06   27.23   0
  -3   2  40  522.36   15.75   0
  -2   1  51   -1.05   10.46   0
  -7   1  43   15.56   11.93   0
  -6   1  50   98.12   12.48   0
  -5   1  -3   29.33    8.60   0
  -5   1  54   76.67   13.05   0
  -4   1  55    5.21   11.92   0
  -2   2  29    2.21    7.93   0
  -6   2  40  323.94   13.69   0
  -5   2  44  307.84   13.48   0
  -4   2  45    2.35   10.85   0
  -3   2  10 2053.05   26.47   0
  -2   2  20 3576.58   34.47   0
  -2   2  32  707.65   17.11   0
  -1   1  46  139.36   11.38   0
  -7   1   7   11.39    9.40   0
  -6   2  10  403.41   13.93   0
  -3   2  43    5.63   10.42   0
  -7   2  21   -6.26   10.74   0
  -7   2  30  217.13   12.42   0
  -7   2  33   11.32   11.74   0
  -6   2  43   -3.86   11.62   0
  -3   1  56  241.65   14.08   0
  -2   2  35    5.55    8.68   0
  -8   1  24  241.62   13.53   0
  -8   1  27    2.92   10.68   0
  -8   1  30   62.35   12.16   0
  -7   2  18  215.99   13.05   0
  -2   2  17    3.07    6.38   0
  -8   1  21   -0.03   10.15   0
  -8   1  33   13.51   11.47   0
  -7   2  36  214.95   14.39   0
  -6   1  -1   18.08    8.07   0
  -5   1  57   -6.18   10.76   0
  -5   2   5   10.28    6.96   0
  -4   1  58  153.72   13.31   0
  -4   2  48  398.23   15.66   0
  -8   1  18  250.41   13.76   0
  -7   2  15   -3.20   10.18   0
  -6   2   7   -2.60    8.81   0
  -6   2  46  116.90   12.98   0
  -3   2  46  190.00   12.53   0
  -2   2  38  290.55   12.98   0
   0   1  35   -2.03    7.40   0
  -7   2  39    0.23   10.91   0
  -3   2   7   -1.67    6.45   0
  -2   2  14  347.90   13.19   0
  -8   1  15    1.97   10.32   0
  -7   2  12  466.74   15.28   0
  -5   2  50  237.18   13.74   0
  -7   2  42  136.57   12.13   0
  -6   2  49    1.60   11.85   0
  -5   3  25   11.35    9.95   0
  -5   3  28  427.31   13.94   0
  -5   3  31   18.26   10.70   0
  -4   2  51    1.01   10.94   0
  -3   1  59    2.26   10.55   0
  -2   2  41   -1.18    8.93   0
  -6   3  27    3.33   10.91   0
  -5   3  22  346.54   12.65   0
  -3   2  49    2.58   10.67   0
  -7   2  45    1.31   11.35   0
  -6   3  24  706.00   16.64   0
  -6   3  30  232.55   12.67   0
  -6   3  33    8.14   10.74   0
  -5   2   2  865.92   18.56   0
  -5   3  19    3.70    9.70   0
  -4   1  61   -4.93   10.46   0
  -4   3  26  739.62   16.93   0
  -4   3  29    8.79    9.19   0
  -8   2  26  238.00   13.82   0
  -8   2  29   -5.21   11.19   0
  -7   2   9    1.86    8.94   0
  -6   2   4  932.79   18.65   0
  -6   3  21    6.89    8.75   0
  -6   3  36  422.31   16.19   0
  -5   2  53   -8.08   11.15   0
  -5   3  37   -1.50    9.39   0
  -4   3  23   19.60    8.19   0
  -4   3  32 1017.49   18.88   0
  -2   2  44  858.56   19.44   0
  -8   2  23    7.34   10.27   0
  -8   2  32  232.40   13.12   0
  -6   3  18  450.09   14.60   0
  -5   3  16 1902.86   24.57   0
  -4   3  20  972.67   18.52   0
  -8   2  20  246.94   14.05   0
  -6   3  39   -1.82   11.42   0
  -5   3  40  526.43   15.81   0
  -4   2  54   49.50   12.85   0
  -8   2  17    4.07   10.82   0
  -7   3  26  211.92   13.22   0
  -7   3  29    0.11   11.29   0
  -7   3  32  334.25   15.54   0
  -3   2   4 2976.51   32.92   0
  -3   2  52  363.70   15.52   0
  -7   3  35  -10.45   11.59   0
  -6   3  42  204.88   13.76   0
  -5   2  56  156.70   13.11   0
  -5   3  13   -5.20    8.56   0
  -4   3  17    6.01    7.43   0
  -7   2   6  484.03   15.57   0
  -4   3  41    3.59   10.65   0
  -2   2  47    1.23    9.49   0
  -8   2  14  153.51   12.51   0
  -7   3  38  176.33   12.78   0
  -6   2   1   -1.89    8.22   0
  -7   3  17    9.11    8.84   0
  -7   3  41    6.77   11.55   0
  -6   3  45   -0.45   10.55   0
  -5   3  46   55.33   10.87   0
  -4   2   0 4136.52   38.43   0
  -4   2  57    9.96   11.58   0
  -4   3  14  734.33   15.98   0
  -4   3  44  350.75   14.95   0
  -3   3  24 1192.44   20.48   0
  -3   3  33    4.54    9.01   0
  -1   2  27   -0.83    5.97   0
  -1   2  30  633.95   16.71   0
  -1   2  33    4.52    8.67   0
  -5   2  -1    1.33    7.66   0
  -5   3  10  738.54   16.94   0
  -3   2  55    3.23   10.30   0
  -8   2  11   -3.63   10.45   0
  -7   3  14  399.33   14.51   0
  -7   3  44  189.92   13.89   0
  -3   3  21    7.76    7.20   0
  -3   3  36  966.96   18.71   0
  -1   2  36 1030.03   20.68   0
  -7   2   3    8.43    9.98   0
  -6   3   9   11.63    9.21   0
  -5   3  49   -7.63   12.04   0
  -3   3  39   -0.06    9.82   0
  -1   2  21   27.88    7.64   0
  -8   3  25    1.56   10.46   0
  -8   3  34  161.52   13.23   0
  -4   3  11   31.54    7.85   0
  -4   3  47    2.76    9.72   0
  -8   3  22  133.92   12.39   0
  -8   3  37    0.93   11.45   0
  -7   3  11    3.19    9.79   0
  -7   3  47    2.20   11.37   0
  -4   2  60  142.57   12.42   0
  -3   3  18 1386.35   21.14   0
  -8   3  19   -1.15   10.57   0
  -8   3  40  167.04   13.16   0
  -5   3  52  165.76   14.46   0
  -3   3  42  371.96   14.60   0
  -9   2  22   64.35   11.38   0
  -4   3  50  212.69   13.85   0
  -8   3  16  488.09   16.33   0
  -6   2  -2  617.40   17.23   0
  -6   3   6  518.64   15.28   0
  -3   3  15    3.07    7.10   0
  -6   4  26  453.53   15.28   0
  -6   4  29    2.17    9.69   0
  -6   4  32  411.16   14.45   0
  -6   4  35   -6.44   11.95   0
  -4   3   8 2865.06   30.19   0
  -3   3  45   -1.55   10.05   0
  -7   3   8  640.97   16.20   0
  -6   4  23    5.01   10.75   0
  -5   4  30  358.70   14.35   0
  -8   3  13   -1.70   10.55   0
  -7   4  25   18.10   10.82   0
  -7   4  28  426.24   14.67   0
  -7   4  31  -13.49   10.50   0
  -7   4  34  191.86   14.57   0
  -5   3  55   -2.27   11.83   0
  -5   4  24 1027.33   19.81   0
  -5   4  27    1.22    8.98   0
  -5   4  33   17.67    9.37   0
  -5   4  36  388.55   15.33   0
  -4   2  -3    2.23    7.16   0
  -4   3  53    3.10   10.79   0
  -7   4  22  208.02   13.28   0
  -7   4  37    6.99   12.23   0
  -6   4  20  742.41   16.84   0
  -6   4  41  -10.76   11.54   0
  -5   2  -4  722.50   17.98   0
  -5   3   4  769.66   17.27   0
  -3   3  48  245.99   13.80   0
  -9   3  27   12.92   10.98   0
  -7   4  40  217.50   13.99   0
  -5   4  21   11.82    8.43   0
  -3   3  12 2659.81   28.86   0
  -9   3  24  234.10   13.93   0
  -6   4  17    8.56    8.44   0
  -6   4  44  287.78   14.66   0
  -2   3  28 1458.32   22.79   0
  -2   3  31    2.87    8.48   0
  -2   3  34  670.21   16.92   0
  -8   3  10  266.28   13.38   0
  -8   4  33   -0.81   11.80   0
  -7   3   5   12.95    9.41   0
  -7   4  43    3.65   11.24   0
  -6   3   3    4.34    7.40   0
  -5   3  58  129.05   12.46   0
  -5   4  18  431.24   14.53   0
  -2   3  25   11.76    8.07   0
  -9   3  21   -2.38   11.24   0
  -8   4  36  190.04   13.33   0
  -4   3   5    5.44    6.99   0
  -4   3  56  193.17   14.01   0
  -4   4  28  726.84   17.12   0
  -3   3  51   10.56   10.46   0
  -2   3  37   -1.94    8.65   0
  -8   4  39   -5.70   11.28   0
  -7   4  46   62.50   12.44   0
  -6   4  14  333.23   12.67   0
  -5   4  45    6.81    9.57   0
  -4   4  25    1.60    9.56   0
  -4   4  37   -8.69   10.29   0
  -9   3  18  221.62   13.74   0
  -8   4  21    0.46   11.53   0
  -5   4  15   30.60    8.28   0
  -2   3  40  533.99   16.07   0
  -7   4  13   12.90   10.31   0
  -6   4  50  134.20   13.71   0
  -5   4  48  282.19   14.78   0
  -4   4  22  767.32   16.58   0
  -3   3   9    4.63    6.65   0
  -8   3   7   -0.92    9.88   0
  -8   4  18  267.05   12.70   0
  -5   3   1    0.96    7.93   0
  -2   3  43   -0.93    9.14   0
  -7   3   2  292.43   13.06   0
  -4   4  19   -1.23    7.77   0
  -4   4  43    1.37   11.13   0
  -8   4  15   -5.08   10.85   0
  -6   3   0 1135.50   21.01   0
  -5   4  12 1004.28   18.26   0
  -9   4  29   -4.42   10.56   0
  -7   4  10  448.55   14.80   0
  -6   4  53   -2.03   10.93   0
  -5   4  51    0.60   12.14   0
  -4   4  46  182.22   13.31   0
  -2   3  46  145.07   12.60   0
  -9   4  26  188.67   13.62   0
  -4   4  16 1635.66   22.40   0
  -9   4  23  -22.33   11.49   0
  -5   2  -7   17.91    8.09   0
  -2   3  16 2066.93   26.10   0
  -9   4  20  158.12   13.20   0
  -8   4  12  311.77   13.36   0
  -7   5  30  112.88   12.65   0
  -7   5  33   -5.40   11.51   0
  -5   4   9   -1.55    8.49   0
  -5   4  54   88.14   12.90   0
  -4   2  -6  792.67   19.16   0
  -4   4  49   10.28   11.13   0
  -3   3   6  565.30   14.67   0
  -7   5  27   -8.83    9.82   0
  -6   5  28  494.88   15.91   0
  -6   5  31   -1.05   11.58   0
  -6   5  34  298.07   14.57   0
  -3   4  29   15.81    9.04   0
  -3   4  32  975.41   19.53   0
  -3   4  35    5.91    9.70   0
  -7   4   7    3.80    9.76   0
  -7   5  24  389.47   14.30   0
  -7   5  39   14.76   12.27   0
  -6   5  25   12.98   10.38   0
  -6   5  37   11.08   10.04   0
  -4   4  13   -3.39    7.58   0
  -3   4  38  193.18   12.34   0
  -9   4  17    0.88   11.17   0
  -8   5  29  -17.68   11.37   0
  -8   5  32  285.83   15.18   0
  -8   5  35   -2.82   11.33   0
  -7   3  -1    5.28    8.78   0
  -7   5  21   -9.27   11.20   0
  -7   5  42  191.77   13.76   0
  -6   5  40  267.56   14.83   0
  -5   3  -2  882.90   18.75   0
  -8   4   9   -4.09   10.18   0
  -8   5  26  240.87   13.35   0
  -8   5  38   64.12   12.56   0
  -6   4   5    3.05    8.91   0
  -6   5  22  238.92   12.46   0
  -4   4  52  209.34   13.26   0
  -3   4  23   19.83    8.03   0
  -3   4  41    2.98    9.81   0
  -2   3  13   35.71    7.21   0
  -7   5  18  455.46   15.65   0
  -7   5  45   16.21   11.15   0
  -6   3  -3    9.00    8.66   0
  -5   5  29   -4.84   10.57   0
  -5   5  32  571.78   16.48   0
  -9   4  14  107.24   11.95   0
  -6   5  19    6.43    9.14   0
  -5   4   6  927.03   17.68   0
  -5   5  26  277.95   13.20   0
  -3   4  20  964.21   18.60   0
  -3   4  44  360.82   14.95   0
  -7   4   4  744.73   17.76   0
  -6   5  46   73.69   11.46   0
  -5   5  41   -8.42   11.62   0
  -4   4  10  444.83   13.23   0
  -6   5  16  713.59   17.09   0
  -5   5  23   -1.63    8.74   0
   0   2  31   -2.12    6.98   0
  -9   5  25    1.29   11.69   0
  -9   5  28  108.62   13.12   0
  -8   4   6  235.30   13.13   0
  -8   5  17    0.11   11.47   0
  -6   5  49    8.01   10.97   0
  -5   5  44  241.28   14.52   0
  -3   3   3   -0.20    6.30   0
  -3   4  17   -6.50    8.38   0
  -3   4  47    8.05   10.48   0
   0   2  28 1101.30   23.33   0
  -9   4  11    1.02   10.57   0
  -9   5  22  109.64   11.89   0
  -6   4   2  633.67   16.39   0
  -6   5  13    9.98   10.26   0
  -2   3  10 2050.04   26.35   0
  -8   5  14  171.26   11.74   0
  -5   5  17    6.74    9.98   0
  -5   5  47    5.98   12.00   0
  -4   4   7    0.03    8.36   0
  -1   3  29    4.48    7.51   0
  -1   3  32 1257.88   22.57   0
  -1   3  35    0.12    7.72   0
  -9   5  19    1.58   10.65   0
  -4   5  33    9.21   10.29   0
  -7   4   1   13.71    9.14   0
  -5   3  -5   14.79    7.86   0
  -4   5  27    1.55    9.91   0
  -4   5  36  368.98   14.98   0
  -3   4  14  719.72   15.89   0
  -1   3  26  562.58   15.74   0
   2   6  17   -0.69   13.82   0
   4   0  10  448.07   13.94   0
   7  -1  -7    1.89   10.56   0
   7   0  -2  281.85   14.63   0
   1   3  19   21.15    8.92   0
   1   5  20  543.21   17.40   0
   5  -2  -5   14.40    8.32   0
   6   1   8  759.13   18.98   0
   8   0 -13    6.59   10.70   0
   8   1 -11  -10.20   10.79   0
   2   3  20  660.73   16.53   0
   3   6  15   10.06   12.09   0
   6  -1   1    3.49    8.50   0
   6   0   6  280.15   14.06   0
   7   2   2  116.12   12.90   0
   1   2  17   15.25    6.80   0
   1   4  21   19.23    9.62   0
   4   1  15   33.09    9.02   0
   4   2  17    2.04    9.26   0
   5   1  13    4.02   10.94   0
   6  -2  -7   -1.76    8.72   0
   6   3   9    3.98   12.03   0
   3   4  20  489.89   17.07   0
   5   2  15   -0.97   11.76   0
   5   4  13    3.54   11.58   0
   7   0   1    6.23    9.53   0
   8   0 -10  207.36   14.15   0
   8   1  -8  163.62   13.02   0
   3   0  12 2703.11   30.49   0
   3   2  19    4.62    8.72   0
   3   5  19    7.02   11.73   0
   4   4  18  248.23   15.47   0
   2   5  21    6.36   11.52   0
   5   0  11    4.77    8.73   0
   2   1  16 2089.25   27.16   0
   2   4  22  396.12   15.69   0
   3   1  17   -5.38    9.18   0
   3   3  21   25.12   10.63   0
   4  -2  -3    1.45    6.96   0
   6   1  11    3.69   11.71   0
   7   2   5    1.03   12.10   0
   8   0  -7   -1.55   11.71   0
   8   1  -5    6.67   10.98   0
   4   0  13   -5.63    7.93   0
   4   5  17   -4.52   12.40   0
   5  -2  -2  900.61   19.56   0
   6  -2  -4  959.75   20.06   0
   6  -1   4  841.29   17.78   0
   6   0   9   -5.81   10.12   0
   7  -1  -1   -3.96   10.40   0
   2   0  11   -6.28    6.74   0
   2   6  20  215.74   15.55   0
   5   3  17   -2.17   12.04   0
   6   2  13    0.29   12.62   0
   6   3  12  171.84   13.94   0
   7   0   4  218.83   12.74   0
   7   1   6  261.87   14.21   0
   3   6  18  235.22   15.85   0
   7  -2  -9   -0.20    9.28   0
   8  -1  -9    2.66   11.17   0
   8   0  -4  285.32   14.34   0
   1   5  23    9.93   11.35   0
   4  -1   8 2839.24   30.62   0
   4   2  20  743.95   17.41   0
   5   2  18  463.59   15.45   0
   1   3  22  375.86   14.24   0
   2   3  23    4.12    8.33   0
   3  -1   7    1.40    6.54   0
   3   4  23   -1.14   11.41   0
   3   5  22  137.51   14.22   0
   4   4  21    7.45   11.95   0
   5   0  14  706.63   17.15   0
   7  -1   2  419.87   15.41   0
   5  -1   9    1.95    7.89   0
   6  -2  -1    6.79    8.82   0
   6   0  12  505.43   16.14   0
   7   1   9   11.64   11.26   0
   8  -1  -6  134.95   12.63   0
   8   0  -1    0.09   10.91   0
   2   5  24  527.16   17.83   0
   4   5  20  175.03   15.04   0
   6   2  16  509.87   17.73   0
   6   3  15   15.95   12.57   0
   8   1   1   -2.64   10.87   0
   3   0  15   -6.74    7.47   0
   3   3  24  712.12   18.16   0
   4   0  16 1685.63   24.01   0
   5  -2   1    2.46    6.76   0
   5   3  20  276.25   15.17   0
   2   4  25   -4.83   10.45   0
   3   1  20  985.11   19.63   0
   4  -2   0 4221.35   41.00   0
   7   2  11   -6.01   12.20   0
   8  -1  -3   -3.82   10.54   0
   3   6  21   -8.42   12.41   0
   5   1  19  -13.53    9.54   0
   7  -2  -3   -2.91    9.46   0
   7  -1   5   12.47   10.88   0
   2   1  19    3.30    8.40   0
   4   2  23   -3.59   11.00   0
   5   2  21   -3.13   10.24   0
   7   1  12  220.35   14.14   0
   8   1   4  224.59   13.61   0
   4  -1  11   35.68    8.11   0
   4   1  21   15.79    8.89   0
   6  -2   2  639.17   16.91   0
   6   1  17    3.97   10.22   0
   0   4  23   -2.62    8.36   0
   4   4  24  366.53   16.43   0
   5  -1  12 1021.46   19.43   0
   5   0  17   -6.82    8.84   0
   6   0  15    6.54    9.52   0
   6   3  18  125.05   13.92   0
   8  -1   0  479.21   16.62   0
   0   3  21    4.82    7.09   0
   2   0  14  365.27   13.65   0
   3   4  26  177.77   14.36   0
   3   5  25   10.65   11.64   0
   4   3  25    4.17   11.56   0
   6   2  19   12.58   11.01   0
   7  -2   0  701.80   17.74   0
   7   2  14  193.26   14.06   0
   8   0   5    1.31   11.12   0
   2   3  26  668.15   17.94   0
   4   5  23    5.28   11.87   0
   5  -2   4  764.95   17.26   0
   5   4  22  106.53   13.70   0
   7  -1   8  762.23   18.26   0
   2   2  24 1879.83   25.88   0
   3  -1  10 2078.39   27.37   0
   7   0  13    4.28   12.28   0
   7   1  15  -14.17   12.52   0
   2   5  27    0.20   11.29   0
   3   3  27    2.20   11.19   0
   4  -2   3   -0.08    7.28   0
   4   0  19    4.13    8.23   0
   5   1  22  262.27   14.43   0
   8  -1   3   -9.42   10.86   0
   1   3  25   -5.17    8.38   0
   3   0  18 1411.55   21.81   0
   5   2  24  387.97   16.25   0
   6  -2   5    2.54    7.74   0
   6  -1  13   17.83   10.38   0
   6   1  20  300.42   15.40   0
   8   0   8  310.00   15.94   0
   2   4  28  503.52   16.91   0
   3   1  23   27.37    8.42   0
   4   2  26  436.10   15.65   0
   6   0  18  416.08   15.54   0
   6   3  21   -4.58   11.98   0
   7  -2   3    0.17    9.27   0
   1   4  27    6.80    9.53   0
   4   1  24 1060.96   20.41   0
   5   0  20  787.73   18.18   0
   6   2  22  137.17   13.67   0
   7  -1  11   19.78   10.92   0
   7   2  17    0.45   11.14   0
   4   4  27  -14.87   12.40   0
   5  -1  15   27.05    8.75   0
   8  -2  -2  271.42   14.14   0
   8  -1   6  232.66   14.04   0
   4   3  28  433.63   16.94   0
   5  -2   7   18.16    7.39   0
   5   4  25   -6.02   12.80   0
   7   0  16  592.57   17.43   0
   7   1  18  178.95   13.77   0
   1   2  23    2.80    6.58   0
   2   1  22  491.11   14.25   0
   3   4  29    0.10   12.04   0
   3   5  28  209.32   15.15   0
   4   5  26  185.66   14.66   0
   5   1  25    7.47   11.53   0
   6  -2   8  986.13   19.02   0
   7  -2   6  200.28   12.66   0
   8  -2   1   -0.12   11.87   0
   8   1  13   12.55   11.24   0
   9  -1  -2  117.98   11.57   0
   4  -2   6  843.10   18.69   0
   4   0  22  801.09   18.04   0
   5   2  27   18.06   11.77   0
   6  -1  16  732.74   16.96   0
   6   1  23    8.44   10.18   0
   6   3  24  267.15   15.17   0
   7   2  20  159.57   13.50   0
   2   0  17    3.57    7.82   0
   2   3  29   -9.54    9.79   0
   3  -1  13   36.28    7.62   0
   3   3  30  215.63   14.13   0
   6   0  21   -1.85    9.75   0
   8  -1   9    7.98   11.58   0
   2   2  27    2.28    7.44   0
   5   0  23    8.44   10.70   0
   9  -1   1   -2.29   10.14   0
   3   0  21   10.59    7.40   0
   3   1  26  730.29   17.32   0
   4  -1  17    2.13    8.78   0
   4   1  27   -7.20   10.70   0
   5  -1  18  420.50   13.74   0
   7   0  19    8.74   10.47   0
   7   1  21   -3.67   12.55   0
   8  -2   4  287.89   14.37   0
   2   4  31   13.59   11.62   0
   4   4  30  117.11   14.26   0
   5   3  29   -5.85   12.87   0
   6  -3  -3   -0.86    8.77   0
   6  -2  11   -6.87    9.48   0
   7  -2   9    4.64   10.32   0
   1   3  28  753.85   18.22   0
   4   3  31   -3.28   12.20   0
   5   4  28  124.58   14.04   0
   8  -1  12  216.48   14.31   0
   9  -1   4  236.72   14.78   0
   4   5  29   -0.41   11.98   0
   6  -1  19   -1.48   10.47   0
   6   1  26  315.69   15.36   0
   7   2  23   -5.35   11.64   0
   3   4  32  340.48   15.88   0
   3   5  31   -3.12   12.09   0
   5   1  28  522.85   15.62   0
   6   0  24  549.52   16.74   0
   7  -3  -2  289.12   13.66   0
   5   2  30   93.23   11.42   0
   6   2  28  186.48   13.99   0
   8  -2   7   -1.00    9.41   0
   3   2  31    2.03   10.33   0
   4   0  25   -5.83    8.41   0
   5  -3  -4  731.61   19.41   0
   6  -3   0 1160.34   22.02   0
   7  -2  12  565.36   16.82   0
   7   0  22  128.03   11.84   0
   9  -1   7   13.88   10.39   0
   1   2  26  548.85   15.71   0
   3  -1  16 2116.88   26.39   0
   5  -1  21    3.06    8.54   0
   5   0  26  266.61   12.71   0
   6  -2  14  321.62   13.35   0
   8  -1  15    6.13   11.33   0
   3   3  33    3.60    9.53   0
   4  -1  20  986.13   18.78   0
   4   1  30  374.67   14.98   0
   7  -3   1    8.84    9.07   0
   2   0  20 3655.54   34.42   0
   2   2  30  214.10   12.12   0
   3   0  24 1173.57   19.84   0
   3   1  29    7.52    9.58   0
   4   4  33   -0.90   11.65   0
   5   3  32  252.11   14.68   0
   6  -1  22  267.64   13.88   0
   7  -1  20  316.74   14.77   0
   8  -2  10  235.84   14.18   0
   5  -3  -1    0.41    8.08   0
   6  -3   3    6.04    8.49   0
   6   1  29    4.88   12.55   0
   9  -1  10  121.53   11.98   0
   4   3  34  208.09   14.63   0
   5   1  31   -1.51   11.13   0
   6   0  27  -10.77   12.17   0
   7  -2  15    8.70   10.18   0
   2   4  34  212.19   13.63   0
   6   2  31    9.23   11.85   0
   7  -3   4  728.25   18.20   0
   7   0  25   -0.53   10.67   0
   7   1  27    6.64   11.93   0
   9  -2   5    8.03   10.10   0
   3   4  35    6.36   11.53   0
   4   0  28  699.00   17.32   0
   8  -2  13    1.43   11.17   0
   1   3  31    1.96    8.69   0
   5  -1  24 1033.88   19.04   0
   5   0  29  -12.73    9.54   0
   9  -1  13    9.38   10.46   0
   3   2  34  471.60   16.51   0
   6  -3   6  515.97   15.56   0
   7  -1  23   -4.48    9.92   0
   8   0  23    0.41   11.99   0
   9  -2   8  263.43   14.56   0
   0   3  27    2.03    8.16   0
   3  -1  19    4.70    7.02   0
   4  -1  23   20.54    8.27   0
   4   2  35    9.62   11.23   0
   6  -1  25    9.20    9.62   0
   7  -3   7    8.53    9.66   0
   7  -2  18  469.00   15.92   0
   3   0  27    3.43    9.03   0
   3   3  36  351.63   15.65   0
   4   1  33    5.64    9.63   0
   4   4  36  166.20   14.19   0
   5   3  35   -1.85   12.57   0
   6   0  30  142.66   13.83   0
   6   1  32  336.16   15.14   0
   8  -3   5    1.90    9.55   0
   2   3  35   -2.19    9.82   0
   7   0  28  188.18   12.80   0
   7   1  30   82.30   13.15   0
   8  -2  16  452.70   16.26   0
   1   1  24 1808.26   25.68   0
   1   2  29    5.73    6.96   0
   2   0  23    0.49    6.78   0
   2   2  33    1.28    9.32   0
   4  -2  15    1.31    8.09   0
   4   3  37    6.28   11.50   0
   5   1  34  270.87   13.47   0
   6  -3   9   11.97    8.83   0
   9  -2  11   -3.16   10.56   0
   5  -3   5   10.09    8.04   0
   5  -2  19    8.92    8.12   0
   5   2  36  306.70   15.90   0
   7  -3  10  439.69   15.24   0
   7  -1  26  287.93   15.61   0
   4   0  31    5.07    9.86   0
   5  -1  27    2.39    9.20   0
   5   0  32  580.16   17.49   0
   8  -3   8  561.06   17.01   0
   8   0  26  123.50   12.43   0
   2   4  37   -1.90   10.00   0
   3   4  38  185.90   13.90   0
   6  -1  28  497.54   16.66   0
   4  -1  26  751.59   17.07   0
   6   1  35   10.31   12.34   0
   8  -2  19   13.89   11.50   0
   9  -2  14  154.31   12.49   0
   2  -1  15   -2.57    7.58   0
   3  -1  22  513.76   13.93   0
   3   2  37   12.49   10.04   0
   4   2  38  128.55   12.90   0
   5  -3   8 2334.89   28.76   0
   5   3  38   73.71   13.26   0
   6   0  33    7.36   11.89   0
   7  -3  13   15.62    9.94   0
   7   0  31  -10.30   11.18   0
   7   1  33   -0.59   11.41   0
   8  -3  11    0.80   10.67   0
   1   3  34  573.70   16.70   0
   2   1  31    0.98    8.61   0
   6  -2  23    1.78    8.91   0
   3   0  30  335.08   12.59   0
   3   3  39    4.16   11.22   0
   4  -2  18 1151.14   19.62   0
   4   4  39   11.06   10.74   0
   5  -2  22  348.13   12.81   0
   5   1  37    2.97   11.68   0
   7  -1  29    7.36   11.71   0
   3  -2  11   26.70    8.20   0
   4   3  40  185.74   14.67   0
   5  -1  30  340.66   14.57   0
   5   2  39    7.95   12.11   0
   9  -2  17   -4.89   10.64   0
   0   2  25    1.57    6.84   0
   2   0  26 1311.31   20.92   0
   2   3  38  116.41   11.49   0
   5   0  35    0.68   10.73   0
   6  -1  31   14.25   11.36   0
   8  -3  14  181.44   13.31   0
   8  -2  22  118.20   11.96   0
   8  -1  27    6.75   12.29   0
   1   2  32 1257.43   21.91   0
   2   2  36  421.64   14.13   0
   4   0  34  295.60   13.07   0
   5  -3  11   14.28    8.28   0
   6  -3  15   -6.91    9.36   0
   7  -3  16  525.02   16.14   0
   0   3  30  595.85   16.94   0
   1   1  27   -3.95    7.48   0
   4  -1  29    1.41    9.79   0
   6   1  38   68.67   12.68   0
   7   0  34  224.90   14.60   0
   1   0  19    0.20    6.14   0
   3  -1  25   14.00    8.37   0
   6  -2  26  417.46   14.18   0
   6   0  36  288.10   14.11   0
   9  -2  20  174.04   13.21   0
   4  -2  21    2.76    8.79   0
   4   2  41  -10.64   12.02   0
   5  -2  25    2.31    9.86   0
   7  -1  32  304.30   15.13   0
   8  -3  17    7.37   11.09   0
   9  -3  12  151.63   12.31   0
   2  -1  18 1228.76   20.80   0
   3   2  40  508.97   16.70   0
   7  -3  19   -0.84   10.49   0
   7  -2  27   13.14    9.72   0
   8  -2  25    3.89   10.49   0
   8  -1  30   86.93   12.53   0
   2   1  34  648.90   16.38   0
   3  -2  14 1592.05   23.41   0
   3   0  33    5.30    8.10   0
   5  -3  14  412.41   13.95   0
   5  -1  33   22.15   10.57   0
   6  -3  18  463.63   14.25   0
   3   1  38  198.72   12.18   0
   3   3  42  178.84   13.59   0
   4  -3   4 1353.71   24.15   0
   5   0  38  251.47   14.42   0
   5   2  42  182.72   13.81   0
   6  -1  34  293.17   13.65   0
   9  -3  15    2.13   11.98   0
   1   3  37    0.42    8.94   0
   4   0  37   -2.76   10.26   0
   4   3  43    3.79   11.16   0
   6  -2  29    3.49   10.29   0
   7   0  37    1.34   11.49   0
   9  -2  23   -0.36   10.56   0
   2   0  29    4.97    7.07   0
   4  -1  32 1022.02   19.40   0
   8  -3  20  241.55   14.26   0
   2   2  39    6.64    9.42   0
   2   3  41    2.80   10.16   0
   4  -2  24 2052.25   25.56   0
   5  -2  28  451.89   15.15   0
   6   0  39   -2.12   10.62   0
   7  -3  22  216.46   13.06   0
   7  -2  30  100.58   12.23   0
   7  -1  35   13.38   11.57   0
   3  -1  28 1447.17   21.39   0
   4  -3   7   19.14    7.47   0
   5  -3  17    9.85    8.71   0
   6  -3  21    8.43    8.39   0
   8  -1  33    9.90   12.00   0
   9  -3  18  130.43   12.86   0
   0   2  28 1095.28   21.54   0
   1   0  22  467.90   14.51   0
   1   1  30  609.60   15.25   0
   1   2  35   -1.05    8.59   0
   2  -1  21   29.60    8.43   0
   3  -2  17   12.99    6.86   0
   4   1  42  205.36   13.92   0
   4   2  44  282.50   15.74   0
   5  -1  36  373.78   14.11   0
   6  -1  37   11.11   12.33   0
   7  -4   8  631.22   17.16   0
   8  -3  23    0.80   10.72   0
   0   3  33    0.66    8.04   0
   3   0  36  894.14   18.03   0
   3   2  43   -3.16    9.59   0
   5   0  41   -6.43   11.68   0
   6  -2  32  421.24   15.63   0
   2   1  37   -2.96    7.77   0
   3   1  41    1.54   10.03   0
   4  -3  10 1177.63   20.67   0
   5   2  45  -14.74   11.33   0
   7  -3  25   21.64   11.36   0
   7   0  40  222.86   13.00   0
   9  -3  21    0.32   11.31   0
   3   3  45   -2.42   10.40   0
   4  -2  27   -2.78    9.23   0
   4  -1  35   12.64    9.76   0
   4   0  40  542.27   15.44   0
   5  -2  31   -0.41   10.32   0
   6  -4   4  962.46   20.96   0
   6   0  42  184.78   13.69   0
   7  -4  11    1.70    9.01   0
   7  -2  33   -2.89    9.88   0
   7  -1  38   62.33   12.20   0
   8  -4  12  315.04   14.87   0
   4   3  46   75.19   12.77   0
   3  -2  20 1497.10   21.79   0
   3  -1  31   -1.91    7.91   0
   6  -4   7    3.00    9.07   0
   8  -3  26  213.52   13.78   0
   2  -1  24 1949.33   25.14   0
   2   3  44  265.30   14.84   0
   4  -3  13   11.58    6.74   0
   5  -1  39   -9.64   11.42   0
   6  -1  40  264.91   14.46   0
   7  -4  14  402.99   14.77   0
   8  -4  15   -6.50   11.45   0
   9  -3  24  295.69   14.33   0
   4   1  45   13.33   11.06   0
   5   1  46   65.61   13.02   0
   6  -2  35    2.19   11.64   0
   8  -2  34  149.24   12.86   0
   1   0  25   -5.42    6.46   0
   1   1  33    4.03    6.86   0
   1   2  38  363.66   14.15   0
   4   2  47   -8.61   11.61   0
   5   0  44  223.88   14.56   0
   6  -4  10  404.15   14.31   0
   7  -2  36  315.03   14.90   0
   0   2  31   -6.82    8.27   0
   3   2  46   65.16   11.92   0
   4  -2  30  237.54   12.03   0
   5  -2  34  498.79   15.89   0
   7  -4  17   23.57    9.98   0
   7  -1  41   -4.46   11.80   0
   8  -3  29    0.34   11.42   0
   2   1  40  511.40   15.75   0
   3  -2  23    5.47    8.26   0
   3   1  44  324.17   14.68   0
   4  -1  38  207.75   11.66   0
   6   0  45    0.60   11.71   0
   8  -4  18  233.47   13.60   0
   3  -1  34  661.37   16.17   0
   6  -4  13    0.46    8.92   0
   9  -3  27    7.72   11.05   0
   5  -3  26  719.52   17.06   0
   6  -3  30  247.57   13.39   0
   2  -1  27   -2.43    7.02   0
   5  -1  42  228.92   14.42   0
   6  -2  38  130.41   11.62   0
   6  -1  43   15.49   10.47   0
   7  -4  20  525.41   16.13   0
   8  -4  21    6.60   10.61   0
   8  -2  37   -0.53   10.17   0
   6  -4  16  839.28   18.48   0
   7  -2  39   -0.21   11.46   0
   8  -3  32  262.80   13.95   0
   9  -4  19    2.55    9.86   0
   2   2  45    2.84    9.59   0
   4  -2  33    2.33    9.28   0
   4   1  48  286.10   15.02   0
   5  -2  37    9.11    9.43   0
   5   1  49    7.55   11.39   0
   1   1  36  973.43   19.20   0
   3  -2  26  568.55   14.35   0
   4   2  50  136.89   12.65   0
   7  -1  44  155.48   13.79   0
   0   1  26 1175.87   21.72   0
   4  -1  41   10.70    9.11   0
   5  -3  29    3.48    9.43   0
   6  -4  19   -6.06    9.41   0
   7  -4  23    4.56   10.27   0
   8  -4  24  373.40   15.03   0
   9  -4  22  100.25   11.94   0
   1   2  41    5.98    9.05   0
   2   1  43    7.92    9.68   0
   3  -1  37    1.38    8.38   0
   3   1  47    6.84   10.98   0
   3   2  49   -6.16   10.55   0
   4  -3  22  395.02   13.49   0
   6  -3  33    8.92    9.40   0
   0   2  34  288.64   12.59   0
   5  -4   3   -2.17    7.49   0
   5  -4   6  420.34   14.51   0
   5  -1  45   19.77   12.04   0
   6  -2  41    7.19    9.96   0
   6  -1  46   89.35   12.37   0
   5  -4   9   28.12    8.25   0
   6  -4  22  420.65   14.72   0
   7  -2  42  189.12   14.37   0
   2  -2  13    0.81    5.95   0
   3  -2  29    5.87    7.56   0
   4  -2  36  441.66   13.70   0
   5  -2  40  547.08   15.53   0
   7  -4  26  199.39   11.83   0
   8  -4  27    0.16   10.87   0
   9  -4  25    2.96    9.84   0
   4  -3  25    9.65    8.82   0
   5  -4  12 1223.43   20.82   0
   7  -3  37   10.77   11.76   0
   3   0  45   -1.74    8.65   0
   4  -1  44  373.41   14.36   0
   4   1  51   -2.52   11.84   0
   6  -3  36  405.36   14.26   0
   1   1  39   -1.00    8.53   0
   2  -2  16 3062.05   31.84   0
   3  -1  40  498.54   15.47   0
   4   0  49  -13.09   11.69   0
   5  -4  15    2.94    8.36   0
   6  -4  25    4.61    9.27   0
   0   1  29    0.88    7.15   0
   2  -1  33    7.48    8.33   0
   4   2  53   -0.25   11.12   0
   6  -2  44  278.96   13.68   0
   7  -4  29    8.56    9.22   0
   8  -4  30  124.37   12.07   0
   9  -4  28  113.05   12.26   0
   2   0  41    5.52    9.16   0
   2   1  46  146.23   11.93   0
   3  -2  32 1350.46   20.82   0
   3   1  50  214.68   13.68   0
   3   2  52  186.84   14.11   0
   5  -4  18  832.00   17.85   0
   5  -1  48  262.52   14.52   0
   6  -1  49    5.72   11.57   0
   7  -2  45   -2.60   10.31   0
   3  -3   9   -2.54    6.95   0
   4  -3  28  770.74   16.32   0
   4  -2  39   -1.03    8.84   0
   5  -3  35    6.24   10.59   0
   5  -2  43   -7.83    9.65   0
   7  -3  40  213.79   13.37   0
   1  -1  20 1544.91   23.10   0
   2  -2  19   -0.19    6.46   0
   6  -4  28  509.23   15.98   0
   6  -3  39    1.55    9.66   0
   0   2  37    1.95    7.72   0
   1   0  34 1027.34   19.04   0
   5  -4  21   11.96    8.62   0
   7  -4  32  325.84   14.88   0
   8  -4  33    8.19   10.40   0
   3   0  48  257.62   13.48   0
   4  -1  47    7.90    9.18   0
   5   0  53   -8.04   10.99   0
   2  -2  22 2006.99   25.11   0
   2  -1  36 1004.85   18.62   0
   3  -1  43    1.43    8.75   0
   4  -3  31   12.89    9.52   0
   4   1  54   81.17   12.43   0
   6  -2  47    0.82   10.85   0
   8  -5  19    1.42   11.11   0
   1   1  42  361.57   13.67   0
   3  -2  35   -1.18    7.80   0
   4  -2  42  474.45   15.47   0
   4   0  52  173.70   13.77   0
   5  -4  24  767.33   17.15   0
   5  -3  38  125.52   12.12   0
   7  -5  15    3.46   10.09   0
   7  -3  43   -7.54   11.45   0
   0   1  32 1815.23   25.15   0
   1  -1  23   -0.41    6.27   0
   2   0  44  818.83   18.13   0
   2   2  51   14.25   10.20   0
   3  -3  18  575.78   14.43   0
   5  -2  46   71.38   10.77   0
   5  -1  51   -2.87   10.57   0
   6  -3  42  194.33   13.65   0
   7  -4  35    7.00   10.78   0
   2   1  49   12.15   10.08   0
   3   1  53    7.95   11.18   0
   7  -5  18  201.58   12.42   0
   8  -5  22  144.30   11.66   0
   8  -4  36  178.93   12.22   0
   1   2  47   -3.25   10.07   0
   2  -2  25  -10.73    8.03   0
   3  -3  21   -6.34    7.89   0
   1   0  37   -1.29    7.01   0
   4  -3  34  575.95   14.83   0
   7  -5  21    1.24    9.75   0
   0   2  40  908.44   19.85   0
   1  -1  26 1219.18   19.80   0
   2  -1  39    1.29    8.60   0
   3  -2  38  403.55   13.15   0
   3   0  51   -8.59   10.41   0
   5  -3  41    1.34   10.82   0
   6  -2  50  159.12   12.25   0
   8  -5  25   -6.72   10.60   0
   3  -3  24 1754.19   23.26   0
   4  -2  45    6.07   10.11   0
   6  -3  45    5.18   11.32   0
   7  -3  46   99.72   12.66   0
   8  -4  39    2.55   10.43   0
   2  -2  28 1216.35   19.85   0
   4   0  55   -5.85   10.69   0
   4   1  57   -2.29   10.18   0
   5  -2  49    1.56   10.62   0
   7  -5  24  537.06   16.41   0
   0   1  35    0.73    7.38   0
   1   1  45    6.74    8.85   0
   2   0  47    2.25    9.75   0
   4  -3  37    7.93    9.50   0
   6  -4  37    0.39   10.55   0
   8  -5  28  206.63   13.39   0
   4  -4  11   -5.43    7.08   0
   4  -4  14  352.30   12.78   0
   6  -5  11   14.35    8.28   0
   6  -5  14  461.03   14.80   0
   1  -1  29    5.11    6.65   0
   1   0  40  845.58   17.81   0
   2   1  52  330.85   14.42   0
   3  -3  27   -3.86    7.41   0
   3  -2  41    5.51    9.42   0
   3   1  56  173.45   13.21   0
   4  -4   8 1629.42   25.00   0
   4  -4  17   -2.99    7.80   0
   5  -3  44  308.45   14.61   0
   6  -5  17    6.64    8.67   0
   7  -5  27   10.44    9.06   0
   2  -2  31   -1.11    8.02   0
   5  -4  33   -1.70    8.60   0
   6  -5  20  583.22   16.03   0
   6  -2  53   -3.46   10.77   0
   8  -5  31   -1.70   10.28   0
   3   0  54  111.47   12.41   0
   4  -4   5   -1.58    6.79   0
   4  -4  20 1333.86   20.48   0
   6  -3  48  179.43   13.58   0
   3  -3  30  626.38   15.40   0
   4  -3  40  539.21   14.84   0
   5  -2  52  169.10   12.64   0
   6  -5  23   -0.93    9.26   0
   6  -4  40  310.49   13.18   0
   7  -5  30  229.46   12.30   0
   0   0  27   -1.40    6.91   0
   0   2  43    3.39    7.86   0
   1  -1  32 1906.37   24.33   0
   5  -1  57    2.75   11.48   0
   8  -5  34  174.42   12.95   0
  -1   2  30  627.02   17.55   0
   0   1  38  288.54   11.67   0
   1   1  48  390.09   14.40   0
   3  -2  44  393.47   14.39   0
   4   0  58   85.19   12.24   0
   5  -4  36  580.55   15.23   0
   5  -3  47   10.77   11.44   0
   6  -5  26  285.68   13.20   0
   7  -4  44  171.90   13.35   0
   1   0  43    2.51    8.86   0
   2  -2  34  289.03   11.45   0
   7  -5  33    7.62   10.82   0
   3  -3  33   -2.38    7.78   0
   6  -4  43   -8.21   10.80   0
   6  -3  51   -5.31   11.16   0
   2   1  55   -3.12   10.42   0
   3  -1  52  332.22   14.75   0
   4  -3  43   -1.85    8.78   0
   4  -2  51    7.12    9.32   0
   4  -1  56  164.04   12.06   0
   6  -5  29    8.70    9.53   0
   8  -5  37    4.26    9.93   0
   0   0  30  158.40    9.21   0
   3   1  59    2.54   10.55   0
   4  -4  29   -3.95    7.74   0
   5  -4  39   13.06    9.21   0
   5  -2  55    1.52   10.37   0
   7  -5  36  202.35   13.09   0
   2  -2  37   -2.95    7.69   0
   3   0  57    0.69   10.53   0
   7  -4  47    7.52   11.44   0
   0   1  41   -0.13    7.92   0
   3  -3  36  617.10   14.94   0
   3  -2  47    3.32    8.62   0
   5  -3  50  248.82   14.13   0
   6  -5  32  492.52   15.92   0
  -1   2  33    5.44    7.09   0
   2   0  53    6.28   10.48   0
   4  -4  32  523.61   14.19   0
   4  -3  46   91.56   12.21   0
   6  -4  46  135.15   12.60   0
   0   0  33   -0.81    7.25   0
   1   0  46  135.98    9.91   0
   1   1  51    1.59    9.32   0
   2  -1  48  382.07   13.08   0
   5  -5  16  807.80   17.65   0
   5  -5  19    0.58    8.43   0
   5  -4  42  279.77   12.57   0
   6  -3  54   64.25   11.36   0
   7  -5  39   10.50   10.28   0
   2  -2  40  893.01   17.94   0
   3  -1  55   11.77   10.79   0
   4  -2  54   53.40   10.27   0
   4  -1  59    6.99   11.16   0
   5  -5  13   -3.26    7.91   0
   5  -5  22  269.71   12.40   0
   6  -5  35    0.02   10.36   0
   3  -3  39   12.36    8.27   0
   4  -4  35    3.54    8.32   0
   5  -5  10  759.99   17.71   0
   5  -2  58  149.65   12.17   0
   5  -5  25    1.37    7.64   0
   6  -6   6  446.41   15.79   0
   8  -6  14  123.40   13.36   0
   6  -5  17    9.11    8.89   0
   8  -1  30   89.13   13.91   0
   9  -6  15    6.44   11.57   0
   9  -4  25   -1.08   12.28   0
   9  -3  27    8.05   12.08   0
   2  -2  13    1.64    6.67   0
   3  -4   4 1314.85   24.67   0
   3   0  27    3.78    8.90   0
   4   1  30  333.25   14.89   0
   5  -3  26  727.33   18.12   0
   5   1  31    1.81   11.29   0
   7  -4  26  211.57   14.42   0
   7   0  31   -5.44   12.05   0
   8  -5  22  131.59   13.71   0
   8  -3  29   -9.37   12.88   0
   3  -3  15   -0.30    6.92   0
   3  -1  25    6.04    8.04   0
   4  -3  22  400.00   14.18   0
   4  -1  29   -7.02    8.81   0
   5  -4  21   17.55    9.61   0
   7  -6  13    9.67   10.56   0
   7  -1  32  310.32   15.89   0
   8  -4  27   16.48   12.32   0
   4  -5   3   -0.58    7.60   0
   5  -5  13    2.74    9.05   0
   6  -4  25   -3.82   11.24   0
   2   2  24 1979.76   30.11   0
   4  -2  27   -3.38    8.42   0
   4   0  31    1.59   10.20   0
   6  -2  32  445.38   16.81   0
   6   0  33    8.83   11.99   0
   9  -5  23   -4.31   11.05   0
   6  -6   9    2.12    9.61   0
   6  -3  30  243.41   14.06   0
   6   1  32  289.90   16.51   0
   7  -3  31   12.39   13.02   0
   8  -6  17   -9.61   11.24   0
   9  -6  18  248.57   14.53   0
   3   2  28  422.96   16.50   0
   5  -2  31    3.73    9.51   0
   6  -5  20  581.08   16.79   0
   6  -1  34  281.18   15.96   0
   9  -4  28  112.80   13.95   0
   3  -2  23    9.43    9.15   0
   3   1  29    2.89    8.17   0
   8  -5  25   -0.28   12.09   0
   2   1  25   12.39    6.84   0
   3  -4   7   27.15    7.80   0
   7  -6  16  730.35   18.01   0
   7  -4  29   12.71   10.50   0
   8  -3  32  250.48   14.74   0
   8  -1  33    8.65   11.66   0
   9  -7  10  198.29   13.82   0
   2  -1  21   30.62    8.32   0
   4  -5   6  403.49   14.50   0
   5  -5  16  786.62   18.25   0
   5  -4  24  727.98   17.92   0
   5  -3  29   -2.73   10.19   0
   7  -1  35   10.46   13.62   0
   7   0  34  212.97   15.29   0
   8  -4  30  121.16   14.05   0
   3  -3  18  566.69   15.60   0
   4  -3  25   10.71    9.08   0
   6  -6  12  399.55   15.16   0
   6  -4  28  521.39   17.00   0
   8  -6  20  235.45   14.33   0
   8  -2  34  147.60   13.72   0
   9  -5  26  188.54   13.23   0
   2  -2  16 3069.44   33.01   0
   3  -1  28 1475.60   23.01   0
   5   0  35    1.24   11.22   0
   5   1  34  251.53   14.82   0
   9  -6  21    1.18   11.17   0
   3   0  30  341.46   13.11   0
   4  -2  30  206.68   12.66   0
   4   1  33    6.28   10.43   0
   6  -2  35   -0.73   10.37   0
   7  -3  34  218.93   15.20   0
   9  -7  13   -1.14   10.56   0
   6  -3  33   17.77   10.22   0
   6   0  36  259.22   15.97   0
   7  -6  19   14.84   11.17   0
   8  -5  28  226.72   14.63   0
   4   0  34  267.70   14.21   0
   5  -2  34  518.06   16.81   0
   7  -5  27    6.32   11.13   0
   8  -7  12  247.19   14.30   0
   3  -4  10 1186.17   21.98   0
   4  -5   9   29.64    8.61   0
   6  -6  15    5.02   10.02   0
   6  -1  37   -2.98   10.70   0
   7  -4  32  345.50   15.25   0
   8  -4  33    8.74   12.88   0
   8  -3  35    0.79   13.22   0
   3  -2  26  596.17   15.28   0
   5  -6   5    0.49    8.72   0
   5  -5  19   -7.41    8.08   0
   8  -6  23    2.91   11.41   0
   9  -6  24  207.51   13.81   0
   9  -5  29    1.04   10.77   0
   2   2  27    5.32    8.72   0
   3   1  32 1027.06   21.31   0
   5  -3  32  754.94   17.76   0
   6  -4  31   -5.66   11.55   0
   8  -2  37    4.05   12.91   0
   9  -7  16  211.31   14.09   0
   3  -3  21    0.68    7.45   0
   4  -3  28  784.93   17.15   0
   7  -1  38   56.69   12.42   0
   7   0  37   -0.36   11.34   0
   2  -1  24 1901.77   25.39   0
   2   1  28 1456.15   24.65   0
   7  -6  22  200.65   14.36   0
   7  -3  37    9.47   12.39   0
   8  -7  15   -9.56   11.63   0
   8  -5  31   -0.85   12.48   0
   2  -2  19    2.58    7.02   0
   3  -1  31   10.49    9.59   0
   4  -2  33   -0.83   10.42   0
   5  -6   8  900.18   20.46   0
   5   0  38  226.54   14.87   0
   6  -3  36  390.22   16.66   0
   7  -5  30  212.74   14.92   0
   3   0  33    1.34    9.36   0
   4  -5  12 1227.53   22.06   0
   4  -4  23   11.96    8.92   0
   5   1  37   -1.64   11.75   0
   6  -6  18  299.52   14.11   0
   6   0  39   -8.66   14.00   0
   7  -4  35    0.73   12.39   0
   7  -2  39   -2.04   11.63   0
   8  -6  26  241.83   14.53   0
   9  -7  19    1.97   12.58   0
   3  -4  13   12.08    8.09   0
   4   1  36  358.27   15.32   0
   5  -5  22  292.56   12.54   0
   5  -2  37    4.19   11.57   0
   8  -4  36  183.68   14.53   0
   8  -3  38   79.71   12.84   0
   9  -6  27    4.28   10.76   0
   4   0  37   -7.34   10.69   0
   5  -4  30  212.38   12.79   0
   5  -1  39   -4.94   11.64   0
   6  -1  40  240.41   15.57   0
   8  -7  18  242.57   14.57   0
   3  -2  29    6.12    8.34   0
   5  -3  35   12.31   10.77   0
   6  -4  34  203.97   12.80   0
   7  -6  25    2.87   11.98   0
   3  -3  24 1768.65   24.36   0
   4  -3  31   16.48    9.76   0
   5  -6  11    7.40    9.16   0
   6  -5  29    8.45   11.45   0
   7  -7  14  164.22   13.07   0
   2   0  29    1.71    8.41   0
   4  -5  15    8.77    8.72   0
   6  -6  21    8.97   10.00   0
   7  -1  41   -2.33   12.98   0
   9  -7  22   68.70   12.53   0
   3   1  35    7.65    9.63   0
   6  -3  39   11.48   12.23   0
   7  -5  33   -3.18   10.30   0
   7  -3  40  194.21   13.86   0
   8  -6  29   -6.43   12.19   0
   2  -2  22 2032.50   26.04   0
   2  -1  27    4.91    7.25   0
   3  -4  16 2135.64   27.52   0
   4  -4  26  796.66   17.33   0
   4  -2  36  446.59   15.32   0
   4  -1  38  188.62   13.17   0
   7  -4  38  187.05   14.50   0
   7  -2  42  166.58   14.43   0
   8  -7  21    2.01   11.14   0
   2   2  30  226.23   13.00   0
   5   0  41   -0.52   11.23   0
   8  -4  39  -14.96   12.16   0
   2   1  31    6.64    8.42   0
   3   0  36  949.23   20.26   0
   5  -6  14  458.87   15.39   0
   5  -4  33   11.31    9.54   0
   5  -2  40  512.18   16.00   0
   6  -4  37   -1.57   12.44   0
   6   0  42  161.94   14.67   0
   7  -7  17    4.85   10.60   0
   7  -6  28  197.51   14.22   0
   1   1  24 1845.10   27.90   0
   4   1  39    2.17   10.47   0
   5  -3  38  109.47   12.44   0
   6  -6  24  681.00   18.16   0
   6  -5  32  485.20   16.33   0
   6  -1  43   -1.81   11.83   0
   3  -3  27   -5.47    8.85   0
   3  -2  32 1348.88   21.48   0
   4  -5  18  808.37   17.55   0
   4  -3  34  603.64   16.86   0
   4   0  40  544.33   17.23   0
   5  -1  42  198.61   14.18   0
   8  -5  37  -15.89   12.16   0
   7  -5  36  213.93   14.94   0
   8  -7  24  234.54   14.03   0
   8  -6  32  224.19   13.55   0
   4  -4  29  -12.08   10.10   0
   5  -6  17    5.87    9.37   0
   6  -3  42  202.09   15.08   0
   7  -7  20  194.01   13.53   0
   7  -3  43    3.90   12.15   0
   7  -1  44  138.96   13.37   0
   2  -2  25    4.97    8.11   0
   2   0  32  675.33   17.14   0
   6  -2  44  260.07   15.14   0
   7  -6  31   -0.85   12.01   0
   7  -4  41   12.39   12.82   0
   2  -3  17   12.90    8.05   0
   2  -1  30  636.75   16.54   0
   4  -2  39    1.45    9.47   0
   4  -1  41    1.59   10.20   0
   5  -4  36  569.97   17.19   0
   7  -2  45   -4.07   11.88   0
   3   1  38  203.83   12.89   0
   4  -5  21   13.69    9.17   0
   6  -6  27   -5.17   10.85   0
   6  -5  35   -1.70   10.93   0
   6  -4  40  328.23   15.38   0
   5  -3  41   10.32   11.83   0
   5   0  44  247.21   14.53   0
   8  -7  27   15.74   11.01   0
   8  -5  40  168.11   13.75   0
   1  -1  20 1577.80   24.07   0
   2   1  34  651.51   17.47   0
   3  -3  30  645.16   15.81   0
   3  -2  35   -4.16    9.95   0
   3   0  39   12.72   10.15   0
   4  -3  37    4.24   10.40   0
   5  -6  20  550.50   16.34   0
   6  -1  46   96.22   13.56   0
   6   0  45   20.86   12.23   0
   7  -7  23   -5.60   10.98   0
   7  -5  39   -5.67   11.88   0
   1   2  26  570.36   17.39   0
   4  -4  32  532.77   16.19   0
   5  -1  45  -13.41   12.20   0
   1   1  27   -4.03    7.19   0
   4   0  43   -0.72   11.03   0
   4   1  42  207.00   14.21   0
   6  -7  16  694.03   18.27   0
   7  -6  34  187.34   13.89   0
   2  -3  20 1519.12   23.17   0
   2  -2  28 1184.55   20.70   0
   4  -5  24  741.50   17.76   0
   6  -6  30  188.57   13.38   0
   6  -3  45   -1.88   11.57   0
   7  -4  44  192.25   13.40   0
   4  -2  42  471.24   16.02   0
   5  -6  23    5.76    9.90   0
   5  -4  39   24.46   12.02   0
   6  -5  38  147.65   13.59   0
   6  -2  47   -3.77   13.16   0
   7  -7  26  259.97   14.73   0
   8  -7  30   66.60   11.66   0
   2  -1  33   11.02    7.71   0
   2   0  35   -2.79    7.57   0
   3  -5   5   11.16    8.34   0
   4  -1  44  339.02   14.88   0
   6  -4  43  -15.61   12.66   0
   3  -4  25    3.10    7.60   0
   3  -3  33    6.14    9.28   0
   5  -5  34  337.26   14.37   0
   5  -3  44  274.12   15.51   0
   6  -7  19    1.80    9.63   0
   7  -5  42  119.91   13.69   0
   1  -1  23    0.56    6.81   0
   3  -2  38  365.70   14.39   0
   3   1  41    5.65   11.05   0
   4  -4  35    4.84   10.66   0
   4  -3  40  532.76   16.88   0
   4  -5  27    2.36    9.72   0
   5   0  47    3.26   12.02   0
   6  -6  33   -1.42   11.59   0
   1  -2  15    6.59    7.47   0
   2  -3  23    3.24    7.15   0
   3   0  42  349.16   13.65   0
   5  -6  26  258.83   13.26   0
   5  -1  48  273.34   14.58   0
   6  -1  49    2.49   12.05   0
   7  -7  29   -3.20   11.17   0
   7  -4  47   -3.37   12.38   0
   8  -7  33    6.47   11.49   0
   2  -2  31   -7.92    7.76   0
   2   1  37   -5.03    8.69   0
   3  -5  11    3.71    7.63   0
   4   0  46  173.72   13.61   0
   5  -4  42  266.62   14.56   0
   6  -7  22  203.06   12.76   0
   6  -5  41    3.50   11.80   0
   6  -3  48  179.35   14.13   0
   1   1  30  650.32   17.05   0
   1   2  29    6.40    8.02   0
   3  -4  28  767.23   17.33   0
   6  -2  50  139.30   14.20   0
   2  -1  36  996.75   19.66   0
   4  -2  45   14.73    9.67   0
   5  -5  37   -2.44   11.94   0
   2   0  38  298.77   12.27   0
   3  -5  14  418.67   14.41   0
   3  -3  36  615.30   15.83   0
   3  -1  43    4.96   10.34   0
   4  -6  13    2.23    8.34   0
   4  -4  38  161.42   12.84   0
   4  -1  47   -5.35   11.19   0
   5  -3  47   10.21   12.24   0
   5  -2  49   16.85   12.30   0
   7  -5  45   -2.20   12.22   0
   1  -2  18 1224.65   21.07   0
   1  -1  26 1262.12   20.84   0
   2  -3  26  569.50   14.85   0
   3  -2  41   -7.79   10.06   0
   4  -3  43    2.00    9.60   0
   5  -6  29   -5.67   10.69   0
   6  -7  25    0.67    9.97   0
   6  -6  36  174.81   14.02   0
   7  -7  32  334.53   14.78   0
   2  -4   9    1.01    7.26   0
   2  -2  34  309.13   13.26   0
   3  -5  17    4.11    8.28   0
   3  -4  31   22.67    9.86   0
   4  -6  16  839.97   18.89   0
   5   0  50  100.82   13.97   0
   6  -5  44  185.44   14.17   0
   2  -4  12  811.19   18.77   0
   3   0  45   -4.58   10.42   0
   3   1  44  344.48   14.59   0
   5  -4  45   -8.90   10.08   0
   5  -1  51    2.01   11.17   0
   2   1  40  528.75   16.21   0
   5  -5  40  259.44   13.08   0
   6  -7  28  178.27   13.28   0
   6  -4  49    2.16   11.44   0
   1  -2  21   30.66    7.35   0
   1   1  33    5.07    7.96   0
   2  -3  29    1.57    9.09   0
   3  -3  39   -8.37    9.04   0
   4  -6  19   -1.45    9.04   0
   4  -4  41   -4.49   10.73   0
   4   0  49   -6.24   11.40   0
   5  -6  32  470.68   14.80   0
   6  -6  39   -0.79   11.32   0
   6  -2  53   -8.69   11.13   0
   7  -7  35    5.18   10.71   0
   1  -1  29   -4.98    7.08   0
   2  -4  15    1.73    6.43   0
   2   0  41   -7.34    9.72   0
   3  -5  20  659.63   15.88   0
   4  -3  46  114.04   12.88   0
   5  -3  50  221.18   14.15   0
   1   2  32 1274.21   23.79   0
   3  -2  44  394.11   14.18   0
   3  -1  46  165.90   12.59   0
   4  -1  50  211.15   14.27   0
   5  -2  52  173.60   14.00   0
   2  -2  37   -9.40    9.62   0
   3  -4  34  559.92   15.37   0
   4  -6  22  414.08   14.79   0
   1  -2  24 1951.53   25.38   0
   2  -4  18 1131.47   19.97   0
   3  -5  23   11.96    9.30   0
   5  -6  35    3.33   11.35   0
   5  -5  43   -8.46   11.55   0
   5  -4  48  181.49   13.99   0
   6  -7  31   -0.63   11.05   0
   6  -5  47    1.30   10.85   0
   1   0  34  990.08   18.92   0
   2  -3  32 1326.12   21.48   0
   7  -7  38   51.65   11.12   0
   1  -1  32 1965.90   25.42   0
   3  -3  42  295.62   12.89   0
   3   0  48  228.08   14.03   0
   4  -6  25    2.84    9.61   0
   4  -4  44  492.46   16.18   0
   5  -7  21    2.64   10.30   0
   5  -1  54   64.23   12.09   0
   6  -4  52  144.34   13.18   0
   2  -4  21   -2.53    7.03   0
   1   1  36  996.67   20.39   0
   2   1  43    1.61    9.39   0
   3  -5  26  694.15   16.17   0
   3  -4  37   -7.27    8.82   0
   4  -3  49  -19.45   10.68   0
   4   0  52  191.25   13.22   0
   5  -3  53    1.85   11.37   0
   6  -7  34  210.34   13.12   0
   1  -2  27   -2.55    7.25   0
   2  -2  40  959.40   19.42   0
   2   0  44  858.31   18.38   0
   3  -2  47   -3.89    9.37   0
   3  -1  49   18.59   10.89   0
   4  -5  39   -2.27   10.75   0
   4  -1  53   -3.57   12.22   0
   5  -7  24  519.37   16.81   0
   5  -6  38  170.64   13.32   0
   5  -2  55  -14.92   12.16   0
   2  -3  35    1.65    8.94   0
   4  -6  28  519.24   15.70   0
   5  -5  46  100.26   12.62   0
   5  -4  51   -7.52   12.06   0
   6  -5  50  101.96   13.34   0
   1   0  37   -1.93    8.56   0
   1   2  35    2.02    7.57   0
   0   0  21    3.45    5.93   0
   1  -1  35    0.56    8.83   0
   3  -5  29   -3.97    8.13   0
   3  -3  45   -8.42    9.44   0
   4  -4  47    9.28   11.37   0
   1  -2  30  658.55   16.14   0
   3  -4  40  533.97   15.31   0
   5  -7  27   -0.28   10.22   0
   6  -7  37   -0.36   11.41   0
   3   0  51   -4.29   11.12   0
   4  -6  31   -4.04   10.12   0
   4  -5  42  259.56   13.92   0
   4  -3  52  259.99   14.57   0
   4  -2  54   40.57   11.88   0
   5  -6  41   -6.45   11.15   0
   1   1  39    2.65    8.42   0
   2  -3  38  391.76   14.15   0
   2  -2  43   -2.26    8.84   0
   3  -5  32  774.98   17.92   0
   0   0  24 4851.10   40.48   0
   1  -3  19   -1.26    7.61   0
   2   0  47    0.95   10.10   0
   3  -1  52  369.26   15.34   0
   5  -7  30  210.79   12.99   0
   5  -5  49   14.42   11.84   0
   1   0  40  863.30   18.60   0
   2  -4  30  215.05   11.63   0
   3  -3  48  407.19   16.07   0
   4  -1  56  184.12   13.33   0
   5  -4  54   83.16   12.59   0
   5  -2  58  132.18   12.54   0
   6  -7  40  264.75   14.51   0
   1  -2  33    7.70    7.83   0
   1  -1  38  294.30   12.12   0
   3  -4  43   13.30   11.13   0
   4  -6  34  221.80   13.24   0
   4  -4  50  190.54   14.21   0
   1  -3  22  484.54   13.80   0
   2  -3  41   -1.93    9.87   0
   2  -1  48  395.58   15.06   0
   4  -5  45   -8.80   10.08   0
   5  -7  33   -1.06   10.48   0
   0  -1  19   -1.61    6.36   0
   0   1  29    3.80    7.17   0
   1  -3  25    5.47    7.97   0
   2  -4  33    0.83    9.64   0
   2  -2  46  319.81   13.18   0
   3   0  54  120.39   14.03   0
   4  -3  55    7.89   11.91   0
   4  -2  57   -2.71   11.43   0
   1  -2  36 1034.99   19.16   0
   1   1  42  385.28   14.14   0
   4  -6  37   14.45   11.01   0
   5  -5  52  195.62   13.10   0
   6  -7  43   -3.66   10.30   0
   0  -1  22  494.45   14.10   0
   1  -1  41    0.20    9.35   0
   2   0  50  249.48   13.58   0
   2   1  49   -0.13   10.67   0
   3  -4  46   87.36   11.78   0
   3  -3  51   18.45   11.75   0
   3  -1  55    8.40   11.44   0
   5  -4  57   -5.54   11.97   0
   0   2  28 1132.30   22.75   0
   1  -3  28 1452.98   21.92   0
   1   0  43    2.55    7.83   0
   4  -4  53   -3.88   11.90   0
   5  -7  36  218.43   13.72   0
   2  -4  36  420.14   13.66   0
   2  -3  44  407.26   14.64   0
   3  -6  15    0.21    7.97   0
   3  -6  18  464.36   15.11   0
   4  -5  48  165.54   12.32   0
   4  -1  59   -3.14   10.70   0
   0  -1  25   -1.92    6.64   0
   0   1  32 1921.10   26.33   0
   2  -2  49    0.20   10.70   0
   2  -1  51    6.04   10.68   0
   3  -6  21   -4.15    8.85   0
   4  -6  40  294.88   14.14   0
   1  -3  31   -0.76    8.53   0
   1  -2  39    4.28    8.18   0
   4  -3  58  116.68   13.16   0
   2  -5  16 1937.67   26.69   0
   3  -6  24  665.28   17.18   0
   3  -4  49   15.50   11.91   0
   4  -2  60  144.08   12.66   0
   5  -7  39    5.01   11.24   0
   5  -5  55   -4.46    9.93   0
   0   2  31   -0.73    7.56   0
   1   1  45    0.78    9.42   0
   2  -5  13   -3.25    7.73   0
   2  -5  19   10.20    8.29   0
   2  -4  39   -5.14    8.73   0
   3  -3  54  120.33   12.78   0
   3   0  57    0.39   12.27   0
   1   0  46  121.76   10.29   0
   2  -5  22  328.10   12.07   0
   2  -3  47   -2.49   10.38   0
   2   0  53   -6.46   10.17   0
   3  -6  27   -4.67    9.29   0
   4  -6  43  -11.51   11.27   0
   4  -5  51   13.04   10.96   0
   4  -4  56  112.83   12.47   0
   0   1  35    4.00    7.83   0
   1  -3  34  635.87   15.31   0
   1  -2  42  398.73   14.10   0
   2  -5  10  729.87   18.40   0
   2  -5  25   -3.34    8.82   0
   3  -1  58  143.96   12.23   0
   4  -7  26  182.82   12.47   0
   0  -1  31    4.71    7.13   0
   2  -2  52  223.88   13.59   0
   3  -6  30  221.05   12.72   0
   3  -5  44  282.60   14.17   0
   5  -7  42  122.09   11.83   0
   2  -5  28  451.66   14.64   0
   2  -4  42  483.17   15.72   0
   2  -1  54  161.45   11.88   0
   4  -7  29    3.61    9.53   0
   1  -3  37    1.01    9.80   0
   3  -4  52  262.73   13.44   0
   0  -2  20 3710.50   34.47   0
   0  -1  34 1091.43   19.51   0
   0   2  34  287.80   12.89   0
   2  -5   7   12.62    7.34   0
   2  -5  31   -0.00    9.47   0
   2  -3  50  219.96   13.65   0
   3  -6  33    0.11    9.86   0
   3  -3  57    4.79   11.29   0
   3  -2  59    0.76   11.53   0
   4  -7  32  321.87   15.57   0
   4  -6  46  112.68   12.79   0
   4  -5  54   75.63   12.17   0
   0  -2  17   -1.70    6.42   0
   0  -2  23    2.67    8.00   0
   0   1  38  283.27   12.63   0
   1  -2  45   -8.85   10.46   0
   1   0  49    6.16    8.68   0
   1   1  48  401.67   14.76   0
   4  -4  59    9.49   11.15   0
   5  -7  45   -4.23   11.21   0
   0  -2  14  342.09   12.53   0
   0   0  39    2.03    8.67   0
   1  -4  20  983.62   18.99   0
   2  -4  45    4.52   10.37   0
   2   0  56  132.81   12.16   0
   3  -5  47    1.81    9.53   0
   0  -2  26 1357.26   20.77   0
   1  -4  17    0.91    6.52   0
   1  -4  23   28.84    8.62   0
   1  -3  40  549.87   14.87   0
   3  -6  36  382.67   14.94   0
   3  -1  61   -1.62   10.77   0
   4  -7  35    4.03   10.39   0
   0  -2  29   -2.92    8.46   0
   0  -1  37    0.26    7.68   0
   1  -4  14  708.98   17.39   0
   2  -1  57    2.31   10.79   0
   3  -4  55    1.02   11.27   0
   0   2  37    2.11    8.35   0
   0   1  41   -2.37    8.48   0
   1  -2  48  383.73   13.85   0
   2  -3  53  -16.32   10.46   0
   3  -6  39  -10.53   10.44   0
   3  -5  50  222.53   13.77   0
   3  -2  62   63.30   12.57   0
   4  -7  38  170.11   13.11   0
   4  -5  57    8.71   10.88   0
   0  -1  40  856.06   18.09   0
   0   0  42  914.59   18.05   0
   1  -4  11   40.92    8.13   0
   1  -3  43   10.83    8.82   0
   1   0  52  363.17   14.88   0
   1   1  51   10.84    9.34   0
   2  -4  48  359.16   13.73   0
   0  -2  35    2.23    8.80   0
   2   0  59    0.73   11.34   0
   3  -6  42  200.11   13.61   0
   1  -4  35    8.72    9.67   0
   1  -1  53   -3.59    8.94   0
   3  -4  58  148.61   12.50   0
   4  -7  41    0.49   10.70   0
   0  -1  43    0.29    9.66   0
   0   0  45   -1.21    9.30   0
   0   1  44  517.38   15.45   0
   0   2  40  946.34   19.85   0
   1  -3  46  168.82   11.55   0
   1  -2  51    5.80    9.21   0
   2  -4  51   -1.29   11.02   0
   2  -3  56  240.08   14.49   0
   2  -1  60  198.45   14.32   0
   3  -5  53   -2.12   10.80   0
   0  -2  38  288.09   12.68   0
   1  -4  38  190.06   11.27   0
   1   0  55   -3.83   10.63   0
   3  -6  45    0.74   10.57   0
   4  -7  44  171.14   13.12   0
   1   1  54  137.19   12.29   0
   0  -2  41   -6.33    9.49   0
   1  -3  49   -5.53    9.68   0
   1  -1  56  252.63   14.21   0
   2  -2  61    2.60   10.86   0
   3  -4  61   -5.39   11.06   0
   0  -3  24 1132.88   19.12   0
   0  -3  27   -0.44    8.54   0
   0  -1  46  155.20   10.73   0
   0   1  47    3.84    8.98   0
   1  -4  41    1.62    8.94   0
   1  -2  54  147.87   11.40   0
   2  -4  54   46.08   12.34   0
   2  -3  59    2.65   11.04   0
   3  -5  56  150.90   12.81   0
  -1   1  25    2.99    6.76   0
   0  -3  30  345.64   13.19   0
   2  -1  63   -2.84   11.54   0
   3  -6  48  193.94   13.45   0
   4  -7  47    6.96   10.21   0
  -1   0  23    2.88    6.17   0
  -1   0  26 1183.44   20.00   0
  -1   1  22  458.84   14.54   0
  -1   1  28 1396.83   22.66   0
   2  -6  23    4.32    8.89   0
   2  -6  26  446.97   14.99   0
  -1   0  20 1520.80   23.23   0
  -1   0  29   -2.02    6.77   0
   0  -3  33   -4.12    8.03   0
   0  -2  44  848.65   17.53   0
   1  -4  44  342.61   13.41   0
   1  -3  52  376.78   15.43   0
   1   0  58  203.08   12.80   0
   2  -6  29   -1.86    9.39   0
  -1   0  32 1925.18   24.98   0
  -1   1  31   -0.73    6.18   0
   0  -3  15   -2.56    7.33   0
   2  -6  32  408.95   14.79   0
   2  -5  49    5.28   11.36   0
   3  -7  31    4.03    9.89   0
   0  -3  36  933.80   17.82   0
   0   0  51    1.47    9.51   0
   0   1  50  348.97   15.03   0
   1  -2  57    4.58   10.45   0
   1  -1  59   -1.00   10.88   0
   2  -6  17   -2.78    7.89   0
   2  -4  57   -1.64   10.52   0
   2  -2  64  146.83   12.77   0
   3  -7  34  219.56   13.34   0
   3  -6  51    4.63   10.73   0
  -1   1  34 1020.88   18.75   0
   0  -2  47   -8.74    9.96   0
   1  -4  47   -0.08   10.36   0
   2  -6  35   -1.63   10.36   0
   2  -3  62   64.03   11.78   0
  -1  -1  27   -2.21    8.19   0
   1  -5  24 1009.54   19.59   0
   1  -5  27    3.65    9.29   0
   1  -5  30  372.30   14.05   0
   3  -7  37    2.12    9.96   0
  -1  -1  24 1959.36   24.56   0
  -1   1  37    7.04    7.99   0
   0  -3  12 2596.85   30.89   0
   1  -5  21   13.06    8.42   0
   1  -5  33    6.61    9.73   0
   1  -3  55    2.64    9.71   0
   2  -6  38  135.82   12.72   0
   2  -5  52  181.05   13.47   0
  -1  -1  21   29.00    7.30   0
  -1  -1  33    6.19    9.00   0
  -1   2  27    0.61    7.34   0
   0  -3  42  378.72   14.00   0
   1   0  61   -1.23   12.08   0
   3  -7  40  176.45   13.87   0
   3  -6  54   75.19   11.16   0
  -1   2  30  673.24   17.26   0
   0  -2  50  223.26   13.40   0
   0   0  54   45.28   10.69   0
   1  -5  18  426.82   14.20   0
   1  -5  36  379.64   14.36   0
   1  -4  50  230.14   13.01   0
   2  -6  41   -8.04   10.43   0
   2  -4  60  157.54   11.97   0
  -1  -1  18 1257.79   20.72   0
  -1  -1  36 1044.42   18.52   0
  -1   1  40  866.07   18.33   0
   0   1  53   -3.14    9.20   0
   1  -1  62   51.86   11.39   0
  -1   2  33    9.11    7.15   0
   0  -3  45  -10.02   10.18   0
   1  -5  39    9.59   10.45   0
   1  -3  58  133.14   12.64   0
   2  -5  55    3.51   10.50   0
   3  -7  43   -3.60   10.07   0
  -1  -1  39    0.53    8.14   0
   0  -1  55    0.71   11.29   0
   1  -5  15   21.48    8.16   0
   2  -6  44  274.67   14.21   0
  -1   0  44  505.44   15.28   0
  -1   1  43   -1.80    8.63   0
  -1   2  36  975.52   19.92   0
   0  -2  53   13.47   10.75   0
   1  -4  53   13.23   10.53   0
  -1  -1  15    7.15    6.33   0
  -1  -1  42  371.94   13.80   0
   0  -4  28  708.79   16.49   0
   0  -3  48  226.78   13.54   0
   0   0  57   -9.75   10.74   0
   1  -2  63   10.68   11.19   0
   3  -7  46   74.56   10.92   0
  -1  -2  28 1506.86   21.46   0
  -1  -2  31   -1.89    9.11   0
   0  -4  25   -0.67    7.38   0
   1   0  64  105.74   11.49   0
   2  -6  47    7.59   11.23   0
   2  -5  58  157.41   13.30   0
  -1  -2  25    9.11    7.48   0
  -1  -2  34  664.64   15.52   0
  -1   2  39   -0.57    7.59   0
   0  -4  22  737.22   17.03   0
   0  -4  37    1.07   10.05   0
   0   1  56  249.27   13.35   0
   1  -3  61    8.57   10.70   0
   1  -1  65    1.67   10.41   0
  -1  -2  22  493.55   13.58   0
  -1  -2  37   -8.87    9.39   0
  -1  -1  45   -6.96   10.05   0
  -1   0  47    0.16    8.24   0
  -1   1  46  135.91   11.14   0
   0  -2  56  115.09   12.55   0
   0  -1  58  191.29   12.76   0
   1  -4  56  192.97   12.86   0
   0  -4  19   -3.08    8.00   0
   0  -4  40  552.15   16.22   0
   0  -3  51   -1.41    9.42   0
   2  -6  50  127.27   12.25   0
  -1  -2  19    4.35    7.84   0
  -1  -2  40  499.90   14.47   0
  -1   2  42  362.09   13.62   0
  -1  -1  48  407.21   15.00   0
  -1   0  50  369.46   14.43   0
   0  -4  43   -3.60   10.41   0
   0   0  60  220.35   13.92   0
  -1  -2  43   -0.11    8.95   0
  -1   1  49    1.23    9.18   0
   0  -3  54  116.05   12.49   0
   1  -4  59    3.71   10.99   0
   1  -3  64   85.66   11.84   0
   2  -6  53  -13.88   11.06   0
  -1   2  45    4.79    9.24   0
   0  -4  16 1607.43   23.42   0
   0  -4  46  172.45   13.33   0
   0  -2  59   -7.53   11.26   0
   0  -1  61    1.65   11.77   0
  -1  -2  16 2115.75   26.49   0
  -1  -2  46  164.93   12.44   0
  -1   0  53  -11.18   10.10   0
   2  -4  21    6.86    7.70   0
   3  -7   7    1.99    9.27   0
   4  -7  20  503.64   16.83   0
   5  -8  19    1.32   11.74   0
   5  -7  27    0.81   11.73   0
   5  -6  32  453.48   16.88   0
   6  -7  31   -7.24   11.84   0
   2   0  23    3.58    7.25   0
   3   0  27    0.20    8.29   0
   7  -9  22   60.48   12.89   0
   7  -6  37   -7.65   11.74   0
   1  -4   8 2761.01   32.67   0
   2  -5  16 1904.80   26.25   0
   3  -5  26  688.78   17.68   0
   6  -6  36  178.48   14.46   0
   7  -5  39    5.24   12.57   0
   4  -6  28  503.03   15.64   0
   5  -3  38  119.93   12.82   0
   6  -3  39    7.12   12.26   0
   7  -7  35   -3.60   13.16   0
   2  -6   5   -1.77    8.20   0
   3  -7  10  425.18   15.31   0
   3  -2  32 1236.93   21.38   0
   4  -4  35   -0.81    9.54   0
   5  -2  37   -4.66   10.99   0
   6  -9  18  240.22   14.59   0
   1  -3  16 2098.34   27.03   0
   2  -3  26  584.83   15.13   0
   3  -6  21   11.43    8.71   0
   3  -1  31    2.57    8.88   0
   4  -5  33    4.87    9.83   0
   5  -8  22  139.18   13.43   0
   5  -5  37   -3.39   12.56   0
   6  -4  40  290.92   16.01   0
   3  -4  31   14.34    8.92   0
   4  -8  12  336.21   14.86   0
   4  -7  23    6.59    9.32   0
   4  -2  36  445.76   15.89   0
   5  -7  30  218.12   14.07   0
   6  -7  34  207.95   14.89   0
   1  -4  11   45.06    8.98   0
   2  -4  24 1956.93   25.09   0
   2  -1  27   -2.22    7.03   0
   3  -3  33   -0.55    8.70   0
   4  -3  37   10.27   10.63   0
   5  -6  35   -4.74   11.88   0
   7  -4  41    6.60   11.89   0
   1  -1  20 1576.61   25.16   0
   2  -6   8  946.67   20.26   0
   2  -5  19   -2.31    7.95   0
   3  -7  13   10.83    9.85   0
   6  -9  21   -3.94   11.89   0
   7  -8  33    3.10   11.72   0
   3  -5  29  -16.80   10.76   0
   4  -6  31   -3.91   11.46   0
   4  -1  35   12.08   10.86   0
   6  -6  39   -2.81   12.04   0
   7  -7  38   40.50   12.16   0
   4  -8  15    2.81   10.58   0
   5  -8  25   -3.34   11.67   0
   7  -5  42  118.21   14.28   0
   1  -2  21   20.76    7.53   0
   4  -7  26  171.90   12.81   0
   4  -4  38  160.27   13.09   0
   1  -3  19   -1.80    7.20   0
   2  -6  11    1.56    8.81   0
   2  -3  29   16.11    9.65   0
   3  -2  35    4.88    9.72   0
   4  -5  36  537.27   16.04   0
   5  -7  33    9.63   11.85   0
   5  -5  40  266.77   14.84   0
   5  -3  41   -0.96   11.75   0
   6  -7  37   -5.05   11.88   0
   6  -3  42  196.54   14.77   0
   1  -4  14  703.59   16.56   0
   2  -4  27   -4.38    9.57   0
   2   0  26 1340.23   24.31   0
   3  -7  16  476.10   15.98   0
   3  -4  34  602.49   17.23   0
   3   0  30  341.67   14.11   0
   5  -2  40  542.76   18.05   0
   6  -9  24  207.41   13.35   0
   6  -4  43   -0.42   11.80   0
   4  -8  18  235.00   13.96   0
   5  -6  38  157.71   12.59   0
   5  -4  42  273.77   14.97   0
   3  -5  32  812.56   18.90   0
   3  -3  36  624.80   16.44   0
   3  -1  34  678.36   17.71   0
   4  -6  34  206.85   14.02   0
   4  -3  40  504.20   16.48   0
   4  -2  39   -3.75   10.36   0
   7  -4  44  191.28   15.53   0
   2  -6  14  336.94   13.85   0
   2  -2  31   -8.74    7.92   0
   2  -1  30  639.24   16.70   0
   5  -9  17    2.42   10.20   0
   5  -8  28  196.84   13.48   0
   6  -6  42  144.04   13.40   0
   1  -5   3   28.03    8.99   0
   1  -1  23   -2.36    7.81   0
   3  -7  19    9.67    9.71   0
   6  -5  44  182.17   14.81   0
   1  -3  22  485.00   13.98   0
   1  -2  24 2002.28   26.13   0
   4  -5  39   -0.66   11.86   0
   5  -7  36  213.67   14.16   0
   6  -9  27    8.20   10.65   0
   6  -8  35    3.37   12.09   0
   7  -5  45   -1.91   12.30   0
   1  -5   6  889.61   20.37   0
   2  -3  32 1367.17   22.03   0
   4  -8  21   -2.82   10.74   0
   4  -4  41   -4.80   11.32   0
   5  -5  43   -1.14   12.54   0
   6  -7  40  257.48   13.98   0
   2  -6  17   -4.73    9.14   0
   2  -4  30  215.78   11.53   0
   3  -4  37   -3.33   10.86   0
   4  -1  38  200.74   12.82   0
   5  -9  20  150.24   12.33   0
   5  -6  41   10.20   12.16   0
   5  -3  44  305.24   15.88   0
   3  -7  22  199.91   13.26   0
   3  -2  38  380.79   14.80   0
   4  -6  37  -10.48   11.54   0
   5  -8  31   -9.68   11.79   0
   6  -4  46  130.85   14.18   0
   6  -3  45    1.63   13.47   0
   1  -5   9   -4.64    7.61   0
   3  -5  35   -5.34    9.58   0
   3  -3  39    2.67   10.64   0
   5  -4  45    1.09   11.77   0
   2  -2  34  304.57   13.43   0
   4  -8  24  393.18   15.48   0
   4  -3  43   -4.71   11.53   0
   5  -2  43   -2.88   11.36   0
   6  -6  45    4.82   12.04   0
   1  -3  25   16.20    8.91   0
   2  -5  28  445.52   15.54   0
   2   0  29    0.99    7.52   0
   3  -1  37    3.06    9.34   0
   3   0  33   -0.70    8.86   0
   5  -9  23   -2.41   10.29   0
   5  -7  39    5.49   11.66   0
   6  -5  47   -9.25   12.99   0
   7  -4  47    0.25   12.07   0
   1  -5  12  977.11   19.96   0
   1  -2  27   -3.18    8.53   0
   1  -1  26 1277.40   21.90   0
   2  -1  33    8.73    8.66   0
   4  -5  42  268.76   14.47   0
   6  -7  43    3.63   11.78   0
   2  -4  33   -2.03   10.24   0
   2  -3  35   -1.24    9.45   0
   3  -7  25   16.42   10.70   0
   5  -8  34  155.79   13.20   0
   3  -6  33   12.55    9.62   0
   3  -4  40  500.77   15.47   0
   4  -6  40  297.90   15.49   0
   5  -6  44  218.60   14.35   0
   5  -5  46   96.83   12.61   0
   1  -4  23   26.38    7.89   0
   2  -6  23    6.66   10.00   0
   3  -5  38  115.68   11.26   0
   4  -8  27    7.23   11.59   0
   5  -9  26  173.41   14.18   0
   1  -5  15   17.67    8.74   0
   3  -2  41    9.04    9.80   0
   5  -3  47    8.57   11.43   0
   0  -2  14  362.25   13.57   0
   1  -3  28 1450.35   21.90   0
   2  -5  31    5.01    8.92   0
   4  -1  41    2.14    9.64   0
   5  -7  42  127.51   13.43   0
   5  -4  48  176.80   14.02   0
   6  -6  48  195.55   13.68   0
   6  -4  49   13.46   12.21   0
   3  -7  28  423.17   14.95   0
   4  -3  46   88.17   13.23   0
   0  -3   9   -1.79    6.91   0
   1  -5  18  415.21   14.43   0
   1  -2  30  679.90   16.05   0
   1   0  25    0.73    7.03   0
   3  -6  36  385.21   15.51   0
   4  -8  30  121.17   12.73   0
   4  -5  45   -4.82   12.53   0
   6  -5  50  108.90   12.96   0
   1  -4  26  725.86   16.37   0
   2  -6  26  415.60   15.30   0
   2  -3  38  383.99   13.75   0
   2  -1  36 1044.23   20.40   0
   2   0  32  687.29   17.71   0
   3  -1  40  559.36   16.63   0
   4  -7  38  168.77   13.44   0
   4  -2  45  -12.26   10.94   0
   5  -9  29    6.62   10.39   0
   0  -3  12 2534.01   30.96   0
   3  -5  41    7.90   11.51   0
   3  -4  43   12.50    9.99   0
   4  -6  43    8.06   11.49   0
   5  -6  47  -12.12   11.25   0
   0  -2  17    1.95    6.51   0
   3  -7  31   -7.11   11.45   0
   1  -5  21    7.03    9.14   0
   1  -3  31    2.25    8.41   0
   2  -7  15    4.21   10.27   0
   2  -6  29  -15.96   10.37   0
   3  -2  44  394.43   15.00   0
   4  -8  33   -4.19   11.09   0
   5  -7  45    7.35   10.67   0
   5  -3  50  236.75   16.24   0
   1  -4  29    1.99    8.13   0
   1  -2  33    3.08    8.91   0
   2  -4  39  -10.76   10.24   0
   3  -6  39    3.65    9.82   0
   5  -4  51   -5.74   12.19   0
   6  -4  52  139.06   12.98   0
   0  -2  20 3693.30   34.49   0
   0  -1  19   -3.89    6.63   0
   2  -7  18  439.34   15.44   0
   2  -3  41   -0.22   10.86   0
   4  -7  41   -3.85   11.14   0
   4  -5  48  162.94   13.28   0
   4  -3  49   -8.53   11.60   0
   1  -5  24  990.19   19.66   0
   1   0  28 1448.97   24.01   0
   3  -8  23    0.33   12.03   0
   3  -7  34  191.78   13.57   0
   3  -5  44  314.14   15.26   0
   3  -4  46   86.00   12.70   0
   4  -6  46  122.72   14.00   0
   5  -6  50   85.81   13.35   0
   1  -3  34  672.97   16.66   0
   2  -5  37    1.04    9.57   0
   2  -1  39    2.59    9.21   0
   4  -4  50  188.39   14.68   0
   4  -2  48  352.10   15.90   0
   5  -5  52  177.98   13.97   0
   2  -7  21    0.76    9.47   0
   2  -6  32  410.11   15.69   0
   2   0  35    0.94    8.47   0
   3  -1  43    4.98    9.80   0
   4  -8  36  151.78   12.88   0
   0  -2  23    1.93    8.31   0
   1  -4  32  967.31   18.60   0
   3  -6  42  192.35   13.66   0
   0  -3  21    2.82    8.36   0
   0  -1  22  510.66   14.46   0
   1  -5  27    1.60    8.58   0
   1  -2  36 1059.53   20.07   0
   2  -4  42  499.31   16.16   0
   3  -8  26  199.65   12.86   0
   3  -3  48  406.92   16.16   0
   4  -7  44  178.88   13.74   0
   0  -4   7    4.19    6.96   0
   0  -4  10  437.69   14.73   0
   1  -6  13   10.41    9.32   0
   2  -7  24  372.46   15.19   0
   2  -2  43    5.48   10.13   0
   3  -7  37    7.20   11.82   0
   3  -2  47    0.09   10.68   0
   4  -5  51   -7.83   12.52   0
   0  -4  13   -0.96    7.66   0
   2  -5  40  522.16   15.52   0
   2  -3  44  392.87   15.48   0
   3  -5  47   -1.03   11.89   0
   4  -6  49   -6.88   11.70   0
   5  -3  53    5.01   11.19   0
   1  -4  35    5.87   10.59   0
   1  -3  37   -1.11    8.87   0
   1   0  31   -0.90    7.65   0
   3  -4  49    7.06   12.54   0
   4  -8  39   -2.08   10.94   0
   4  -3  52  254.01   14.59   0
   0  -4  16 1622.32   24.63   0
   0  -3  24 1144.48   19.72   0
   0  -2  26 1334.52   20.97   0
   0  -1  25    3.76    7.63   0
   2  -1  42  392.03   14.92   0
   3  -8  29    2.78   11.59   0
   4  -4  53   -1.90   11.74   0
   1  -6  19   -7.14    9.28   0
   2  -7  27    4.91   11.06   0
   3  -6  45   -3.49   11.56   0
   5  -5  55    9.62   10.73   0
   0  -4  19    4.65    8.16   0
   1  -2  39   -1.74    9.45   0
   2  -4  45   10.40   11.49   0
   2   0  38  286.46   13.03   0
   3  -7  40  173.32   13.89   0
   3  -1  46  165.40   12.39   0
   4  -7  47    0.33   11.35   0
   4  -2  51    7.24   11.44   0
   1  -6  22  240.30   12.94   0
   2  -5  43    2.49   11.49   0
   3  -3  51    4.42   12.21   0
   0  -3  27   -1.99    7.76   0
   0  -2  29    3.19    7.55   0
   0   0  21   -0.52    7.11   0
   1  -4  38  174.25   12.98   0
   1  -3  40  552.65   16.22   0
   1  -1  38  297.34   13.08   0
   2  -7  30   97.97   12.30   0
   2  -3  47    1.51   10.76   0
   3  -8  32  258.39   14.39   0
   3  -5  50  233.98   15.11   0
   3  -2  50  210.11   13.88   0
   4  -6  52  161.77   13.96   0
   4  -5  54   78.73   12.65   0
   0  -4  22  744.80   17.44   0
   0  -1  28 1494.18   22.16   0
   1  -6  25    5.17    9.54   0
   1   0  34 1028.42   20.23   0
   3  -4  52  243.85   13.97   0
   0  -3  30  356.01   13.56   0
   3  -6  48  182.41   13.43   0
   4  -4  56   80.78   13.81   0
   4  -3  55   -3.01   11.66   0
   0  -4  25   -5.98    7.75   0
   1  -2  42  367.16   14.21   0
   2  -7  33    1.50   10.56   0
   2  -4  48  370.19   16.37   0
   2  -1  45   -0.84   10.17   0
   3  -8  35   -5.54   11.20   0
   1  -6  28  471.53   15.78   0
   1  -4  41   -7.65   11.09   0
   2  -5  46   69.40   11.06   0
   0  -1  31   -5.08    7.39   0
   1  -3  43    0.18    9.63   0
   2   0  41    1.21    8.54   0
   3  -3  54  101.78   13.58   0
   3  -1  49   -8.99   10.08   0
   0  -3  33   -5.88    9.59   0
   1  -1  41   -4.72    7.98   0
   2  -2  49   -1.60    9.27   0
   3  -5  53   10.06   11.07   0
   1  -6  31    5.46   10.90   0
   1   0  37    3.50    8.29   0
   2  -7  36  295.00   14.55   0
   3  -8  38   66.16   11.38   0
   3  -6  51   -0.63   11.83   0
   3  -2  53   -3.38   10.92   0
   0  -5  14  669.56   17.48   0
   0  -2  35   -4.24    8.26   0
   1  -5  39   -3.18    9.52   0
   1   1  27    0.60    6.76   0
   2  -6  44  274.54   14.90   0
   0  -5  11   -1.16    7.80   0
   0  -5  17   -0.63    8.56   0
   0  -1  34 1089.50   19.71   0
   1  -4  44  345.34   15.50   0
   1  -2  45    2.46   10.54   0
   2  -5  49   16.93   11.74   0
   2  -4  51    4.44   12.44   0
   0  -5  20  752.87   18.03   0
   0  -3  36  949.86   19.30   0
   1  -3  46  158.32   12.89   0
   2  -1  48  414.23   15.32   0
   4  -4  59   -4.44   11.17   0
   4  -3  58  159.43   14.33   0
   1  -6  34  259.75   14.31   0
   2  -7  39    4.54   10.90   0
   0  -5  23   -2.85    7.69   0
   0  -2  38  294.10   13.46   0
   1  -5  42  184.23   13.87   0
   1  -1  44  512.51   15.02   0
   2  -2  52  224.63   14.19   0
   3  -5  56  126.44   13.35   0
   0  -4  34  280.31   12.62   0
   2  -6  47    9.70   12.03   0
   2   0  44  821.84   19.51   0
   3  -6  54   65.45   12.32   0
   3  -3  57    8.11   12.57   0
   0  -5  26  254.59   11.98   0
   0  -1  37    4.38    7.78   0
   1  -6  37    7.07   11.48   0
   1  -4  47   12.36   12.07   0
   1   0  40  829.08   18.61   0
   1   1  30  624.48   17.59   0
   3  -4  58  142.57   13.37   0
   0  -3  39   -8.59    9.30   0
   2  -7  42  161.81   13.75   0
   2  -5  52  186.95   14.25   0
   2  -4  54   55.45   12.93   0
   3  -2  56  264.00   15.23   0
  -1  -2  16 2144.27   27.44   0
  -1  -2  19   -0.72    7.84   0
   0  -5  29    2.60    9.58   0
   0  -4  37   -3.63   10.59   0
   0   0  33   -1.53    8.00   0
   1  -3  49   -7.25   10.00   0
   0  -2  41    4.07    8.68   0
   1  -5  45    7.69    9.96   0
   2  -1  51    6.23   10.45   0
  -1  -2  22  495.54   13.99   0
  -1  -1  18 1222.10   21.43   0
   1  -7  26  311.04   14.41   0
   1  -6  40  240.20   14.08   0
   1  -1  47   -2.66   10.23   0
   2  -6  50  144.14   13.39   0
   2  -3  56  247.26   15.29   0
   4  -3  61   -6.25   10.64   0
  -1  -2  25   14.40    8.52   0
  -1  -1  15    0.14    6.49   0
  -1  -1  21   20.34    8.43   0
   0  -5  32  543.46   16.61   0
   0  -3  42  346.39   14.97   0
   0  -1  40  816.34   17.37   0
   1   1  33    7.16    8.25   0
   2  -2  55   -5.49   11.14   0
  -1  -3  17    4.19    7.86   0
  -1  -3  20  939.54   18.93   0
   0  -4  40  539.00   16.20   0
   1  -7  29   -0.21    9.86   0
   1  -4  50  217.99   13.04   0
   1   0  43   -0.04    9.05   0
   2  -7  45   10.93   11.64   0
   2  -5  55   -7.32   12.57   0
   2   0  47    6.07    9.20   0
   3  -3  60  150.45   13.24   0
  -1  -3  14  721.71   16.78   0
  -1  -2  28 1430.66   21.78   0
  -1  -1  24 1927.22   24.85   0
   0   0  36  663.69   16.57   0
   1  -5  48  270.08   15.07   0
   1  -3  52  336.09   15.77   0
   2  -4  57  -14.91   11.51   0
   3  -4  61    8.81   11.12   0
  -1  -3  11   44.07    8.13   0
   0  -5  35    7.77    8.97   0
   1  -7  32  304.99   15.71   0
   1  -6  43    7.50   11.93   0
   3  -2  59    2.16   12.66   0
  -1  -1  27   -0.56    7.14   0
   0  -3  45    2.01   11.45   0
   2  -8  37   -2.49   10.61   0
   2  -6  53    0.09   11.23   0
  -1  -3  29    4.08    9.32   0
  -1  -2  31    6.90    7.88   0
   0  -4  43  -10.80   11.07   0
   1  -1  50  336.22   15.05   0
   2  -1  54  130.63   12.59   0
  -1  -1  30  678.49   15.71   0
   0  -6  21    8.10   10.30   0
   0  -5  38  227.62   13.64   0
   1  -7  35    4.27   11.16   0
   1  -4  53    9.27   12.31   0
   1   1  36  997.75   21.09   0
   2  -3  59    4.77   11.58   0
  -1  -3   8 2785.12   33.94   0
  -1  -2  34  663.69   16.68   0
   0  -6  24  515.57   16.30   0
   0  -2  47    0.95   11.22   0
   0   0  39   -1.92    7.64   0
   0   1  26 1221.44   22.77   0
   1  -6  46   99.01   13.23   0
   1  -5  51    2.04   11.53   0
   1   0  46  128.39   11.53   0
   2  -5  58  146.05   13.24   0
   2  -2  58  117.90   12.73   0
  -1  -3  32 1003.95   18.88   0
   0  -6  27   -5.72   10.36   0
   1  -3  55    2.99   12.40   0
   1  -2  54  151.97   11.84   0
   2  -4  60  145.12   13.28   0
  -1  -4  18  428.82   14.50   0
  -1  -4  21   13.89    9.11   0
  -1  -1  33   13.78    7.88   0
  -1   0  20 1589.74   24.38   0
   0  -4  46  157.51   13.39   0
   0  -3  48  246.60   14.70   0
   1  -7  38   58.11   12.12   0
  -1  -4  15   16.24    8.50   0
  -1  -4  24 1029.36   19.38   0
  -1  -3  35    5.68   10.38   0
  -1   0  23    0.64    6.74   0
   0  -6  30  120.99   11.84   0
   0   1  29    1.05    7.41   0
  -1  -4  27    1.46    8.21   0
  -1  -2  37   -0.98    8.65   0
  -1   0  26 1253.57   20.71   0
   1  -4  56  168.88   13.58   0
   1  -1  53   -2.06   10.99   0
  -1  -4  30  343.89   13.86   0
  -1  -1  36 1008.75   18.59   0
   0  -6  33    2.33   10.10   0
   0  -2  50  254.52   13.68   0
   1  -5  54   79.73   12.25   0
   1   1  39    7.08    8.49   0
   2  -1  57   -8.30   11.23   0
  -1  -4  12  983.32   20.57   0
  -1  -3  38  220.71   12.65   0
  -1   0  29    9.88    7.02   0
   0   1  32 1901.00   26.88   0
   1  -7  41    2.23   11.43   0
   1  -2  57   -1.86   11.95   0
   1   0  49   -2.52    9.44   0
   2  -3  62   78.32   12.95   0
  -1  -4  33   14.10    9.76   0
  -1  -2  40  506.36   14.87   0
   0  -4  49    8.33   10.08   0
   0  -3  51  -11.01    9.95   0
   0  -1  49   -8.91   10.38   0
   2  -2  61    7.41   11.34   0
  -1  -1  39   -1.97    8.26   0
  -1   0  32 1933.53   24.68   0
   0  -6  36  268.48   14.66   0
  -1  -4   9    8.83    8.13   0
  -1  -3  41    3.94   10.13   0
   0   0  45    0.98    9.64   0
   1  -7  44  145.73   13.16   0
  -1  -2  43    8.71   10.44   0
   0  -6  39  -13.68   10.96   0
   0  -2  53  -10.12   11.46   0
   0   1  35    2.27    7.70   0
   1  -5  57   18.25   12.16   0
   1  -4  59    9.41   11.54   0
   1  -1  56  264.47   14.20   0
  -1  -1  42  391.75   14.61   0
  -1   0  35   -3.65    7.52   0
   0  -4  52  188.39   13.91   0
   0  -3  54  107.01   13.43   0
   1   0  52  371.69   15.22   0
  -1  -5  22  231.13   12.81   0
  -1  -5  25    8.57    9.75   0
  -1  -3  44  331.22   13.98   0
   0  -6  42  168.25   13.76   0
   1  -2  60  193.30   14.79   0
  -1  -5  19    1.24    8.72   0
  -1  -5  28  506.53   16.15   0
  -1  -2  46  162.75   13.20   0
   0  -5  50   99.38   12.46   0
   0   0  48  561.35   16.74   0
   0   1  38  278.75   12.53   0
   2  -2  64  167.31   13.77   0
  -1  -5  31   -4.88   10.25   0
  -1  -1  45    1.19   10.58   0
  -1  -3  47   10.84   10.82   0
   0  -4  55    4.61   10.85   0
   0  -3  57  -12.22   12.20   0
   1  -1  59   -3.34   11.37   0
  -1  -5  34  257.12   12.87   0
   0  -6  45   14.91   11.71   0
  -1  -4  45   10.62   11.15   0
  -1  -2  49   -8.22    9.68   0
   0  -5  53   -7.39   11.10   0
   0  -1  55    8.92    9.39   0
   0   1  41   -3.05    8.25   0
  -2  -2  24 1939.96   24.65   0
  -2  -2  27   -3.18    7.66   0
  -2  -2  30  234.92   11.89   0
  -1  -5  37   -0.62    9.46   0
  -1  -1  48  409.81   15.31   0
   0   0  51   -1.75   10.19   0
   1  -2  63   -6.50   11.23   0
   1   0  55   -3.84   10.24   0
  -2  -2  33   -5.39    9.99   0
  -2  -1  23    6.09    7.23   0
  -2  -1  26  560.21   14.55   0
  -2  -1  29   10.78    7.89   0
  -1  -3  50  218.36   14.33   0
  -1   1  28 1373.31   22.43   0
   0  -6  48  162.64   12.46   0
  -2  -1  20 1542.18   22.73   0
  -2  -1  32 1330.74   20.53   0
  -1  -5  40  231.98   14.28   0
  -1  -4  48  279.78   14.92   0
  -1   1  31   -0.96    7.63   0
   0  -4  58   85.48   11.69   0
  -2  -3  22  348.87   13.61   0
  -2  -3  25    1.66    9.03   0
  -2  -3  28  446.97   14.76   0
  -2  -2  36  456.70   15.30   0
  -1  -2  52  368.77   15.81   0
   0  -3  60  204.24   13.50   0
   0   1  44  514.23   15.65   0
  -2  -1  17   16.27    8.03   0
  -2  -1  35    0.23    8.32   0
  -1  -5  43   -0.54   11.82   0
  -1   1  34 1012.24   19.31   0
   0  -1  58  190.41   13.71   0
   1  -1  62   50.99   11.28   0
  -2  -3  19    5.87    8.68   0
  -2  -2  15   -0.54    6.54   0
  -2  -2  39    8.06   10.40   0
  -2  -1  38  396.59   14.54   0
  -1  -3  53    0.31   11.61   0
  -1   0  47   -2.94    9.90   0
   0   0  54   35.20   11.38   0
  -1  -4  51   -2.61   11.21   0
  -1   1  37    1.49    8.19   0
  -2  -2  42  489.76   15.94   0
  -2   0  25   -0.27    7.11   0
  -2   0  28 1202.79   19.67   0
  -2   0  31   -5.11    8.38   0
  -1  -5  46   70.23   12.27   0
  -1  -2  55    3.82   11.57   0
   0  -2  62   78.51   12.14   0
  -2  -3  16 1932.38   25.56   0
  -2  -3  40  539.05   16.15   0
  -2  -1  14 1622.13   23.98   0
  -2  -1  41    3.85    8.95   0
  -2   0  22 2064.92   25.85   0
  -2   0  34  292.82   12.61   0
   0  -3  63    8.38   11.19   0
   0   1  47    2.63    8.90   0
  -2  -2  12  836.29   18.17   0
  -1  -3  56  172.44   13.47   0
  -1   0  50  332.81   14.02   0
  -1   1  40  826.13   18.10   0
  -2  -4  26  408.68   14.67   0
  -2  -4  29    1.75    9.99   0
  -2  -4  32  419.51   15.46   0
  -2  -3  43   -6.13   11.60   0
  -2  -2  45    4.24   11.03   0
  -2  -1  44  411.24   14.64   0
  -2   0  19   -1.80    7.87   0
  -2   0  37    1.87    8.15   0
  -1  -6  35    0.03   11.39   0
  -1  -4  54   73.89   12.38   0
   0  -1  61   -1.50   11.90   0
  -2  -4  23    2.03    9.10   0
  -2  -4  35    4.35   10.96   0
  -1  -5  49    3.35   11.55   0
   0   0  57   -5.31   10.88   0
   1  -1  65   -4.79   10.11   0
  -2  -4  20  700.68   18.24   0
  -2  -3  13    6.83    7.61   0
  -2   0  40  966.10   18.18   0
  -1  -6  38   55.42   10.66   0
  -1  -2  58  136.48   12.45   0
  -1   1  43   -7.81    9.09   0
   0   1  50  344.32   15.06   0
  -2  -4  38  122.69   11.49   0
  -2  -3  46   85.27   12.04   0
  -2  -2  48  380.35   15.59   0
  -2  -1  47   -5.70   10.26   0
  -1  -1  57   -3.79   11.65   0
  -1   0  53    2.07   11.04   0
   0  -2  65   11.57   10.82   0
  -2  -4  41   -1.09   11.27   0
  -2   0  16 3050.72   31.65   0
  -2   0  43   -1.25    9.49   0
  -1  -6  41    4.39    9.91   0
  -1  -4  57    5.61   10.99   0
  -1  -3  59   -4.16   10.50   0
  -2  -4  17   -0.43    8.39   0
  -1   1  46  137.41   11.36   0
  -2  -2   9    4.47    5.70   0
   1  -4  44  331.58   14.00   0
   2  -2  37   -3.47    9.01   0
  -2  -6  19   -3.29   11.18   0
  -2  -4  26  439.71   14.42   0
  -2  -3  25    3.63    8.60   0
  -2  -2  21   -3.79    8.90   0
   1  -7  44  163.97   13.08   0
   1  -1  29   -1.40    7.71   0
  -2  -1   8 3203.40   34.44   0
  -1  -4  36  380.84   14.21   0
   0  -2  35   -3.17    9.20   0
  -2  -1  11   20.39    7.85   0
  -1  -3  35   10.36   10.66   0
  -1  -2  31    1.90    9.36   0
   0  -6  42  172.09   14.30   0
   0  -1  28 1435.34   23.14   0
   2  -5  49    4.90   11.07   0
   3  -6  51   -7.22   10.87   0
  -2  -6  22  131.43   13.18   0
  -1  -6  35   13.08   12.23   0
  -1  -5  37   12.17   10.65   0
  -1  -1  24 1994.39   25.96   0
   1  -3  43    9.98   10.24   0
   2  -6  50  141.35   14.01   0
   2  -3  44  402.14   16.69   0
  -2  -4  29   -3.02    9.55   0
  -2  -3  28  440.07   14.09   0
  -2  -2  24 2000.71   25.41   0
  -3  -4   4  712.91   18.12   0
  -3  -4   7    9.96    9.13   0
  -3  -3   3   13.51    8.09   0
  -3  -3   6  503.31   15.35   0
  -3  -3   9    5.38    8.96   0
  -2  -1  14 1692.75   24.01   0
   0  -5  44  231.65   13.86   0
   1  -5  48  278.61   14.91   0
   2  -4  48  373.70   16.07   0
  -2  -6  25    2.09   11.53   0
  -1  -4  39   13.27   11.48   0
   1  -4  47   11.21   11.38   0
   1  -2  39   -3.36    9.04   0
  -3  -4  13   22.03    9.48   0
  -3  -3  12  811.02   17.53   0
  -2  -7  17    6.78   11.79   0
  -2  -5  30   89.81   12.96   0
   0  -3  42  363.09   14.78   0
  -3  -3  15   -0.26    9.24   0
  -2  -4  32  435.08   15.89   0
  -2  -3  31    7.35    9.96   0
  -2  -2  27    1.33    9.58   0
  -2  -1  17   11.71    7.17   0
  -1  -6  38   74.01   11.74   0
  -1  -3  38  206.82   12.11   0
  -1  -2  34  673.55   16.14   0
   0  -6  45   14.49   11.85   0
   0  -2  38  313.33   13.41   0
   1  -6  49    9.51   12.25   0
  -3  -4  16  502.65   16.12   0
  -2  -6  28  180.97   13.50   0
  -1  -1  27    2.25    7.36   0
   0  -1  31   -4.20    8.35   0
   1  -1  32 1924.28   28.34   0
   2  -2  40  909.36   21.07   0
  -3  -5  11   -6.71   10.33   0
  -3  -3  18  432.91   14.85   0
  -2  -7  20  164.44   13.04   0
   2  -5  52  174.85   15.24   0
  -3  -5  14  179.12   13.07   0
  -3  -4  19   -2.24   10.47   0
  -3  -2   5    2.86    7.98   0
  -3  -2   8 2294.29   27.88   0
  -3  -2  11    8.38    8.34   0
  -2  -5  33    6.02   11.96   0
  -2  -1  20 1560.42   22.47   0
   0  -4  46  176.01   12.44   0
   1  -3  46  164.83   13.10   0
   2  -6  53    4.97   11.84   0
  -3  -2   2  845.71   19.26   0
  -2  -7  23   -0.52   10.19   0
  -2  -4  35    8.26   11.52   0
  -1  -4  42  216.34   14.58   0
  -3  -5  17    4.17   10.35   0
  -3  -4  22  204.09   13.26   0
  -3  -2  14  396.31   13.05   0
  -2  -3  34  490.71   15.15   0
  -2  -2  30  223.89   11.61   0
  -1  -6  41   -2.36   12.40   0
  -1  -5  43   13.71   12.34   0
   1  -5  51   -6.01   11.26   0
  -1  -3  41   -2.73    9.53   0
  -1  -2  37   12.91    8.44   0
  -1  -1  30  676.58   16.67   0
   0  -6  48  147.75   13.84   0
   0  -3  45   -7.21   11.02   0
   1  -4  50  209.28   14.39   0
   1  -2  42  391.29   14.86   0
   2  -4  51   -4.93   11.47   0
  -3  -5  20  259.41   13.88   0
  -3  -2  -1    5.20    7.53   0
  -2  -5  36  306.43   15.13   0
  -2  -1  23    8.71    7.45   0
   0  -2  41    8.30    9.69   0
  -3  -4  25   23.72   11.14   0
  -3  -2  20  672.32   16.53   0
   0  -1  34 1082.80   20.63   0
  -3  -5  23  -11.28   11.50   0
  -2  -4  38  125.93   13.18   0
  -2  -2  33    4.86    9.69   0
   0  -5  50   80.35   13.69   0
   0  -4  49   -4.15   12.20   0
  -2  -3  37    5.81    9.61   0
  -2  -1  26  586.41   15.53   0
  -1  -6  44  152.57   13.18   0
  -1  -4  45   16.20   10.19   0
   1  -1  35    3.93    8.22   0
  -3  -3  27   -7.68    9.23   0
  -3  -2  23   15.70    9.77   0
  -1  -5  46   91.14   12.63   0
   1  -3  49   -3.67   10.80   0
   2  -5  55   -2.06   10.77   0
  -3  -5  26  237.39   14.05   0
  -2  -5  39    6.72   11.21   0
   1  -5  54   75.33   12.47   0
  -3  -6  18  116.35   12.62   0
  -2  -6  37   -9.10   11.01   0
   0  -3  48  251.46   14.65   0
  -3  -6  21   -8.17   11.29   0
  -3  -3  30  222.31   12.10   0
  -3  -2  26  726.05   16.48   0
  -2  -4  41   10.39   10.73   0
  -2  -2  36  456.27   14.37   0
  -2  -1  29    7.04    9.33   0
   0  -2  44  864.69   19.18   0
   1  -4  53   -0.42   12.18   0
  -3  -5  29   -3.51   11.50   0
  -3  -1  10 1136.97   20.46   0
  -1  -4  48  250.56   15.50   0
   0  -1  37   -1.14    8.67   0
   1  -2  45   12.20    9.68   0
  -3  -6  24  263.76   14.95   0
  -3  -1   7   21.95    7.90   0
  -3  -1  16 2160.87   26.46   0
  -2  -5  42  183.71   14.03   0
  -1   0  20 1471.58   23.61   0
   0  -5  53    8.99   11.22   0
   0  -4  52  191.72   14.30   0
  -3  -3  33    8.58   11.25   0
  -3  -2  29   -0.82   10.17   0
  -1  -5  49    4.96   11.65   0
  -3  -5  32  250.84   13.99   0
  -3  -4  34  212.82   14.10   0
  -3  -1   4 1305.63   22.92   0
  -3  -1  19   20.01    7.73   0
   1  -1  38  288.52   13.23   0
  -3  -6  27   -0.08   10.32   0
  -2  -4  44  288.25   13.96   0
  -2  -3  43   12.71   11.51   0
  -2  -2  39    8.56    9.16   0
  -2  -1  32 1309.17   20.72   0
  -1   0  23    0.58    7.45   0
  -3  -2  32  811.30   18.50   0
  -3  -1  22  389.05   12.73   0
   0  -3  51  -14.32   11.17   0
   1  -5  57   -6.73   10.74   0
   1  -3  52  334.67   15.85   0
  -3  -3  36  403.90   15.62   0
  -2  -5  45    4.29   11.66   0
  -2   0  13   -3.24    7.41   0
   0  -2  47   -6.71    9.93   0
  -4  -4  12  296.85   15.04   0
  -4  -3   8  610.00   17.44   0
  -4  -3  11    3.74    9.41   0
  -4  -3  14  399.56   14.82   0
  -4  -3  17    9.25    9.60   0
  -3  -4  37    9.71   10.88   0
  -3  -1   1   38.79    7.80   0
  -3  -1  25   -9.68    9.26   0
  -2   0  16 3062.90   32.16   0
   0  -1  40  840.14   18.97   0
  -4  -4  15    2.52   10.39   0
  -4  -4  18  257.23   13.87   0
  -4  -3  20  522.57   16.21   0
  -2  -1  35    1.10    8.37   0
  -2   0  19   -0.29    7.98   0
  -1  -2  46  190.68   13.13   0
  -1  -1  39   12.89    8.06   0
   0  -4  55   -3.79   12.36   0
   1  -2  48  387.07   15.52   0
  -4  -4  21   -1.57   11.31   0
  -3  -2  35    9.97   10.35   0
  -2  -4  47   13.11   12.06   0
  -2  -2  42  496.45   15.12   0
  -1  -3  50  211.41   12.94   0
   0   0  27   -1.17    7.07   0
  -4  -3  23   -8.32   10.61   0
  -4  -2  13   -1.35    9.12   0
  -4  -2  16  793.25   17.82   0
  -3  -3  39    4.27   11.45   0
  -3  -1  28  814.38   16.76   0
  -2  -3  46   66.79   11.16   0
  -2   0  22 2077.25   26.17   0
  -4  -4  24  371.71   15.19   0
  -4  -2  10  401.25   13.59   0
  -4  -2  19   -6.87    9.59   0
  -3  -4  40  200.94   13.30   0
   1  -1  41    0.82    9.28   0
  -4  -3  26  198.86   11.84   0
  -4  -2   7    0.28    8.66   0
  -4  -2  22  420.95   14.57   0
  -2  -1  38  401.66   14.72   0
   0  -3  54   90.44   13.10   0
  -4  -4  27    2.93   10.76   0
  -3  -2  38  125.93   12.59   0
  -3  -1  31   12.23    8.75   0
  -2   0  25    0.01    7.20   0
  -1  -4  54   67.20   12.52   0
  -1  -1  42  373.99   14.50   0
   0  -2  50  248.22   14.07   0
  -4  -5  22   91.01   12.82   0
  -3  -3  42  190.13   14.05   0
  -2  -4  50  134.02   13.51   0
  -2  -2  45   -9.32    9.76   0
   0  -1  43   -2.67    8.25   0
   0   0  30  173.43   10.91   0
  -4  -4  30  132.86   13.26   0
  -4  -2   4  936.16   19.83   0
  -3  -4  43   -6.65   12.20   0
  -2  -3  49   13.76   11.94   0
  -1  -3  53    0.29   11.46   0
  -1  -2  49   -6.79    9.26   0
  -4  -5  25    5.09   10.19   0
  -4  -2  28  484.85   15.96   0
  -3  -1  34  635.95   16.43   0
  -2   0  28 1208.56   19.92   0
  -1   0  32 1835.90   25.40   0
   0  -4  58   92.35   13.27   0
  -3  -2  41  -11.28   11.34   0
  -2  -1  41   -2.57   10.40   0
  -4  -5  28  108.95   11.63   0
  -4  -4  33    9.38   11.19   0
  -4  -2  31  -11.54   10.64   0
  -4  -1  15   12.64    8.65   0
  -4  -3  35    3.26   11.55   0
  -4  -1  12 1233.57   20.96   0
  -3  -4  46   83.50   12.44   0
  -3  -3  45    2.90   11.18   0
  -3   0  15    6.43    6.97   0
  -3   0  18  568.28   14.50   0
  -2   0  31   -1.49    8.85   0
  -1  -4  57   -2.84   12.20   0
  -1  -1  45    9.57   10.07   0
   0   0  33   -7.40    7.64   0
  -4  -1   9   35.20    8.44   0
  -4  -1  24  748.24   17.26   0
  -3  -1  37   -4.29    9.14   0
  -3   0  21    0.13    7.34   0
  -2  -4  53   13.89   12.40   0
   0  -3  57   -4.62   11.71   0
   0  -1  46  138.10   11.87   0
  -4  -4  36  153.51   12.94   0
  -4  -2  34  210.49   13.14   0
  -3  -2  44  301.32   15.04   0
  -3   0  24 1729.42   23.12   0
  -1  -2  52  385.84   15.86   0
  -1   0  35    2.24    8.31   0
   0  -2  53    0.56   11.10   0
  -4  -1  27    6.39    9.97   0
  -1  -3  56  169.60   13.24   0
  -4  -3  38  169.40   12.82   0
  -4  -1   6  392.32   13.88   0
  -3  -3  48  192.78   13.73   0
  -3   0  27   -2.80    7.73   0
  -2   0  34  302.39   12.11   0
  -4  -2  37   -5.07   10.77   0
  -4  -1  30  206.53   12.71   0
  -3  -1  40  523.72   15.32   0
  -3   0  30  652.05   16.13   0
  -1  -1  48  394.21   15.21   0
   0   0  36  647.46   17.29   0
  -4  -3  41   10.32   11.35   0
  -4  -1  33   16.54   10.72   0
  -3  -2  47   -1.81   12.18   0
  -1   0  38  290.67   11.91   0
  -4  -2  40  300.85   15.31   0
  -4  -1   3    2.10    8.32   0
  -2  -1  47   -3.66   10.81   0
  -1  -2  55   -3.17   11.80   0
   0  -3  60  201.59   15.17   0
   0  -1  49    0.91   10.92   0
  -5  -3  19   -0.51   11.90   0
  -3  -3  51    9.52   11.57   0
  -3  -1  43   15.77    9.60   0
  -3   0  33   -0.39    8.31   0
  -1  -3  59    5.78   11.73   0
   0  -2  56  150.52   13.41   0
  -5  -3  22  148.58   12.63   0
  -4  -1  36  575.00   16.46   0
  -5  -3  25    1.40   11.10   0
  -5  -2  18  214.80   12.75   0
  -5  -2  21    0.38   10.28   0
  -5  -2  24  536.49   16.39   0
  -4  -3  44  158.44   13.71   0
  -2  -2  54   52.85   12.15   0
  -5  -3  28  214.93   13.25   0
  -4  -2  43   16.02   11.54   0
  -4   0  17   -1.46    8.26   0
  -4   0  20 1340.05   21.18   0
  -4   0  23    0.07    9.18   0
  -3  -2  50  222.73   13.63   0
  -3   0  36  626.19   15.48   0
  -1  -1  51    4.56   11.04   0
  -1   0  41    0.06    9.26   0
   0   0  39   -0.82    8.23   0
  -5  -4  26  183.64   13.63   0
  -5  -2  12  448.87   15.15   0
  -5  -2  27    0.68    9.09   0
  -4  -1  39   14.01   11.00   0
  -4   0  26  832.88   17.87   0
  -3  -1  46   88.59   12.90   0
  -2  -3  58  142.51   12.64   0
  -2  -1  50  205.50   14.22   0
  -5  -3  31    3.92   11.76   0
  -3  -3  54   67.01   12.02   0
  -5  -4  29    2.58   10.00   0
  -5  -2   9   -9.02    8.96   0
  -4  -3  47    2.40   12.31   0
  -4  -1   0 1421.76   24.60   0
  -4   0  11   -1.58    7.89   0
  -4   0  29    1.46    8.47   0
  -3   0  39   -2.03    9.69   0
  -1  -2  58  129.20   13.04   0
  -5  -3  34  158.18   13.58   0
  -5  -1  17    5.88    9.65   0
  -5  -1  20  582.61   16.38   0
  -5  -1  23    7.87    9.90   0
  -4  -2  46  130.06   13.08   0
  -2   0  43   12.72   10.06   0
   0  -1  52  378.62   15.25   0
  -5  -1  14  477.63   15.08   0
  -4  -1  42  269.70   13.14   0
  -4   0  32  521.36   14.69   0
  -3  -2  53    5.19   10.80   0
  -3  -1  49   -4.88   11.99   0
  -2  -2  57   -4.51   11.16   0
  -1   0  44  501.90   15.83   0
   0   0  42  918.73   20.57   0
  -5  -3  37   -5.69   10.90   0
  -4   0   8 1654.04   24.04   0
  -5  -1  11    4.01    8.94   0
  -4   0  35    4.75   10.54   0
  -3   0  42  289.90   12.82   0
  -2  -1  53    2.95   11.58   0
  -1  -1  54  148.22   13.24   0
  -5  -1  32  442.42   14.54   0
  -4  -2  49    2.60   11.30   0
  -4  -1  45   -0.08   11.52   0
  -2   1  18 1243.44   21.60   0
  -2   1  21   24.12    7.20   0
  -2   1  24 1877.25   24.89   0
  -5  -2  39    6.03   11.72   0
  -2   0  46  336.01   13.40   0
  -2   1  27   -5.02    7.13   0
  -5  -1   8  905.99   19.69   0
  -5  -1  35  -13.20    9.52   0
  -4   0  38  153.91   11.50   0
  -3   1  23    3.72    8.64   0
  -2   1  15    2.95    6.49   0
  -1  -2  61    5.78   11.65   0
  -1   0  47   -5.03    9.74   0
  -4   0   5    0.54    7.27   0
  -3   1  20 1563.32   22.25   0
  -3   1  26  577.73   14.79   0
  -2  -2  60  148.82   13.88   0
  -1   1  25   -1.78    7.11   0
  -5  -2  42  120.71   12.97   0
  -5  -1  38  175.27   13.17   0
  -4  -2  52  152.16   13.71   0
  -4  -1  48  176.29   13.59   0
  -3   1  17   14.90    7.30   0
  -3   1  29   -5.04    9.07   0
   0   0  45   -1.33    8.63   0
  -5   0  19   -3.19    9.30   0
  -5   0  25    3.91   10.09   0
  -4   0  41    5.77    9.36   0
  -2  -1  56  259.14   14.76   0
  -1  -1  57    1.82   11.15   0
  -5   0  16  802.81   17.50   0
  -5   0  28  719.42   16.68   0
  -3   1  14 1639.77   23.33   0
  -3   1  32 1331.63   20.76   0
  -2   0  49    5.96    9.24   0
  -5  -2  45   15.20   11.28   0
  -5  -1   5   -3.44    8.70   0
  -5  -1  41   11.33   10.72   0
  -5   0  31   -1.86    9.16   0
  -3  -1  55   -8.21   11.91   0
  -1   1  31   -0.88    7.57   0
  -5   0  13   -3.80    8.71   0
  -4  -1  51   -8.95   11.30   0
  -3   1  35   -8.55    8.11   0
  -2   1  36 1007.02   18.84   0
  -1   0  50  347.98   14.77   0
  -4   1  19   14.38    8.82   0
  -4   1  22  401.17   12.90   0
  -4   1  25    2.01    7.82   0
  -4   1  28  821.46   17.35   0
  -3   1  11   22.58    7.93   0
  -1   1  34 1060.51   20.46   0
  -6  -2  20  223.67   14.41   0
  -6  -2  23   -6.24   10.12   0
  -6  -2  26  240.89   13.52   0
  -5  -1  44  199.48   13.25   0
  -5   0  37   -9.02   11.18   0
  -4   0   2 1422.13   23.85   0
  -4   1  31    7.80   10.10   0
  -6  -2  29   -2.67   11.19   0
  -5   0  10  729.39   17.13   0
  -4   0  47  -17.02   11.96   0
  -4   1  16 2098.21   25.22   0
  -3   0  51    6.57   11.68   0
  -3   1  38  352.69   13.09   0
  -2  -1  59    2.52   11.50   0
  -2   0  52  218.99   13.82   0
  -2   1  39    1.28    7.81   0
  -6  -2  32  244.51   13.32   0
  -6  -1  25    7.59   11.14   0
  -4   1  34  611.35   16.32   0
  -6  -2  35   -9.79   11.69   0
  -6  -1  19   12.34   10.35   0
  -6  -1  22  196.01   13.28   0
  -6  -1  28  176.73   13.41   0
  -5  -1  47    8.61   11.20   0
  -5   0  40  263.48   13.13   0
  -4  -1  54   73.11   12.43   0
  -3  -1  58  131.99   13.61   0
  -1   1  37    1.88    7.03   0
  -6  -1  31    2.76   11.46   0
  -4   1  13    6.46    6.96   0
  -4   1  37  -19.52   10.39   0
  -3   1   8 3306.43   34.31   0
  -2   1  42  375.42   14.35   0
  -1   0  53   -2.19   10.37   0
  -6  -1  16  685.77   17.57   0
  -6  -1  34  187.20   13.52   0
  -5   0  43   17.07   11.80   0
  -4   0  50  194.06   14.13   0
  -5   0   7    0.20    8.01   0
  -4   1  40  556.80   16.44   0
  -3   0  54  132.76   13.28   0
  -2   0  55   -1.18   11.21   0
  -1   1  40  826.27   18.72   0
  -6  -1  13   -0.24    9.46   0
  -5  -1  50  106.60   11.85   0
  -5   1  24  750.93   17.01   0
  -5   1  27   12.61    9.76   0
  -3   1  44  406.62   13.99   0
  -2  -1  62   58.47   12.53   0
  -6   0  24  705.97   17.74   0
  -6   0  27    2.88   11.36   0
  -5   0  46  104.60   13.42   0
  -5   1  21    4.41    8.15   0
  -5   1  30  209.65   11.75   0
  -2   1  45   -4.84    9.93   0
  -6   0  21   -7.75   10.14   0
  -5   1  33   -2.67    9.10   0
  -4   0  -1   -3.06    7.45   0
  -4   1  43    6.90   10.30   0
   0   1  29    1.53    6.93   0
  -6   0  18  316.92   13.76   0
  -5   1  36  594.23   16.50   0
  -3   1  47    8.76   10.93   0
  -1   1  43    2.67    8.87   0
  -6  -1  43   -8.02   11.04   0
  -6   0  36  188.72   13.30   0
  -3   0  57   -8.26   12.03   0
  -6   0  15    3.23    9.58   0
  -5   0   4 1229.33   21.85   0
  -5   1  39   -8.75   11.20   0
  -4   1  46  120.89   12.50   0
  -2   0  58  118.30   12.44   0
  -2   1  48  425.14   15.58   0
  -6   0  39   -2.37   11.33   0
  -4   1   7   16.33    6.90   0
   0   1  35    0.68    7.93   0
  -5   1  12 1252.64   20.81   0
  -5   1  42  282.39   14.49   0
  -4   0  56   90.99   12.48   0
  -3   1  50  204.85   13.71   0
  -6   0  12  403.44   14.66   0
  -6   0  42  167.94   13.16   0
  -5   0  52  198.21   14.69   0
  -1   1  46  136.80   11.23   0
  -6   1  29   -5.31   11.03   0
  -5   1  45   -4.02   11.44   0
  -3   0  60  145.72   13.00   0
  -3   2  28 1472.18   22.20   0
  -2   1  51   -0.50   10.13   0
   0   1  38  267.19   12.87   0
  -6   0  45    3.97   10.67   0
  -6   1  32  485.83   16.41   0
  -4   2  24 2023.13   25.25   0
  -4   2  27    1.15    8.23   0
  -4   2  30  238.30   12.45   0
  -3   2  25    5.84    7.63   0
  -3   2  31   13.30    7.80   0
  -2   0  61    3.05   12.57   0
  -6   0   9   -4.09    9.89   0
  -6   1  20  593.96   16.59   0
  -6   1  35    4.88   11.74   0
  -5   0   1   -0.23    8.10   0
  -5   1   9   31.81    7.46   0
  -4   0  59    4.21   11.01   0
  -4   2  33    7.24    8.56   0
  -3   1  53  -12.10   11.37   0
  -3   2  22  513.93   14.12   0
  -7  -1  24  232.02   14.49   0
  -7  -1  27    9.30   10.22   0
  -7  -1  30   71.18   11.13   0
  -6   1  38  176.82   13.33   0
  -5   1  48  162.39   13.52   0
  -4   1   4 1319.36   22.33   0
  -4   1  52  286.65   13.99   0
  -4   2  21   -1.23    7.60   0
  -4   2  36  453.22   15.22   0
  -1   1  49    0.27    9.30   0
  -7  -1  33   10.18   11.15   0
  -6   0  48  225.79   12.84   0
  -6   1  17   11.61    9.23   0
  -3   2  19    0.63    7.20   0
  -6   1  41    1.20   11.47   0
  -5   2  26  742.26   17.27   0
  -5   2  29    4.42    9.63   0
  -4   2  18 1171.71   19.41   0
  -4   2  39    3.98    9.10   0
  -3   2  40  534.08   15.98   0
  -2   1  54  148.68   12.88   0
  -2   2  29   -1.07    6.97   0
  -2   2  32  658.68   16.51   0
  -7   0  26  250.78   14.47   0
  -7   0  29  -10.39   10.70   0
  -7   0  32  341.72   15.38   0
  -5   1  51  -11.83   11.79   0
  -5   2  23   15.82    9.25   0
  -5   2  32  750.56   16.92   0
  -5   2  35    5.88   10.97   0
  -2   2  35   -2.85    8.50   0
  -7   0  23    3.88   10.04   0
  -7   0  35    8.96   10.82   0
  -6   1  14  458.44   14.89   0
  -5   1   6  407.25   13.70   0
  -4   1  55   12.32   11.78   0
  -3   1  56  243.40   14.58   0
  -3   2  16 2131.96   26.10   0
  -7   0  38   44.26   12.42   0
  -6   0   6  433.80   15.06   0
  -5   2  20  654.93   15.59   0
  -5   2  38  117.30   10.95   0
  -4   2  15    8.64    7.14   0
  -3   2  43    4.06   10.14   0
  -2   2  38  298.12   13.09   0
  -7   0  20  207.55   13.10   0
  -5   2  41   -9.83   11.63   0
  -2   2  20 3488.48   33.96   0
  -6   1  47   -4.90   11.72   0
  -5   2  17    0.71    7.79   0
  -7   0  17   -5.91   10.46   0
  -6   1  11   11.45    8.04   0
  -4   1  58  147.28   13.91   0
  -3   2  13   41.67    8.46   0
  -3   2  46  180.69   12.82   0
  -2   1  57   -2.87   10.86   0
  -2   2  41   -2.93    9.02   0
  -7   1  28  190.93   13.53   0
  -7   1  31   -4.48   11.57   0
  -6   2  28  522.07   15.65   0
  -6   2  31    6.76   10.39   0
  -5   2  44  297.97   13.39   0
  -4   1   1   39.06    7.90   0
  -4   2  12  855.55   17.15   0
  -4   2  48  402.22   15.63   0
  -3   1  59    3.60   10.96   0
  -2   2  17   -5.28    7.36   0
  -7   1  25    7.30   10.73   0
  -6   1  50  102.16   13.09   0
  -6   2  25    0.24    8.85   0
  -6   2  34  227.28   12.25   0
  -6   2  37  -11.95   11.71   0
  -5   2  14  395.09   13.56   0
  -7   1  22  195.79   12.76   0
  -6   2  22  416.11   13.79   0
  -5   2  47   -0.10   11.31   0
  -3   2  49    5.15   10.83   0
  -2   2  44  827.25   18.91   0
  -7   1  40  278.50   14.53   0
  -6   1   8  918.20   19.02   0
  -6   2  40  316.55   14.00   0
  -5   1   3    1.59    7.67   0
  -7   1  19    7.23   10.41   0
  -4   1  61    8.15   11.50   0
  -4   2  51  -16.73   11.67   0
  -7   1  43    2.91   11.98   0
  -6   2  43    5.68   10.32   0
  -4   2   9   -4.29    7.80   0
  -3   2  10 2078.96   26.80   0
  -2   2  47   -2.05    9.42   0
  -1   2  30  644.66   16.73   0
  -6   2  16  823.30   17.73   0
  -3   1  62   65.76   12.24   0
  -3   2  52  373.40   15.43   0
  -2   2  14  341.74   12.48   0
  -1   2  27    3.07    7.28   0
  -1   2  33    7.12    7.80   0
  -7   1  16  750.39   18.07   0
  -6   2  46  159.12   13.54   0
  -1   2  36  987.73   20.27   0
  -5   2  53   10.30   12.22   0
  -4   2  54   54.09   12.33   0
  -1   2  24 1775.30   26.36   0
  -7   2  33    4.99   11.02   0
  -6   2  49    7.42   11.01   0
  -2   2  50  239.07   13.68   0
  -1   2  39   -3.35    8.02   0
  -7   1  13   -1.08    9.25   0
  -7   2  36  214.46   13.35   0
  -6   1   5    7.98    8.30   0
  -6   2  13    7.37    9.06   0
  -5   3  31   -7.20   10.69   0
  -4   3  29    5.96    9.03   0
  -4   3  32 1057.61   19.85   0
  -7   2  24  509.89   14.94   0
  -7   2  39   12.84   10.76   0
  -5   2   8 2251.27   26.58   0
  -5   3  28  438.25   13.90   0
  -5   3  34  506.13   15.09   0
  -5   3  37    5.77   10.39   0
  -4   3  26  759.39   17.28   0
  -4   3  35   14.66    8.69   0
  -3   2  55   10.97   11.19   0
  -5   3  25   12.03    8.71   0
  -1   2  21   22.10    6.33   0
   7   1  15    7.74   12.90   0
   8  -4  -6  247.68   13.91   0
   8  -2   7   -2.20   10.19   0
   9  -3  -3   -4.77   12.13   0
   4  -3   1   37.48    8.32   0
   5   4  16  368.05   16.68   0
   6  -3   6  500.74   15.84   0
   7   2  14  144.96   14.88   0
   8   0  11    7.66   12.13   0
   8   1  10  107.79   12.45   0
   2   3  20  630.27   17.83   0
   3   3  21   16.23   10.59   0
   5  -3   5   17.61    8.96   0
   6  -1  16  707.21   18.68   0
   6   0  18  424.18   15.09   0
   7  -1  14  164.90   12.59   0
   2   0  14  356.01   13.90   0
   4   0  19    9.94    8.54   0
   7   0  16  577.35   17.27   0
   3  -1  13   36.38    7.92   0
   5   2  21   -0.12   11.85   0
   6   2  19   20.02   12.21   0
   7  -3   7   12.43   10.28   0
   7  -2  12  563.21   17.39   0
   8  -4  -3    0.93   10.50   0
   8  -1  12  241.80   15.58   0
   9  -3   0  403.66   15.97   0
   5  -2  13   11.49    9.19   0
   5   0  20  785.34   18.06   0
   5   3  20  274.95   14.94   0
   6  -4  -2  645.95   17.64   0
   7  -4  -1    8.73    9.83   0
   8  -3   5   -5.60    9.91   0
   8  -2  10  229.26   14.47   0
   9  -1   7    2.87   12.07   0
   1   2  17   13.64    7.44   0
   3   0  18 1409.00   22.36   0
   4   3  22  228.05   14.68   0
   6  -2  14  345.78   14.48   0
   8   1  13    5.86   12.01   0
   4   2  23    3.02   11.06   0
   5  -1  18  449.82   14.56   0
   6   3  18  132.91   13.74   0
   8   0  14  166.02   14.83   0
   4  -1  17    3.59    8.07   0
   6  -3   9    6.53   10.04   0
   7  -1  17    6.92   12.23   0
   7   2  17  -10.45   12.15   0
   9  -4  -5    1.88   10.46   0
   9  -3   3   -0.36   12.81   0
   1   3  19   21.16    8.94   0
   2   2  21    1.57    8.58   0
   4  -2  12  827.33   18.15   0
   6   0  21    1.69   12.25   0
   8  -4   0  608.99   18.00   0
   5  -3   8 2346.86   28.85   0
   6  -1  19    7.46    9.90   0
   7   0  19    2.64   11.25   0
   8  -3   8  579.16   17.78   0
   8  -1  15    7.65   12.37   0
   9  -1  10  112.57   13.24   0
   3  -2   8 3256.41   35.17   0
   4  -3   4 1354.77   23.72   0
   6  -4   1    0.48    8.74   0
   7  -4   2  293.34   14.22   0
   7  -2  15    1.38   10.18   0
   8  -2  13    1.72   12.08   0
   5  -4  -3   34.93    8.97   0
   5   2  24  371.03   17.05   0
   6   2  22  127.15   13.94   0
   9  -4  -2  221.10   13.67   0
   3   3  24  683.14   18.86   0
   4   0  22  752.75   17.48   0
   5   0  23   -8.99   11.27   0
   5   3  23    8.86   12.22   0
   8   0  17   -0.92   12.83   0
   9  -3   6  210.04   14.02   0
   3   1  23   25.60    9.62   0
   5  -2  16 1912.68   25.35   0
   6  -2  17  -14.69    9.38   0
   6   3  21   -8.19   14.04   0
   8  -4   3    2.48   10.68   0
   2   3  23   11.18    8.92   0
   3  -1  16 2151.92   27.61   0
   5  -1  21   -2.09   10.21   0
   7  -1  20  313.48   15.66   0
   7   2  20  193.12   14.02   0
   9  -2  11   -6.20   11.61   0
   9  -1  13    5.35   13.06   0
   4   3  25   16.29   11.32   0
   7  -4   5   13.58   10.38   0
   7   0  22  141.49   14.36   0
   8  -3  11    2.30    9.92   0
   8  -1  18  170.72   14.79   0
   9  -4   1   -4.85   10.87   0
   2   0  17    2.02    7.95   0
   3   0  21   -0.81    8.84   0
   3   2  25    6.55    9.81   0
   4  -1  20 1000.40   19.98   0
   6   0  24  534.94   17.54   0
   7  -2  18  476.26   16.30   0
   8  -2  16  480.43   17.26   0
   6  -4   4  978.30   20.44   0
   9  -3   9    6.74   11.58   0
   4  -2  15   -2.33    7.65   0
   5  -4   0 1512.95   25.77   0
   8   0  20  168.52   14.31   0
   4  -3   7   20.15    8.28   0
   6   2  25   -1.72   12.52   0
   9  -4   4  181.57   13.98   0
   9  -2  14  183.17   14.16   0
   5   2  27    9.95   11.87   0
   6   1  26  305.89   14.47   0
   7   1  24  313.34   15.96   0
   2   2  24 1873.58   27.47   0
   3  -2  11   27.52    8.36   0
   4   0  25    1.46    9.81   0
   4   1  27    3.44   10.81   0
   5  -2  19   14.85    8.82   0
   5   0  26  276.66   13.51   0
   6   3  24  286.85   16.94   0
   7  -4   8  646.87   17.64   0
   7  -1  23    3.67   13.02   0
   7   2  23   -3.81   11.64   0
   1   2  20 1479.62   26.06   0
   7   0  25   10.22   13.08   0
   8  -2  19    2.20   12.03   0
   8  -1  21    0.25   11.76   0
   9  -3  12  176.59   13.88   0
   3   3  27   -2.22   10.44   0
   5  -1  24 1020.83   19.78   0
   5   1  28  474.94   17.10   0
   6  -4   7   -2.12    9.24   0
   7  -2  21   10.80   12.00   0
   8  -4   9    2.92   11.53   0
   6  -1  25    3.94   10.37   0
   6   0  27    9.86   12.64   0
   8   0  23   -0.95   12.72   0
   9  -4   7    4.02   11.01   0
   1   3  22  371.89   14.73   0
   3  -1  19    0.61    7.43   0
   4   3  28  436.47   17.23   0
   5  -4   3   -0.85    8.16   0
   9  -2  17   -5.43   12.58   0
   4  -1  23   20.03    8.73   0
   4   2  29   -2.00   11.16   0
   2   3  26  682.48   18.86   0
   3   0  24 1119.90   20.06   0
   3   2  28  420.40   15.56   0
   4  -2  18 1140.73   19.90   0
   6  -2  23   -1.65   11.61   0
   6   2  28  204.74   14.88   0
   7  -4  11    6.16   10.09   0
   7   1  27   14.12   12.46   0
   6  -3  18  456.56   15.66   0
   6   1  29    9.01   11.52   0
   7  -1  26  312.69   16.57   0
   8  -2  22  125.89   14.43   0
   8  -1  24  325.19   15.89   0
   2   0  20 3709.17   35.87   0
   5  -2  22  342.86   13.26   0
   5   0  29    1.05   10.86   0
   5   2  30   86.64   14.02   0
   6  -4  10  411.26   14.94   0
   7  -3  19    7.41    9.86   0
   8  -4  12  328.07   15.67   0
   9  -4  10  157.55   13.87   0
   4   0  28  707.83   17.97   0
   5   3  29   -2.00   11.86   0
   6   3  27   11.75   12.07   0
   7  -2  24  408.31   15.26   0
   7   0  28  181.37   13.76   0
   9  -2  20  185.45   14.44   0
   3  -2  14 1731.41   25.14   0
   4   1  30  329.84   15.07   0
   5  -1  27   11.93    9.52   0
   6  -1  28  498.81   17.11   0
   5  -4   6  410.55   14.65   0
   5   1  31   -0.16   10.08   0
   6   0  30  121.44   12.45   0
   8  -3  20  275.46   14.72   0
   2  -1  15    7.26    6.89   0
   2   2  27   -1.08    8.74   0
   5  -3  17   17.94    8.27   0
   7  -4  14  425.55   15.83   0
   8  -5   4  324.91   15.66   0
   2   1  25   10.37    7.35   0
   3   1  29    6.95    9.66   0
   3   3  30  221.97   13.79   0
   8  -4  15   -9.60   11.33   0
   9  -4  13   -0.09   12.62   0
   3  -1  22  499.32   14.37   0
   4  -2  21    6.42    9.16   0
   4  -1  26  700.50   16.61   0
   4   2  32  389.01   16.13   0
   4   3  31   13.88   11.68   0
   6  -3  21    6.93   10.44   0
   6  -2  26  442.58   15.28   0
   6   1  32  305.75   16.41   0
   6   2  31   -0.00   12.16   0
   7  -5   3    2.63    9.36   0
   7  -1  29   19.48   12.92   0
   7   1  30   88.74   13.75   0
   8  -2  25    3.59   11.64   0
   8  -1  27  -12.82   11.46   0
   1   2  23    0.77    8.25   0
   6  -4  13    3.67    8.00   0
   7  -2  27   14.19   12.21   0
   9  -2  23    0.34   11.57   0
   3   0  27    2.24    7.91   0
   3   2  31    3.49   10.13   0
   5  -2  25   -0.24    9.06   0
   5  -4   9   20.91    9.10   0
   5   2  33    0.34   12.65   0
   8  -5   7   -1.82   10.71   0
   8  -3  23   -4.90   11.95   0
   1   3  25    2.79    8.37   0
   2   3  29   -5.04    9.01   0
   5  -1  30  360.29   14.16   0
   6  -1  31   -1.99   10.51   0
   7  -4  17    7.77    9.22   0
   9  -4  16  405.14   16.68   0
   2   0  23   -2.04    6.97   0
   3  -2  17   21.87    8.50   0
   4   1  33   17.78   11.17   0
   5  -3  20  649.95   16.19   0
   5   1  34  243.55   15.16   0
   7  -5   6  505.56   16.34   0
   8  -4  18  261.47   13.46   0
   9  -5   8  429.39   16.42   0
   7  -3  25   23.33   11.88   0
   8  -2  28  208.43   14.29   0
   8  -1  30   87.41   13.36   0
   1   1  21   18.91    6.79   0
   6  -3  24  727.89   18.18   0
   6  -2  29    5.62   10.03   0
   7  -1  32  323.91   15.86   0
   7   1  33   -4.05   11.57   0
   8  -5  10  251.43   14.08   0
   2  -1  18 1241.77   21.90   0
   4  -2  24 1941.39   25.26   0
   4  -1  29   -2.69    8.54   0
   6   1  35   -1.02   13.24   0
   6   2  34  157.30   13.75   0
   7  -2  30  113.62   13.62   0
   3  -1  25    1.39    8.07   0
   5  -4  12 1266.95   21.87   0
   5  -2  28  480.55   15.66   0
   7  -5   9   -0.14    9.78   0
   8  -3  26  237.18   14.57   0
   9  -5  11   12.57   12.50   0
   9  -4  19    5.80   11.83   0
   9  -3  24  298.52   15.41   0
   2   2  30  220.44   12.56   0
   3   3  33   -0.17   10.63   0
   4   2  35  -11.78   11.52   0
   7  -4  20  512.34   15.59   0
   8  -4  21   10.15   11.43   0
   5   2  36  296.51   16.50   0
   6  -1  34  261.03   15.27   0
   3   2  34  502.47   16.51   0
   5  -3  23    7.41    8.52   0
   5  -1  33    4.13    9.92   0
   8  -5  13    9.25   10.30   0
   8  -2  31   -5.96   12.05   0
   5   1  37    2.48   12.37   0
   6  -5   5   -0.51    8.53   0
   6  -4  19    2.20    9.87   0
   7  -3  28  450.34   15.48   0
   8  -1  33   10.43   12.00   0
   3  -2  20 1542.33   22.60   0
   6  -3  27    5.92    9.42   0
   7  -5  12  474.23   15.93   0
   7  -1  35   28.03   12.16   0
   9  -5  14   94.36   11.94   0
   9  -4  22  125.82   12.86   0
   1   2  26  535.96   16.24   0
   2   0  26 1347.85   22.22   0
   3  -3   9   -0.65    7.08   0
   7  -4  23   -3.04   11.39   0
   7  -2  33   15.93   12.95   0
   8  -3  29   -5.31   11.86   0
   9  -3  27    4.14   10.62   0
   4  -3  19   20.50    7.84   0
   4  -2  27   -1.84    9.51   0
   4  -1  32  985.95   19.59   0
   5  -4  15   10.16    7.50   0
   6   2  37    3.78   13.54   0
   4  -4   5    1.59    7.14   0
   5  -2  31    9.04    9.24   0
   6  -5   8  918.14   19.80   0
   6   1  38   46.93   12.19   0
   7   0  37   -0.67   10.74   0
   8  -5  16  514.97   17.05   0
   1   3  28  750.04   19.28   0
   2  -1  21   34.77    7.50   0
   3  -1  28 1452.72   21.92   0
   3   1  35    7.24   10.00   0
   4   2  38  136.12   13.22   0
   5  -3  26  748.89   17.07   0
   5  -1  36  378.65   15.67   0
   6  -4  22  416.13   15.11   0
   6  -1  37   11.97   10.58   0
   7  -5  15    4.81    9.59   0
   7  -3  31   -4.77   12.09   0
   8  -2  34  181.58   14.00   0
   9  -5  17   10.04   11.51   0
   9  -4  25   -5.10   11.98   0
   1   0  19   -3.80    7.25   0
   2   1  31    5.11    8.67   0
   5   2  39    1.30   12.47   0
   6  -3  30  230.04   13.58   0
   6   0  39   -2.50   12.64   0
   2   2  33   -4.14    8.89   0
   5  -4  18  812.72   18.13   0
   6  -2  35    3.43   11.70   0
   7  -1  38   65.98   12.72   0
   8  -3  32  289.28   15.05   0
   3  -2  23    4.70    7.50   0
   3   2  37   -1.95    9.93   0
   4  -4   8 1608.85   25.42   0
   4  -3  22  416.63   13.98   0
   5   1  40  236.18   14.84   0
   6  -5  11    5.71    8.98   0
   7  -2  36  342.02   15.43   0
   8  -5  19    6.66   11.28   0
   4   1  39  -10.86   11.11   0
   9  -5  20  182.26   13.70   0
   2  -2  13   -2.66    6.30   0
   4  -2  30  229.45   11.66   0
   4  -1  35   13.49   10.65   0
   7  -5  18  224.26   13.38   0
   7   0  40  214.66   14.10   0
   5  -3  29  -11.24   10.30   0
   6   1  41   -3.12   12.59   0
   8  -2  37    1.24   12.72   0
   9  -4  28  118.38   12.49   0
   1   2  29    8.93    7.86   0
   3  -1  31   -1.06    8.15   0
   6  -5  14  464.68   15.23   0
   6  -1  40  237.39   14.77   0
   7  -3  34  223.86   13.70   0
   2  -1  24 1914.93   24.96   0
   4  -4  11   -1.65    7.75   0
   5  -4  21    9.50    9.00   0
   5  -1  39    2.35   11.26   0
   5   0  41   -4.17   12.32   0
   6  -3  33   13.09   10.09   0
   8  -5  22  160.15   13.37   0
   8  -3  35   -4.47   12.58   0
   3   1  38  208.17   12.78   0
   4   2  41    4.50   12.80   0
   6  -2  38  107.37   13.92   0
   6   0  42  164.18   14.96   0
   7  -2  39    5.98   12.55   0
   7  -1  41    0.22   12.49   0
   9  -5  23    6.96   10.95   0
   1   1  27    3.70    7.49   0
   2   1  34  664.33   17.08   0
   3  -2  26  568.79   14.73   0
   4  -3  25    3.85    7.88   0
   5   2  42  179.33   14.62   0
   7  -5  21   -0.13   10.69   0
   1   0  22  480.77   14.77   0
   5   1  43   -3.65   12.48   0
   2  -2  16 3031.20   32.31   0
   2   2  36  423.79   15.16   0
   4  -2  33   -4.93    8.73   0
   4   1  42  213.19   13.95   0
   5  -2  37   -0.15    9.60   0
   6  -5  17    3.75    9.15   0
   3   2  40  498.19   16.77   0
   4  -4  14  351.77   13.36   0
   4  -1  38  188.48   11.67   0
   5  -3  32  804.36   17.56   0
   7  -3  37    9.42   12.55   0
   8  -5  25   -0.31   11.78   0
   6  -3  36  380.83   15.72   0
   6  -1  43   -5.07   12.34   0
   6   1  44  159.14   13.30   0
   9  -5  26  188.60   13.12   0
   2  -1  27    6.52    8.55   0
   3  -3  18  562.59   15.24   0
   5  -5   7    2.95    7.76   0
   7  -5  24  559.39   17.15   0
   8  -3  38   77.03   13.12   0
   4  -3  28  804.94   17.53   0
   5  -1  42  207.09   12.46   0
   5   0  44  237.59   14.99   0
   6  -2  41  -11.13   12.39   0
   6   0  45   -8.16   12.55   0
   7  -2  42  189.95   13.87   0
   3  -2  29   10.87    9.31   0
   6  -5  20  569.09   16.42   0
   6  -4  31    4.48   11.02   0
   1   2  32 1274.85   22.88   0
   3   0  39   -5.42   10.11   0
   3   1  41    6.57   10.13   0
   4  -4  17   -5.52    8.11   0
   5  -5  10  756.30   18.16   0
   8  -5  28  221.28   14.36   0
   2  -2  19    2.15    6.66   0
   2   1  37    6.14    9.27   0
   4  -2  36  449.49   14.15   0
   4   0  43    0.28   11.12   0
   4   2  44  257.63   14.97   0
   5  -3  35    3.89   10.36   0
   7  -3  40  203.99   13.98   0
   9  -5  29   -0.97   10.44   0
   1   0  25    0.12    6.54   0
   1   1  30  645.95   16.54   0
   4  -1  41    9.38   10.13   0
   5   1  46   75.72   12.52   0
   7  -5  27    4.57   11.40   0
   7  -4  35    1.99   10.50   0
   8  -4  36  168.63   14.00   0
   3  -3  21   -4.14    8.09   0
   4   1  45   10.26   10.80   0
   6  -5  23    5.62    9.98   0
   6  -3  39   -0.23   10.19   0
   2   2  39   -1.49    9.29   0
   3  -1  37   -3.02    9.90   0
   3   2  43    4.86   10.49   0
   4  -3  31   13.86    9.97   0
   5  -5  13   -1.97    8.11   0
   2  -1  30  685.62   15.73   0
   4  -4  20 1396.10   21.97   0
   6  -4  34  213.89   13.72   0
   6  -2  44  303.71   15.64   0
   7  -2  45  -12.69   11.81   0
   8  -6  20  218.52   14.81   0
   8  -5  31    8.69   10.86   0
   3  -2  32 1338.84   20.75   0
   5   0  47    1.75   11.75   0
   6   0  48  151.64   14.12   0
   2  -2  22 2049.96   25.56   0
   5  -5  16  814.69   18.16   0
   5  -4  30  227.72   12.90   0
   7  -6  16  686.10   18.69   0
   7  -5  30  197.48   13.42   0
   3   0  42  366.77   14.49   0
   3   1  44  317.63   14.54   0
   4  -2  39    1.17    9.07   0
   5  -3  38  121.23   10.70   0
   5  -2  43    1.84    9.86   0
   6  -5  26  271.47   13.36   0
   7  -4  38  153.03   12.96   0
   7  -3  43    7.81   12.36   0
   8  -4  39    1.30   10.39   0
   9  -6  24  209.39   14.21   0
   0   2  25    1.73    6.66   0
   3  -3  24 1726.85   23.19   0
   4   0  46  159.01   13.57   0
   6  -3  42  188.53   14.11   0
   8  -6  23    8.46   11.85   0
   1   2  35   -0.60    8.01   0
   2   1  40  521.99   16.11   0
   4  -3  34  620.19   16.48   0
   5   1  49    4.09   12.73   0
   8  -5  34  155.73   12.93   0
   1   1  33    9.90    6.82   0
   5  -5  19    2.44    8.87   0
   6  -4  37   -0.57   11.61   0
   6  -1  49   -2.82   11.51   0
   7  -6  19   10.75   10.41   0
   1  -1  20 1520.61   23.17   0
   2  -1  33    4.92    7.54   0
   2   0  38  284.39   12.60   0
   3  -2  35   -1.89    9.04   0
   4   1  48  256.32   14.68   0
   5  -4  33   16.12   10.31   0
   6  -2  47   -8.01   12.22   0
   7  -5  33   -0.67   11.06   0
   2  -2  25    2.91    7.06   0
   2   2  42  480.69   15.54   0
   6  -5  29   -6.39   10.71   0
   7  -4  41   22.82   11.96   0
   9  -6  27   -0.91    9.69   0
   3  -3  27    2.50    7.37   0
   4  -2  42  485.00   15.78   0
   5  -3  41   22.51    9.52   0
   5   0  50  109.09   12.93   0
   7  -3  46   91.09   12.63   0
   8  -6  26  243.98   14.24   0
   5  -5  22  288.90   13.08   0
   5  -2  46   55.60   10.79   0
   6  -3  45    9.58   12.20   0
   7  -6  22  184.91   12.89   0
   8  -5  37   -1.46   11.75   0
   3   0  45    3.48    8.74   0
   4  -3  37    4.41   10.26   0
   1  -1  23    6.25    7.63   0
   3   1  47    4.61   10.69   0
   4   0  49   -1.85   10.83   0
   6  -4  40  306.51   13.50   0
   7  -5  36  207.99   14.14   0
   2  -2  28 1193.15   19.98   0
   2   1  43    3.02    9.65   0
   3  -1  43    4.69   10.34   0
   5  -4  36  574.18   15.56   0
   6  -5  32  476.81   16.20   0
   7  -6  25    1.92   10.61   0
   8  -6  29   -2.83   10.48   0
   0   2  28 1145.48   22.64   0
   1   2  38  367.15   13.95   0
   2  -1  36 1029.96   18.77   0
   3  -4   7   23.25    7.48   0
   3  -3  30  647.82   15.82   0
   3  -2  38  364.60   13.21   0
   4  -4  29   -2.44    9.00   0
   5  -5  25   -2.23    8.87   0
   6  -6  15    3.84    8.56   0
   6  -2  50  139.50   13.87   0
   7  -4  44  195.11   13.84   0
   2   0  41    7.27    7.98   0
   3  -4  10 1189.07   22.00   0
   4   1  51    2.61   11.23   0
   5  -3  44  279.60   14.63   0
   5  -1  51   -6.83   11.83   0
   4  -2  45   -1.20    9.45   0
   5  -2  49    0.75   11.90   0
   6  -6  18  305.14   14.36   0
   8  -5  40  169.85   12.74   0
   2  -3  11   23.27    6.36   0
   2   2  45   -1.18    9.82   0
   3  -4  13   10.15    7.54   0
   4  -3  40  550.37   16.03   0
   5   0  53  -12.79   11.90   0
   6  -4  43    0.66   11.99   0
   6  -3  48  208.79   13.65   0
   7  -6  28  199.01   13.28   0
   8  -6  32  250.63   14.15   0
   1  -1  26 1289.22   20.58   0
   3   0  48  240.51   14.02   0
   5  -5  28  693.43   17.03   0
   5  -4  39   14.93   10.41   0
   6  -5  35    3.04    9.30   0
   7  -5  39    0.91   10.32   0
   2  -2  31   -4.55    7.60   0
   3  -4  16 2208.42   27.37   0
   3  -3  33    5.52    9.34   0
   4  -4  32  539.39   15.54   0
   4   0  52  171.46   13.92   0
   6  -6  21  -10.67    9.47   0
   2  -1  39   -3.91    9.17   0
   3  -2  41    8.04    8.75   0
   3   1  50  238.00   13.90   0
   7  -4  47  -17.91   11.99   0
   2  -3  17   12.21    7.73   0
   4  -5   9   28.79    7.81   0
   4  -5  12 1189.72   22.22   0
   5  -3  47   -3.34   11.35   0
   6  -2  53    6.47   11.96   0
   7  -6  31   -6.26   11.30   0
   0   2  31   -0.06    6.90   0
   1   1  39    2.82    7.09   0
   2   0  44  827.50   18.40   0
   2   1  46  164.89   12.18   0
   3  -4  19   25.62    8.24   0
   4  -2  48  380.76   15.06   0
   5  -5  31    9.12   10.14   0
   5  -1  54   82.65   12.08   0
   8  -6  35    3.39   10.27   0
   1  -1  29   -2.71    7.73   0
   1   2  41    3.43    8.55   0
   4  -5  15    8.20    8.28   0
   4  -3  43    3.42   11.02   0
   5  -2  52  148.88   13.07   0
   6  -6  24  669.54   17.41   0
   6  -4  46  149.49   13.22   0
   6  -3  51   11.65   11.59   0
   2  -3  20 1490.43   22.39   0
   2  -2  34  290.41   11.80   0
   3  -3  36  625.23   16.28   0
   4  -4  35  -10.00    8.55   0
   4   1  54   77.89   11.24   0
   5  -4  42  273.93   12.90   0
   1   0  37   -5.97    8.34   0
   4  -5  18  826.88   18.01   0
   0   1  29    0.02    7.34   0
   2  -1  42  373.96   14.24   0
   3  -2  44  413.27   13.84   0
   3   0  51  -15.91   11.10   0
   4  -1  53   -1.58   11.56   0
   6  -6  27   -0.26   10.09   0
   7  -6  34  208.46   13.71   0
   2  -3  23   13.61    7.96   0
   4  -5  21   15.73    8.65   0
   4   0  55    0.02   11.65   0
   5  -5  34  308.39   12.81   0
   5  -3  50  212.80   14.33   0
   0   0  21    0.90    5.74   0
   1  -2  15    2.83    6.30   0
   1  -1  32 1898.48   24.03   0
   1   1  42  365.56   13.75   0
   2  -2  37   -1.87    8.62   0
   2   0  47   -3.81    9.50   0
   3   1  53   -0.53   11.10   0
   4  -4  38  176.01   11.26   0
   4  -3  46   95.64   10.73   0
   4  -2  51    3.57   11.61   0
   5  -4  45    1.86   10.97   0
   6  -6  30  170.49   12.86   0
   6  -4  49   10.35   11.58   0
   0   2  34  296.50   12.60   0
   2   1  49   -3.26    9.98   0
   3  -3  39  -10.29    8.44   0
   4  -5  24  767.57   17.37   0
   5  -1  57   -0.03   10.62   0
   7  -6  37    0.67   10.48   0
   1  -2  18 1229.15   20.63   0
   1   2  44  388.40   14.28   0
   2  -3  26  561.55   14.29   0
   0   1  32 1902.47   25.93   0
   1   0  40  811.06   17.05   0
   3  -2  47    1.72    9.07   0
   1  -2  21   27.63    7.04   0
   3   0  54  112.49   12.80   0
   4  -5  27    2.81    8.79   0
   4  -4  41   -3.87   10.61   0
   5  -6  17    5.80    8.52   0
   6  -6  33   -6.08   10.77   0
   1  -1  35    2.51    7.47   0
   2  -3  29   -5.21    8.62   0
   3  -1  52  347.12   15.04   0
   4  -1  56  175.78   12.94   0
   5  -3  53    6.84   10.34   0
   2  -2  40  930.97   17.90   0
   3  -3  42  298.72   12.57   0
   4  -3  49   -4.42    9.51   0
   5  -4  48  180.61   12.82   0
   0   7  11    3.87   11.28   0
   3   3   9    2.77    9.65   0
   3   4   8  591.99   16.13   0
   4   3   4  732.89   17.88   0
   5   2  -3    6.54    9.26   0
   5   3  -4  324.17   15.29   0
   1   5  14  455.60   15.88   0
   2   6   8  537.56   18.14   0
   4   5  -1   -0.70   12.57   0
   5   0  -7   -0.51    7.48   0
   6   0 -18  297.78   13.65   0
   6   2 -14  140.12   12.88   0
   6   3 -18  240.65   14.24   0
   2   7   4  231.51   14.78   0
   3   5   7   -4.81   12.40   0
   4   1   3   38.55    8.48   0
   4   4   3    1.72   10.25   0
   6   1 -13   12.19   10.73   0
   1   4  15    3.34    9.18   0
   1   7   9    0.69   12.08   0
   4  -1  -7   23.66    7.90   0
   4   2   5    2.69    8.74   0
   5   4  -5   18.38   12.01   0
   6   3 -15    5.48   11.85   0
   0   6  15    5.25   10.40   0
   1   6  13    2.41   11.57   0
   2   5  12  454.85   15.33   0
   5  -1 -12 1197.73   22.21   0
   6   0 -15    1.90    9.59   0
   6   2 -11   -9.89   11.93   0
   2   2  12  856.31   18.49   0
   3   0   3    3.89    6.61   0
   5   2   0  768.20   18.05   0
   5   3  -1    6.80   10.03   0
   1   8   5    3.47   10.86   0
   3   2  10  745.71   16.78   0
   4   5   2  213.69   15.22   0
   6   1 -10  275.09   13.74   0
   6   3 -12  194.56   13.92   0
   0   3  15   -1.19    7.37   0
   3   1   8 2937.43   31.05   0
   3   4  11    2.20   11.41   0
   4   3   7    4.22    9.75   0
   4   4   6  258.13   14.95   0
   5   4  -2  215.38   14.97   0
   2   6  11    2.91   12.01   0
   2   7   7   10.66   12.70   0
   4   6  -2   97.55   13.13   0
   6   0 -12  426.58   15.27   0
   6   2  -8  568.62   17.53   0
   0   4  17   -1.27    8.88   0
   3   3  12  825.29   17.98   0
   5   5  -6  126.80   13.23   0
   1   7  12  242.82   16.84   0
   4   1   6  917.29   18.17   0
   4   2   8  940.51   18.57   0
   5  -1  -9   28.14    8.54   0
   5   1   1   17.46    9.06   0
   5   3   2  287.81   13.79   0
   6   1  -7    3.90   10.48   0
   1   5  17   14.98   10.74   0
   4   5   5   -3.23   12.49   0
   5   2   3    2.69    9.63   0
   2   4  16  805.38   18.99   0
   2   5  15    7.24   11.17   0
   4  -1  -4 1363.64   23.88   0
   5   4   1   12.43   12.25   0
   6   0  -9    6.08    9.92   0
   1   6  16  717.10   19.89   0
   4   3  10  425.16   16.07   0
   5   0  -1   -3.02    9.13   0
   5   5  -3    8.08   12.05   0
   1   4  18  771.47   18.97   0
   3   6   9    5.17   12.35   0
   4   4   9   -2.70   10.52   0
   7   2 -22   67.55   12.06   0
   0   6  18  286.36   15.74   0
   2   6  14  148.99   14.80   0
   2   7  10  210.94   14.87   0
   3   2  13   12.84    8.37   0
   4   0   4 1667.36   24.25   0
   5   3   5    2.13   11.96   0
   0   5  19    7.15    9.49   0
   3   0   6  593.65   16.27   0
   5   1   4  830.28   17.87   0
   7   1 -18  258.83   14.13   0
   7   2 -19    3.52   10.66   0
   2   2  15    2.46    7.58   0
   3   1  11   39.25    9.22   0
   3   3  15    4.04    8.97   0
   4   2  11   -7.98   10.20   0
   4   5   8  466.75   16.28   0
   5  -1  -6  419.95   14.51   0
   5   4   4  184.56   14.81   0
   5   5   0  252.22   14.92   0
   6  -1 -14  443.07   15.55   0
   6   0  -6  502.97   16.22   0
   6   3  -3    4.76   12.42   0
   4   1   9   -3.26    8.24   0
   7   1 -15    3.71   10.94   0
   7   2 -16  213.49   14.32   0
   1   7  15   -2.88   12.13   0
   6   1  -1    0.39   10.81   0
   4   3  13   21.91   11.82   0
   4   4  12  311.76   16.16   0
   7   2 -13    2.57   11.04   0
   2   5  18  214.77   12.83   0
   3   6  12  221.93   15.63   0
   4  -1  -1   41.06    8.27   0
   5   3   8  581.42   16.57   0
   6  -1 -11   14.81    8.59   0
   6   2   1    1.84   12.20   0
   6   3   0  413.15   16.33   0
   7   1 -12  248.09   13.88   0
   1   5  20  535.65   17.43   0
   2   4  19   -1.01    9.03   0
   2   7  13    2.32   11.72   0
   5   1   7   -5.87   10.57   0
   5   4   7   -6.89   12.25   0
   5   5   3    6.14   11.23   0
   6   0  -3    3.36   10.31   0
   1   3  19   26.87    8.96   0
   1   6  19   10.86   11.54   0
   2   1  13   39.43    9.09   0
   2   6  17    4.16   12.28   0
   3   5  16  487.39   17.82   0
   4   5  11    4.72   11.63   0
   5  -1  -3   -6.05    8.26   0
   5   2   9   -6.53    9.70   0
   7   0 -14  171.88   12.49   0
   7   2 -10  201.70   14.38   0
   0   3  18  536.84   16.41   0
   3   2  16 1935.72   25.11   0
   4   0   7   -2.38    7.58   0
   6   4  -1   15.07   11.56   0
   7   1  -9    8.48   10.66   0
   3   3  18  468.58   15.86   0
   4   2  14  342.26   13.25   0
   6  -1  -8  939.53   19.86   0
   6   3   3    7.75   12.62   0
   1   4  21    9.87    9.80   0
   4   1  12  970.67   18.48   0
   5   5   6  104.20   12.96   0
   6   2   4  261.08   13.36   0
   7   0 -11   -0.46   10.04   0
   7   2  -7    6.70   11.43   0
   3   0   9   -7.00    8.00   0
   3   6  15    4.31   13.02   0
   4   4  15   13.22   10.24   0
   5   3  11   -0.17   10.34   0
   6   0   0  976.74   19.96   0
   7   1  -6  143.96   13.22   0
  -1   4  19   17.33    8.37   0
   2   2  18 1148.65   20.86   0
   4   3  16  510.80   15.74   0
   5   4  10  174.57   13.15   0
   6   4   2  114.66   12.69   0
   0   5  22  269.90   13.66   0
   2   5  21    3.60   11.36   0
   2   7  16  205.41   15.45   0
   5   1  10  538.28   15.11   0
   5   2  12  558.72   16.60   0
   7   0  -8  704.77   18.36   0
   7   2  -4  226.82   13.77   0
   3   4  20  483.62   16.70   0
   4  -1   2  883.13   18.98   0
   5  -1   0 1528.05   23.62   0
   6  -1  -5   -1.22    8.94   0
   6   3   6  233.15   14.17   0
   2   4  22  402.84   15.13   0
   2   6  20  236.15   15.30   0
   3   5  19   -3.31   12.59   0
   6   2   7   -9.85    9.90   0
   7   1  -3   -5.18   11.47   0
   1   5  23   -1.18   10.12   0
   1   6  22  198.86   14.26   0
   4   0  10  464.26   14.50   0
   4   2  17   14.57   10.65   0
   6   0   3   -7.95    9.34   0
   3   2  19    2.88    9.86   0
   4   4  18  235.68   15.26   0
   5   0   8 1063.58   19.83   0
   5   3  14  175.56   12.45   0
   5   4  13    5.72   11.67   0
   7   0  -5    0.86   10.75   0
   7   2  -1   -4.68   11.78   0
   3   6  18  230.03   15.28   0
   4   1  15   17.38    8.49   0
   2   1  16 2174.56   27.48   0
   4   3  19   -5.76   11.44   0
   5  -2 -11    4.17    8.10   0
   6  -1  -2  386.34   13.80   0
   6   1   8  755.07   18.44   0
   6   3   9    8.23   11.47   0
   7   1   0  460.78   16.63   0
   5   1  13   21.90    9.16   0
   5   2  15  -12.97    9.77   0
   6   2  10  227.52   14.12   0
   7  -1 -10  255.40   13.93   0
   1   4  24  745.26   18.61   0
   2   7  19   -4.64   11.70   0
   3   1  17    1.97    7.69   0
   5  -1   3   39.68    8.88   0
   7   0  -2  292.80   14.21   0
   0   4  23    0.64    8.37   0
   2   3  23   11.33    8.25   0
   3   0  12 2645.20   29.23   0
   3   4  23    8.15    9.46   0
   5   3  17    8.65   12.24   0
   5   4  16  421.86   16.10   0
   7   1   3    8.00   11.33   0
   0   3  21    0.87    7.67   0
   2   6  23   -1.13   11.23   0
   5  -2  -8 2139.09   30.75   0
   5   0  11   -1.39    9.49   0
   6  -1   1   17.97    9.31   0
   6   3  12  175.12   13.89   0
   8   1 -11    1.47    9.57   0
   2   0  11   -0.52    6.45   0
   2   4  25   -9.36   10.51   0
   4   0  13   -1.93    7.62   0
   6   1  11    5.82    9.52   0
   7   0   1   -5.29   11.02   0
   0   5  25   -3.27    8.79   0
   3   2  22  324.38   13.47   0
   3   6  21   -2.28   12.71   0
   4   1  18  420.42   13.57   0
   4   3  22  220.73   13.90   0
   4   5  20  162.13   13.72   0
   5   1  16  739.79   17.74   0
   5   2  18  480.19   15.89   0
   6   2  13  -10.55   10.62   0
   8   1  -8  176.40   12.37   0
   1   5  26  276.67   13.61   0
   7  -1  -4  311.44   13.93   0
   5  -1   6  916.25   17.97   0
   5   3  20  286.90   15.46   0
   5   4  19   -9.28   11.58   0
   7   0   4  214.45   13.60   0
   7   2   8  263.36   14.49   0
   8   1  -5    1.84   11.22   0
   3   1  20  980.26   19.13   0
   3   5  25   -5.23   11.81   0
   5  -2  -5   13.29    7.45   0
   6  -1   4  851.84   17.67   0
   6   1  14  157.33   12.81   0
   6   3  15   11.66   11.23   0
   8   0  -7   -9.29   11.12   0
   2   1  19    6.81    7.21   0
   3   4  26  189.56   13.99   0
   4  -1   8 2846.69   30.87   0
   5   0  14  676.61   16.14   0
   6   2  16  498.19   16.54   0
   7  -1  -1   -0.31    9.74   0
   1   3  25   -0.67    8.55   0
   1   4  27    6.23    9.75   0
   2   3  26  704.55   16.70   0
   2   5  27    8.26   11.66   0
   3   0  15   -3.28    7.34   0
   4   2  23   -7.15   10.99   0
   6  -2  -7   -1.24    8.32   0
   8   1  -2  140.85   12.94   0
   2   6  26  226.43   14.88   0
   3  -1   7    3.86    7.35   0
   3   6  24  214.94   14.88   0
   4   0  16 1633.89   22.76   0
   4   5  23   12.35   11.96   0
   5   1  19    4.20   10.21   0
   5   2  21    5.50   11.71   0
   6   0  12  503.61   16.09   0
   8   0  -4  281.25   14.04   0
   2   4  28  510.05   16.82   0
   4   1  21    3.92    8.78   0
   4   3  25   -4.07   12.09   0
   7   0   7   -8.28   11.46   0
   7   2  11    2.44   11.09   0
   3   2  25   -7.34    9.66   0
   3   3  27    7.75   10.77   0
   6  -1   7    5.34    9.62   0
   6   3  18  126.07   13.33   0
   7  -1   2  435.26   15.54   0
   8   1   1    4.81   10.71   0
   5  -2  -2  916.55   20.07   0
   5   3  23  -11.25   11.85   0
   5   4  22  120.80   12.68   0
   6  -2  -4  999.87   20.77   0
   6   1  17    4.77   11.61   0
   8   0  -1    5.96   10.74   0
   2   0  14  367.84   13.06   0
   6   2  19    0.61   12.20   0
   1   2  23    4.33    6.76   0
   1   5  29   10.32   10.42   0
   3   5  28  215.57   15.68   0
   5   0  17   11.56    8.98   0
   8   1   4  235.13   14.37   0
   0   3  24 1706.73   26.92   0
   3   4  29   -6.87   12.50   0
   4  -1  11   45.07    9.25   0
   4   4  27   -8.24   12.31   0
   6   0  15    3.53   11.28   0
   7   0  10  270.62   13.19   0
   7   2  14  180.50   14.39   0
   8   0   2  112.45   13.39   0
   3   1  23   28.50    8.70   0
   4   2  26  436.94   15.15   0
   5   2  24  364.21   14.90   0
   1   2  41    3.64    8.57   0
   3   1  44  339.31   14.19   0
   4  -2  24 1964.94   23.56   0
   4  -1  35    2.71    9.34   0
   6   0  42  171.99   12.94   0
   7   0  40  206.04   12.71   0
   8  -3  14  183.10   12.19   0
   9  -2  20  160.91   11.47   0
   2   2  45   -0.48    8.33   0
   3  -1  31    3.56    7.64   0
   5  -3  11    9.45    8.13   0
   2  -1  24 1935.73   24.30   0
   6  -3  18  475.69   14.58   0
   7  -3  19    1.72    9.19   0
   8  -2  28  207.33   12.59   0
   3  -2  17   12.87    6.62   0
   5   0  44  244.87   14.31   0
   8  -3  17   -6.36    9.48   0
   4  -2  27   -0.33    8.83   0
   4   0  43    2.48    9.09   0
   5  -3  14  414.56   12.67   0
   5  -2  31    1.92    9.43   0
   5  -1  39    3.62    9.33   0
   7  -1  38   49.85   11.07   0
   3   2  49  -11.52   10.07   0
   4   2  50  154.09   12.47   0
   6  -3  21   10.08    8.93   0
   7  -3  22  202.87   12.57   0
   2   1  43    2.31    9.11   0
   3   3  51   -7.82    9.82   0
   4  -1  38  177.27   11.95   0
   4   1  48  261.27   13.97   0
   5  -3  17    1.12    8.21   0
   6   0  45   -5.26   10.84   0
   7  -2  33    6.21    9.21   0
   8  -3  20  253.62   13.48   0
   8  -2  31  -17.65   10.64   0
   0   1  29   -3.47    6.52   0
   3  -2  20 1506.96   21.45   0
   3  -1  34  649.29   15.05   0
   0   2  37    2.22    7.27   0
   2  -1  27    0.26    6.61   0
   3   1  47    7.56   10.34   0
   5   1  49   -7.02   10.38   0
   6  -2  35    4.38   10.83   0
   1   2  44  364.98   14.71   0
   4  -2  30  226.84   11.75   0
   5  -2  34  537.22   15.57   0
   7  -3  25   16.65   10.72   0
   7  -1  41   -6.67   11.04   0
   8  -3  23   -3.56   10.04   0
   1   1  39   -2.38    8.18   0
   2   0  38  284.47   11.37   0
   5  -1  42  219.26   12.25   0
   5   0  47   -4.95   10.84   0
   7  -2  36  305.56   14.09   0
   3  -2  23    5.63    6.96   0
   6  -1  43   -8.40   10.55   0
   1   0  31   -2.62    6.22   0
   4  -1  41   -2.79    9.81   0
   7  -3  28  455.77   15.34   0
   8  -3  26  227.24   13.42   0
   3  -1  37    2.31    8.00   0
   3   2  52  198.68   14.21   0
   4  -3   7   20.93    7.31   0
   4   2  53   -9.77   10.20   0
   5  -3  23   11.24    7.66   0
   6  -2  38  151.21   12.68   0
   6   0  48  151.69   13.49   0
   9  -3  21    3.54    9.40   0
   2  -1  30  684.49   15.13   0
   2   1  46  164.93   11.84   0
   4  -3   4 1370.38   23.65   0
   4  -3  10 1183.47   20.73   0
   4  -2  33    1.40    9.00   0
   4   1  51    4.26   10.33   0
   5  -2  37    6.59   10.17   0
   3  -2  26  574.09   14.60   0
   3   0  45   -1.06    8.34   0
   4  -3  13   13.48    7.76   0
   7  -2  39   17.85   10.74   0
   7  -1  44  168.82   12.11   0
   3   1  50  223.16   13.52   0
   5  -3  26  739.52   16.76   0
   5  -1  45    8.65   10.11   0
   6  -3  30  249.29   13.04   0
   8  -3  29    5.43   10.27   0
   9  -3  24  255.09   12.68   0
   0   2  40  900.09   19.18   0
   2   0  41   -4.42    7.70   0
   4   0  49   -1.50   11.46   0
   6  -1  46   86.89   11.59   0
   1   1  42  367.99   13.66   0
   1   2  47    2.01    9.91   0
   2   2  51    2.45    9.57   0
   4  -1  44  341.90   14.68   0
   6  -2  41   -6.11   11.07   0
   2  -1  33    7.97    8.34   0
   3  -1  40  511.07   14.06   0
   4  -2  36  467.49   14.54   0
   7  -4  11   -4.17    8.81   0
   9  -3  27   -3.80    9.50   0
  -1   2  30  616.33   17.66   0
   3  -2  29   11.46    7.38   0
   4  -3  19   16.23    7.47   0
   5  -3  29   13.15    9.10   0
   6  -3  33    8.48   10.44   0
   7  -4  14  403.56   14.26   0
   7  -2  42  196.77   13.24   0
   8  -3  32  279.15   14.27   0
   4   1  54   52.88   11.62   0
   7  -4  17   19.11    9.52   0
   8  -4  15    0.03    9.54   0
   2   1  49    3.82    9.88   0
   3   0  48  247.96   11.91   0
   3   2  55  -10.00    9.85   0
   4  -3  22  417.64   13.47   0
   5  -1  48  280.27   14.52   0
   8  -4  18  243.14   13.32   0
   0   1  35    3.46    7.19   0
   1  -1  20 1544.31   22.98   0
   2   0  44  823.61   18.04   0
   6  -1  49   -2.71   10.37   0
   7  -4  20  540.62   15.92   0
   2  -2  13   -3.18    7.30   0
   3  -2  32 1362.29   20.86   0
   3   1  53    9.21   11.01   0
   4  -2  39   -7.72    9.69   0
   4  -1  47  -12.54   11.14   0
   4   0  52  186.65   13.55   0
   5   0  53    2.30   10.09   0
   6  -4   7   -1.79    8.46   0
   6  -4  10  421.45   14.35   0
   6  -4  13    3.83    8.50   0
   6  -2  44  264.79   13.41   0
   8  -4  21    9.32    9.85   0
   8  -3  35   -7.37   11.34   0
   1   0  37   -1.85    8.00   0
   2  -1  36 1012.53   17.98   0
   4  -3  25    2.51    8.70   0
   5  -2  43    3.21    9.42   0
   6  -4   4  930.78   20.42   0
   6  -4  16  850.06   18.29   0
   6  -3  36  397.30   13.80   0
   7  -4  23   11.31    9.82   0
   7  -3  37    5.82   10.39   0
   1   1  45    2.41    8.72   0
   2  -2  16 3104.70   31.52   0
   6  -4  19    3.26    9.11   0
   7  -2  45    6.46    9.92   0
   8  -4  24  384.46   15.02   0
   1  -1  23    3.40    6.10   0
   2  -2  19    3.24    6.34   0
   5  -3  35    1.55    9.66   0
   5  -1  51    2.36   10.96   0
   7  -4  26  190.14   12.39   0
   8  -3  38   70.08   11.20   0
   3  -2  35   -2.77    7.88   0
   3   0  51   13.61    8.90   0
   4  -3  28  769.80   15.96   0
   4   1  57    5.32   10.11   0
   6  -3  39    6.71   10.68   0
   6  -2  47    1.88   10.82   0
   7  -3  40  217.18   13.30   0
   8  -4  27    6.18    9.92   0
   2  -2  22 2069.03   25.22   0
   2   0  47    9.14    9.47   0
   2   1  52  318.87   14.10   0
   5  -2  46   83.66   11.77   0
   0   1  38  287.90   12.45   0
   1  -1  26 1231.87   20.01   0
   3   1  56  163.00   13.78   0
   4   0  55   -8.27   11.40   0
   6  -4  25    1.02    8.27   0
   7  -4  29    6.72   10.99   0
   9  -4  25   -1.78    9.24   0
   1   0  40  814.81   16.70   0
   4  -3  31   12.60    9.50   0
   5  -3  38  119.35   11.97   0
   8  -4  30  131.88   11.59   0
   2  -2  25    1.59    7.76   0
   0   0  27    1.70    6.59   0
   1   1  48  383.71   13.95   0
   3  -2  38  388.96   12.72   0
   5  -4  12 1256.71   21.14   0
   5  -4  15   11.03    8.23   0
   6  -3  42  191.01   11.81   0
   7  -4  32  342.23   14.34   0
   7  -3  43   -1.46   10.07   0
   9  -4  28  103.70   11.57   0
   1  -1  29    3.77    6.18   0
   4  -2  45    7.75    8.93   0
   5  -4   9   26.14    8.00   0
   5  -4  18  800.56   16.53   0
   6  -2  50  145.97   11.92   0
   8  -4  33   -3.49   10.17   0
   4  -3  34  612.10   14.88   0
   5  -2  49   -7.90   10.43   0
  -8   3   1    8.70   10.56   0
  -8   3  25   13.34   12.23   0
  -7   3  29    1.00   10.99   0
  -6   3  -3    9.10    9.05   0
  -5   2  41   -1.31   12.33   0
  -5   3   1   -2.23    8.92   0
  -5   3  25   -5.02    9.40   0
  -6   3  30  248.06   13.54   0
  -3   1  44  384.39   15.81   0
  -3   2  31   -3.55    8.13   0
  -8   3  28  214.23   14.35   0
  -7   2  42  100.55   13.57   0
  -6   2  43    7.82   13.10   0
  -5   3  28  454.96   15.58   0
  -4   2  39   -4.31   11.06   0
  -9   3   9   10.48   13.01   0
  -9   3  12  213.76   13.97   0
  -9   3  15    8.72   11.47   0
  -9   3  18  243.20   14.57   0
  -8   3  -2  249.05   13.81   0
  -6   1  50  112.79   14.11   0
  -1   1  25   -1.07    7.14   0
  -9   3  21   -6.51   11.76   0
  -6   3  33    6.93   10.56   0
  -5   3  -2  875.36   19.13   0
  -4   1  49   -9.34   11.99   0
  -4   3  11   38.50    8.27   0
  -4   3  14  723.45   16.66   0
  -4   3  17   -1.15    8.10   0
  -9   3   6   88.96   13.18   0
  -8   3  31   -5.44   11.68   0
  -6   3  -6  490.25   15.83   0
  -5   1  51    3.00   12.11   0
  -5   2  44  296.78   16.27   0
  -5   3  31    8.45   10.75   0
  -4   3   8 2801.70   30.97   0
  -4   3  20  976.31   18.93   0
  -3   2  34  680.90   17.64   0
  -2   1  39   -3.74    9.15   0
  -7   3  35    9.36   10.87   0
  -9   3  27   -1.84   12.48   0
  -8   3  34  171.56   14.63   0
  -6   2  46  119.58   13.90   0
  -6   3  36  397.90   16.33   0
  -4   3   5   11.10    8.08   0
  -4   3  23   26.03    8.87   0
  -2   2  14  337.30   13.32   0
  -2   2  17    1.55    7.89   0
  -4   2  42  483.15   15.93   0
  -2   2  11   -1.06    6.55   0
;
_shelx_hkl_checksum              42528
loop_
_space_group_symop_operation_xyz
'x, y, z'
'-y, x-y, z'
'-x+y, -x, z'
'y, x, -z+1/2'
'x-y, -y, -z+1/2'
'-x, -x+y, -z+1/2'
'x+2/3, y+1/3, z+1/3'
'-y+2/3, x-y+1/3, z+1/3'
'-x+y+2/3, -x+1/3, z+1/3'
'y+2/3, x+1/3, -z+5/6'
'x-y+2/3, -y+1/3, -z+5/6'
'-x+2/3, -x+y+1/3, -z+5/6'
'x+1/3, y+2/3, z+2/3'
'-y+1/3, x-y+2/3, z+2/3'
'-x+y+1/3, -x+2/3, z+2/3'
'y+1/3, x+2/3, -z+7/6'
'x-y+1/3, -y+2/3, -z+7/6'
'-x+1/3, -x+y+2/3, -z+7/6'
'-x, -y, -z'
'y, -x+y, -z'
'x-y, x, -z'
'-y, -x, z-1/2'
'-x+y, y, z-1/2'
'x, x-y, z-1/2'
'-x+2/3, -y+1/3, -z+1/3'
'y+2/3, -x+y+1/3, -z+1/3'
'x-y+2/3, x+1/3, -z+1/3'
'-y+2/3, -x+1/3, z-1/6'
'-x+y+2/3, y+1/3, z-1/6'
'x+2/3, x-y+1/3, z-1/6'
'-x+1/3, -y+2/3, -z+2/3'
'y+1/3, -x+y+2/3, -z+2/3'
'x-y+1/3, x+2/3, -z+2/3'
'-y+1/3, -x+2/3, z+1/6'
'-x+y+1/3, y+2/3, z+1/6'
'x+1/3, x-y+2/3, z+1/6'
loop_
_atom_site_label
_atom_site_type_symbol
_atom_site_fract_x
_atom_site_fract_y
_atom_site_fract_z
_atom_site_U_iso_or_equiv
_atom_site_adp_type
_atom_site_occupancy
_atom_site_site_symmetry_order
_atom_site_calc_flag
_atom_site_refinement_flags_posn
_atom_site_refinement_flags_adp
_atom_site_refinement_flags_occupancy
Ba1 Ba 0.0000 0.0000 0.2500 0.00913(2) Uani 1 6 d S T P
Mg2 Mg 0.0000 0.0000 0.0000 0.00736(7) Uani 1 6 d S T P
O3 O 0.11588(17) 0.82345(17) 0.12923(2) 0.01653(13) Uani 1 1 d . . .
C4 C 0.0000 0.0000 0.13039(3) 0.00794(11) Uani 1 3 d S T P
loop_
_atom_site_aniso_label
_atom_site_aniso_U_11
_atom_site_aniso_U_22
_atom_site_aniso_U_33
_atom_site_aniso_U_23
_atom_site_aniso_U_13
_atom_site_aniso_U_12
Ba1 0.00793(2) 0.00793(2) 0.01153(3) 0.000 0.000 0.00396(1)
Mg2 0.00632(10) 0.00632(10) 0.00942(17) 0.000 0.000 0.00316(5)
O3 0.0219(4) 0.0177(3) 0.0185(2) -0.0041(2) -0.0070(2) 0.0163(3)
C4 0.00766(17) 0.00766(17) 0.0085(3) 0.000 0.000 0.00383(9)
loop_
_atom_type_symbol
_atom_type_description
_atom_type_scat_dispersion_real
_atom_type_scat_dispersion_imag
_atom_type_scat_source
C C 0.0033 0.0016 'International Tables Vol C Tables 4.2.6.8 and 6.1.1.4'
O O 0.0106 0.0060 'International Tables Vol C Tables 4.2.6.8 and 6.1.1.4'
Mg Mg 0.0486 0.0363 'International Tables Vol C Tables 4.2.6.8 and 6.1.1.4'
Ba Ba -0.3244 2.2819 'International Tables Vol C Tables 4.2.6.8 and 6.1.1.4'
loop_
_geom_angle_atom_site_label_1
_geom_angle_atom_site_label_2
_geom_angle_atom_site_label_3
_geom_angle
_geom_angle_site_symmetry_1
_geom_angle_site_symmetry_3
O3 Ba1 O3 123.60(2) 35_445 26_445
O3 Ba1 O3 137.39(3) 35_445 25_455
O3 Ba1 O3 93.09(2) 26_445 25_455
O3 Ba1 O3 93.09(2) 35_445 34_545
O3 Ba1 O3 137.39(3) 26_445 34_545
O3 Ba1 O3 66.60(3) 25_455 34_545
O3 Ba1 O3 93.09(2) 35_445 36
O3 Ba1 O3 66.60(3) 26_445 36
O3 Ba1 O3 123.60(2) 25_455 36
O3 Ba1 O3 93.09(2) 34_545 36
O3 Ba1 O3 66.60(3) 35_445 27
O3 Ba1 O3 93.09(2) 26_445 27
O3 Ba1 O3 93.09(2) 25_455 27
O3 Ba1 O3 123.60(2) 34_545 27
O3 Ba1 O3 137.39(3) 36 27
O3 Ba1 O3 176.888(16) 35_445 27_545
O3 Ba1 O3 57.13(2) 26_445 27_545
O3 Ba1 O3 43.88(2) 25_455 27_545
O3 Ba1 O3 85.108(15) 34_545 27_545
O3 Ba1 O3 84.487(14) 36 27_545
O3 Ba1 O3 116.52(2) 27 27_545
O3 Ba1 O3 57.13(2) 35_445 36_455
O3 Ba1 O3 176.888(16) 26_445 36_455
O3 Ba1 O3 85.108(15) 25_455 36_455
O3 Ba1 O3 43.88(2) 34_545 36_455
O3 Ba1 O3 116.52(2) 36 36_455
O3 Ba1 O3 84.487(14) 27 36_455
O3 Ba1 O3 122.34(2) 27_545 36_455
O3 Ba1 O3 43.88(2) 35_445 34_655
O3 Ba1 O3 84.486(14) 26_445 34_655
O3 Ba1 O3 176.888(17) 25_455 34_655
O3 Ba1 O3 116.52(2) 34_545 34_655
O3 Ba1 O3 57.12(2) 36 34_655
O3 Ba1 O3 85.108(15) 27 34_655
O3 Ba1 O3 135.06(2) 27_545 34_655
O3 Ba1 O3 97.226(16) 36_455 34_655
O3 Ba1 O3 84.486(14) 35_445 25_565
O3 Ba1 O3 43.88(2) 26_445 25_565
O3 Ba1 O3 116.52(2) 25_455 25_565
O3 Ba1 O3 176.888(17) 34_545 25_565
O3 Ba1 O3 85.108(15) 36 25_565
O3 Ba1 O3 57.12(2) 27 25_565
O3 Ba1 O3 97.226(16) 27_545 25_565
O3 Ba1 O3 135.06(2) 36_455 25_565
O3 Ba1 O3 60.37(3) 34_655 25_565
O3 Ba1 O3 85.108(15) 35_445 26_345
O3 Ba1 O3 116.52(2) 26_445 26_345
O3 Ba1 O3 57.12(2) 25_455 26_345
O3 Ba1 O3 84.487(14) 34_545 26_345
O3 Ba1 O3 176.888(16) 36 26_345
O3 Ba1 O3 43.88(2) 27 26_345
O3 Ba1 O3 97.226(16) 27_545 26_345
O3 Ba1 O3 60.37(2) 36_455 26_345
O3 Ba1 O3 122.34(2) 34_655 26_345
O3 Ba1 O3 97.226(16) 25_565 26_345
O3 Ba1 O3 116.52(2) 35_445 35_435
O3 Ba1 O3 85.108(15) 26_445 35_435
O3 Ba1 O3 84.487(14) 25_455 35_435
O3 Ba1 O3 57.12(2) 34_545 35_435
O3 Ba1 O3 43.88(2) 36 35_435
O3 Ba1 O3 176.888(16) 27 35_435
O3 Ba1 O3 60.37(2) 27_545 35_435
O3 Ba1 O3 97.226(16) 36_455 35_435
O3 Ba1 O3 97.226(16) 34_655 35_435
O3 Ba1 O3 122.34(2) 25_565 35_435
O3 Ba1 O3 135.06(2) 26_345 35_435
O3 Mg2 O3 180.00(3) 29_445 17_554
O3 Mg2 O3 86.76(3) 29_445 30_455
O3 Mg2 O3 93.24(3) 17_554 30_455
O3 Mg2 O3 93.24(3) 29_445 18_544
O3 Mg2 O3 86.76(3) 17_554 18_544
O3 Mg2 O3 180.00(4) 30_455 18_544
O3 Mg2 O3 86.76(3) 29_445 28
O3 Mg2 O3 93.24(3) 17_554 28
O3 Mg2 O3 86.76(3) 30_455 28
O3 Mg2 O3 93.24(3) 18_544 28
O3 Mg2 O3 93.24(3) 29_445 16_444
O3 Mg2 O3 86.76(3) 17_554 16_444
O3 Mg2 O3 93.24(3) 30_455 16_444
O3 Mg2 O3 86.76(3) 18_544 16_444
O3 Mg2 O3 180.00(4) 28 16_444
O3 Mg2 Ba1 98.387(18) 29_445 13_444
O3 Mg2 Ba1 81.613(18) 17_554 13_444
O3 Mg2 Ba1 41.14(2) 30_455 13_444
O3 Mg2 Ba1 138.86(2) 18_544 13_444
O3 Mg2 Ba1 48.63(2) 28 13_444
O3 Mg2 Ba1 131.37(2) 16_444 13_444
O3 Mg2 Ba1 81.613(18) 29_445 25
O3 Mg2 Ba1 98.387(18) 17_554 25
O3 Mg2 Ba1 138.86(2) 30_455 25
O3 Mg2 Ba1 41.14(2) 18_544 25
O3 Mg2 Ba1 131.37(2) 28 25
O3 Mg2 Ba1 48.63(2) 16_444 25
Ba1 Mg2 Ba1 180.0 13_444 25
O3 Mg2 Ba1 48.63(2) 29_445 13_554
O3 Mg2 Ba1 131.37(2) 17_554 13_554
O3 Mg2 Ba1 98.387(18) 30_455 13_554
O3 Mg2 Ba1 81.613(18) 18_544 13_554
O3 Mg2 Ba1 41.15(2) 28 13_554
O3 Mg2 Ba1 138.85(2) 16_444 13_554
Ba1 Mg2 Ba1 77.150(1) 13_444 13_554
Ba1 Mg2 Ba1 102.850(2) 25 13_554
O3 Mg2 Ba1 131.37(2) 29_445 25_445
O3 Mg2 Ba1 48.63(2) 17_554 25_445
O3 Mg2 Ba1 81.613(18) 30_455 25_445
O3 Mg2 Ba1 98.387(18) 18_544 25_445
O3 Mg2 Ba1 138.85(2) 28 25_445
O3 Mg2 Ba1 41.15(2) 16_444 25_445
Ba1 Mg2 Ba1 102.850(2) 13_444 25_445
Ba1 Mg2 Ba1 77.150(1) 25 25_445
Ba1 Mg2 Ba1 180.0 13_554 25_445
O3 Mg2 Ba1 41.15(2) 29_445 13_544
O3 Mg2 Ba1 138.85(2) 17_554 13_544
O3 Mg2 Ba1 48.63(2) 30_455 13_544
O3 Mg2 Ba1 131.37(2) 18_544 13_544
O3 Mg2 Ba1 98.387(18) 28 13_544
O3 Mg2 Ba1 81.613(18) 16_444 13_544
Ba1 Mg2 Ba1 77.149(1) 13_444 13_544
Ba1 Mg2 Ba1 102.851(1) 25 13_544
Ba1 Mg2 Ba1 77.149(1) 13_554 13_544
Ba1 Mg2 Ba1 102.851(2) 25_445 13_544
O3 Mg2 Ba1 138.85(2) 29_445 25_455
O3 Mg2 Ba1 41.15(2) 17_554 25_455
O3 Mg2 Ba1 131.37(2) 30_455 25_455
O3 Mg2 Ba1 48.63(2) 18_544 25_455
O3 Mg2 Ba1 81.613(18) 28 25_455
O3 Mg2 Ba1 98.387(18) 16_444 25_455
Ba1 Mg2 Ba1 102.851(1) 13_444 25_455
Ba1 Mg2 Ba1 77.149(1) 25 25_455
Ba1 Mg2 Ba1 102.851(2) 13_554 25_455
Ba1 Mg2 Ba1 77.149(1) 25_445 25_455
Ba1 Mg2 Ba1 180.0 13_544 25_455
C4 O3 Mg2 139.14(6) 1_565 16_554
C4 O3 Ba1 100.29(4) 1_565 25_455
Mg2 O3 Ba1 110.13(3) 16_554 25_455
C4 O3 Ba1 88.27(4) 1_565 25_565
Mg2 O3 Ba1 101.23(3) 16_554 25_565
Ba1 O3 Ba1 116.52(2) 25_455 25_565
O3 C4 O3 119.908(6) 2_665 3_455
O3 C4 O3 119.908(6) 2_665 1_545
O3 C4 O3 119.908(5) 3_455 1_545
O3 C4 Ba1 149.00(6) 2_665 25_445
O3 C4 Ba1 68.90(4) 3_455 25_445
O3 C4 Ba1 57.26(4) 1_545 25_445
O3 C4 Ba1 57.26(4) 2_665 25
O3 C4 Ba1 149.00(6) 3_455 25
O3 C4 Ba1 68.90(4) 1_545 25
Ba1 C4 Ba1 99.046(17) 25_445 25
O3 C4 Ba1 68.90(4) 2_665 25_455
O3 C4 Ba1 57.26(4) 3_455 25_455
O3 C4 Ba1 149.00(6) 1_545 25_455
Ba1 C4 Ba1 99.045(17) 25_445 25_455
Ba1 C4 Ba1 99.045(17) 25 25_455
loop_
_geom_bond_atom_site_label_1
_geom_bond_atom_site_label_2
_geom_bond_distance
_geom_bond_site_symmetry_2
Ba1 O3 2.8171(7) 35_445
Ba1 O3 2.8171(7) 26_445
Ba1 O3 2.8172(7) 25_455
Ba1 O3 2.8172(7) 34_545
Ba1 O3 2.8172(7) 36
Ba1 O3 2.8172(7) 27
Ba1 O3 3.0759(8) 27_545
Ba1 O3 3.0759(8) 36_455
Ba1 O3 3.0759(8) 34_655
Ba1 O3 3.0759(8) 25_565
Ba1 O3 3.0759(8) 26_345
Ba1 O3 3.0759(8) 35_435
Mg2 O3 2.0577(6) 29_445
Mg2 O3 2.0577(6) 17_554
Mg2 O3 2.0577(6) 30_455
Mg2 O3 2.0577(6) 18_544
Mg2 O3 2.0578(6) 28
Mg2 O3 2.0578(6) 16_444
Mg2 Ba1 4.02022(7) 13_444
Mg2 Ba1 4.02022(7) 25
Mg2 Ba1 4.02022(7) 13_554
Mg2 Ba1 4.02022(7) 25_445
Mg2 Ba1 4.02024(7) 13_544
Mg2 Ba1 4.02024(7) 25_455
O3 C4 1.2793(6) 1_565
O3 Mg2 2.0578(6) 16_554
O3 Ba1 2.8172(7) 25_455
O3 Ba1 3.0759(8) 25_565
C4 O3 1.2793(6) 2_665
C4 O3 1.2793(6) 3_455
C4 O3 1.2793(6) 1_545
C4 Ba1 3.2955(4) 25_445
C4 Ba1 3.2955(4) 25
C4 Ba1 3.2955(4) 25_455
