#------------------------------------------------------------------------------
#$Date: 2019-12-25 22:26:41 +0200 (Wed, 25 Dec 2019) $
#$Revision: 245891 $
#$URL: file:///home/coder/svn-repositories/cod/cif/2/31/14/2311445.cif $
#------------------------------------------------------------------------------
#
# This file is available in the Crystallography Open Database (COD),
# http://www.crystallography.net/. The original data for this entry
# were provided by IUCr Journals, http://journals.iucr.org/.
#
# The file may be used within the scientific community so long as
# proper attribution is given to the journal article from which the
# data were obtained.
#
data_2311445
loop_
_publ_author_name
'Schwendtner, Karolina'
'Kolitsch, Uwe'
_publ_section_title
;
 <i>M</i>In(HAsO<sub>4</sub>)<sub>2</sub> (<i>M</i> = K, Rb, Cs): three
 new hydrogen-arsenates adopting two different structure types.
;
_journal_coeditor_code           PJ2047
_journal_issue                   'Pt 10'
_journal_name_full
'Acta crystallographica. Section E, Crystallographic communications'
_journal_page_first              1580
_journal_page_last               1586
_journal_paper_doi               10.1107/S205698901701355X
_journal_volume                  73
_journal_year                    2017
_chemical_formula_iupac          'K In (H As O4)2'
_chemical_formula_moiety         'K In (H As O4)2'
_chemical_formula_sum            'As2 H2 In K O8'
_chemical_formula_weight         433.78
_chemical_name_common            'potassium indium bis(hydrogen arsenate)'
_chemical_name_systematic        'Potassium indium bis[hydrogen arsenate(V)]'
_space_group_crystal_system      monoclinic
_space_group_IT_number           15
_space_group_name_Hall           '-C 2yc'
_space_group_name_H-M_alt        'C 1 2/c 1'
_atom_sites_solution_hydrogens   difmap
_atom_sites_solution_primary     direct
_atom_sites_solution_secondary   difmap
_audit_creation_method           SHELXL-2016/6
_cell_angle_alpha                90
_cell_angle_beta                 109.37(3)
_cell_angle_gamma                90
_cell_formula_units_Z            4
_cell_length_a                   8.340(2)
_cell_length_b                   10.657(2)
_cell_length_c                   9.197(2)
_cell_measurement_reflns_used    1474
_cell_measurement_temperature    293(2)
_cell_measurement_theta_max      32.575
_cell_measurement_theta_min      3.441
_cell_volume                     771.2(3)
_computing_cell_refinement
;
SCALEPACK (Otwinowski <i>et al.</i>,  2003)
;
_computing_data_collection
;
COLLECT (Nonius, 2003)
;
_computing_data_reduction
;
DENZO and SCALEPACK (Otwinowski <i>et al.</i>,  2003)
;
_computing_molecular_graphics
;
DIAMOND (Brandenburg, 2005)
;
_computing_publication_material
;
publCIF (Westrip, 2010)
;
_computing_structure_refinement
;
SHELXL2016 (Sheldrick, 2015)
;
_computing_structure_solution
;
SHELXS97 (Sheldrick, 2008)
;
_diffrn_ambient_temperature      293(2)
_diffrn_measured_fraction_theta_full 0.997
_diffrn_measured_fraction_theta_max 0.998
_diffrn_measurement_device_type  'Nonius KappaCCD single-crystal four-circle'
_diffrn_measurement_method       '\f and \w scans'
_diffrn_radiation_type           MoK\a
_diffrn_radiation_wavelength     0.71073
_diffrn_reflns_av_R_equivalents  0.0152
_diffrn_reflns_limit_h_max       12
_diffrn_reflns_limit_h_min       -12
_diffrn_reflns_limit_k_max       16
_diffrn_reflns_limit_k_min       -16
_diffrn_reflns_limit_l_max       13
_diffrn_reflns_limit_l_min       -13
_diffrn_reflns_number            2743
_diffrn_reflns_theta_full        25.242
_diffrn_reflns_theta_max         32.575
_diffrn_reflns_theta_min         3.441
_exptl_absorpt_coefficient_mu    12.128
_exptl_absorpt_correction_T_max  0.7935
_exptl_absorpt_correction_T_min  0.2065
_exptl_absorpt_correction_type   multi-scan
_exptl_absorpt_process_details
;
(SCALEPACK; Otwinowski <i>et al.</i>,  2003)
;
_exptl_crystal_colour            colourless
_exptl_crystal_density_diffrn    3.736
_exptl_crystal_density_method    'not measured'
_exptl_crystal_description       'small prisms'
_exptl_crystal_F_000             800
_exptl_crystal_size_max          0.190
_exptl_crystal_size_mid          0.020
_exptl_crystal_size_min          0.020
_refine_diff_density_max         1.183
_refine_diff_density_min         -0.998
_refine_ls_extinction_coef       0.00181(17)
_refine_ls_extinction_expression Fc^*^=kFc[1+0.001xFc^2^\l^3^/sin(2\q)]^-1/4^
_refine_ls_extinction_method
;
SHELXL2016 (Sheldrick, 2015)
;
_refine_ls_goodness_of_fit_ref   1.094
_refine_ls_hydrogen_treatment    refall
_refine_ls_matrix_type           full
_refine_ls_number_parameters     64
_refine_ls_number_reflns         1406
_refine_ls_number_restraints     1
_refine_ls_restrained_S_all      1.094
_refine_ls_R_factor_all          0.0227
_refine_ls_R_factor_gt           0.0194
_refine_ls_shift/su_max          0.001
_refine_ls_shift/su_mean         0.000
_refine_ls_structure_factor_coef Fsqd
_refine_ls_weighting_details
'w=1/[\s^2^(Fo^2^)+(0.0227P)^2^+1.2908P] where P=(Fo^2^+2Fc^2^)/3'
_refine_ls_weighting_scheme      calc
_refine_ls_wR_factor_gt          0.0452
_refine_ls_wR_factor_ref         0.0460
_reflns_number_gt                1295
_reflns_number_total             1406
_reflns_threshold_expression     'I > 2\s(I)'
_cod_data_source_file            pj2047sup1.cif
_cod_data_source_block           KInHAsO42
_cod_original_sg_symbol_H-M      'C 2/c'
_cod_database_code               2311445
_shelx_space_group_comment
;
The symmetry employed for this shelxl refinement is uniquely defined
by the following loop, which should always be used as a source of
symmetry information in preference to the above space-group names.
They are only intended as comments.
;
_shelx_estimated_absorpt_t_min   0.207
_shelx_estimated_absorpt_t_max   0.793
_shelx_hkl_file
;
   0   0   1    0.00    0.00   1
   0   0   2  593.10    5.60   1
   0   0   3    0.70    0.10   1
   0   0   4  291.00    3.30   1
   0   0   5    0.20    0.20   1
   0   0   6   29.40    0.70   1
   0   0   7    0.60    0.40   1
   0   0   8 1151.30   19.70   1
   0   0   9   -0.80    0.80   1
   0   0  10  431.30   10.90   1
   0   0  11    1.30    1.40   1
   0   0  12   61.30    4.10   1
   0   0  13   -4.10    1.90   1
   0   2   0   20.70    0.60   1
   0  -2   0   19.50    0.80   1
   0   2   1   13.80    0.30   1
   0  -2  -1   14.60    0.30   1
   0   2   2   12.00    0.30   1
   0  -2  -2   12.20    0.30   1
   0   2   3 1238.10   12.70   1
   0  -2  -3 1231.10   12.60   1
   0   2   4  322.80    4.10   1
   0  -2  -4  317.40    3.40   1
   0   2   5 1678.10   18.20   1
   0  -2  -5 1652.40   19.30   1
   0   2   6    4.50    0.40   1
   0  -2  -6    4.60    0.40   1
   0   2   7  113.90    2.20   1
   0  -2  -7  109.40    2.10   1
   0   2   8   11.50    0.70   1
   0  -2  -8    9.50    0.90   1
   0   2   9    9.70    1.10   1
   0  -2  -9    9.30    1.30   1
   0   2  10   16.30    1.40   1
   0  -2 -10   16.90    1.80   1
   0   2  11   29.30    2.50   1
   0  -2 -11   24.00    2.30   1
   0   2  12    8.60    2.00   1
   0  -2 -12   13.20    1.80   1
   0   2  13  346.00   13.10   1
   0  -2 -13  344.30   11.20   1
   0   4   0  705.00   13.70   1
   0  -4   0  692.60   13.80   1
   0   4   1  331.70    3.80   1
   0  -4  -1  327.40    3.60   1
   0   4   2  332.60    4.00   1
   0  -4  -2  327.60    3.40   1
   0   4   3   56.70    1.00   1
   0  -4  -3   57.10    0.80   1
   0   4   4   92.30    1.40   1
   0  -4  -4   92.60    1.20   1
   0   4   5   42.00    0.90   1
   0  -4  -5   44.30    0.80   1
   0   4   6    0.20    0.40   1
   0  -4  -6    1.10    0.60   1
   0   4   7    9.80    0.70   1
   0  -4  -7    9.40    0.60   1
   0   4   8  495.50    8.00   1
   0  -4  -8  508.20    8.10   1
   0   4   9  114.10    2.90   1
   0  -4  -9  110.70    3.30   1
   0   4  10  372.20    8.40   1
   0  -4 -10  360.70    8.60   1
   0   4  11    9.80    1.90   1
   0  -4 -11   12.50    1.70   1
   0   4  12   10.50    2.40   1
   0  -4 -12   14.00    2.20   1
   0   6   0  159.30    3.30   1
   0  -6   0  156.70    2.40   1
   0   6   1  111.90    1.70   1
   0  -6  -1  111.50    1.50   1
   0   6   2   26.90    0.80   1
   0  -6  -2   26.10    0.60   1
   0   6   3  682.50    7.60   1
   0  -6  -3  649.80    6.90   1
   0   6   4  396.70    5.10   1
   0  -6  -4  396.20    4.30   1
   0   6   5 1008.00   13.30   1
   0  -6  -5 1017.50   10.70   1
   0   6   6  248.90    3.80   1
   0  -6  -6  245.30    3.70   1
   0   6   7  145.30    3.10   1
   0  -6  -7  147.20    2.70   1
   0   6   8   45.90    2.00   1
   0  -6  -8   43.90    1.50   1
   0   6   9    0.40    1.00   1
   0  -6  -9    0.80    0.80   1
   0   6  10   12.20    1.50   1
   0  -6 -10   10.40    1.70   1
   0   6  11   53.10    3.60   1
   0  -6 -11   61.40    3.40   1
   0   6  12   25.70    3.10   1
   0  -6 -12   25.90    2.70   1
   0   8   0 1256.70   19.40   1
   0  -8   0 1199.60   16.60   1
   0   8   1  515.60    6.30   1
   0  -8  -1  511.30    6.10   1
   0   8   2  218.50    3.30   1
   0  -8  -2  214.40    2.80   1
   0   8   3    2.60    0.60   1
   0  -8  -3    2.40    0.40   1
   0   8   4  154.40    3.30   1
   0  -8  -4  159.00    2.40   1
   0   8   5  110.10    2.50   1
   0  -8  -5  113.30    2.20   1
   0   8   6   36.80    1.50   1
   0  -8  -6   38.30    1.20   1
   0   8   7   69.20    2.30   1
   0  -8  -7   67.80    2.20   1
   0   8   8  335.10    8.30   1
   0  -8  -8  346.20    7.40   1
   0   8   9  288.20    7.80   1
   0  -8  -9  298.30    6.90   1
   0   8  10  112.40    4.60   1
   0  -8 -10  114.40    4.80   1
   0   8  11   39.50    3.80   1
   0  -8 -11   38.70    3.80   1
   0  10   0   68.30    2.10   1
   0 -10   0   70.00    2.80   1
   0  10   1   26.80    1.10   1
   0 -10  -1   29.20    1.00   1
   0  10   2    0.80    0.50   1
   0 -10  -2   -0.10    0.40   1
   0  10   3   99.20    2.90   1
   0 -10  -3  102.40    2.20   1
   0  10   4  555.00   13.80   1
   0 -10  -4  581.80    9.70   1
   0  10   5  108.70    4.10   1
   0 -10  -5  106.30    2.70   1
   0  10   6  106.40    4.40   1
   0 -10  -6  114.40    3.40   1
   0  10   7   29.80    1.90   1
   0 -10  -7   32.30    1.60   1
   0  10   8    7.20    1.50   1
   0 -10  -8    3.50    1.20   1
   0  10   9   36.60    2.70   1
   0 -10  -9   40.00    2.70   1
   0  10  10   24.90    3.10   1
   0 -10 -10   25.80    3.30   1
   0  12   0   32.10    2.20   1
   0 -12   0   34.90    2.80   1
   0  12   1  343.90    7.50   1
   0 -12  -1  337.80    7.20   1
   0  12   2   38.10    1.80   1
   0 -12  -2   39.80    1.90   1
   0  12   3    3.10    1.10   1
   0 -12  -3    2.60    1.00   1
   0  12   4   62.80    2.90   1
   0 -12  -4   71.50    2.60   1
   0  12   5   25.40    2.00   1
   0 -12  -5   26.30    1.80   1
   0  12   6   41.90    2.80   1
   0 -12  -6   54.50    2.50   1
   0  12   7   26.20    2.50   1
   0 -12  -7   31.20    2.30   1
   0  12   8   22.90    2.90   1
   0 -12  -8   24.60    3.90   1
   0  14   0    6.60    2.00   1
   0 -14   0    8.50    2.60   1
   0  14   1  151.00    4.20   1
   0 -14  -1  149.90    4.70   1
   0  14   2   26.40    1.90   1
   0 -14  -2   28.00    2.10   1
   0  14   3   36.10    2.70   1
   0 -14  -3   34.20    2.50   1
   0  14   4  298.90   11.00   1
   0 -14  -4  303.50   11.00   1
   0  14   5   15.30    2.60   1
   0 -14  -5   13.90    2.20   1
   0  14   6  102.80    5.60   1
   0 -14  -6  119.40    6.00   1
   0  16   0    1.80    3.90   1
   0 -16   0    4.70    3.80   1
   0  16   1  161.70    9.80   1
   0 -16  -1  145.50    8.30   1
   1   1 -13  103.50    5.60   1
  -1  -1  13  106.20    5.40   1
   1   1 -12    6.70    1.80   1
  -1  -1  12    6.70    1.80   1
   1   1 -11  324.20    9.30   1
  -1  -1  11  332.20    9.20   1
   1   1 -10    9.80    1.40   1
  -1  -1  10   11.00    1.40   1
   1   1  -9   40.00    2.10   1
  -1  -1   9   46.10    1.90   1
   1   1  -8  668.70   14.40   1
  -1  -1   8  687.20   11.20   1
   1   1  -7   17.50    0.90   1
  -1  -1   7   17.10    0.80   1
   1   1  -6  557.10    7.20   1
  -1  -1   6  575.60    7.40   1
   1   1  -5  125.60    1.70   1
  -1  -1   5  124.10    1.60   1
   1   1  -4  236.20    2.90   1
  -1  -1   4  239.90    2.80   1
   1   1  -3 1816.20   20.50   1
  -1  -1   3 1820.90   19.40   1
   1   1  -2  109.20    1.30   1
  -1  -1   2  108.20    1.30   1
   1   1  -1  742.80    7.30   1
  -1  -1   1  760.70    8.30   1
   1   1   0  393.00    6.20   1
  -1  -1   0  390.80    7.00   1
   1   1   1  152.00    1.60   1
  -1  -1  -1  155.00    1.90   1
   1   1   2 1950.90   20.70   1
  -1  -1  -2 1936.80   20.60   1
   1   1   3   14.80    0.40   1
  -1  -1  -3   15.20    0.40   1
   1   1   4  310.80    3.30   1
  -1  -1  -4  312.80    3.80   1
   1   1   5  642.50    6.70   1
  -1  -1  -5  635.30    7.00   1
   1   1   6  105.40    1.50   1
  -1  -1  -6  107.30    1.60   1
   1   1   7  355.70    5.50   1
  -1  -1  -7  351.60    6.00   1
   1   1   8    7.80    0.50   1
  -1  -1  -8    6.30    0.60   1
   1   1   9   79.20    2.60   1
  -1  -1  -9   81.90    2.70   1
   1   1  10  136.20    4.90   1
  -1  -1 -10  129.40    4.90   1
   1   1  11    4.00    1.60   1
  -1  -1 -11    4.80    1.40   1
   1   1  12  169.00    6.20   1
  -1  -1 -12  170.30    6.30   1
   1   3 -13  114.80    5.90   1
  -1  -3  13  115.80    6.20   1
   1   3 -12   16.60    2.20   1
  -1  -3  12   13.70    1.90   1
   1   3 -11  197.80    5.50   1
  -1  -3  11  194.20    6.50   1
   1   3 -10    7.10    1.40   1
  -1  -3  10    7.80    1.40   1
   1   3  -9   16.10    1.60   1
  -1  -3   9   15.90    1.30   1
   1   3  -8  240.30    6.00   1
  -1  -3   8  229.20    4.50   1
   1   3  -7  313.10    4.70   1
  -1  -3   7  304.80    4.60   1
   1   3  -6  237.90    3.30   1
  -1  -3   6  238.30    2.90   1
   1   3  -5  100.70    1.60   1
  -1  -3   5  101.20    1.40   1
   1   3  -4   47.20    0.90   1
  -1  -3   4   47.60    0.80   1
   1   3  -3  529.40    6.40   1
  -1  -3   3  534.90    5.80   1
   1   3  -2    5.20    0.30   1
  -1  -3   2    5.10    0.30   1
   1   3  -1 1355.50   12.70   1
  -1  -3   1 1369.90   13.40   1
   1   3   0  751.30    8.80   1
  -1  -3   0  740.60   10.90   1
   1   3   1  439.30    4.40   1
  -1  -3  -1  437.10    5.00   1
   1   3   2  298.30    3.30   1
  -1  -3  -2  302.10    3.40   1
   1   3   3   15.00    0.40   1
  -1  -3  -3   15.00    0.50   1
   1   3   4  537.80    5.50   1
  -1  -3  -4  533.80    6.30   1
   1   3   5  349.70    3.90   1
  -1  -3  -5  341.00    4.30   1
   1   3   6   32.30    0.80   1
  -1  -3  -6   32.70    1.00   1
   1   3   7  841.20   10.90   1
  -1  -3  -7  809.80   11.90   1
   1   3   8   66.10    1.90   1
  -1  -3  -8   65.70    1.70   1
   1   3   9   16.90    1.00   1
  -1  -3  -9   16.30    1.40   1
   1   3  10  180.40    6.00   1
  -1  -3 -10  177.50    5.00   1
   1   3  11   10.50    1.90   1
  -1  -3 -11   13.90    1.90   1
   1   3  12  143.90    6.50   1
  -1  -3 -12  155.30    6.00   1
   1   5 -12   37.90    3.40   1
  -1  -5  12   38.60    2.90   1
   1   5 -11   25.40    2.20   1
  -1  -5  11   29.60    2.30   1
   1   5 -10    8.10    1.30   1
  -1  -5  10    7.20    1.50   1
   1   5  -9  177.10    4.60   1
  -1  -5   9  179.00    4.80   1
   1   5  -8  355.00    6.70   1
  -1  -5   8  361.50    6.00   1
   1   5  -7   16.20    0.90   1
  -1  -5   7   15.60    0.60   1
   1   5  -6  529.60    6.70   1
  -1  -5   6  530.40    6.20   1
   1   5  -5  342.80    4.60   1
  -1  -5   5  344.60    3.80   1
   1   5  -4   45.40    1.00   1
  -1  -5   4   44.90    0.80   1
   1   5  -3  192.70    2.80   1
  -1  -5   3  190.10    2.10   1
   1   5  -2  365.90    4.50   1
  -1  -5   2  364.20    3.90   1
   1   5  -1  473.60    5.60   1
  -1  -5   1  467.70    5.00   1
   1   5   0  339.10    4.00   1
  -1  -5   0  342.40    3.80   1
   1   5   1  106.60    1.50   1
  -1  -5  -1  109.80    1.50   1
   1   5   2  930.90    9.50   1
  -1  -5  -2  921.60    9.90   1
   1   5   3  441.10    4.90   1
  -1  -5  -3  435.30    5.10   1
   1   5   4  306.60    3.70   1
  -1  -5  -4  316.80    4.10   1
   1   5   5   87.60    1.60   1
  -1  -5  -5   86.50    1.60   1
   1   5   6  145.20    2.70   1
  -1  -5  -6  142.90    2.40   1
   1   5   7  281.50    4.70   1
  -1  -5  -7  279.30    4.70   1
   1   5   8    2.30    0.70   1
  -1  -5  -8    5.10    1.00   1
   1   5   9   59.20    2.50   1
  -1  -5  -9   59.60    2.70   1
   1   5  10  208.20    6.90   1
  -1  -5 -10  203.70    6.10   1
   1   5  11   51.80    3.60   1
  -1  -5 -11   47.70    3.00   1
   1   5  12  195.40    8.80   1
  -1  -5 -12  192.80    7.40   1
   1   7 -12  107.20    6.10   1
  -1  -7  12  115.60    5.20   1
   1   7 -11  225.80    7.70   1
  -1  -7  11  236.80    7.80   1
   1   7 -10  144.20    4.80   1
  -1  -7  10  153.70    4.90   1
   1   7  -9    4.70    1.30   1
  -1  -7   9    4.60    1.00   1
   1   7  -8  138.00    4.00   1
  -1  -7   8  136.20    3.10   1
   1   7  -7   91.20    2.30   1
  -1  -7   7   88.80    2.20   1
   1   7  -6  124.80    2.90   1
  -1  -7   6  125.80    2.20   1
   1   7  -5    4.70    0.60   1
  -1  -7   5    4.60    0.40   1
   1   7  -4  570.30    7.80   1
  -1  -7   4  548.90    5.80   1
   1   7  -3 1254.20   14.50   1
  -1  -7   3 1216.60   11.50   1
   1   7  -2  412.20    5.00   1
  -1  -7   2  410.60    4.50   1
   1   7  -1  205.00    3.00   1
  -1  -7   1  201.10    2.70   1
   1   7   0  457.60    5.50   1
  -1  -7   0  445.40    5.40   1
   1   7   1   33.50    0.80   1
  -1  -7  -1   35.30    0.90   1
   1   7   2   88.60    1.60   1
  -1  -7  -2   88.40    1.50   1
   1   7   3  167.00    2.80   1
  -1  -7  -3  167.70    2.60   1
   1   7   4  256.30    4.30   1
  -1  -7  -4  257.30    4.10   1
   1   7   5  199.40    3.60   1
  -1  -7  -5  198.10    3.10   1
   1   7   6  118.70    2.60   1
  -1  -7  -6  123.10    2.30   1
   1   7   7  318.30    6.60   1
  -1  -7  -7  313.20    6.50   1
   1   7   8  186.30    5.20   1
  -1  -7  -8  181.60    5.20   1
   1   7   9    5.80    1.30   1
  -1  -7  -9    6.40    1.50   1
   1   7  10    9.40    1.90   1
  -1  -7 -10    8.60    1.70   1
   1   7  11   92.30    6.70   1
  -1  -7 -11   93.40    5.50   1
   1   9 -11   16.10    2.40   1
  -1  -9  11   15.00    2.20   1
   1   9 -10    6.00    1.70   1
  -1  -9  10    5.00    1.70   1
   1   9  -9   81.90    3.40   1
  -1  -9   9   84.30    3.10   1
   1   9  -8  178.50    4.80   1
  -1  -9   8  180.00    4.10   1
   1   9  -7  359.80   10.10   1
  -1  -9   7  373.50    6.80   1
   1   9  -6  183.90    5.70   1
  -1  -9   6  189.50    4.30   1
   1   9  -5  163.00    4.30   1
  -1  -9   5  171.10    3.80   1
   1   9  -4   15.50    1.20   1
  -1  -9   4   13.90    0.80   1
   1   9  -3   27.40    1.10   1
  -1  -9   3   26.60    0.90   1
   1   9  -2  170.20    2.90   1
  -1  -9   2  168.10    2.60   1
   1   9  -1  101.60    1.90   1
  -1  -9   1  101.60    1.60   1
   1   9   0   45.90    1.30   1
  -1  -9   0   45.00    1.20   1
   1   9   1  475.50    6.30   1
  -1  -9  -1  472.80    7.30   1
   1   9   2  449.70    6.50   1
  -1  -9  -2  447.40    6.80   1
   1   9   3  305.60    6.60   1
  -1  -9  -3  319.20    5.60   1
   1   9   4   30.30    1.40   1
  -1  -9  -4   28.70    1.30   1
   1   9   5  121.80    3.70   1
  -1  -9  -5  134.40    3.10   1
   1   9   6   88.90    2.90   1
  -1  -9  -6   89.90    2.80   1
   1   9   7    5.30    1.00   1
  -1  -9  -7    4.40    0.90   1
   1   9   8   15.50    1.80   1
  -1  -9  -8   21.70    1.50   1
   1   9   9  107.00    5.30   1
  -1  -9  -9  109.10    4.50   1
   1   9  10   76.00    6.00   1
  -1  -9 -10   69.40    4.50   1
   1  11  -9    0.20    1.80   1
  -1 -11   9    1.70    1.50   1
   1  11  -8    4.10    1.50   1
  -1 -11   8    4.90    1.40   1
   1  11  -7   75.10    3.40   1
  -1 -11   7   83.90    2.80   1
   1  11  -6    1.00    1.20   1
  -1 -11   6    1.40    0.90   1
   1  11  -5   -0.70    1.30   1
  -1 -11   5   -0.40    0.90   1
   1  11  -4  278.20    7.00   1
  -1 -11   4  271.80    5.40   1
   1  11  -3   86.00    2.70   1
  -1 -11   3   88.70    2.70   1
   1  11  -2  373.50    6.90   1
  -1 -11   2  357.80    7.20   1
   1  11  -1   79.90    2.30   1
  -1 -11   1   82.00    2.50   1
   1  11   0  111.20    2.60   1
  -1 -11   0  111.50    2.50   1
   1  11   1   89.00    2.60   1
  -1 -11  -1   83.50    2.40   1
   1  11   2    0.50    0.60   1
  -1 -11  -2   -0.40    0.70   1
   1  11   3   34.70    1.90   1
  -1 -11  -3   30.90    1.60   1
   1  11   4   89.20    3.30   1
  -1 -11  -4   94.40    2.70   1
   1  11   5   39.20    2.30   1
  -1 -11  -5   42.60    1.90   1
   1  11   6  307.40    9.80   1
  -1 -11  -6  320.10    7.60   1
   1  11   7  115.10    4.60   1
  -1 -11  -7  116.90    4.00   1
   1  11   8  207.40    8.70   1
  -1 -11  -8  204.20    7.00   1
   1  11   9   -1.10    2.50   1
  -1 -11  -9    0.60    2.80   1
   1  13  -8   11.50    2.70   1
  -1 -13   8   14.50    3.00   1
   1  13  -7  243.70    9.50   1
  -1 -13   7  270.60    8.70   1
   1  13  -6   14.80    2.30   1
  -1 -13   6   19.70    1.90   1
   1  13  -5  167.20    5.80   1
  -1 -13   5  166.00    4.90   1
   1  13  -4    6.80    1.70   1
  -1 -13   4    7.90    1.50   1
   1  13  -3   -0.70    1.00   1
  -1 -13   3    0.40    1.10   1
   1  13  -2   28.10    1.80   1
  -1 -13   2   27.90    1.90   1
   1  13  -1   28.80    1.80   1
  -1 -13   1   30.00    2.00   1
   1  13   0    1.60    1.00   1
  -1 -13   0    2.30    1.30   1
   1  13   1  340.70    7.00   1
  -1 -13  -1  327.20    8.20   1
   1  13   2   48.10    2.60   1
  -1 -13  -2   51.40    2.60   1
   1  13   3  377.20   11.80   1
  -1 -13  -3  380.30   10.90   1
   1  13   4    1.30    2.00   1
  -1 -13  -4    1.50    1.50   1
   1  13   5   10.20    2.30   1
  -1 -13  -5   13.10    1.80   1
   1  13   6   18.50    2.70   1
  -1 -13  -6   17.50    2.60   1
   1  13   7    2.10    2.10   1
  -1 -13  -7   -0.10    2.70   1
   1  15  -5   -2.00    2.00   1
  -1 -15   5    0.30    2.10   1
   1  15  -4  212.60    9.10   1
  -1 -15   4  211.10    8.50   1
   1  15  -3    7.90    1.80   1
  -1 -15   3    9.20    2.10   1
   1  15  -2  354.10   10.90   1
  -1 -15   2  326.50    9.80   1
   1  15  -1    0.80    1.70   1
  -1 -15   1    0.60    1.70   1
   1  15   0   83.80    4.30   1
  -1 -15   0   74.40    4.30   1
   1  15   1    5.70    2.00   1
  -1 -15  -1    8.60    2.10   1
   1  15   2    2.70    1.80   1
  -1 -15  -2    7.10    2.10   1
   1  15   3    4.50    2.90   1
  -1 -15  -3    8.50    2.60   1
   1  15   4   49.20    4.10   1
  -1 -15  -4   54.30    4.10   1
   2   0 -13   -1.40    1.70   1
   2   0 -12  154.40    5.80   1
   2   0 -11    0.10    1.50   1
   2   0 -10    5.80    1.40   1
   2   0  -9    0.40    0.70   1
   2   0  -8   21.80    1.10   1
   2   0  -7    0.30    0.30   1
   2   0  -6 1552.80   17.10   1
   2   0  -5    0.20    0.30   1
   2   0  -4  945.70   10.40   1
   2   0  -3    0.10    0.20   1
   2   0  -2   87.20    1.20   1
   2   0  -1    0.70    0.10   1
   2   0   0  446.10    5.10   1
   2   0   1    0.30    0.20   1
   2   0   2  146.50    1.90   1
   2   0   3   -0.10    0.20   1
   2   0   4 1582.30   17.30   1
   2   0   5    0.50    0.10   1
   2   0   6  184.20    2.90   1
   2   0   7    0.10    0.40   1
   2   0   8   60.10    1.70   1
   2   0   9   -1.40    0.60   1
   2   0  10   -0.90    1.10   1
   2   0  11    1.60    1.60   1
   2   0  12  184.60    7.00   1
   2   2 -13   -2.00    1.80   1
  -2  -2  13    2.90    1.60   1
   2   2 -12    4.90    1.80   1
  -2  -2  12    4.90    2.00   1
   2   2 -11  265.90    7.90   1
  -2  -2  11  268.80    7.80   1
   2   2 -10   74.60    3.10   1
  -2  -2  10   74.80    2.60   1
   2   2  -9  906.60   16.70   1
  -2  -2   9  911.20   15.10   1
   2   2  -8    2.80    0.80   1
  -2  -2   8    2.20    0.60   1
   2   2  -7   67.10    1.40   1
  -2  -2   7   69.50    1.40   1
   2   2  -6    0.10    0.20   1
  -2  -2   6    0.20    0.30   1
   2   2  -5    5.60    0.20   1
  -2  -2   5    5.60    0.30   1
   2   2  -4   33.70    0.60   1
  -2  -2   4   33.20    0.70   1
   2   2  -3  201.60    2.30   1
  -2  -2   3  202.30    2.40   1
   2   2  -2   67.10    0.90   1
  -2  -2   2   66.70    0.90   1
   2   2  -1 2841.20   27.00   1
  -2  -2   1 2778.30   26.40   1
   2   2   0   29.00    0.50   1
  -2  -2   0   28.10    0.50   1
   2   2   1 1407.50   14.40   1
  -2  -2  -1 1383.90   16.90   1
   2   2   2  130.80    1.60   1
  -2  -2  -2  129.50    1.70   1
   2   2   3   23.50    0.60   1
  -2  -2  -3   23.40    0.60   1
   2   2   4  143.30    1.80   1
  -2  -2  -4  144.50    2.30   1
   2   2   5    8.20    0.40   1
  -2  -2  -5    6.90    0.50   1
   2   2   6   20.70    0.60   1
  -2  -2  -6   20.70    0.90   1
   2   2   7  597.30    8.60   1
  -2  -2  -7  588.80    9.00   1
   2   2   8   25.00    1.10   1
  -2  -2  -8   25.20    1.10   1
   2   2   9  602.00   12.60   1
  -2  -2  -9  589.20   12.60   1
   2   2  10    5.90    1.40   1
  -2  -2 -10    8.40    1.60   1
   2   2  11   79.00    3.80   1
  -2  -2 -11   76.30    3.70   1
   2   2  12   -1.10    2.00   1
  -2  -2 -12    2.00    2.10   1
   2   4 -13   36.70    3.40   1
  -2  -4  13   37.70    3.50   1
   2   4 -12  108.00    4.50   1
  -2  -4  12  104.70    5.10   1
   2   4 -11    1.60    1.60   1
  -2  -4  11   -0.20    1.30   1
   2   4 -10   20.30    1.90   1
  -2  -4  10   20.80    1.80   1
   2   4  -9   30.90    2.00   1
  -2  -4   9   32.30    1.20   1
   2   4  -8   77.80    2.10   1
  -2  -4   8   72.70    1.70   1
   2   4  -7   55.70    1.20   1
  -2  -4   7   54.00    1.30   1
   2   4  -6  604.20    7.30   1
  -2  -4   6  594.20    6.30   1
   2   4  -5  304.90    3.90   1
  -2  -4   5  297.00    3.40   1
   2   4  -4 2481.40   25.30   1
  -2  -4   4 2469.00   25.00   1
   2   4  -3   45.90    0.80   1
  -2  -4   3   45.30    0.80   1
   2   4  -2    0.80    0.20   1
  -2  -4   2    0.10    0.20   1
   2   4  -1    9.70    0.30   1
  -2  -4   1   10.80    0.30   1
   2   4   0  313.70    3.30   1
  -2  -4   0  305.00    3.70   1
   2   4   1   51.00    0.80   1
  -2  -4  -1   49.10    1.00   1
   2   4   2  567.30    5.70   1
  -2  -4  -2  570.10    7.10   1
   2   4   3  303.80    3.20   1
  -2  -4  -3  306.00    3.80   1
   2   4   4 2255.60   21.30   1
  -2  -4  -4 2183.60   23.60   1
   2   4   5  173.00    2.50   1
  -2  -4  -5  168.10    2.70   1
   2   4   6  330.50    4.50   1
  -2  -4  -6  321.50    6.60   1
   2   4   7    0.50    0.50   1
  -2  -4  -7    1.20    0.70   1
   2   4   8   42.40    1.60   1
  -2  -4  -8   43.20    2.00   1
   2   4   9   18.70    1.40   1
  -2  -4  -9   18.90    1.60   1
   2   4  10    3.90    1.50   1
  -2  -4 -10    3.40    1.50   1
   2   4  11    7.60    1.80   1
  -2  -4 -11    8.40    1.50   1
   2   6 -12   18.80    2.20   1
  -2  -6  12   14.50    2.10   1
   2   6 -11  150.70    5.10   1
  -2  -6  11  144.80    4.90   1
   2   6 -10  117.20    4.00   1
  -2  -6  10  109.40    4.40   1
   2   6  -9  462.70    9.90   1
  -2  -6   9  460.50    8.90   1
   2   6  -8  209.70    5.90   1
  -2  -6   8  213.60    4.20   1
   2   6  -7   92.10    2.00   1
  -2  -6   7   94.40    2.10   1
   2   6  -6   98.10    2.20   1
  -2  -6   6   95.70    1.80   1
   2   6  -5    1.10    0.40   1
  -2  -6   5    0.50    0.30   1
   2   6  -4   13.30    0.60   1
  -2  -6   4   12.80    0.50   1
   2   6  -3   96.90    1.50   1
  -2  -6   3   96.20    1.50   1
   2   6  -2  129.10    1.70   1
  -2  -6   2  131.20    1.80   1
   2   6  -1 1244.70   12.60   1
  -2  -6   1 1236.60   15.70   1
   2   6   0  826.40    7.90   1
  -2  -6   0  803.00   10.60   1
   2   6   1  359.50    3.60   1
  -2  -6  -1  359.60    5.00   1
   2   6   2    8.60    0.30   1
  -2  -6  -2    8.70    0.50   1
   2   6   3    6.50    0.40   1
  -2  -6  -3    6.90    0.50   1
   2   6   4   34.30    0.90   1
  -2  -6  -4   35.00    0.90   1
   2   6   5    4.40    0.50   1
  -2  -6  -5    4.40    0.40   1
   2   6   6    7.30    0.60   1
  -2  -6  -6    7.00    0.60   1
   2   6   7  160.30    4.30   1
  -2  -6  -7  161.30    4.40   1
   2   6   8  227.80    5.20   1
  -2  -6  -8  219.40    5.90   1
   2   6   9  317.20    9.10   1
  -2  -6  -9  316.40    8.10   1
   2   6  10   38.40    2.90   1
  -2  -6 -10   41.90    2.70   1
   2   6  11   28.90    3.10   1
  -2  -6 -11   28.90    3.20   1
   2   8 -11    7.50    2.00   1
  -2  -8  11    7.00    1.80   1
   2   8 -10   18.90    1.90   1
  -2  -8  10   18.70    1.80   1
   2   8  -9   26.90    1.90   1
  -2  -8   9   27.60    2.00   1
   2   8  -8   48.20    2.30   1
  -2  -8   8   45.30    1.60   1
   2   8  -7   21.30    1.80   1
  -2  -8   7   21.50    1.10   1
   2   8  -6  327.60    6.40   1
  -2  -8   6  327.00    5.50   1
   2   8  -5  586.00   10.00   1
  -2  -8   5  568.00    7.60   1
   2   8  -4  276.60    4.90   1
  -2  -8   4  276.20    3.80   1
   2   8  -3   79.30    1.60   1
  -2  -8   3   77.00    1.40   1
   2   8  -2   60.40    1.30   1
  -2  -8   2   65.30    1.40   1
   2   8  -1  182.20    2.90   1
  -2  -8   1  181.70    2.80   1
   2   8   0    2.20    0.50   1
  -2  -8   0    2.30    0.60   1
   2   8   1    3.50    0.40   1
  -2  -8  -1    2.80    0.40   1
   2   8   2  132.70    2.40   1
  -2  -8  -2  129.70    2.60   1
   2   8   3  295.60    5.60   1
  -2  -8  -3  305.00    4.80   1
   2   8   4  259.80    5.20   1
  -2  -8  -4  265.70    5.40   1
   2   8   5  281.70    4.90   1
  -2  -8  -5  277.80    5.90   1
   2   8   6   79.20    2.50   1
  -2  -8  -6   75.20    2.50   1
   2   8   7    0.60    0.80   1
  -2  -8  -7   -0.20    1.00   1
   2   8   8    0.20    1.00   1
  -2  -8  -8    1.70    1.00   1
   2   8   9   47.50    4.40   1
  -2  -8  -9   36.90    3.60   1
   2   8  10    7.80    2.80   1
  -2  -8 -10    9.30    2.80   1
   2  10 -10  225.20    8.20   1
  -2 -10  10  228.10    7.90   1
   2  10  -9   98.60    4.40   1
  -2 -10   9   86.00    3.50   1
   2  10  -8  106.70    3.60   1
  -2 -10   8  110.80    3.50   1
   2  10  -7   39.50    2.30   1
  -2 -10   7   37.60    1.70   1
   2  10  -6   16.90    1.60   1
  -2 -10   6   18.60    1.20   1
   2  10  -5   86.50    3.10   1
  -2 -10   5   85.90    2.10   1
   2  10  -4   43.70    1.90   1
  -2 -10   4   42.00    1.20   1
   2  10  -3  112.90    2.70   1
  -2 -10   3  110.30    2.30   1
   2  10  -2  283.40    4.70   1
  -2 -10   2  289.70    4.70   1
   2  10  -1  249.70    5.30   1
  -2 -10   1  251.70    4.70   1
   2  10   0  573.30    9.00   1
  -2 -10   0  569.60   10.20   1
   2  10   1  206.40    4.00   1
  -2 -10  -1  208.30    4.00   1
   2  10   2   28.90    1.40   1
  -2 -10  -2   31.90    1.30   1
   2  10   3  119.40    3.10   1
  -2 -10  -3  117.30    3.20   1
   2  10   4   60.70    2.60   1
  -2 -10  -4   69.80    2.40   1
   2  10   5   48.30    2.50   1
  -2 -10  -5   55.80    2.30   1
   2  10   6    9.70    1.50   1
  -2 -10  -6    9.80    1.40   1
   2  10   7  154.80    6.10   1
  -2 -10  -7  153.80    5.40   1
   2  10   8  217.90    8.90   1
  -2 -10  -8  235.50    7.80   1
   2  10   9   70.60    6.00   1
  -2 -10  -9   63.20    4.50   1
   2  12  -9    8.40    2.30   1
  -2 -12   9    2.90    1.80   1
   2  12  -8   54.60    3.20   1
  -2 -12   8   63.20    3.50   1
   2  12  -7   75.40    3.90   1
  -2 -12   7   75.60    3.30   1
   2  12  -6   30.10    2.40   1
  -2 -12   6   29.50    2.00   1
   2  12  -5  407.90   10.30   1
  -2 -12   5  418.00    9.00   1
   2  12  -4   73.00    3.30   1
  -2 -12   4   73.60    2.80   1
   2  12  -3   84.60    3.00   1
  -2 -12   3   85.80    2.90   1
   2  12  -2   67.70    2.50   1
  -2 -12   2   72.80    2.60   1
   2  12  -1   14.10    1.20   1
  -2 -12   1   16.60    1.30   1
   2  12   0  180.90    4.60   1
  -2 -12   0  179.00    4.40   1
   2  12   1    2.20    0.70   1
  -2 -12  -1    3.20    1.00   1
   2  12   2   59.70    2.70   1
  -2 -12  -2   63.90    3.00   1
   2  12   3  334.50   10.30   1
  -2 -12  -3  328.80   11.50   1
   2  12   4   88.60    4.30   1
  -2 -12  -4   92.80    4.30   1
   2  12   5  197.10    7.30   1
  -2 -12  -5  228.80    6.70   1
   2  12   6   31.30    3.10   1
  -2 -12  -6   31.40    2.50   1
   2  12   7    2.90    2.20   1
  -2 -12  -7    0.60    1.80   1
   2  14  -6    9.00    2.10   1
  -2 -14   6    5.60    1.90   1
   2  14  -5   96.00    4.60   1
  -2 -14   5   94.10    3.90   1
   2  14  -4    0.20    1.40   1
  -2 -14   4    0.00    1.20   1
   2  14  -3   36.30    2.30   1
  -2 -14   3   38.50    2.20   1
   2  14  -2   97.70    3.30   1
  -2 -14   2  104.20    3.60   1
   2  14  -1    4.50    1.70   1
  -2 -14   1    2.00    1.60   1
   2  14   0  322.20    9.10   1
  -2 -14   0  309.50    9.60   1
   2  14   1    5.50    1.70   1
  -2 -14  -1    3.10    1.70   1
   2  14   2    8.40    1.90   1
  -2 -14  -2    9.30    2.10   1
   2  14   3   45.50    3.80   1
  -2 -14  -3   48.50    3.60   1
   2  14   4   10.30    2.60   1
  -2 -14  -4    6.10    2.20   1
   2  14   5   52.50    5.00   1
  -2 -14  -5   52.60    3.90   1
   3   1 -13   11.10    2.50   1
  -3  -1  13    8.10    2.50   1
   3   1 -12  283.20    8.90   1
  -3  -1  12  282.40    8.70   1
   3   1 -11   15.30    1.60   1
  -3  -1  11   12.10    1.60   1
   3   1 -10   87.80    2.90   1
  -3  -1  10   91.30    2.90   1
   3   1  -9  333.00    7.00   1
  -3  -1   9  345.80    6.90   1
   3   1  -8   80.70    2.20   1
  -3  -1   8   84.90    2.30   1
   3   1  -7  208.30    3.90   1
  -3  -1   7  205.60    3.40   1
   3   1  -6    0.30    0.20   1
  -3  -1   6    0.10    0.40   1
   3   1  -5  241.10    3.10   1
  -3  -1   5  241.90    2.90   1
   3   1  -4  877.60    9.80   1
  -3  -1   4  876.90    9.80   1
   3   1  -3  340.50    4.00   1
  -3  -1   3  342.50    3.90   1
   3   1  -2  355.90    4.10   1
  -3  -1   2  352.60    4.00   1
   3   1  -1  381.10    3.70   1
  -3  -1   1  378.10    3.80   1
   3   1   0   48.00    0.70   1
  -3  -1   0   48.90    0.70   1
   3   1   1  279.80    3.00   1
  -3  -1  -1  279.90    3.20   1
   3   1   2  218.10    2.30   1
  -3  -1  -2  213.70    2.70   1
   3   1   3  728.20    7.90   1
  -3  -1  -3  733.60    8.90   1
   3   1   4  128.90    1.80   1
  -3  -1  -4  126.50    2.10   1
   3   1   5   14.70    0.60   1
  -3  -1  -5   15.20    0.70   1
   3   1   6  627.30    8.40   1
  -3  -1  -6  624.10    9.00   1
   3   1   7    7.50    0.70   1
  -3  -1  -7    8.00    0.70   1
   3   1   8  135.10    3.10   1
  -3  -1  -8  132.60    3.10   1
   3   1   9   88.90    2.80   1
  -3  -1  -9   85.80    3.20   1
   3   1  10   14.60    1.90   1
  -3  -1 -10   11.70    1.80   1
   3   1  11  191.50    6.90   1
  -3  -1 -11  196.10    7.00   1
   3   3 -13    7.50    2.10   1
  -3  -3  13    7.60    2.00   1
   3   3 -12  148.60    6.20   1
  -3  -3  12  157.70    6.10   1
   3   3 -11    2.90    1.60   1
  -3  -3  11    2.80    1.20   1
   3   3 -10  102.40    3.30   1
  -3  -3  10  106.50    3.30   1
   3   3  -9  228.30    5.30   1
  -3  -3   9  229.80    4.40   1
   3   3  -8   93.70    2.00   1
  -3  -3   8   92.20    2.00   1
   3   3  -7 1097.90   15.80   1
  -3  -3   7 1106.50   15.60   1
   3   3  -6  124.10    1.80   1
  -3  -3   6  125.30    2.00   1
   3   3  -5   33.10    0.70   1
  -3  -3   5   34.10    0.80   1
   3   3  -4  891.20    9.50   1
  -3  -3   4  880.10    9.40   1
   3   3  -3   12.10    0.40   1
  -3  -3   3   12.10    0.40   1
   3   3  -2 1124.90   11.70   1
  -3  -3   2 1127.70   11.30   1
   3   3  -1  101.60    1.30   1
  -3  -3   1  105.10    1.50   1
   3   3   0  335.80    4.10   1
  -3  -3   0  323.50    3.70   1
   3   3   1 1660.70   18.20   1
  -3  -3  -1 1630.30   22.00   1
   3   3   2   77.60    1.10   1
  -3  -3  -2   76.20    1.40   1
   3   3   3  617.80    6.30   1
  -3  -3  -3  620.80    7.70   1
   3   3   4  497.10    5.90   1
  -3  -3  -4  504.00    7.10   1
   3   3   5    6.30    0.50   1
  -3  -3  -5    7.10    0.70   1
   3   3   6  227.90    3.30   1
  -3  -3  -6  227.70    4.10   1
   3   3   7   48.10    1.50   1
  -3  -3  -7   49.10    1.90   1
   3   3   8  176.90    3.80   1
  -3  -3  -8  186.40    5.90   1
   3   3   9  170.50    4.50   1
  -3  -3  -9  160.60    5.10   1
   3   3  10    2.30    1.30   1
  -3  -3 -10    3.10    1.30   1
   3   3  11  181.40    6.80   1
  -3  -3 -11  188.20    6.90   1
   3   5 -13   37.40    3.60   1
  -3  -5  13   33.40    3.40   1
   3   5 -12  263.80    8.70   1
  -3  -5  12  258.30    9.70   1
   3   5 -11  103.50    4.60   1
  -3  -5  11  101.80    3.70   1
   3   5 -10   38.90    2.50   1
  -3  -5  10   37.20    2.10   1
   3   5  -9  130.40    3.80   1
  -3  -5   9  132.40    3.30   1
   3   5  -8   69.40    1.80   1
  -3  -5   8   68.10    2.00   1
   3   5  -7  249.30    4.40   1
  -3  -5   7  241.80    4.10   1
   3   5  -6   13.40    0.70   1
  -3  -5   6   14.30    0.70   1
   3   5  -5  275.90    3.50   1
  -3  -5   5  272.70    3.70   1
   3   5  -4  769.00    8.50   1
  -3  -5   4  778.70    8.90   1
   3   5  -3  266.20    3.10   1
  -3  -5   3  265.90    3.30   1
   3   5  -2 1056.00   10.20   1
  -3  -5   2 1049.40   11.70   1
   3   5  -1  271.50    2.90   1
  -3  -5   1  270.70    4.30   1
   3   5   0   13.40    0.50   1
  -3  -5   0   13.70    0.90   1
   3   5   1  561.80    6.50   1
  -3  -5  -1  549.50    9.00   1
   3   5   2  163.90    2.40   1
  -3  -5  -2  165.30    2.60   1
   3   5   3  171.30    2.10   1
  -3  -5  -3  175.90    2.80   1
   3   5   4  123.50    1.90   1
  -3  -5  -4  122.00    2.10   1
   3   5   5  162.40    2.50   1
  -3  -5  -5  161.40    3.00   1
   3   5   6  495.70    7.50   1
  -3  -5  -6  507.30    9.20   1
   3   5   7   93.70    2.60   1
  -3  -5  -7   94.90    3.20   1
   3   5   8   70.50    2.20   1
  -3  -5  -8   69.60    2.90   1
   3   5   9   72.80    3.10   1
  -3  -5  -9   73.20    3.20   1
   3   5  10   38.10    3.50   1
  -3  -5 -10   32.00    3.30   1
   3   5  11   82.50    9.30   1
  -3  -5 -11   74.40    9.30   1
   3   7 -12   25.50    2.50   1
  -3  -7  12   23.90    2.50   1
   3   7 -11   41.80    2.70   1
  -3  -7  11   47.20    2.80   1
   3   7 -10   33.80    2.30   1
  -3  -7  10   37.10    2.20   1
   3   7  -9  162.40    4.70   1
  -3  -7   9  160.80    4.00   1
   3   7  -8  123.30    3.80   1
  -3  -7   8  131.60    2.90   1
   3   7  -7  219.10    4.90   1
  -3  -7   7  218.40    4.30   1
   3   7  -6  113.50    2.30   1
  -3  -7   6  115.80    2.60   1
   3   7  -5   23.50    0.90   1
  -3  -7   5   23.70    0.90   1
   3   7  -4   62.20    1.30   1
  -3  -7   4   62.50    1.30   1
   3   7  -3  545.60    5.70   1
  -3  -7   3  560.80    6.80   1
   3   7  -2   21.10    0.60   1
  -3  -7   2   22.30    0.80   1
   3   7  -1    4.20    0.30   1
  -3  -7   1    4.70    0.50   1
   3   7   0  187.00    2.60   1
  -3  -7   0  187.30    3.30   1
   3   7   1  444.30    5.70   1
  -3  -7  -1  443.30    6.40   1
   3   7   2  182.60    2.60   1
  -3  -7  -2  180.00    2.80   1
   3   7   3  223.50    3.50   1
  -3  -7  -3  219.10    4.20   1
   3   7   4  102.70    2.30   1
  -3  -7  -4  103.30    3.10   1
   3   7   5  100.80    2.00   1
  -3  -7  -5  103.50    2.80   1
   3   7   6   37.90    1.40   1
  -3  -7  -6   39.20    1.70   1
   3   7   7   26.40    1.70   1
  -3  -7  -7   26.00    1.90   1
   3   7   8   63.20    2.50   1
  -3  -7  -8   57.10    3.50   1
   3   7   9   39.30    3.10   1
  -3  -7  -9   37.70    3.40   1
   3   7  10   66.40    4.40   1
  -3  -7 -10   68.00    4.60   1
   3   9 -11   68.40    3.90   1
  -3  -9  11   63.80    3.70   1
   3   9 -10   20.40    2.10   1
  -3  -9  10   16.00    1.90   1
   3   9  -9   79.20    3.50   1
  -3  -9   9   83.80    2.70   1
   3   9  -8   79.00    2.80   1
  -3  -9   8   82.70    2.30   1
   3   9  -7    0.80    1.10   1
  -3  -9   7    1.30    0.50   1
   3   9  -6   10.50    1.30   1
  -3  -9   6   11.10    0.80   1
   3   9  -5  216.10    4.90   1
  -3  -9   5  224.50    4.60   1
   3   9  -4  242.20    4.40   1
  -3  -9   4  249.20    4.20   1
   3   9  -3  342.40    6.00   1
  -3  -9   3  339.00    5.40   1
   3   9  -2  240.60    5.50   1
  -3  -9   2  242.40    4.00   1
   3   9  -1  391.00    6.50   1
  -3  -9   1  390.10    6.50   1
   3   9   0    9.10    0.60   1
  -3  -9   0    7.70    0.80   1
   3   9   1    0.30    0.50   1
  -3  -9  -1    1.30    0.40   1
   3   9   2  161.30    3.50   1
  -3  -9  -2  162.10    3.00   1
   3   9   3  140.80    3.20   1
  -3  -9  -3  144.70    3.40   1
   3   9   4   38.00    1.40   1
  -3  -9  -4   41.80    1.70   1
   3   9   5  147.00    4.50   1
  -3  -9  -5  151.20    4.80   1
   3   9   6  196.00    5.90   1
  -3  -9  -6  172.40    5.60   1
   3   9   7  224.90    7.60   1
  -3  -9  -7  233.50    7.10   1
   3   9   8   26.70    2.40   1
  -3  -9  -8   24.30    3.10   1
   3   9   9   23.90    3.80   1
  -3  -9  -9   21.90    3.10   1
   3  11 -10   67.20    4.20   1
  -3 -11  10   62.80    4.30   1
   3  11  -9   28.20    2.80   1
  -3 -11   9   28.20    2.50   1
   3  11  -8  339.50   10.40   1
  -3 -11   8  362.90   10.70   1
   3  11  -7  138.00    5.00   1
  -3 -11   7  154.70    4.40   1
   3  11  -6  282.20    7.70   1
  -3 -11   6  293.40    6.50   1
   3  11  -5    2.10    1.40   1
  -3 -11   5    1.50    1.00   1
   3  11  -4   64.30    2.50   1
  -3 -11   4   60.20    1.90   1
   3  11  -3   32.20    1.70   1
  -3 -11   3   34.50    1.50   1
   3  11  -2   16.70    1.30   1
  -3 -11   2   19.70    1.20   1
   3  11  -1   -1.10    0.60   1
  -3 -11   1   -0.40    0.50   1
   3  11   0  434.90    7.90   1
  -3 -11   0  444.20    8.60   1
   3  11   1  172.70    4.30   1
  -3 -11  -1  181.10    5.10   1
   3  11   2  432.70   11.70   1
  -3 -11  -2  417.90   13.40   1
   3  11   3   45.00    2.80   1
  -3 -11  -3   49.40    5.10   1
   3  11   4  145.00    5.60   1
  -3 -11  -4  155.90    5.90   1
   3  11   5   14.60    2.20   1
  -3 -11  -5   11.70    2.10   1
   3  11   6   -1.00    1.60   1
  -3 -11  -6    2.20    1.80   1
   3  11   7   31.10    3.00   1
  -3 -11  -7   30.80    3.30   1
   3  11   8   64.60    8.40   1
   3  13  -8   22.80    3.20   1
  -3 -13   8   20.00    2.70   1
   3  13  -7    1.10    1.80   1
  -3 -13   7    0.60    1.30   1
   3  13  -6    5.70    1.90   1
  -3 -13   6    4.70    1.50   1
   3  13  -5  124.20    5.00   1
  -3 -13   5  123.20    4.30   1
   3  13  -4   18.60    2.00   1
  -3 -13   4   21.10    1.90   1
   3  13  -3  364.30    8.70   1
  -3 -13   3  360.90    8.40   1
   3  13  -2   16.60    2.10   1
  -3 -13   2   13.10    1.60   1
   3  13  -1  141.80    5.00   1
  -3 -13   1  129.90    4.70   1
   3  13   0   15.00    2.00   1
  -3 -13   0   10.60    2.20   1
   3  13   1    1.70    1.50   1
  -3 -13  -1    1.20    1.80   1
   3  13   2   18.70    2.40   1
  -3 -13  -2   21.80    4.60   1
   3  13   3    6.50    1.90   1
  -3 -13  -3    5.20    2.30   1
   3  13   4   -2.10    2.50   1
  -3 -13  -4    2.90    2.50   1
   3  13   5  197.00    8.60   1
  -3 -13  -5  187.00    9.90   1
   3  13   6   28.20    4.00   1
  -3 -13  -6   29.50    3.10   1
   3  15  -4   -0.20    2.30   1
  -3 -15   4    1.70    1.80   1
   3  15  -3   12.80    2.30   1
  -3 -15   3   17.40    2.20   1
   3  15  -2   -1.60    2.00   1
  -3 -15   2    0.80    1.70   1
   3  15  -1   -1.70    1.90   1
  -3 -15   1    1.10    1.90   1
   3  15   0  129.40    5.60   1
  -3 -15   0  116.00    5.90   1
   3  15   1    3.70    2.10   1
  -3 -15  -1    1.50    2.40   1
   3  15   2  241.80    8.90   1
  -3 -15  -2  238.30    9.70   1
   4   0 -13    0.40    1.90   1
   4   0 -12  119.10    4.20   1
   4   0 -11   -0.40    1.10   1
   4   0 -10  454.20    9.50   1
   4   0  -9    1.20    0.80   1
   4   0  -8  377.40    7.40   1
   4   0  -7   -0.10    0.30   1
   4   0  -6  310.50    4.20   1
   4   0  -5    0.00    0.20   1
   4   0  -4  121.50    1.80   1
   4   0  -3    0.10    0.30   1
   4   0  -2 1222.50   12.70   1
   4   0  -1    0.40    0.20   1
   4   0   0 1872.00   17.60   1
   4   0   1    0.30    0.30   1
   4   0   2   49.30    0.90   1
   4   0   3    0.50    0.40   1
   4   0   4    7.70    0.60   1
   4   0   5   -0.10    0.40   1
   4   0   6  158.00    3.90   1
   4   0   7   -0.10    0.60   1
   4   0   8 1032.50   16.60   1
   4   0   9    0.10    0.90   1
   4   0  10  156.10    5.80   1
   4   0  11   -0.70    1.80   1
   4   2 -13  225.30    9.00   1
  -4  -2  13  219.90    7.60   1
   4   2 -12   13.50    1.70   1
  -4  -2  12   15.50    1.60   1
   4   2 -11    2.10    1.10   1
  -4  -2  11    0.10    1.00   1
   4   2 -10   33.90    1.70   1
  -4  -2  10   32.50    1.70   1
   4   2  -9    5.10    0.80   1
  -4  -2   9    5.00    0.90   1
   4   2  -8   11.80    0.60   1
  -4  -2   8   11.70    0.70   1
   4   2  -7  508.10    8.50   1
  -4  -2   7  494.60    9.10   1
   4   2  -6   40.70    0.90   1
  -4  -2   6   40.00    1.00   1
   4   2  -5 2013.90   22.10   1
  -4  -2   5 2014.50   21.00   1
   4   2  -4  126.30    1.80   1
  -4  -2   4  125.20    1.80   1
   4   2  -3  110.80    1.60   1
  -4  -2   3  113.60    1.60   1
   4   2  -2  114.90    1.30   1
  -4  -2   2  116.50    1.60   1
   4   2  -1    2.20    0.20   1
  -4  -2   1    2.30    0.30   1
   4   2   0   45.20    0.70   1
  -4  -2   0   45.10    0.80   1
   4   2   1  109.00    1.50   1
  -4  -2  -1  112.70    1.60   1
   4   2   2    4.50    0.30   1
  -4  -2  -2    3.90    0.40   1
   4   2   3 1461.50   14.40   1
  -4  -2  -3 1415.50   16.90   1
   4   2   4  100.00    1.70   1
  -4  -2  -4   94.80    2.10   1
   4   2   5  522.80    7.40   1
  -4  -2  -5  530.80    8.50   1
   4   2   6    0.40    0.60   1
  -4  -2  -6    0.10    0.50   1
   4   2   7    3.50    0.80   1
  -4  -2  -7    3.10    0.90   1
   4   2   8    9.10    1.00   1
  -4  -2  -8   12.50    1.30   1
   4   2   9    3.30    1.30   1
  -4  -2  -9    5.50    1.50   1
   4   2  10    2.80    1.50   1
  -4  -2 -10   -1.40    1.50   1
   4   4 -13    3.30    1.90   1
  -4  -4  13   -5.00    2.30   1
   4   4 -12  139.30    6.00   1
  -4  -4  12  132.10    5.00   1
   4   4 -11   38.20    2.20   1
  -4  -4  11   39.70    2.20   1
   4   4 -10  815.20   16.80   1
  -4  -4  10  808.50   16.20   1
   4   4  -9  125.40    3.70   1
  -4  -4   9  125.10    3.00   1
   4   4  -8  191.00    4.60   1
  -4  -4   8  193.30    4.00   1
   4   4  -7    5.60    0.50   1
  -4  -4   7    6.60    0.80   1
   4   4  -6   46.00    1.10   1
  -4  -4   6   43.20    1.30   1
   4   4  -5   76.10    1.30   1
  -4  -4   5   76.60    1.50   1
   4   4  -4   16.40    0.60   1
  -4  -4   4   15.90    0.60   1
   4   4  -3   62.80    1.00   1
  -4  -4   3   64.90    1.10   1
   4   4  -2 1369.30   12.70   1
  -4  -4   2 1355.60   13.60   1
   4   4  -1  264.10    3.00   1
  -4  -4   1  268.60    3.40   1
   4   4   0 1090.70   11.60   1
  -4  -4   0 1069.20   12.20   1
   4   4   1   44.90    1.00   1
  -4  -4  -1   42.30    1.10   1
   4   4   2   27.10    0.80   1
  -4  -4  -2   25.80    1.20   1
   4   4   3   27.10    0.70   1
  -4  -4  -3   28.20    0.80   1
   4   4   4   30.40    1.00   1
  -4  -4  -4   30.50    1.00   1
   4   4   5   11.20    0.60   1
  -4  -4  -5   10.00    0.80   1
   4   4   6  152.30    2.80   1
  -4  -4  -6  150.10    3.30   1
   4   4   7   62.10    2.20   1
  -4  -4  -7   63.90    2.60   1
   4   4   8  335.80    6.70   1
  -4  -4  -8  319.90    8.30   1
   4   4   9   60.40    3.60   1
  -4  -4  -9   60.50    3.90   1
   4   4  10   73.50    4.60   1
  -4  -4 -10   80.60    5.10   1
   4   6 -12    1.40    1.50   1
  -4  -6  12    2.40    1.60   1
   4   6 -11   -1.40    1.40   1
  -4  -6  11    0.80    1.40   1
   4   6 -10   22.00    2.00   1
  -4  -6  10   21.00    1.70   1
   4   6  -9   16.90    1.40   1
  -4  -6   9   17.50    1.10   1
   4   6  -8    0.90    0.80   1
  -4  -6   8    0.00    0.60   1
   4   6  -7  219.60    4.50   1
  -4  -6   7  215.30    4.90   1
   4   6  -6  377.50    5.20   1
  -4  -6   6  370.10    6.20   1
   4   6  -5  714.30    9.20   1
  -4  -6   5  713.60    9.70   1
   4   6  -4  113.10    1.90   1
  -4  -6   4  120.10    2.20   1
   4   6  -3   96.40    1.40   1
  -4  -6   3   95.70    1.90   1
   4   6  -2   10.70    0.50   1
  -4  -6   2   12.10    0.60   1
   4   6  -1    6.00    0.30   1
  -4  -6   1    6.10    0.40   1
   4   6   0  140.80    2.40   1
  -4  -6   0  134.40    3.50   1
   4   6   1   56.00    1.70   1
  -4  -6  -1   56.40    1.20   1
   4   6   2  222.10    3.80   1
  -4  -6  -2  225.90    5.20   1
   4   6   3  892.20   16.00   1
  -4  -6  -3  886.00   16.90   1
   4   6   4  253.10    5.20   1
  -4  -6  -4  264.10    5.70   1
   4   6   5  204.60    3.60   1
  -4  -6  -5  196.10    5.20   1
   4   6   6   15.80    1.00   1
  -4  -6  -6   13.50    1.30   1
   4   6   7   33.80    1.50   1
  -4  -6  -7   33.20    2.80   1
   4   6   8   27.70    2.10   1
  -4  -6  -8   28.10    2.90   1
   4   6   9    6.20    1.90   1
  -4  -6  -9    1.60    1.90   1
   4   6  10   -1.60    2.40   1
  -4  -6 -10    7.60    2.90   1
   4   8 -12   51.10    3.50   1
  -4  -8  12   52.80    4.00   1
   4   8 -11  142.20    5.60   1
  -4  -8  11  134.10    4.80   1
   4   8 -10  111.70    4.20   1
  -4  -8  10  111.00    4.10   1
   4   8  -9  172.40    5.40   1
  -4  -8   9  181.30    5.20   1
   4   8  -8  109.00    3.70   1
  -4  -8   8  113.30    3.20   1
   4   8  -7    5.40    1.10   1
  -4  -8   7    6.60    0.80   1
   4   8  -6    0.00    0.70   1
  -4  -8   6    0.70    0.60   1
   4   8  -5   38.10    1.20   1
  -4  -8   5   42.20    1.30   1
   4   8  -4  108.30    2.00   1
  -4  -8   4  114.40    2.20   1
   4   8  -3   22.00    0.90   1
  -4  -8   3   24.40    0.90   1
   4   8  -2  246.90    4.00   1
  -4  -8   2  252.00    4.40   1
   4   8  -1  719.00   10.00   1
  -4  -8   1  729.90   11.00   1
   4   8   0  460.80    7.40   1
  -4  -8   0  441.20   10.40   1
   4   8   1   64.10    1.70   1
  -4  -8  -1   62.30    3.30   1
   4   8   2   44.70    1.20   1
  -4  -8  -2   43.00    1.80   1
   4   8   3   52.20    1.30   1
  -4  -8  -3   46.70    2.20   1
   4   8   4   64.20    2.00   1
  -4  -8  -4   62.70    3.10   1
   4   8   5    8.50    0.90   1
  -4  -8  -5    9.10    1.50   1
   4   8   6   90.00    3.20   1
  -4  -8  -6   83.50    4.20   1
   4   8   7  157.10    6.10   1
  -4  -8  -7  153.00    6.50   1
   4   8   8  255.10    9.60   1
  -4  -8  -8  239.90    9.90   1
   4   8   9   76.70    6.10   1
  -4  -8  -9   75.00    5.40   1
   4  10 -10   31.90    2.90   1
  -4 -10  10   43.00    3.50   1
   4  10  -9   60.00    3.20   1
  -4 -10   9   59.30    3.10   1
   4  10  -8   20.40    2.00   1
  -4 -10   8   27.20    2.10   1
   4  10  -7  113.10    4.10   1
  -4 -10   7  111.20    2.90   1
   4  10  -6  323.70    8.30   1
  -4 -10   6  327.40    6.00   1
   4  10  -5  211.60    5.90   1
  -4 -10   5  212.50    4.90   1
   4  10  -4  248.20    5.80   1
  -4 -10   4  259.00    5.80   1
   4  10  -3   59.70    2.10   1
  -4 -10   3   65.30    2.10   1
   4  10  -2   34.50    1.50   1
  -4 -10   2   35.60    1.90   1
   4  10  -1   80.80    2.40   1
  -4 -10   1   81.80    2.40   1
   4  10   0   14.10    1.70   1
  -4 -10   0   14.50    0.70   1
   4  10   1   94.40    3.90   1
  -4 -10  -1   87.80    4.40   1
   4  10   2  122.90    5.50   1
  -4 -10  -2  109.30    5.20   1
   4  10   3   97.70    3.50   1
  -4 -10  -3   97.40    4.20   1
   4  10   4  343.20    8.90   1
  -4 -10  -4  360.30   11.10   1
   4  10   5   69.50    3.70   1
  -4 -10  -5   64.40    3.80   1
   4  10   6    4.30    1.70   1
  -4 -10  -6    3.30    1.70   1
   4  10   7   14.30    3.50   1
  -4 -10  -7   18.10    3.80   1
   4  12  -9  186.00    7.50   1
  -4 -12   9  194.60    7.30   1
   4  12  -8   38.90    3.00   1
  -4 -12   8   36.70    2.90   1
   4  12  -7    3.40    1.60   1
  -4 -12   7    1.80    1.40   1
   4  12  -6   88.60    4.00   1
  -4 -12   6   83.40    3.30   1
   4  12  -5   27.70    2.30   1
  -4 -12   5   23.30    1.80   1
   4  12  -4   66.10    2.80   1
  -4 -12   4   67.10    2.80   1
   4  12  -3   66.90    3.30   1
  -4 -12   3   69.30    2.90   1
   4  12  -2   61.40    3.10   1
  -4 -12   2   64.90    2.70   1
   4  12  -1  364.40    9.50   1
  -4 -12   1  371.90    9.40   1
   4  12   0   23.90    2.10   1
  -4 -12   0   18.60    1.80   1
   4  12   1   70.10    3.40   1
  -4 -12  -1   68.30    4.50   1
   4  12   2   45.20    2.80   1
  -4 -12  -2   45.50    4.00   1
   4  12   3   14.70    2.20   1
  -4 -12  -3   14.20    2.60   1
   4  12   4   43.80    3.40   1
  -4 -12  -4   45.50    4.40   1
   4  12   5    0.60    2.00   1
  -4 -12  -5    1.20    2.10   1
   4  12   6   18.10    3.00   1
  -4 -12  -6   26.50    3.60   1
   4  14  -6  199.40    9.40   1
  -4 -14   6  212.40    7.80   1
   4  14  -5    4.00    2.90   1
  -4 -14   5    2.30    1.80   1
   4  14  -4  107.10    6.00   1
  -4 -14   4  100.10    4.80   1
   4  14  -3   16.10    2.30   1
  -4 -14   3   23.40    2.40   1
   4  14  -2    2.80    1.70   1
  -4 -14   2   -0.20    1.60   1
   4  14  -1  101.40    4.90   1
  -4 -14   1  101.80    6.70   1
   4  14   0    1.20    1.90   1
  -4 -14   0    2.00    2.40   1
   4  14   1   42.70    3.30   1
  -4 -14  -1   38.30    4.00   1
   4  14   2  105.60    5.10   1
  -4 -14  -2  106.30    7.10   1
   4  14   3   23.50    3.60   1
  -4 -14  -3   11.80    3.50   1
   5   1 -13  128.80    5.30   1
  -5  -1  13  132.30    6.20   1
   5   1 -12    8.70    1.40   1
  -5  -1  12    9.60    1.50   1
   5   1 -11  187.00    5.10   1
  -5  -1  11  188.20    5.30   1
   5   1 -10   70.10    2.60   1
  -5  -1  10   73.40    2.60   1
   5   1  -9    0.10    0.60   1
  -5  -1   9   -0.60    0.80   1
   5   1  -8  546.90    8.10   1
  -5  -1   8  528.20    9.80   1
   5   1  -7   24.70    0.80   1
  -5  -1   7   23.50    0.90   1
   5   1  -6  309.70    4.20   1
  -5  -1   6  305.80    4.50   1
   5   1  -5  388.80    4.80   1
  -5  -1   5  379.60    4.60   1
   5   1  -4   70.60    1.00   1
  -5  -1   4   70.30    1.20   1
   5   1  -3 1146.00   12.80   1
  -5  -1   3 1130.20   12.70   1
   5   1  -2   44.30    0.70   1
  -5  -1   2   44.90    1.00   1
   5   1  -1  182.00    2.30   1
  -5  -1   1  182.60    2.50   1
   5   1   0  954.30    9.50   1
  -5  -1   0  959.00    9.10   1
   5   1   1    8.80    0.40   1
  -5  -1  -1    9.20    0.50   1
   5   1   2  641.10    6.80   1
  -5  -1  -2  634.40    6.90   1
   5   1   3  115.50    2.20   1
  -5  -1  -3  112.30    1.90   1
   5   1   4   50.40    1.40   1
  -5  -1  -4   50.10    1.50   1
   5   1   5  417.10    7.80   1
  -5  -1  -5  409.70    7.10   1
   5   1   6    7.20    1.00   1
  -5  -1  -6   11.00    1.10   1
   5   1   7  212.50    4.60   1
  -5  -1  -7  217.70    5.30   1
   5   1   8   55.20    2.50   1
  -5  -1  -8   57.60    2.40   1
   5   1   9    5.00    1.80   1
  -5  -1  -9    3.90    1.50   1
   5   1  10  204.40    8.90   1
  -5  -1 -10  208.30    9.20   1
   5   3 -13  294.10   11.20   1
  -5  -3  13  294.20   11.00   1
   5   3 -12    7.00    1.60   1
  -5  -3  12    4.20    1.80   1
   5   3 -11   61.70    2.80   1
  -5  -3  11   63.40    2.70   1
   5   3 -10  138.30    4.00   1
  -5  -3  10  139.00    4.00   1
   5   3  -9    0.70    0.40   1
  -5  -3   9    1.60    0.60   1
   5   3  -8  244.90    5.30   1
  -5  -3   8  244.90    5.20   1
   5   3  -7  173.80    3.20   1
  -5  -3   7  171.20    3.90   1
   5   3  -6  117.50    2.00   1
  -5  -3   6  119.80    2.70   1
   5   3  -5  530.40    6.50   1
  -5  -3   5  518.00    7.00   1
   5   3  -4   23.80    0.50   1
  -5  -3   4   23.70    0.70   1
   5   3  -3  520.30    5.40   1
  -5  -3   3  516.80    6.00   1
   5   3  -2   32.20    0.60   1
  -5  -3   2   30.90    0.80   1
   5   3  -1   63.80    1.00   1
  -5  -3   1   64.30    1.30   1
   5   3   0  197.40    2.40   1
  -5  -3   0  196.70    2.50   1
   5   3   1  357.50    4.60   1
  -5  -3  -1  363.50    4.60   1
   5   3   2  307.50    4.10   1
  -5  -3  -2  311.50    3.90   1
   5   3   3   27.60    0.90   1
  -5  -3  -3   26.90    0.80   1
   5   3   4   12.00    0.70   1
  -5  -3  -4   13.40    0.90   1
   5   3   5  253.60    4.30   1
  -5  -3  -5  255.40    4.80   1
   5   3   6    4.10    0.90   1
  -5  -3  -6    2.10    0.70   1
   5   3   7  222.00    4.90   1
  -5  -3  -7  215.90    5.20   1
   5   3   8   60.60    2.60   1
  -5  -3  -8   58.70    2.80   1
   5   3   9   15.60    2.50   1
  -5  -3  -9   13.90    2.50   1
   5   5 -13  110.30    7.70   1
  -5  -5  13  108.40    5.80   1
   5   5 -12   45.80    3.10   1
  -5  -5  12   48.90    3.60   1
   5   5 -11   21.90    2.20   1
  -5  -5  11   24.70    2.40   1
   5   5 -10   80.10    3.20   1
  -5  -5  10   78.00    2.90   1
   5   5  -9  115.90    3.40   1
  -5  -5   9  117.70    3.00   1
   5   5  -8  500.10    8.20   1
  -5  -5   8  487.80   11.70   1
   5   5  -7   24.30    1.00   1
  -5  -5   7   26.30    1.50   1
   5   5  -6   78.10    1.60   1
  -5  -5   6   75.60    2.10   1
   5   5  -5  350.30    5.00   1
  -5  -5   5  343.40    5.70   1
   5   5  -4  102.90    1.60   1
  -5  -5   4  104.30    2.10   1
   5   5  -3   28.80    0.70   1
  -5  -5   3   29.90    1.00   1
   5   5  -2   52.70    1.00   1
  -5  -5   2   50.50    1.30   1
   5   5  -1  389.40    5.80   1
  -5  -5   1  391.40    7.10   1
   5   5   0  489.00    7.60   1
  -5  -5   0  487.80    8.80   1
   5   5   1   13.20    0.80   1
  -5  -5  -1   11.60    0.80   1
   5   5   2  434.90    7.70   1
  -5  -5  -2  460.30    8.10   1
   5   5   3  198.00    4.50   1
  -5  -5  -3  186.40    4.80   1
   5   5   4    4.00    0.40   1
  -5  -5  -4    3.40    0.40   1
   5   5   5   74.50    2.00   1
  -5  -5  -5   67.10    2.70   1
   5   5   6   99.80    3.00   1
  -5  -5  -6   96.50    4.20   1
   5   5   7  103.10    3.40   1
  -5  -5  -7   98.40    4.80   1
   5   5   8   32.70    2.10   1
  -5  -5  -8   31.50    3.60   1
   5   5   9   18.70    2.80   1
  -5  -5  -9   15.50    2.80   1
   5   7 -12   85.90    4.40   1
  -5  -7  12   79.20    4.20   1
   5   7 -11  100.70    4.20   1
  -5  -7  11  109.50    4.50   1
   5   7 -10   80.50    3.40   1
  -5  -7  10   73.50    3.20   1
   5   7  -9   85.90    3.20   1
  -5  -7   9   82.50    2.70   1
   5   7  -8   73.70    2.80   1
  -5  -7   8   72.80    2.70   1
   5   7  -7   15.80    1.30   1
  -5  -7   7   19.00    1.30   1
   5   7  -6  147.80    2.90   1
  -5  -7   6  141.80    3.30   1
   5   7  -5  156.50    3.20   1
  -5  -7   5  158.70    3.30   1
   5   7  -4  325.90    4.10   1
  -5  -7   4  331.60    5.30   1
   5   7  -3  623.30    9.00   1
  -5  -7   3  640.30    8.30   1
   5   7  -2  335.60    5.20   1
  -5  -7   2  348.40    6.40   1
   5   7  -1   26.10    0.80   1
  -5  -7   1   23.80    1.90   1
   5   7   0  230.80    4.30   1
  -5  -7   0  230.10    6.20   1
   5   7   1   94.30    2.20   1
  -5  -7  -1   85.00    3.90   1
   5   7   2   98.80    2.40   1
  -5  -7  -2   98.30    3.00   1
   5   7   3    1.30    0.50   1
  -5  -7  -3    0.50    1.20   1
   5   7   4  251.00    5.50   1
  -5  -7  -4  246.10    9.40   1
   5   7   5  385.00    8.00   1
  -5  -7  -5  360.20   10.90   1
   5   7   6  157.70    4.40   1
  -5  -7  -6  153.00    6.20   1
   5   7   7   85.30    3.90   1
  -5  -7  -7   83.50    4.90   1
   5   7   8  113.90    5.70   1
  -5  -7  -8   96.50    5.80   1
   5   9 -11   34.70    3.10   1
  -5  -9  11   32.50    3.60   1
   5   9 -10   10.70    2.00   1
  -5  -9  10   12.90    1.90   1
   5   9  -9  204.80    6.30   1
  -5  -9   9  211.40    5.00   1
   5   9  -8  179.20    5.50   1
  -5  -9   8  191.90    4.70   1
   5   9  -7  239.60    5.70   1
  -5  -9   7  243.50    5.00   1
   5   9  -6   25.70    1.50   1
  -5  -9   6   26.80    1.20   1
   5   9  -5   74.70    2.20   1
  -5  -9   5   85.20    2.30   1
   5   9  -4  119.60    2.90   1
  -5  -9   4  120.80    2.90   1
   5   9  -3   36.50    1.50   1
  -5  -9   3   37.40    1.50   1
   5   9  -2    7.10    0.50   1
  -5  -9   2    7.10    0.50   1
   5   9  -1  127.20    3.20   1
  -5  -9   1  122.10    3.70   1
   5   9   0  162.10    3.40   1
  -5  -9   0  144.20    5.00   1
   5   9   1  382.70    8.50   1
  -5  -9  -1  360.40   11.60   1
   5   9   2  197.60    4.80   1
  -5  -9  -2  201.10    8.10   1
   5   9   3  160.80    4.40   1
  -5  -9  -3  162.60    5.80   1
   5   9   4    7.80    1.40   1
  -5  -9  -4    7.70    2.00   1
   5   9   5    5.60    1.40   1
  -5  -9  -5   10.00    2.20   1
   5   9   6   38.70    2.90   1
  -5  -9  -6   33.60    3.50   1
   5   9   7   30.40    4.10   1
  -5  -9  -7   28.00    3.90   1
   5  11  -9    7.80    1.90   1
  -5 -11   9    8.80    1.90   1
   5  11  -8    2.20    1.60   1
  -5 -11   8    1.10    1.40   1
   5  11  -7   40.90    2.70   1
  -5 -11   7   43.20    2.40   1
   5  11  -6   51.10    2.80   1
  -5 -11   6   48.50    2.60   1
   5  11  -5   46.90    2.60   1
  -5 -11   5   49.00    2.20   1
   5  11  -4  240.20    6.00   1
  -5 -11   4  249.50    6.00   1
   5  11  -3   79.90    3.40   1
  -5 -11   3   84.30    3.40   1
   5  11  -2  191.50    6.00   1
  -5 -11   2  196.60    5.80   1
   5  11  -1    0.80    1.20   1
  -5 -11   1    0.20    1.10   1
   5  11   0    3.20    1.40   1
  -5 -11   0    3.30    1.40   1
   5  11   1   89.00    3.60   1
  -5 -11  -1   87.90    4.80   1
   5  11   2   -1.00    1.10   1
  -5 -11  -2    2.10    1.90   1
   5  11   3   -1.60    1.20   1
  -5 -11  -3    1.80    2.20   1
   5  11   4   87.80    4.70   1
  -5 -11  -4   77.60    4.70   1
   5  11   5   29.20    3.10   1
  -5 -11  -5   33.90    4.30   1
   5  11   6  140.90    9.00   1
  -5 -11  -6  148.30    9.40   1
   5  13  -7  170.60    8.20   1
  -5 -13   7  171.20    8.20   1
   5  13  -6   -3.00    2.20   1
  -5 -13   6    2.30    2.00   1
   5  13  -5   28.50    3.10   1
  -5 -13   5   35.10    2.80   1
   5  13  -4   16.10    2.30   1
  -5 -13   4   20.60    2.80   1
   5  13  -3    6.70    2.10   1
  -5 -13   3    5.40    1.90   1
   5  13  -2    7.20    2.00   1
  -5 -13   2    5.10    1.90   1
   5  13  -1  152.60    6.10   1
  -5 -13   1  150.10    8.30   1
   5  13   0   33.80    2.80   1
  -5 -13   0   31.70    3.70   1
   5  13   1  270.80    9.30   1
  -5 -13  -1  238.00   11.60   1
   5  13   2    8.60    2.20   1
  -5 -13  -2   10.30    2.80   1
   5  13   3  155.10    6.30   1
  -5 -13  -3  167.10    9.70   1
   6   0 -13   -1.30    1.80   1
   6   0 -12   -0.10    1.80   1
   6   0 -11   -0.20    1.50   1
   6   0 -10   30.80    1.70   1
   6   0  -9    0.50    0.70   1
   6   0  -8  174.10    3.20   1
   6   0  -7    0.20    0.30   1
   6   0  -6 1928.50   29.10   1
   6   0  -5    0.20    0.40   1
   6   0  -4  574.70    7.10   1
   6   0  -3   -0.20    0.40   1
   6   0  -2    8.70    0.40   1
   6   0  -1    0.20    0.30   1
   6   0   0   26.40    0.70   1
   6   0   1    0.00    0.30   1
   6   0   2 1223.50   13.30   1
   6   0   3    0.60    0.40   1
   6   0   4  592.20   10.80   1
   6   0   5   -0.30    0.80   1
   6   0   6   43.00    2.00   1
   6   0   7   -2.10    1.20   1
   6   0   8    9.10    1.40   1
   6   0   9    1.90    2.70   1
   6   2 -13   54.30    3.50   1
  -6  -2  13   54.90    3.90   1
   6   2 -12    0.90    1.40   1
  -6  -2  12    2.00    1.70   1
   6   2 -11  405.10    9.60   1
  -6  -2  11  411.30   11.50   1
   6   2 -10   48.80    2.30   1
  -6  -2  10   48.80    2.20   1
   6   2  -9  406.00    6.70   1
  -6  -2   9  400.30    8.30   1
   6   2  -8    1.70    0.40   1
  -6  -2   8    1.50    1.00   1
   6   2  -7    5.90    0.50   1
  -6  -2   7    7.30    0.70   1
   6   2  -6    0.90    0.30   1
  -6  -2   6    1.60    0.50   1
   6   2  -5    2.20    0.40   1
  -6  -2   5    1.70    0.60   1
   6   2  -4   39.80    0.90   1
  -6  -2   4   38.70    1.10   1
   6   2  -3  459.70    5.50   1
  -6  -2   3  455.80    6.00   1
   6   2  -2  195.70    2.50   1
  -6  -2   2  189.70    2.90   1
   6   2  -1 1554.80   15.80   1
  -6  -2   1 1592.00   17.00   1
   6   2   0    1.20    0.30   1
  -6  -2   0    0.80    0.30   1
   6   2   1   64.30    1.20   1
  -6  -2  -1   64.40    1.20   1
   6   2   2    1.10    0.40   1
  -6  -2  -2    1.80    0.40   1
   6   2   3    2.50    0.60   1
  -6  -2  -3    3.10    0.50   1
   6   2   4    3.30    0.70   1
  -6  -2  -4    5.20    0.80   1
   6   2   5   26.40    1.40   1
  -6  -2  -5   29.40    1.50   1
   6   2   6    7.40    1.20   1
  -6  -2  -6    6.60    1.20   1
   6   2   7  496.50    9.60   1
  -6  -2  -7  484.10   10.30   1
   6   2   8    9.30    1.70   1
  -6  -2  -8   15.30    2.00   1
   6   2   9  162.30    7.70   1
  -6  -2  -9  144.00    7.20   1
   6   4 -13   -1.40    2.20   1
  -6  -4  13    5.00    2.00   1
   6   4 -12   11.50    2.30   1
  -6  -4  12    8.50    2.10   1
   6   4 -11   23.30    1.90   1
  -6  -4  11   21.70    2.30   1
   6   4 -10   34.80    2.00   1
  -6  -4  10   29.20    2.20   1
   6   4  -9    1.30    0.60   1
  -6  -4   9    1.10    1.10   1
   6   4  -8  193.20    4.70   1
  -6  -4   8  193.10    4.80   1
   6   4  -7   46.90    1.40   1
  -6  -4   7   45.30    2.00   1
   6   4  -6  527.40    7.40   1
  -6  -4   6  509.10    9.10   1
   6   4  -5  187.70    3.00   1
  -6  -4   5  180.50    3.40   1
   6   4  -4  208.30    2.70   1
  -6  -4   4  202.80    3.40   1
   6   4  -3   10.10    0.40   1
  -6  -4   3    8.20    0.70   1
   6   4  -2   31.70    0.90   1
  -6  -4   2   33.00    1.00   1
   6   4  -1   47.20    1.30   1
  -6  -4   1   48.40    1.60   1
   6   4   0   12.70    0.80   1
  -6  -4   0   12.80    0.70   1
   6   4   1   12.90    0.90   1
  -6  -4  -1   12.00    0.90   1
   6   4   2  389.20    7.10   1
  -6  -4  -2  412.20    8.00   1
   6   4   3  156.50    2.80   1
  -6  -4  -3  164.50    3.70   1
   6   4   4  579.90    9.50   1
  -6  -4  -4  578.40   10.70   1
   6   4   5    9.60    1.30   1
  -6  -4  -5    6.90    1.30   1
   6   4   6    9.30    1.40   1
  -6  -4  -6   12.60    1.80   1
   6   4   7    2.20    1.20   1
  -6  -4  -7    2.10    1.40   1
   6   4   8    2.00    1.40   1
  -6  -4  -8    2.40    2.10   1
   6   6 -12   56.00    4.00   1
  -6  -6  12   54.50    3.30   1
   6   6 -11  255.60    8.30   1
  -6  -6  11  250.90    8.00   1
   6   6 -10  116.20    4.10   1
  -6  -6  10  123.10    4.20   1
   6   6  -9  281.00    7.30   1
  -6  -6   9  283.50    7.30   1
   6   6  -8   12.20    1.00   1
  -6  -6   8   11.90    1.30   1
   6   6  -7    4.30    0.90   1
  -6  -6   7    7.10    1.10   1
   6   6  -6   98.30    2.60   1
  -6  -6   6   96.00    2.80   1
   6   6  -5   47.30    1.20   1
  -6  -6   5   48.20    1.70   1
   6   6  -4   23.40    0.70   1
  -6  -6   4   23.00    1.00   1
   6   6  -3  400.00    6.80   1
  -6  -6   3  406.80    6.70   1
   6   6  -2  213.30    3.70   1
  -6  -6   2  224.60    5.90   1
   6   6  -1  647.20   11.20   1
  -6  -6   1  640.10   14.90   1
   6   6   0  229.40    4.20   1
  -6  -6   0  232.00    6.40   1
   6   6   1  157.20    3.10   1
  -6  -6  -1  160.80    3.90   1
   6   6   2   23.80    1.10   1
  -6  -6  -2   24.10    1.40   1
   6   6   3    2.20    0.60   1
  -6  -6  -3    3.40    1.40   1
   6   6   4   19.50    1.40   1
  -6  -6  -4   16.80    2.10   1
   6   6   5   45.10    1.90   1
  -6  -6  -5   38.60    3.20   1
   6   6   6   36.50    2.00   1
  -6  -6  -6   36.40    3.40   1
   6   6   7  277.00    9.00   1
  -6  -6  -7  273.20   11.00   1
   6   6   8   98.40    5.60   1
  -6  -6  -8   97.70    6.30   1
   6   8 -11   27.60    2.60   1
  -6  -8  11   20.40    2.30   1
   6   8 -10   46.20    2.70   1
  -6  -8  10   52.90    3.00   1
   6   8  -9    0.70    1.20   1
  -6  -8   9    2.40    1.20   1
   6   8  -8   89.00    3.90   1
  -6  -8   8   90.30    3.40   1
   6   8  -7  248.70    6.40   1
  -6  -8   7  249.10    6.40   1
   6   8  -6  455.90   10.10   1
  -6  -8   6  467.00   10.30   1
   6   8  -5  247.10    5.50   1
  -6  -8   5  252.30    6.40   1
   6   8  -4  115.50    2.80   1
  -6  -8   4  123.80    3.20   1
   6   8  -3    0.60    0.40   1
  -6  -8   3    0.60    0.40   1
   6   8  -2   61.90    1.80   1
  -6  -8   2   57.60    2.40   1
   6   8  -1   50.90    1.70   1
  -6  -8   1   48.90    2.30   1
   6   8   0   48.00    1.60   1
  -6  -8   0   41.50    4.80   1
   6   8   1   27.00    1.30   1
  -6  -8  -1   24.30    3.70   1
   6   8   2  281.10    5.80   1
  -6  -8  -2  278.10   14.70   1
   6   8   3  287.50    6.90   1
  -6  -8  -3  300.90    9.60   1
   6   8   4  131.70    4.50   1
  -6  -8  -4  130.50    6.00   1
   6   8   5   61.20    3.00   1
  -6  -8  -5   63.30    5.00   1
   6   8   6   33.00    2.60   1
  -6  -8  -6   35.30    3.50   1
   6   8   7   22.20    2.90   1
  -6  -8  -7   15.40    3.10   1
   6  10 -10  199.30    7.60   1
  -6 -10  10  206.40    9.20   1
   6  10  -9   42.80    2.90   1
  -6 -10   9   42.40    2.90   1
   6  10  -8    2.00    1.40   1
  -6 -10   8    2.60    1.20   1
   6  10  -7   12.30    1.50   1
  -6 -10   7   13.30    1.70   1
   6  10  -6   39.00    2.30   1
  -6 -10   6   35.50    1.80   1
   6  10  -5   33.20    1.70   1
  -6 -10   5   31.20    1.70   1
   6  10  -4   -0.70    0.90   1
  -6 -10   4    0.40    1.30   1
   6  10  -3   41.70    1.80   1
  -6 -10   3   46.30    2.50   1
   6  10  -2  387.80    8.40   1
  -6 -10   2  377.50    9.40   1
   6  10  -1  140.80    4.20   1
  -6 -10   1  137.30    4.50   1
   6  10   0  110.40    3.60   1
  -6 -10   0  106.50    5.60   1
   6  10   1    8.70    1.20   1
  -6 -10  -1    8.40    2.10   1
   6  10   2    3.90    1.30   1
  -6 -10  -2    8.20    4.90   1
   6  10   3   47.80    2.70   1
  -6 -10  -3   39.70    5.90   1
   6  10   4   25.90    2.20   1
  -6 -10  -4   25.70    3.80   1
   6  10   5   24.30    3.60   1
  -6 -10  -5   26.10    4.10   1
   6  10   6   65.70    7.70   1
  -6 -10  -6   67.20    8.90   1
   6  12  -8   37.20    4.00   1
  -6 -12   8   28.20    3.60   1
   6  12  -7  118.30    6.40   1
  -6 -12   7  122.80    5.40   1
   6  12  -6   14.80    2.70   1
  -6 -12   6   10.30    2.40   1
   6  12  -5  248.90   10.20   1
  -6 -12   5  261.20   10.40   1
   6  12  -4   35.60    2.80   1
  -6 -12   4   43.10    3.60   1
   6  12  -3    0.20    1.50   1
  -6 -12   3    1.10    1.20   1
   6  12  -2   33.40    2.80   1
  -6 -12   2   37.10    2.50   1
   6  12  -1   15.50    2.40   1
  -6 -12   1   13.80    2.20   1
   6  12   0   75.10    3.80   1
  -6 -12   0   77.20    4.30   1
   6  12   1   31.20    2.30   1
  -6 -12  -1   29.90    6.20   1
   6  12   2   30.70    2.70   1
  -6 -12  -2   33.00    3.90   1
   6  12   3  262.90    9.00   1
  -6 -12  -3  272.40   19.00   1
   6  12   4   31.20    3.90   1
   6  14  -4   18.00    3.10   1
  -6 -14   4   24.70    3.50   1
   6  14  -3   26.70    2.90   1
  -6 -14   3   28.10    3.30   1
   6  14  -2  210.00    8.10   1
  -6 -14   2  213.90   11.40   1
   6  14  -1    7.40    2.30   1
  -6 -14   1   10.70    3.20   1
   7   1 -13    8.10    2.20   1
  -7  -1  13    9.60    2.40   1
   7   1 -12  165.80    6.90   1
  -7  -1  12  163.70    7.00   1
   7   1 -11   10.90    2.30   1
  -7  -1  11   11.30    2.10   1
   7   1 -10    4.90    1.40   1
  -7  -1  10    5.30    1.50   1
   7   1  -9  445.80    9.40   1
  -7  -1   9  443.60   10.90   1
   7   1  -8    6.00    1.00   1
  -7  -1   8    7.80    0.80   1
   7   1  -7  101.30    2.40   1
  -7  -1   7  107.60    2.70   1
   7   1  -6  122.10    2.70   1
  -7  -1   6  117.40    2.80   1
   7   1  -5   43.30    1.30   1
  -7  -1   5   42.30    1.30   1
   7   1  -4  579.30    8.50   1
  -7  -1   4  576.20    8.00   1
   7   1  -3   19.70    0.70   1
  -7  -1   3   18.30    0.90   1
   7   1  -2  263.90    3.60   1
  -7  -1   2  265.10    3.70   1
   7   1  -1  373.10    4.60   1
  -7  -1   1  368.00    4.50   1
   7   1   0   64.30    1.40   1
  -7  -1   0   69.10    1.40   1
   7   1   1  267.80    3.80   1
  -7  -1  -1  267.50    3.80   1
   7   1   2    0.70    0.40   1
  -7  -1  -2   -0.20    0.40   1
   7   1   3   91.10    2.90   1
  -7  -1  -3   91.00    2.40   1
   7   1   4  223.00    5.20   1
  -7  -1  -4  221.30    4.80   1
   7   1   5    8.10    1.10   1
  -7  -1  -5    9.10    1.00   1
   7   1   6  155.50    4.40   1
  -7  -1  -6  155.60    4.60   1
   7   1   7   30.40    2.10   1
  -7  -1  -7   32.60    2.70   1
   7   1   8    4.10    2.40   1
  -7  -1  -8    4.60    2.50   1
   7   3 -13   52.40    4.40   1
  -7  -3  13   56.50    4.10   1
   7   3 -12   61.60    4.00   1
  -7  -3  12   65.20    4.10   1
   7   3 -11   21.70    2.30   1
  -7  -3  11   22.90    2.30   1
   7   3 -10   27.50    2.30   1
  -7  -3  10   31.40    2.00   1
   7   3  -9  245.60    5.30   1
  -7  -3   9  234.60    5.90   1
   7   3  -8    1.70    0.60   1
  -7  -3   8    0.90    1.00   1
   7   3  -7  270.20    4.20   1
  -7  -3   7  262.90    5.40   1
   7   3  -6  157.70    2.70   1
  -7  -3   6  152.80    3.10   1
   7   3  -5   36.80    1.20   1
  -7  -3   5   33.80    1.20   1
   7   3  -4  312.30    4.90   1
  -7  -3   4  307.60    4.90   1
   7   3  -3   23.10    0.60   1
  -7  -3   3   23.90    1.00   1
   7   3  -2  143.90    2.50   1
  -7  -3   2  143.60    2.80   1
   7   3  -1  228.30    3.50   1
  -7  -3   1  229.60    3.60   1
   7   3   0   55.40    1.20   1
  -7  -3   0   55.90    1.30   1
   7   3   1  671.80   10.50   1
  -7  -3  -1  693.70   10.00   1
   7   3   2   67.80    1.40   1
  -7  -3  -2   66.30    1.80   1
   7   3   3   29.70    1.60   1
  -7  -3  -3   29.90    1.20   1
   7   3   4  174.50    5.30   1
  -7  -3  -4  180.30    5.40   1
   7   3   5   24.00    2.00   1
  -7  -3  -5   26.60    2.20   1
   7   3   6  186.60    5.30   1
  -7  -3  -6  192.60    6.20   1
   7   3   7   10.40    1.60   1
  -7  -3  -7   11.20    1.90   1
   7   3   8   28.70    2.70   1
  -7  -3  -8   30.00    2.90   1
   7   5 -12  127.70    6.30   1
  -7  -5  12  130.50    5.30   1
   7   5 -11   74.90    4.10   1
  -7  -5  11   74.70    3.60   1
   7   5 -10    1.90    1.50   1
  -7  -5  10    1.20    1.30   1
   7   5  -9   80.50    2.60   1
  -7  -5   9   83.20    3.10   1
   7   5  -8  120.70    3.20   1
  -7  -5   8  118.70    3.80   1
   7   5  -7  169.30    4.40   1
  -7  -5   7  167.50    4.50   1
   7   5  -6   92.40    2.60   1
  -7  -5   6   93.50    2.60   1
   7   5  -5   58.80    1.90   1
  -7  -5   5   57.30    1.90   1
   7   5  -4  489.50    6.30   1
  -7  -5   4  487.00    8.20   1
   7   5  -3  181.30    3.10   1
  -7  -5   3  195.60    4.20   1
   7   5  -2  122.10    2.70   1
  -7  -5   2  127.70    3.70   1
   7   5  -1  176.10    4.00   1
  -7  -5   1  173.70    3.90   1
   7   5   0   78.10    2.30   1
  -7  -5   0   78.90    3.20   1
   7   5   1  144.90    3.20   1
  -7  -5  -1  138.60    5.50   1
   7   5   2    4.40    0.70   1
  -7  -5  -2    2.60    1.20   1
   7   5   3  125.90    3.40   1
  -7  -5  -3  123.60    4.20   1
   7   5   4  189.50    4.50   1
  -7  -5  -4  188.20    5.80   1
   7   5   5   47.50    2.40   1
  -7  -5  -5   47.60    3.00   1
   7   5   6  252.20    7.20   1
  -7  -5  -6  239.50    9.80   1
   7   5   7   65.40    3.70   1
  -7  -5  -7   58.70    4.80   1
   7   7 -11    0.70    1.80   1
  -7  -7  11    2.10    1.70   1
   7   7 -10  120.70    5.70   1
  -7  -7  10  132.30    5.80   1
   7   7  -9  326.30    8.60   1
  -7  -7   9  326.00    8.60   1
   7   7  -8  128.80    4.10   1
  -7  -7   8  130.50    4.30   1
   7   7  -7   93.70    3.30   1
  -7  -7   7  100.20    3.50   1
   7   7  -6  153.10    4.90   1
  -7  -7   6  149.20    5.40   1
   7   7  -5   27.20    1.40   1
  -7  -7   5   26.00    1.60   1
   7   7  -4   34.20    1.40   1
  -7  -7   4   36.20    1.80   1
   7   7  -3   87.20    2.40   1
  -7  -7   3   83.30    3.80   1
   7   7  -2  127.60    3.00   1
  -7  -7   2  120.60    4.70   1
   7   7  -1  160.50    3.30   1
  -7  -7   1  161.40    5.70   1
   7   7   0   87.30    2.20   1
  -7  -7   0   79.30    6.60   1
   7   7   1  196.10    4.40   1
  -7  -7  -1  194.70   11.30   1
   7   7   2  149.30    3.40   1
  -7  -7  -2  156.30    7.10   1
   7   7   3   14.70    1.30   1
  -7  -7  -3   14.60    2.30   1
   7   7   4   23.50    1.80   1
  -7  -7  -4   27.60    2.90   1
   7   7   5  103.70    4.30   1
  -7  -7  -5   90.60    5.40   1
   7   7   6   23.90    2.60   1
  -7  -7  -6   23.30    3.10   1
   7   9 -10    0.60    1.90   1
  -7  -9  10    4.80    1.70   1
   7   9  -9   20.80    1.90   1
  -7  -9   9   21.40    2.10   1
   7   9  -8   33.10    2.70   1
  -7  -9   8   37.00    2.40   1
   7   9  -7    4.70    1.10   1
  -7  -9   7    6.10    1.40   1
   7   9  -6    8.00    1.30   1
  -7  -9   6    7.10    1.90   1
   7   9  -5  263.90    6.60   1
  -7  -9   5  260.20    9.10   1
   7   9  -4  249.60    5.70   1
  -7  -9   4  248.10    8.80   1
   7   9  -3  118.30    3.30   1
  -7  -9   3  109.20    4.80   1
   7   9  -2   12.70    1.00   1
  -7  -9   2   14.60    2.10   1
   7   9  -1   92.30    3.30   1
  -7  -9   1   90.00    4.40   1
   7   9   0   49.60    2.10   1
  -7  -9   0   66.40    6.90   1
   7   9   1    4.00    1.30   1
  -7  -9  -1   -1.40    2.80   1
   7   9   2   16.30    1.60   1
  -7  -9  -2   12.80    3.80   1
   7   9   3   84.50    3.50   1
  -7  -9  -3   69.50    8.60   1
   7   9   4   81.60    4.80   1
  -7  -9  -4   73.60    6.00   1
   7   9   5   99.40    5.60   1
  -7  -9  -5  113.80    6.30   1
   7  11  -8  191.50   11.40   1
  -7 -11   8  185.80   11.30   1
   7  11  -7   22.20    3.40   1
  -7 -11   7   16.70    4.70   1
   7  11  -6   73.10    4.90   1
  -7 -11   6   61.70    4.30   1
   7  11  -5   30.50    2.50   1
  -7 -11   5   29.70    2.90   1
   7  11  -4    1.00    1.50   1
  -7 -11   4    2.20    2.10   1
   7  11  -3   15.00    1.80   1
  -7 -11   3   20.90    2.60   1
   7  11  -2   56.40    2.70   1
  -7 -11   2   62.70    4.00   1
   7  11  -1   20.40    1.70   1
  -7 -11   1   20.20    3.10   1
   7  11   0  287.40    7.60   1
   7  11   1  107.40    4.50   1
  -7 -11  -1  116.90   10.90   1
   7  11   2  190.70    6.30   1
  -7 -11  -2  210.40   16.40   1
   7  11   3    1.60    1.80   1
  -7 -11  -3   -0.70    3.90   1
   7  13  -5  187.60    9.10   1
  -7 -13   5  197.20   11.30   1
   7  13  -4   13.90    2.40   1
  -7 -13   4   20.40    3.10   1
   7  13  -3  263.70    9.40   1
  -7 -13   3  262.80   11.00   1
   7  13  -2    2.70    2.00   1
  -7 -13   2    3.10    2.60   1
   7  13  -1   28.40    2.90   1
  -7 -13   1   18.80    5.30   1
   7  13   0   25.50    3.20   1
   8   0 -13   -3.00    2.10   1
   8   0 -12  347.10   12.40   1
   8   0 -11   -0.30    2.00   1
   8   0 -10  285.30    7.50   1
   8   0  -9    0.70    0.70   1
   8   0  -8    3.80    0.90   1
   8   0  -7   -1.00    0.80   1
   8   0  -6   31.90    1.40   1
   8   0  -5    0.40    0.70   1
   8   0  -4  117.40    2.60   1
   8   0  -3    0.50    0.60   1
   8   0  -2  691.90   10.40   1
   8   0  -1   -0.20    0.50   1
   8   0   0  226.10    3.70   1
   8   0   1    1.60    0.70   1
   8   0   2   40.10    2.00   1
   8   0   3    1.00    0.70   1
   8   0   4    0.10    0.80   1
   8   0   5   -0.20    2.30   1
   8   0   6  244.70   10.00   1
   8   0   7    0.90    2.20   1
   8   2 -12    0.90    1.80   1
  -8  -2  12    0.00    1.70   1
   8   2 -11    3.40    2.10   1
  -8  -2  11    7.00    1.60   1
   8   2 -10   18.20    2.20   1
  -8  -2  10   17.40    1.80   1
   8   2  -9   63.70    2.40   1
  -8  -2   9   66.10    2.80   1
   8   2  -8   29.00    1.50   1
  -8  -2   8   30.40    1.60   1
   8   2  -7  621.80   11.30   1
  -8  -2   7  617.20   11.30   1
   8   2  -6    1.80    0.70   1
  -8  -2   6    2.20    0.80   1
   8   2  -5  474.30    9.20   1
  -8  -2   5  453.80    7.60   1
   8   2  -4   14.60    0.80   1
  -8  -2   4   18.60    1.10   1
   8   2  -3    2.30    0.50   1
  -8  -2   3    2.30    0.80   1
   8   2  -2   20.30    0.80   1
  -8  -2   2   20.30    1.10   1
   8   2  -1    0.80    0.50   1
  -8  -2   1    1.80    0.50   1
   8   2   0   -0.10    0.40   1
  -8  -2   0   -0.10    0.50   1
   8   2   1  311.00    6.10   1
  -8  -2  -1  304.60    6.70   1
   8   2   2   28.90    1.50   1
  -8  -2  -2   26.40    1.30   1
   8   2   3  661.60   12.90   1
  -8  -2  -3  632.50   14.00   1
   8   2   4   12.10    1.40   1
  -8  -2  -4   17.30    2.30   1
   8   2   5   53.10    2.60   1
  -8  -2  -5   52.60    2.90   1
   8   2   6    0.80    1.40   1
  -8  -2  -6    0.60    1.70   1
   8   2   7    2.80    1.80   1
  -8  -2  -7    2.10    3.20   1
   8   4 -12  115.30    6.00   1
  -8  -4  12  118.50    5.20   1
   8   4 -11   85.10    4.70   1
  -8  -4  11   81.00    3.90   1
   8   4 -10  495.40   13.60   1
  -8  -4  10  469.70   11.60   1
   8   4  -9   12.00    1.30   1
  -8  -4   9   10.80    1.50   1
   8   4  -8    6.50    1.00   1
  -8  -4   8    8.40    1.40   1
   8   4  -7    9.30    0.90   1
  -8  -4   7    9.30    1.40   1
   8   4  -6   16.70    1.50   1
  -8  -4   6   16.10    1.30   1
   8   4  -5    1.30    0.70   1
  -8  -4   5    1.50    0.80   1
   8   4  -4  194.10    4.60   1
  -8  -4   4  188.50    4.90   1
   8   4  -3   72.50    1.50   1
  -8  -4   3   76.90    2.10   1
   8   4  -2 1055.40   17.60   1
  -8  -4   2 1043.40   14.60   1
   8   4  -1  105.90    3.30   1
  -8  -4   1  106.40    3.20   1
   8   4   0  176.90    4.90   1
  -8  -4   0  172.80    5.60   1
   8   4   1    0.40    0.80   1
  -8  -4  -1    0.30    1.40   1
   8   4   2   29.20    2.00   1
  -8  -4  -2   22.80    1.70   1
   8   4   3   23.30    1.80   1
  -8  -4  -3   23.10    2.10   1
   8   4   4   10.20    1.40   1
  -8  -4  -4    9.00    1.60   1
   8   4   5    8.40    1.50   1
  -8  -4  -5    7.50    1.80   1
   8   4   6  260.10    7.60   1
  -8  -4  -6  253.90    9.00   1
   8   6 -11   -1.10    1.90   1
  -8  -6  11    1.10    1.70   1
   8   6 -10    1.70    1.90   1
  -8  -6  10   -2.10    1.70   1
   8   6  -9   48.00    3.10   1
  -8  -6   9   56.20    2.90   1
   8   6  -8   18.70    1.60   1
  -8  -6   8   20.30    1.80   1
   8   6  -7  255.60    8.20   1
  -8  -6   7  245.60    7.00   1
   8   6  -6  294.50    8.20   1
  -8  -6   6  292.40    7.30   1
   8   6  -5  278.50    7.70   1
  -8  -6   5  260.50    6.70   1
   8   6  -4   -0.80    1.00   1
  -8  -6   4   -0.10    0.80   1
   8   6  -3    2.10    0.80   1
  -8  -6   3    2.30    1.20   1
   8   6  -2   20.10    1.40   1
  -8  -6   2   20.20    1.70   1
   8   6  -1   18.40    1.30   1
  -8  -6   1   16.00    1.60   1
   8   6   0    0.80    0.70   1
  -8  -6   0    4.50    3.60   1
   8   6   1  116.40    3.80   1
  -8  -6  -1  110.70    4.50   1
   8   6   2  150.30    3.60   1
  -8  -6  -2  147.40    5.70   1
   8   6   3  260.90    5.90   1
  -8  -6  -3  263.00    7.80   1
   8   6   4   47.50    2.40   1
  -8  -6  -4   38.10    3.40   1
   8   6   5   30.60    2.40   1
  -8  -6  -5   32.70    3.40   1
   8   6   6   -2.60    5.10   1
   8   8 -10   63.10    3.60   1
  -8  -8  10   66.60    3.80   1
   8   8  -9   42.40    3.20   1
  -8  -8   9   43.20    2.80   1
   8   8  -8   19.30    2.10   1
  -8  -8   8   19.60    2.70   1
   8   8  -7   50.10    3.10   1
  -8  -8   7   56.20    3.90   1
   8   8  -6    4.10    1.50   1
  -8  -8   6    5.50    2.00   1
   8   8  -5    5.00    1.70   1
  -8  -8   5    3.40    1.80   1
   8   8  -4   67.50    3.10   1
  -8  -8   4   61.60    3.80   1
   8   8  -3  140.20    3.80   1
  -8  -8   3  133.90    5.60   1
   8   8  -2  157.40    3.70   1
  -8  -8   2  147.90    6.00   1
   8   8  -1  200.10    4.30   1
  -8  -8   1  208.90    7.30   1
   8   8   0   63.80    2.60   1
  -8  -8   0   71.60    5.10   1
   8   8   1    1.30    1.20   1
  -8  -8  -1   -2.60    4.40   1
   8   8   2    0.80    1.20   1
  -8  -8  -2    2.30    3.20   1
   8   8   3   13.00    2.00   1
  -8  -8  -3   10.70    2.90   1
   8   8   4   18.50    2.10   1
  -8  -8  -4   19.40    3.60   1
   8  10  -9   53.00    7.40   1
  -8 -10   9   45.30    7.50   1
   8  10  -8   71.10    6.30   1
  -8 -10   8   74.10    5.10   1
   8  10  -7   98.60    5.30   1
  -8 -10   7   92.00    5.60   1
   8  10  -6  204.90    8.70   1
  -8 -10   6  205.20    8.90   1
   8  10  -5   68.70    3.70   1
  -8 -10   5   64.70    4.30   1
   8  10  -4   26.20    2.10   1
  -8 -10   4   25.00    3.00   1
   8  10  -3   68.10    3.20   1
  -8 -10   3   59.30    4.00   1
   8  10  -2   36.00    2.30   1
  -8 -10   2   41.40    3.60   1
   8  10  -1   48.60    2.70   1
  -8 -10   1   50.40    4.60   1
   8  10   0    8.70    1.30   1
  -8 -10   0    5.40    2.50   1
   8  10   1  106.70    4.10   1
  -8 -10  -1  126.50   11.40   1
   8  10   2  185.40    6.20   1
  -8 -10  -2  174.20   14.80   1
   8  10   3   83.20    4.50   1
  -8 -10  -3   95.40   10.80   1
   8  12  -5    3.30    2.50   1
  -8 -12   5    2.70    3.30   1
   8  12  -4   42.80    3.00   1
  -8 -12   4   44.80    5.20   1
   8  12  -3  164.70    5.80   1
  -8 -12   3  145.00    7.00   1
   8  12  -2   47.00    3.10   1
  -8 -12   2   46.00    4.70   1
   8  12  -1  168.30    6.10   1
  -8 -12   1  167.10    9.90   1
   9   1 -12   -1.40    1.90   1
  -9  -1  12    2.50    2.20   1
   9   1 -11   39.00    2.70   1
  -9  -1  11   37.80    2.90   1
   9   1 -10  194.60    7.10   1
  -9  -1  10  192.70    6.00   1
   9   1  -9   17.50    1.80   1
  -9  -1   9   15.50    1.90   1
   9   1  -8  158.80    4.20   1
  -9  -1   8  164.30    4.50   1
   9   1  -7   51.90    2.50   1
  -9  -1   7   49.60    2.40   1
   9   1  -6    1.80    0.80   1
  -9  -1   6    4.40    1.40   1
   9   1  -5  201.80    4.70   1
  -9  -1   5  192.40    4.60   1
   9   1  -4   22.80    1.50   1
  -9  -1   4   24.00    1.60   1
   9   1  -3  194.30    5.30   1
  -9  -1   3  196.90    4.70   1
   9   1  -2   64.50    2.20   1
  -9  -1   2   68.20    2.30   1
   9   1  -1    2.40    0.90   1
  -9  -1   1    1.50    0.70   1
   9   1   0  270.50    5.50   1
  -9  -1   0  263.00    5.90   1
   9   1   1    3.90    1.00   1
  -9  -1  -1    0.10    1.10   1
   9   1   2  146.60    4.60   1
  -9  -1  -2  138.00    4.30   1
   9   1   3  104.50    3.50   1
  -9  -1  -3  100.70    3.80   1
   9   1   4    8.10    2.30   1
  -9  -1  -4   10.80    2.20   1
   9   1   5  153.40    7.30   1
  -9  -1  -5  156.10    7.20   1
   9   3 -12   22.00    2.50   1
  -9  -3  12   29.30    2.90   1
   9   3 -11    4.60    1.60   1
  -9  -3  11    4.40    1.70   1
   9   3 -10  148.70    5.50   1
  -9  -3  10  150.50    5.50   1
   9   3  -9    7.40    1.40   1
  -9  -3   9    9.20    1.70   1
   9   3  -8  135.50    4.40   1
  -9  -3   8  134.60    3.90   1
   9   3  -7    3.80    1.00   1
  -9  -3   7    3.20    1.30   1
   9   3  -6  114.60    3.30   1
  -9  -3   6  108.40    3.30   1
   9   3  -5  486.40   10.00   1
  -9  -3   5  493.20   11.00   1
   9   3  -4    4.10    1.00   1
  -9  -3   4    3.70    1.10   1
   9   3  -3  149.30    4.50   1
  -9  -3   3  151.30    4.00   1
   9   3  -2  191.30    4.20   1
  -9  -3   2  183.40    4.50   1
   9   3  -1    1.60    0.90   1
  -9  -3   1    0.50    0.90   1
   9   3   0  164.00    4.20   1
  -9  -3   0  164.60    4.80   1
   9   3   1   33.50    1.80   1
  -9  -3  -1   28.30    2.20   1
   9   3   2   85.00    3.10   1
  -9  -3  -2   82.00    4.10   1
   9   3   3   99.90    4.00   1
  -9  -3  -3  101.20    4.10   1
   9   3   4   12.30    1.90   1
  -9  -3  -4    7.20    1.80   1
   9   3   5  174.00    6.50   1
  -9  -3  -5  172.50    6.80   1
   9   5 -11   21.70    2.80   1
  -9  -5  11   25.00    2.50   1
   9   5 -10  116.10    5.80   1
  -9  -5  10  123.60    5.30   1
   9   5  -9  100.40    4.20   1
  -9  -5   9   98.00    4.30   1
   9   5  -8  216.20    6.40   1
  -9  -5   8  219.40    6.60   1
   9   5  -7   40.40    2.30   1
  -9  -5   7   36.00    2.30   1
   9   5  -6    0.30    1.00   1
  -9  -5   6    0.90    1.00   1
   9   5  -5  154.30    5.70   1
  -9  -5   5  154.10    4.70   1
   9   5  -4   64.30    4.20   1
  -9  -5   4   59.90    3.00   1
   9   5  -3   64.20    2.90   1
  -9  -5   3   67.10    3.10   1
   9   5  -2   47.30    2.40   1
  -9  -5   2   45.00    2.60   1
   9   5  -1   66.10    2.50   1
  -9  -5   1   63.30    3.50   1
   9   5   0  305.90    7.00   1
  -9  -5   0  315.30    9.70   1
   9   5   1   42.90    2.50   1
  -9  -5  -1   42.00    3.00   1
   9   5   2   41.80    2.30   1
  -9  -5  -2   44.90    3.20   1
   9   5   3   88.70    3.60   1
  -9  -5  -3   99.80    5.00   1
   9   5   4   21.40    2.00   1
  -9  -5  -4   19.70    2.60   1
   9   7 -10   28.00    4.10   1
  -9  -7  10   34.10    3.40   1
   9   7  -9   68.30    5.40   1
  -9  -7   9   61.00    4.40   1
   9   7  -8   12.30    2.20   1
  -9  -7   8    9.10    2.20   1
   9   7  -7   -0.50    1.30   1
  -9  -7   7    1.50    1.80   1
   9   7  -6   61.40    3.50   1
  -9  -7   6   58.20    4.20   1
   9   7  -5  141.90    7.30   1
  -9  -7   5  122.60    5.80   1
   9   7  -4  101.30    6.00   1
  -9  -7   4   95.70    5.10   1
   9   7  -3  130.60    5.30   1
  -9  -7   3  113.10    5.30   1
   9   7  -2   70.60    3.80   1
  -9  -7   2   68.30    4.10   1
   9   7  -1   41.80    2.40   1
  -9  -7   1   44.50    4.30   1
   9   7   0   37.20    2.80   1
  -9  -7   0   36.00    4.30   1
   9   7   1   17.40    1.70   1
  -9  -7  -1   12.20    5.70   1
   9   7   2   52.70    3.00   1
  -9  -7  -2   62.80    8.20   1
   9   7   3   44.70    2.80   1
  -9  -7  -3   44.00    4.80   1
   9   9  -8   45.50    4.60   1
  -9  -9   8   44.80    4.10   1
   9   9  -7  136.80    6.60   1
  -9  -9   7  133.40    7.20   1
   9   9  -6   -0.60    1.60   1
  -9  -9   6    2.20    2.30   1
   9   9  -5   13.40    2.20   1
  -9  -9   5   10.20    2.70   1
   9   9  -4   52.60    3.80   1
  -9  -9   4   50.30    4.00   1
   9   9  -3   34.40    2.50   1
  -9  -9   3   32.20    3.40   1
   9   9  -2   16.20    1.90   1
  -9  -9   2   16.70    2.60   1
   9   9  -1  154.60    5.30   1
  -9  -9   1  166.00    9.70   1
   9   9   0  118.90    5.00   1
  -9  -9   0  126.50    8.00   1
   9   9   1  161.40    6.30   1
  -9  -9  -1  154.60    9.30   1
   9   9   2   15.20    2.80   1
  -9  -9  -2   19.30    5.50   1
   9  11  -5   71.00    5.50   1
  -9 -11   5   68.50    5.80   1
   9  11  -4  182.80    7.20   1
  -9 -11   4  190.00    8.70   1
   9  11  -3   12.80    2.10   1
  -9 -11   3   10.40    3.10   1
   9  11  -2   97.50    4.30   1
  -9 -11   2  104.40    7.40   1
  10   0 -11   -1.00    1.60   1
  10   0 -10   19.20    2.10   1
  10   0  -9    0.00    1.70   1
  10   0  -8  240.40    6.20   1
  10   0  -7    0.80    1.20   1
  10   0  -6  576.10   11.50   1
  10   0  -5    0.30    1.00   1
  10   0  -4    4.00    1.10   1
  10   0  -3   -0.90    0.90   1
  10   0  -2   11.20    1.40   1
  10   0  -1    0.40    0.90   1
  10   0   0   86.40    3.00   1
  10   0   1   -0.40    1.60   1
  10   0   2  543.90   21.00   1
  10   0   3    0.10    2.40   1
  10   0   4  145.10    8.40   1
  10   2 -11  284.90    9.60   1
 -10  -2  11  274.80    9.50   1
  10   2 -10   34.60    2.80   1
 -10  -2  10   29.80    2.70   1
  10   2  -9   55.00    3.20   1
 -10  -2   9   57.70    3.20   1
  10   2  -8    9.10    1.40   1
 -10  -2   8    8.50    1.40   1
  10   2  -7    4.70    1.20   1
 -10  -2   7    4.20    1.20   1
  10   2  -6   -1.80    0.90   1
 -10  -2   6    0.20    1.10   1
  10   2  -5   55.70    2.40   1
 -10  -2   5   54.80    2.50   1
  10   2  -4    3.90    1.00   1
 -10  -2   4    4.30    1.20   1
  10   2  -3  433.40   10.90   1
 -10  -2   3  443.00    9.50   1
  10   2  -2   24.50    2.20   1
 -10  -2   2   21.60    2.10   1
  10   2  -1  289.10    9.20   1
 -10  -2   1  286.70    9.10   1
  10   2   0    1.10    1.10   1
 -10  -2   0    0.30    1.30   1
  10   2   1    1.10    1.20   1
 -10  -2  -1    5.60    1.60   1
  10   2   2    1.80    1.20   1
 -10  -2  -2   -2.50    1.70   1
  10   2   3   -0.60    1.80   1
 -10  -2  -3    2.40    2.50   1
  10   2   4    3.50    2.40   1
 -10  -2  -4    2.80    2.40   1
  10   4 -11    6.80    5.10   1
 -10  -4  11   17.80    4.90   1
  10   4 -10   11.80    2.50   1
 -10  -4  10   11.30    2.10   1
  10   4  -9    5.50    1.90   1
 -10  -4   9    2.10    1.80   1
  10   4  -8  231.90    7.50   1
 -10  -4   8  215.20    7.60   1
  10   4  -7   62.50    3.10   1
 -10  -4   7   59.50    2.80   1
  10   4  -6  271.40    8.50   1
 -10  -4   6  275.70   11.20   1
  10   4  -5   15.60    2.10   1
 -10  -4   5    8.90    1.70   1
  10   4  -4   14.80    2.10   1
 -10  -4   4   19.50    2.20   1
  10   4  -3   13.40    1.80   1
 -10  -4   3   17.50    1.90   1
  10   4  -2    7.10    1.50   1
 -10  -4   2    2.00    1.60   1
  10   4  -1    0.60    1.30   1
 -10  -4   1   -1.50    1.70   1
  10   4   0   60.50    3.50   1
 -10  -4   0   60.10    3.60   1
  10   4   1   17.50    2.10   1
 -10  -4  -1   15.10    2.40   1
  10   4   2  271.80    8.90   1
 -10  -4  -2  258.20   10.00   1
  10   4   3   43.60    3.10   1
 -10  -4  -3   38.90    3.50   1
  10   6 -10   28.70    5.20   1
 -10  -6  10   17.90    4.00   1
  10   6  -9   20.10    3.40   1
 -10  -6   9   18.60    3.30   1
  10   6  -8    3.40    2.00   1
 -10  -6   8    2.20    2.40   1
  10   6  -7    8.30    2.20   1
 -10  -6   7    4.90    2.40   1
  10   6  -6   22.60    2.50   1
 -10  -6   6   21.40    3.00   1
  10   6  -5   25.30    3.00   1
 -10  -6   5   21.90    2.90   1
  10   6  -4   40.70    3.10   1
 -10  -6   4   40.50    2.90   1
  10   6  -3  271.30    8.80   1
 -10  -6   3  272.70    8.20   1
  10   6  -2  122.00    4.60   1
 -10  -6   2  111.70    5.10   1
  10   6  -1  164.70    6.10   1
 -10  -6   1  165.80    7.40   1
  10   6   0    8.00    2.10   1
 -10  -6   0    5.00    2.00   1
  10   6   1    6.80    1.90   1
 -10  -6  -1   10.40    2.40   1
  10   6   2   13.00    2.10   1
 -10  -6  -2   12.10    2.60   1
  10   8  -8   64.60   10.30   1
 -10  -8   8   72.60    5.50   1
  10   8  -7  165.90    7.40   1
 -10  -8   7  161.10    8.30   1
  10   8  -6  156.30    7.50   1
 -10  -8   6  151.10    7.70   1
  10   8  -5   41.90    3.30   1
 -10  -8   5   34.20    3.60   1
  10   8  -4   20.40    2.50   1
 -10  -8   4    9.00    2.50   1
  10   8  -3    6.30    1.80   1
 -10  -8   3    7.10    2.40   1
  10   8  -2   44.60    3.00   1
 -10  -8   2   47.20    4.80   1
  10   8  -1    6.20    2.00   1
 -10  -8   1   -0.30    2.60   1
  10   8   0   53.10    3.50   1
 -10  -8   0   52.00    5.00   1
  10   8   1  103.10    5.80   1
 -10  -8  -1  104.80   10.70   1
  11   1 -10   -3.10    2.40   1
 -11  -1  10    2.80    2.10   1
  11   1  -9  181.80    7.00   1
 -11  -1   9  178.10    6.80   1
  11   1  -8    2.00    1.50   1
 -11  -1   8    0.40    1.40   1
  11   1  -7   36.30    2.30   1
 -11  -1   7   29.10    2.30   1
  11   1  -6  189.60    5.60   1
 -11  -1   6  193.20    5.60   1
  11   1  -5    2.20    1.30   1
 -11  -1   5    5.00    1.50   1
  11   1  -4  182.20    7.00   1
 -11  -1   4  177.60    6.00   1
  11   1  -3   27.20    2.50   1
 -11  -1   3   25.10    2.40   1
  11   1  -2   11.50    2.00   1
 -11  -1   2    9.80    2.00   1
  11   1  -1  175.40    9.30   1
 -11  -1   1  174.40    9.30   1
  11   1   0    0.60    2.00   1
 -11  -1   0    0.80    2.20   1
  11   1   1   85.80    6.10   1
 -11  -1  -1   83.80    6.10   1
  11   1   2   33.50    4.10   1
 -11  -1  -2   44.90    4.50   1
  11   3 -10    4.00    2.90   1
 -11  -3  10    1.60    3.30   1
  11   3  -9  103.80    7.30   1
 -11  -3   9   98.80    5.90   1
  11   3  -8   12.10    2.80   1
 -11  -3   8   15.60    2.20   1
  11   3  -7   20.00    2.80   1
 -11  -3   7   20.50    2.70   1
  11   3  -6   68.80    4.40   1
 -11  -3   6   58.30    3.50   1
  11   3  -5   55.80    3.70   1
 -11  -3   5   58.40    3.30   1
  11   3  -4   65.30    4.00   1
 -11  -3   4   60.90    3.40   1
  11   3  -3    6.70    1.90   1
 -11  -3   3    4.10    1.80   1
  11   3  -2   28.20    2.90   1
 -11  -3   2   23.30    3.20   1
  11   3  -1  140.50    6.50   1
 -11  -3   1  132.50    6.30   1
  11   3   0    0.40    1.60   1
 -11  -3   0   -1.50    1.60   1
  11   3   1   89.80    4.90   1
 -11  -3  -1   81.80    6.10   1
  11   5  -9   18.90    4.20   1
 -11  -5   9   17.70    3.10   1
  11   5  -8    3.30    2.20   1
 -11  -5   8    2.70    2.40   1
  11   5  -7   47.30    4.00   1
 -11  -5   7   27.90    4.10   1
  11   5  -6  114.90    5.90   1
 -11  -5   6  101.30    5.00   1
  11   5  -5   23.40    2.80   1
 -11  -5   5   25.30    2.80   1
  11   5  -4  124.40    6.00   1
 -11  -5   4  119.00    5.30   1
  11   5  -3   57.00    3.90   1
 -11  -5   3   59.10    3.60   1
  11   5  -2    3.10    2.20   1
 -11  -5   2    3.80    2.10   1
  11   5  -1   47.30    3.20   1
 -11  -5   1   47.60    3.80   1
  11   5   0   45.20    3.10   1
 -11  -5   0   37.50    3.60   1
  11   7  -7    3.60    2.60   1
 -11  -7   7   -0.80    2.80   1
  11   7  -6   90.50    7.10   1
 -11  -7   6   81.80    6.70   1
  11   7  -5    6.90    2.20   1
 -11  -7   5   13.60    2.90   1
  11   7  -4   23.00    2.70   1
 -11  -7   4   24.90    3.30   1
  11   7  -3    5.50    2.90   1
 -11  -7   3    5.80    3.00   1
  11   7  -2   97.90    5.60   1
 -11  -7   2  102.00    7.30   1
  11   7  -1  139.60    8.50   1
 -11  -7   1  160.70   13.50   1
  12   0  -8    4.10    3.20   1
  12   0  -7   -2.10    2.60   1
  12   0  -6    8.00    2.90   1
  12   0  -5   -0.60    2.10   1
  12   0  -4  238.70   11.50   1
  12   0  -3   -2.20    2.60   1
  12   0  -2  265.80   12.30   1
  12   0  -1   -2.50    2.30   1
  12   2  -8    8.00    3.00   1
 -12  -2   8    8.00    3.00   1
  12   2  -7  260.10   11.00   1
 -12  -2   7  271.20    9.70   1
  12   2  -6    4.20    2.40   1
 -12  -2   6    4.30    2.00   1
  12   2  -5   31.50    3.40   1
 -12  -2   5   33.20    3.00   1
  12   2  -4    1.30    2.10   1
 -12  -2   4    2.10    1.90   1
  12   2  -3   -5.10    2.20   1
 -12  -2   3    6.10    2.60   1
  12   2  -2    2.40    2.50   1
 -12  -2   2    5.50    2.80   1
  12   2  -1   17.20    3.60   1
 -12  -2   1   13.20    4.20   1
  12   4  -6   16.50    2.90   1
 -12  -4   6   16.90    3.00   1
  12   4  -5    1.70    2.00   1
 -12  -4   5   -1.80    2.00   1
  12   4  -4  107.30    5.70   1
 -12  -4   4  114.70    5.30   1
  12   4  -3   49.60    3.90   1
 -12  -4   3   56.60    4.40   1
  12   4  -2  214.70    9.50   1
 -12  -4   2  230.80   11.80   1
   0   0   0
;
_shelx_hkl_checksum              24235
_shelx_res_file
;
TITL kinalasm in C2/c = KIn(HAsO4)2 (kein Al drin)
    shelx.res
    created by SHELXL-2016/6 at 10:31:47 on 20-Sep-2017
CELL 0.71073   8.340  10.657   9.197  90.00 109.37  90.00
ZERR    4.00   0.002   0.002   0.002   0.00   0.03   0.00
LATT  7
SYMM -X, Y, .5-Z
SFAC O K In AS H
UNIT 32 4 4 8 8
acta
temp 20
size 0.02 0.02 0.19
omit 1 1 0
omit 0 4 0
htab
bond $H
dfix O4 H 0.90 0.02
eqiv $1 x, -y+1, z+1/2
htab O4 O2_$1
L.S. 10
BOND
FMAP 2
PLAN 50
EADP K1 K2
WGHT    0.022700    1.290800
EXTI    0.001810
FVAR       0.15141   0.97636
MOLE   1
K1    2    0.250000    0.250000    0.000000    20.50000    0.05497    0.05881 =
         0.03006   -0.01953    0.03119   -0.03550
K2    2    0.000000    0.678407    0.250000   -20.50000    0.05497    0.05881 =
         0.03006   -0.01953    0.03119   -0.03550
IN    3    0.000000    0.134267    0.250000    10.50000    0.00910    0.00802 =
         0.00799    0.00000    0.00224    0.00000
AS    4    0.276070    0.397252    0.360131    11.00000    0.01099    0.00995 =
         0.00731   -0.00008    0.00262   -0.00206
O1    1    0.191447    0.268059    0.265230    11.00000    0.02434    0.01569 =
         0.01814   -0.00549    0.01030   -0.01081
O2    1    0.311375    0.491806    0.228271    11.00000    0.01991    0.01781 =
         0.01140    0.00617   -0.00025   -0.00958
O3    1    0.452206    0.362892    0.506718    11.00000    0.01377    0.01760 =
         0.00875   -0.00053    0.00153    0.00243
rem O4 = OH
O4    1    0.132878    0.472878    0.428495    11.00000    0.01917    0.04020 =
         0.01525   -0.00529    0.00354    0.01220
H     5    0.158934    0.472877    0.528919    11.00000    0.07643
HKLF 4
REM  kinalasm in C2/c = KIn(HAsO4)2 (kein Al drin)
REM R1 =  0.0194 for    1295 Fo > 4sig(Fo)  and  0.0227 for all    1406 data
REM     64 parameters refined using      1 restraints
END
WGHT      0.0227      1.2819
REM Instructions for potential hydrogen bonds
HTAB O4 O2_$1
REM Highest difference peak  1.183,  deepest hole -0.998,  1-sigma level  0.158
Q1    1   0.2753  0.3333  0.3542  11.00000  0.05    1.18
Q2    1   0.0552  0.6330  0.4766  11.00000  0.05    1.18
Q3    1   0.0000  0.0715  0.2500  10.50000  0.05    1.05
Q4    1   0.2277  0.3733  0.1350  11.00000  0.05    0.98
Q5    1   0.1251  0.1356  0.2418  11.00000  0.05    0.69
Q6    1   0.3454  0.4546  0.2929  11.00000  0.05    0.68
Q7    1   0.4150  0.3961  0.3356  11.00000  0.05    0.60
Q8    1   0.2561  0.4906  0.2750  11.00000  0.05    0.53
Q9    1   0.1417  0.4018  0.3885  11.00000  0.05    0.51
Q10   1   0.3720  0.3579  0.4407  11.00000  0.05    0.50
Q11   1   0.5200  0.4712  0.6052  11.00000  0.05    0.50
Q12   1   0.3344  0.5398  0.2823  11.00000  0.05    0.49
Q13   1   0.0593  0.0604  0.3435  11.00000  0.05    0.48
Q14   1   0.4817  0.2618  0.3948  11.00000  0.05    0.47
Q15   1   0.3446  0.3306  0.5453  11.00000  0.05    0.45
Q16   1   0.1466  0.6143  0.4352  11.00000  0.05    0.44
Q17   1   0.3975  0.2678  0.5189  11.00000  0.05    0.42
Q18   1   0.4406  0.4369  0.5584  11.00000  0.05    0.41
Q19   1   0.1306  0.4524  0.4781  11.00000  0.05    0.41
Q20   1   0.1606  0.2191  0.2809  11.00000  0.05    0.41
Q21   1   0.1246  0.2491  0.3980  11.00000  0.05    0.41
Q22   1   0.3300  0.3310  0.1926  11.00000  0.05    0.40
Q23   1   0.3230  0.4263  0.5845  11.00000  0.05    0.39
Q24   1   0.1822  0.3348  0.2790  11.00000  0.05    0.39
Q25   1   0.0744  0.5591  0.4855  11.00000  0.05    0.39
Q26   1   0.3117  0.5822  0.2156  11.00000  0.05    0.38
Q27   1   0.1410  0.3675  0.5044  11.00000  0.05    0.38
Q28   1   0.4504  0.4077  0.4822  11.00000  0.05    0.38
Q29   1   0.3713  0.4061  0.5746  11.00000  0.05    0.38
Q30   1   0.1673  0.3487  0.3824  11.00000  0.05    0.37
Q31   1   0.0759  0.3466  0.4197  11.00000  0.05    0.37
Q32   1   0.5043  0.2027  0.4960  11.00000  0.05    0.36
Q33   1  -0.0887  0.6116  0.2689  11.00000  0.05    0.36
Q34   1  -0.0184  0.7028  0.4015  11.00000  0.05    0.36
Q35   1   0.1451  0.5966  0.5581  11.00000  0.05    0.36
Q36   1   0.4400  0.4954  0.2827  11.00000  0.05    0.35
Q37   1   0.3929  0.5268  0.2439  11.00000  0.05    0.35
Q38   1   0.2360  0.2168 -0.0078  11.00000  0.05    0.34
Q39   1   0.4782  0.2376  0.5836  11.00000  0.05    0.34
Q40   1   0.5000  0.4844  0.2500  10.50000  0.05    0.34
Q41   1   0.0027  0.4294  0.4580  11.00000  0.05    0.33
Q42   1   0.1576  0.1984  0.1846  11.00000  0.05    0.33
Q43   1   0.5737  0.4630  0.4398  11.00000  0.05    0.33
Q44   1   0.0450  0.3934  0.6089  11.00000  0.05    0.33
Q45   1   0.1337  0.3818  0.5997  11.00000  0.05    0.33
Q46   1   0.1915  0.4638  0.1390  11.00000  0.05    0.33
Q47   1   0.4443  0.4575  0.3978  11.00000  0.05    0.33
Q48   1   0.2268  0.3422 -0.0717  11.00000  0.05    0.32
Q49   1   0.0518  0.4459  0.3589  11.00000  0.05    0.32
Q50   1   0.1097  0.2621  0.2598  11.00000  0.05    0.32
;
_shelx_res_checksum              96556
loop_
_space_group_symop_operation_xyz
'x, y, z'
'-x, y, -z+1/2'
'x+1/2, y+1/2, z'
'-x+1/2, y+1/2, -z+1/2'
'-x, -y, -z'
'x, -y, z-1/2'
'-x+1/2, -y+1/2, -z'
'x+1/2, -y+1/2, z-1/2'
loop_
_atom_site_type_symbol
_atom_site_label
_atom_site_fract_x
_atom_site_fract_y
_atom_site_fract_z
_atom_site_U_iso_or_equiv
_atom_site_adp_type
_atom_site_calc_flag
_atom_site_occupancy
K K1 0.250000 0.250000 0.000000 0.0437(3) Uani d 0.976(2)
K K2 0.000000 0.678(5) 0.250000 0.0437(3) Uani d 0.024(2)
In In 0.000000 0.13427(2) 0.250000 0.00852(7) Uani d 1
As As 0.27607(3) 0.39725(2) 0.36013(2) 0.00952(7) Uani d 1
O O1 0.1914(2) 0.26806(16) 0.26523(19) 0.0186(3) Uani d 1
O O2 0.3114(2) 0.49181(17) 0.22827(18) 0.0177(3) Uani d 1
O O3 0.4522(2) 0.36289(15) 0.50672(18) 0.0139(3) Uani d 1
O O4 0.1329(2) 0.4729(2) 0.4285(2) 0.0254(4) Uani d 1
H H 0.159(6) 0.473(5) 0.529(2) 0.076(16) Uiso d 1
loop_
_atom_site_aniso_label
_atom_site_aniso_U_11
_atom_site_aniso_U_22
_atom_site_aniso_U_33
_atom_site_aniso_U_12
_atom_site_aniso_U_13
_atom_site_aniso_U_23
K1 0.0550(7) 0.0588(7) 0.0301(5) -0.0355(6) 0.0312(5) -0.0195(5)
K2 0.0550(7) 0.0588(7) 0.0301(5) -0.0355(6) 0.0312(5) -0.0195(5)
In 0.00910(10) 0.00802(11) 0.00799(10) 0.000 0.00224(7) 0.000
As 0.01099(11) 0.00995(12) 0.00731(10) -0.00206(7) 0.00262(8) -0.00008(7)
O1 0.0243(9) 0.0157(8) 0.0181(8) -0.0108(7) 0.0103(7) -0.0055(6)
O2 0.0199(8) 0.0178(8) 0.0114(7) -0.0096(6) -0.0003(6) 0.0062(6)
O3 0.0138(7) 0.0176(8) 0.0087(7) 0.0024(6) 0.0015(6) -0.0005(5)
O4 0.0192(9) 0.0402(12) 0.0152(8) 0.0122(8) 0.0035(7) -0.0053(8)
loop_
_atom_type_symbol
_atom_type_description
_atom_type_scat_dispersion_real
_atom_type_scat_dispersion_imag
_atom_type_scat_source
O O 0.0106 0.0060 'International Tables Vol C Tables 4.2.6.8 and 6.1.1.4'
K K 0.2009 0.2494 'International Tables Vol C Tables 4.2.6.8 and 6.1.1.4'
In In -0.7276 1.3100 'International Tables Vol C Tables 4.2.6.8 and 6.1.1.4'
As As 0.0499 2.0058 'International Tables Vol C Tables 4.2.6.8 and 6.1.1.4'
H H 0.0000 0.0000 'International Tables Vol C Tables 4.2.6.8 and 6.1.1.4'
loop_
_geom_angle_atom_site_label_1
_geom_angle_atom_site_label_2
_geom_angle_atom_site_label_3
_geom_angle_site_symmetry_1
_geom_angle_site_symmetry_3
_geom_angle
O1 K1 O1 7 . 180.0
O1 K1 K2 7 5_565 63.6(3)
O1 K1 K2 . 5_565 116.4(3)
O1 K1 K2 7 3_545 116.4(3)
O1 K1 K2 . 3_545 63.6(3)
K2 K1 K2 5_565 3_545 180(2)
O1 K1 O3 7 8_455 115.35(5)
O1 K1 O3 . 8_455 64.65(5)
K2 K1 O3 5_565 8_455 72.1(6)
K2 K1 O3 3_545 8_455 107.9(6)
O1 K1 O3 7 2_655 64.65(5)
O1 K1 O3 . 2_655 115.35(5)
K2 K1 O3 5_565 2_655 107.9(6)
K2 K1 O3 3_545 2_655 72.1(6)
O3 K1 O3 8_455 2_655 180.00(6)
O1 K1 O4 7 6_565 90.87(5)
O1 K1 O4 . 6_565 89.13(5)
K2 K1 O4 5_565 6_565 56.1(11)
K2 K1 O4 3_545 6_565 123.9(11)
O3 K1 O4 8_455 6_565 101.27(5)
O3 K1 O4 2_655 6_565 78.73(5)
O1 K1 O4 7 4_545 89.13(5)
O1 K1 O4 . 4_545 90.87(5)
K2 K1 O4 5_565 4_545 123.9(11)
K2 K1 O4 3_545 4_545 56.1(11)
O3 K1 O4 8_455 4_545 78.73(5)
O3 K1 O4 2_655 4_545 101.27(5)
O4 K1 O4 6_565 4_545 180.0
O1 K1 O2 7 . 127.87(5)
O1 K1 O2 . . 52.13(5)
K2 K1 O2 5_565 . 104.0(10)
K2 K1 O2 3_545 . 76.0(10)
O3 K1 O2 8_455 . 106.19(5)
O3 K1 O2 2_655 . 73.81(5)
O4 K1 O2 6_565 . 49.92(5)
O4 K1 O2 4_545 . 130.08(5)
O1 K1 O2 7 7 52.13(5)
O1 K1 O2 . 7 127.87(5)
K2 K1 O2 5_565 7 76.0(10)
K2 K1 O2 3_545 7 104.0(10)
O3 K1 O2 8_455 7 73.80(5)
O3 K1 O2 2_655 7 106.20(5)
O4 K1 O2 6_565 7 130.08(5)
O4 K1 O2 4_545 7 49.92(5)
O2 K1 O2 . 7 180.0
O1 K1 As 7 . 154.71(4)
O1 K1 As . . 25.29(4)
K2 K1 As 5_565 . 117.5(7)
K2 K1 As 3_545 . 62.5(7)
O3 K1 As 8_455 . 87.14(4)
O3 K1 As 2_655 . 92.86(4)
O4 K1 As 6_565 . 72.55(4)
O4 K1 As 4_545 . 107.45(4)
O2 K1 As . . 27.68(3)
O2 K1 As 7 . 152.32(3)
O1 K1 As 7 7 25.29(4)
O1 K1 As . 7 154.71(4)
K2 K1 As 5_565 7 62.5(7)
K2 K1 As 3_545 7 117.5(7)
O3 K1 As 8_455 7 92.86(4)
O3 K1 As 2_655 7 87.14(4)
O4 K1 As 6_565 7 107.45(4)
O4 K1 As 4_545 7 72.55(4)
O2 K1 As . 7 152.32(3)
O2 K1 As 7 7 27.68(3)
As K1 As . 7 180.0
K1 K2 K1 4 3_455 147(2)
K1 K2 O4 4 . 70.4(4)
K1 K2 O4 3_455 . 142.6(17)
K1 K2 O4 4 2 142.6(17)
K1 K2 O4 3_455 2 70.4(4)
O4 K2 O4 . 2 73.9(13)
K1 K2 O1 4 4 58.2(4)
K1 K2 O1 3_455 4 109.3(10)
O4 K2 O1 . 4 96.2(5)
O4 K2 O1 2 4 116.1(8)
K1 K2 O1 4 3_455 109.3(10)
K1 K2 O1 3_455 3_455 58.2(4)
O4 K2 O1 . 3_455 116.1(8)
O4 K2 O1 2 3_455 96.2(5)
O1 K2 O1 4 3_455 140(2)
K1 K2 O3 4 3_455 55.8(6)
K1 K2 O3 3_455 3_455 102.0(12)
O4 K2 O3 . 3_455 100.01(14)
O4 K2 O3 2 3_455 144.0(5)
O1 K2 O3 4 3_455 99.8(12)
O1 K2 O3 3_455 3_455 53.8(5)
K1 K2 O3 4 4 102.0(12)
K1 K2 O3 3_455 4 55.8(6)
O4 K2 O3 . 4 144.0(5)
O4 K2 O3 2 4 100.01(14)
O1 K2 O3 4 4 53.8(5)
O1 K2 O3 3_455 4 99.8(12)
O3 K2 O3 3_455 4 104.1(15)
K1 K2 O2 4 . 79.6(4)
K1 K2 O2 3_455 . 121.6(6)
O4 K2 O2 . . 52.4(7)
O4 K2 O2 2 . 69.8(10)
O1 K2 O2 4 . 56.7(3)
O1 K2 O2 3_455 . 163.3(17)
O3 K2 O2 3_455 . 134.62(5)
O3 K2 O2 4 . 91.84(5)
K1 K2 O2 4 2 121.6(6)
K1 K2 O2 3_455 2 79.6(4)
O4 K2 O2 . 2 69.8(10)
O4 K2 O2 2 2 52.4(7)
O1 K2 O2 4 2 163.3(17)
O1 K2 O2 3_455 2 56.7(3)
O3 K2 O2 3_455 2 91.84(5)
O3 K2 O2 4 2 134.62(5)
O2 K2 O2 . 2 106.6(15)
K1 K2 As 4 4 72.8(8)
K1 K2 As 3_455 4 83.9(10)
O4 K2 As . 4 125.63(13)
O4 K2 As 2 4 122.06(11)
O1 K2 As 4 4 29.6(4)
O1 K2 As 3_455 4 113.1(16)
O3 K2 As 3_455 4 90.8(12)
O3 K2 As 4 4 29.5(3)
O2 K2 As . 4 82.73(9)
O2 K2 As 2 4 163.5(6)
K1 K2 As 4 3_455 83.9(10)
K1 K2 As 3_455 3_455 72.8(8)
O4 K2 As . 3_455 122.06(11)
O4 K2 As 2 3_455 125.63(13)
O1 K2 As 4 3_455 113.1(16)
O1 K2 As 3_455 3_455 29.6(4)
O3 K2 As 3_455 3_455 29.5(3)
O3 K2 As 4 3_455 90.8(12)
O2 K2 As . 3_455 163.5(6)
O2 K2 As 2 3_455 82.73(9)
As K2 As 4 3_455 91.7(13)
O1 In O1 . 2 94.99(10)
O1 In O3 . 8_455 86.23(7)
O1 In O3 2 8_455 92.67(7)
O1 In O3 . 7_556 92.67(7)
O1 In O3 2 7_556 86.23(7)
O3 In O3 8_455 7_556 178.38(9)
O1 In O2 . 3_445 177.02(7)
O1 In O2 2 3_445 87.52(7)
O3 In O2 8_455 3_445 92.07(6)
O3 In O2 7_556 3_445 89.08(7)
O1 In O2 . 4_545 87.52(7)
O1 In O2 2 4_545 177.02(7)
O3 In O2 8_455 4_545 89.08(7)
O3 In O2 7_556 4_545 92.07(6)
O2 In O2 3_445 4_545 90.01(10)
O1 In K1 . 2 107.25(5)
O1 In K1 2 2 42.55(5)
O3 In K1 8_455 2 132.97(5)
O3 In K1 7_556 2 46.31(5)
O2 In K1 3_445 2 75.69(5)
O2 In K1 4_545 2 135.06(5)
O1 In K1 . . 42.55(5)
O1 In K1 2 . 107.25(5)
O3 In K1 8_455 . 46.31(5)
O3 In K1 7_556 . 132.97(5)
O2 In K1 3_445 . 135.06(5)
O2 In K1 4_545 . 75.69(5)
K1 In K1 2 . 141.977(12)
O1 In K2 . 3_545 36.3(7)
O1 In K2 2 3_545 130.9(7)
O3 In K2 8_455 3_545 80.73(5)
O3 In K2 7_556 3_545 99.09(6)
O2 In K2 3_445 3_545 140.9(7)
O2 In K2 4_545 3_545 51.8(7)
K1 In K2 2 3_545 135.3(4)
K1 In K2 . 3_545 38.4(3)
O1 In K2 . 3_445 130.9(7)
O1 In K2 2 3_445 36.3(7)
O3 In K2 8_455 3_445 99.09(6)
O3 In K2 7_556 3_445 80.73(5)
O2 In K2 3_445 3_445 51.8(7)
O2 In K2 4_545 3_445 140.9(7)
K1 In K2 2 3_445 38.4(3)
K1 In K2 . 3_445 135.3(4)
K2 In K2 3_545 3_445 167.1(14)
O1 As O3 . . 110.45(9)
O1 As O2 . . 105.35(8)
O3 As O2 . . 113.38(8)
O1 As O4 . . 110.80(10)
O3 As O4 . . 109.76(8)
O2 As O4 . . 106.99(10)
O1 As K2 . 3_545 56.3(5)
O3 As K2 . 3_545 70.26(6)
O2 As K2 . 3_545 87.2(6)
O4 As K2 . 3_545 163.7(7)
O1 As K1 . . 43.06(6)
O3 As K1 . . 114.49(6)
O2 As K1 . . 64.44(6)
O4 As K1 . . 134.49(6)
K2 As K1 3_545 . 44.66(8)
O1 As K2 . . 114.2(5)
O3 As K2 . . 134.2(4)
O2 As K2 . . 63.8(2)
O4 As K2 . . 43.88(15)
K2 As K2 3_545 . 146.9(3)
K1 As K2 . . 104.94(19)
As O1 In . . 140.97(10)
As O1 K1 . . 111.65(8)
In O1 K1 . . 104.85(7)
As O1 K2 . 3_545 94.1(9)
In O1 K2 . 3_545 117.1(10)
K1 O1 K2 . 3_545 58.29(14)
As O2 In . 3 131.05(9)
As O2 K1 . . 87.88(7)
In O2 K1 3 . 124.98(7)
As O2 K2 . . 89.3(6)
In O2 K2 3 . 97.7(7)
K1 O2 K2 . . 123.5(5)
As O3 In . 7_556 130.50(9)
As O3 K1 . 2_655 129.02(8)
In O3 K1 7_556 2_655 99.88(6)
As O3 K2 . 3_545 80.2(3)
In O3 K2 7_556 3_545 139.1(7)
K1 O3 K2 2_655 3_545 52.13(8)
As O4 K2 . . 110.3(2)
As O4 K1 . 4 108.30(10)
K2 O4 K1 . 4 53.4(7)
As O4 H . . 115(3)
K2 O4 H . . 123(3)
K1 O4 H 4 . 80(3)
loop_
_geom_bond_atom_site_label_1
_geom_bond_atom_site_label_2
_geom_bond_site_symmetry_2
_geom_bond_distance
_geom_bond_publ_flag
K1 O1 7 2.6488(17) y
K1 O1 . 2.6488(17) y
K1 K2 5_565 2.653(15) ?
K1 K2 3_545 2.653(15) ?
K1 O3 8_455 2.7788(17) y
K1 O3 2_655 2.7788(17) y
K1 O4 6_565 3.112(2) y
K1 O4 4_545 3.112(2) y
K1 O2 . 3.2553(19) y
K1 O2 7 3.2553(19) y
K1 As . 3.6059(7) ?
K1 As 7 3.6059(7) ?
K2 O4 . 2.74(4) y
K2 O4 2 2.74(4) y
K2 O1 4 2.792(18) y
K2 O1 3_455 2.792(18) y
K2 O3 3_455 3.20(3) y
K2 O3 4 3.20(3) y
K2 O2 . 3.33(3) y
K2 O2 2 3.33(3) y
K2 As 4 3.35(4) ?
K2 As 3_455 3.35(4) ?
In O1 . 2.1104(17) y
In O1 2 2.1104(17) y
In O3 8_455 2.1388(16) y
In O3 7_556 2.1388(16) y
In O2 3_445 2.1473(16) y
In O2 4_545 2.1473(16) y
As O1 . 1.6574(17) y
As O3 . 1.6721(17) y
As O2 . 1.6762(16) y
As O4 . 1.7231(19) y
O4 H . 0.876(19) ?
loop_
_geom_hbond_atom_site_label_D
_geom_hbond_atom_site_label_H
_geom_hbond_atom_site_label_A
_geom_hbond_site_symmetry_A
_geom_hbond_distance_DH
_geom_hbond_distance_HA
_geom_hbond_distance_DA
_geom_hbond_angle_DHA
O4 H O2 6_566 0.876(19) 1.89(3) 2.690(3) 151(4)
