#------------------------------------------------------------------------------
#$Date: 2019-12-26 22:00:04 +0200 (Thu, 26 Dec 2019) $
#$Revision: 246131 $
#$URL: file:///home/coder/svn-repositories/cod/cif/2/31/18/2311840.cif $
#------------------------------------------------------------------------------
#
# This file is available in the Crystallography Open Database (COD),
# http://www.crystallography.net/. The original data for this entry
# were provided by IUCr Journals, http://journals.iucr.org/.
#
# The file may be used within the scientific community so long as
# proper attribution is given to the journal article from which the
# data were obtained.
#
data_2311840
loop_
_publ_author_name
'Insuasty, Henry'
'Insuasty, Braulio'
'Castro, Edison'
'Cobo, Justo'
'Glidewell, Christopher'
_publ_section_title
;
 2-Ethylsulfanyl-7-(furan-2-yl)-4-(thiophen-2-yl)pyrazolo[1,5-a][1,3,5]triazine:
 \p-stacked chains of hydrogen-bonded R2(2)(10) dimers.
;
_journal_coeditor_code           SK3556
_journal_issue                   'Pt 9'
_journal_name_full
'Acta crystallographica. Section C, Structural chemistry'
_journal_page_first              908
_journal_page_last               911
_journal_paper_doi               10.1107/S2053229614018877
_journal_volume                  70
_journal_year                    2014
_chemical_formula_iupac          'C15 H12 N4 O S2'
_chemical_formula_moiety         'C15 H12 N4 O S2'
_chemical_formula_sum            'C15 H12 N4 O S2'
_chemical_formula_weight         328.41
_chemical_name_systematic
2-Ethylsulfanyl-7-(furan-2-yl)-4-(thiophen-2-yl)pyrazolo[1,5-<i>a</i>][1,3,5]triazine
_space_group_crystal_system      triclinic
_space_group_IT_number           2
_space_group_name_Hall           '-P 1'
_space_group_name_H-M_alt        'P -1'
_atom_sites_solution_hydrogens   geom
_audit_creation_method           SHELXL-2014
_cell_angle_alpha                83.338(6)
_cell_angle_beta                 73.354(5)
_cell_angle_gamma                86.406(6)
_cell_formula_units_Z            2
_cell_length_a                   7.4999(4)
_cell_length_b                   8.8965(5)
_cell_length_c                   11.2806(9)
_cell_measurement_reflns_used    3294
_cell_measurement_temperature    120(2)
_cell_measurement_theta_max      27.50
_cell_measurement_theta_min      2.83
_cell_volume                     715.92(8)
_computing_cell_refinement       'DIRAX/LSQ (Duisenberg <i>et al.</i>, 2000)'
_computing_data_collection       'COLLECT (Hooft, 1999)'
_computing_data_reduction        'EVALCCD (Duisenberg <i>et al.</i>, 2003)'
_computing_molecular_graphics    'PLATON (Spek, 2009)'
_computing_publication_material
'SHELXL2014 (Sheldrick, 2014) and PLATON (Spek, 2009)'
_computing_structure_refinement  'SHELXL2014 (Sheldrick, 2014)'
_computing_structure_solution    'SHELXS97 (Sheldrick, 2008)'
_diffrn_ambient_temperature      120(2)
_diffrn_detector_area_resol_mean 9.091
_diffrn_measured_fraction_theta_full 0.998
_diffrn_measured_fraction_theta_max 0.998
_diffrn_measurement_device_type  'Bruker--Nonius KappaCCD'
_diffrn_measurement_method       '\f and \w scans'
_diffrn_radiation_monochromator  graphite
_diffrn_radiation_source         'Bruker--Nonius FR591 rotating anode'
_diffrn_radiation_type           MoK\a
_diffrn_radiation_wavelength     0.71073
_diffrn_reflns_av_R_equivalents  0.0949
_diffrn_reflns_limit_h_max       9
_diffrn_reflns_limit_h_min       -9
_diffrn_reflns_limit_k_max       11
_diffrn_reflns_limit_k_min       -11
_diffrn_reflns_limit_l_max       14
_diffrn_reflns_limit_l_min       -14
_diffrn_reflns_number            15356
_diffrn_reflns_theta_full        27.500
_diffrn_reflns_theta_max         27.500
_diffrn_reflns_theta_min         3.554
_exptl_absorpt_coefficient_mu    0.379
_exptl_absorpt_correction_T_max  0.7456
_exptl_absorpt_correction_T_min  0.5221
_exptl_absorpt_correction_type   multi-scan
_exptl_absorpt_process_details   '(SADABS; Sheldrick, 2003)'
_exptl_crystal_colour            colourless
_exptl_crystal_density_diffrn    1.523
_exptl_crystal_description       block
_exptl_crystal_F_000             340
_exptl_crystal_size_max          0.390
_exptl_crystal_size_mid          0.210
_exptl_crystal_size_min          0.110
_refine_diff_density_max         0.397
_refine_diff_density_min         -0.445
_refine_ls_extinction_method     none
_refine_ls_goodness_of_fit_ref   1.030
_refine_ls_hydrogen_treatment    constr
_refine_ls_matrix_type           full
_refine_ls_number_parameters     213
_refine_ls_number_reflns         3289
_refine_ls_number_restraints     10
_refine_ls_restrained_S_all      1.028
_refine_ls_R_factor_all          0.1110
_refine_ls_R_factor_gt           0.0546
_refine_ls_shift/su_max          0.000
_refine_ls_shift/su_mean         0.000
_refine_ls_structure_factor_coef Fsqd
_refine_ls_weighting_details
'w=1/[\s^2^(Fo^2^)+(0.0613P)^2^+0.8572P] where P=(Fo^2^+2Fc^2^)/3'
_refine_ls_weighting_scheme      calc
_refine_ls_wR_factor_gt          0.1190
_refine_ls_wR_factor_ref         0.1494
_reflns_number_gt                2068
_reflns_number_total             3289
_reflns_threshold_expression     I>2\s(I)
_cod_data_source_file            sk3556sup1.cif
_cod_data_source_block           I
_cod_database_code               2311840
_shelx_space_group_comment
;
The symmetry employed for this shelxl refinement is uniquely defined
by the following loop, which should always be used as a source of
symmetry information in preference to the above space-group names.
They are only intended as comments.
;
_shelx_estimated_absorpt_t_min   0.866
_shelx_estimated_absorpt_t_max   0.960
_shelx_hkl_file
;
  -9  -5  -5   72.59   13.63   1
  -9  -5  -5   58.37    8.56   1
  -9  -5  -4    3.72    9.46   1
  -9  -5  -4   -4.84    6.34   1
  -9  -4  -7   -6.86    9.43   1
  -9  -4  -7   -1.69    9.93   1
  -9  -4  -7  -10.89    7.59   1
  -9  -4  -6    8.76    9.18   1
  -9  -4  -6   -8.41   10.61   1
  -9  -4  -6   15.84    7.24   1
  -9  -4  -5    3.39    9.20   1
  -9  -4  -5    3.80    9.16   1
  -9  -4  -5   -9.42    6.94   1
  -9  -4  -4   23.52   10.09   1
  -9  -4  -4   28.73   11.47   1
  -9  -4  -4   17.64    7.22   1
  -9  -4  -3   11.56    9.38   1
  -9  -4  -3  -12.67    8.69   1
  -9  -4  -2   -5.11    9.90   1
  -9  -4  -2   12.96    9.94   1
  -9  -4  -1   30.25   11.22   1
  -9  -3  -8   23.33    8.11   1
  -9  -3  -8   35.05   10.89   1
  -9  -3  -8   27.88   10.45   1
  -9  -3  -7   -9.12    7.49   1
  -9  -3  -7   -6.92    8.99   1
  -9  -3  -7   17.89    9.90   1
  -9  -3  -6  -11.02    9.30   1
  -9  -3  -6    2.25    8.34   1
  -9  -3  -6    0.90    6.71   1
  -9  -3  -5   -5.38    8.17   1
  -9  -3  -5    0.88    8.48   1
  -9  -3  -5   -7.67    7.37   1
  -9  -3  -4  -11.02   10.03   1
  -9  -3  -4   12.60    9.09   1
  -9  -3  -3   12.74    8.35   1
  -9  -3  -3    5.29    6.95   1
  -9  -3  -3   17.39   10.09   1
  -9  -3  -2    2.59    7.92   1
  -9  -3  -2  -11.09   10.12   1
  -9  -3  -2   -5.86    9.05   1
  -9  -3  -1   12.74    9.35   1
  -9  -3  -1    3.53    7.14   1
  -9  -3   0    1.49    8.34   1
  -9  -3   0    6.10    9.93   1
  -9  -2  -9   15.21    9.05   1
  -9  -2  -9    1.21    9.79   1
  -9  -2  -9   -1.39    8.31   1
  -9  -2  -8   -0.66    8.80   1
  -9  -2  -8  -12.32    8.92   1
  -9  -2  -8    3.20    7.66   1
  -9  -2  -7  -12.60    8.80   1
  -9  -2  -7    3.31    8.44   1
  -9  -2  -7    0.50    6.62   1
  -9  -2  -6    0.76    8.53   1
  -9  -2  -6   32.95    9.87   1
  -9  -2  -6   11.36    7.48   1
  -9  -2  -5   21.81    8.59   1
  -9  -2  -5    3.35    8.42   1
  -9  -2  -5   -3.80    6.71   1
  -9  -2  -4    2.76    8.50   1
  -9  -2  -4   -1.21    9.94   1
  -9  -2  -4    9.99    8.72   1
  -9  -2  -3   -5.62    8.39   1
  -9  -2  -3    5.06    6.88   1
  -9  -2  -3    2.19    8.52   1
  -9  -2  -2   25.00    7.60   1
  -9  -2  -2   24.50    8.02   1
  -9  -2  -2   32.60   10.85   1
  -9  -2  -1    6.00    7.50   1
  -9  -2   0    0.92    6.45   1
  -9  -2   0    7.95    7.67   1
  -9  -2   1   -3.28    7.93   1
  -9  -2   1   28.84   11.28   1
  -9  -1  -9   -5.95    7.95   1
  -9  -1  -9  -11.97    8.58   1
  -9  -1  -9    1.35    9.65   1
  -9  -1  -8   65.61   12.31   1
  -9  -1  -8   66.91    9.82   1
  -9  -1  -8   81.72   12.84   1
  -9  -1  -8   52.71   10.02   1
  -9  -1  -7    1.49    7.66   1
  -9  -1  -7   -3.69    9.06   1
  -9  -1  -7   -4.49    6.57   1
  -9  -1  -6   -6.76    7.18   1
  -9  -1  -6   -6.20   10.31   1
  -9  -1  -6   -9.67    7.46   1
  -9  -1  -6   -3.28    8.62   1
  -9  -1  -5   -5.48    7.07   1
  -9  -1  -5   -1.96    8.01   1
  -9  -1  -5  -22.85   10.61   1
  -9  -1  -5   -2.99    7.37   1
  -9  -1  -4   11.49    8.54   1
  -9  -1  -4   22.28   10.48   1
  -9  -1  -4   15.37    9.17   1
  -9  -1  -4   24.21   10.73   1
  -9  -1  -3    2.92   10.19   1
  -9  -1  -3   -5.34    6.01   1
  -9  -1  -3   15.37   10.19   1
  -9  -1  -3   -0.29    8.19   1
  -9  -1  -2   -3.20    9.27   1
  -9  -1  -2    0.58    8.71   1
  -9  -1  -2   -4.16    6.00   1
  -9  -1  -1   22.47   10.24   1
  -9  -1  -1   15.84    9.79   1
  -9  -1   0   22.66   10.47   1
  -9  -1   0    9.18    7.03   1
  -9  -1   0   -3.76    9.08   1
  -9  -1   1    1.08   10.36   1
  -9  -1   1   -3.84    9.21   1
  -9  -1   1    6.55    7.42   1
  -9   0  -9   -0.50    9.71   1
  -9   0  -9    0.81    7.81   1
  -9   0  -9    6.76    8.06   1
  -9   0  -8   30.03   10.63   1
  -9   0  -8   23.52    7.37   1
  -9   0  -8   17.64    8.15   1
  -9   0  -7    0.72    7.51   1
  -9   0  -7    0.41    9.13   1
  -9   0  -7   -0.34    7.05   1
  -9   0  -7    3.46    8.85   1
  -9   0  -7    4.84    6.03   1
  -9   0  -6   -8.12    7.52   1
  -9   0  -6   -2.76    7.54   1
  -9   0  -6   -1.64    8.29   1
  -9   0  -6  -15.68    8.08   1
  -9   0  -5    8.35    9.31   1
  -9   0  -5    9.92    7.12   1
  -9   0  -5   19.80    9.52   1
  -9   0  -5   -2.19    9.53   1
  -9   0  -4   -9.36    9.36   1
  -9   0  -4   -3.17    6.62   1
  -9   0  -4  -13.91    9.40   1
  -9   0  -3    0.11    5.21   1
  -9   0  -3   -5.86   11.33   1
  -9   0  -3    3.72    8.03   1
  -9   0  -3   -2.99    9.13   1
  -9   0  -2   10.18    5.42   1
  -9   0  -2    4.37    8.86   1
  -9   0  -2    2.13    8.94   1
  -9   0  -1   31.58   10.57   1
  -9   0  -1   21.81    6.35   1
  -9   0  -1   16.24    9.59   1
  -9   0   0    1.85    7.81   1
  -9   0   0    2.59    6.21   1
  -9   0   0    2.53    7.00   1
  -9   0   1   12.96   10.37   1
  -9   0   1   31.14   10.71   1
  -9   0   1   12.25    6.58   1
  -9   1  -8    8.82    9.27   1
  -9   1  -8   -3.28   12.85   1
  -9   1  -8   12.53    7.08   1
  -9   1  -8    5.71    7.31   1
  -9   1  -7   -1.30    9.92   1
  -9   1  -7   -1.99    6.12   1
  -9   1  -7   -5.02    8.38   1
  -9   1  -7    0.56    7.11   1
  -9   1  -6   22.75    9.92   1
  -9   1  -6   27.25    6.79   1
  -9   1  -6   29.38    8.56   1
  -9   1  -6   11.42    9.53   1
  -9   1  -5    2.16   11.11   1
  -9   1  -5   18.23    8.45   1
  -9   1  -5   14.44    9.35   1
  -9   1  -5    0.45    5.28   1
  -9   1  -5    3.53    7.41   1
  -9   1  -4   -0.85    8.04   1
  -9   1  -4   -4.41    8.90   1
  -9   1  -4  -11.36    9.37   1
  -9   1  -3   -1.77    8.88   1
  -9   1  -3    8.24    5.40   1
  -9   1  -3   -1.30   10.83   1
  -9   1  -3    6.71    8.81   1
  -9   1  -2   24.21   10.14   1
  -9   1  -2   25.81    6.40   1
  -9   1  -2   20.88    9.69   1
  -9   1  -1   -0.83    8.63   1
  -9   1  -1    0.53    8.91   1
  -9   1  -1   -8.24    5.74   1
  -9   1   0   -1.99    5.92   1
  -9   1   0   -7.29    9.29   1
  -9   1   0    6.76    8.89   1
  -9   1   1   -3.20    9.06   1
  -9   1   1   27.77    9.38   1
  -9   2  -7    1.59    8.79   1
  -9   2  -7   -0.79    5.55   1
  -9   2  -7   -6.55    9.83   1
  -9   2  -7   -2.37    7.30   1
  -9   2  -6   11.56    8.98   1
  -9   2  -6    0.83    5.08   1
  -9   2  -6   -0.27    6.82   1
  -9   2  -6    9.24    9.97   1
  -9   2  -5   -6.71    9.38   1
  -9   2  -5  -12.74    7.78   1
  -9   2  -5   -0.38    4.51   1
  -9   2  -4   16.40   10.94   1
  -9   2  -4    6.71   10.31   1
  -9   2  -4   -6.40    9.51   1
  -9   2  -4    1.42    4.14   1
  -9   2  -4    8.35    5.14   1
  -9   2  -3   -4.12    9.05   1
  -9   2  -3   -6.81    8.87   1
  -9   2  -2   -8.64    8.00   1
  -9   2  -2   14.29    9.53   1
  -9   2  -1   -7.67    9.14   1
  -9   2  -1   12.82    8.52   1
  -9   2   0   -6.76   12.84   1
  -9   2   0    8.94    9.63   1
  -9   3  -6    1.99    7.70   1
  -9   3  -6   -8.07   10.68   1
  -9   3  -6    1.30   11.08   1
  -9   3  -5   17.14   11.76   1
  -9   3  -5    9.99   10.36   1
  -9   3  -4   21.44   10.74   1
  -9   3  -3    3.92    9.07   1
  -9   3  -2   35.40   12.14   1
  -9   3  -2   24.30   10.06   1
  -9   3  -1    6.35    9.93   1
  -9   3  -1    2.07    8.64   1
  -8  -7  -6   29.38    9.86   1
  -8  -7  -5    4.04    8.48   1
  -8  -7  -4    7.73    9.45   1
  -8  -7  -3   -8.01   10.70   1
  -8  -6  -8   10.76    8.66   1
  -8  -6  -8    7.13   11.43   1
  -8  -6  -7   -5.62    9.91   1
  -8  -6  -7    4.93    7.77   1
  -8  -6  -7    0.12    5.03   1
  -8  -6  -6   22.28    9.91   1
  -8  -6  -6   28.73    9.86   1
  -8  -6  -6   18.32    5.22   1
  -8  -6  -5    2.46    4.93   1
  -8  -6  -5   -0.72    8.77   1
  -8  -6  -5   -3.17    8.19   1
  -8  -6  -4   11.02    5.05   1
  -8  -6  -4    4.04   10.21   1
  -8  -6  -4    7.73    9.45   1
  -8  -6  -4    9.80    8.20   1
  -8  -6  -3   15.37    7.76   1
  -8  -6  -3    6.76    9.78   1
  -8  -6  -3   17.64    5.21   1
  -8  -6  -3   23.33    9.85   1
  -8  -6  -2   -8.47    9.72   1
  -8  -6  -2    0.90    6.35   1
  -8  -6  -2    2.82    4.87   1
  -8  -6  -1    3.53    8.23   1
  -8  -6  -1   -4.37   10.20   1
  -8  -6   0   50.55   11.66   1
  -8  -6   0   39.06   12.25   1
  -8  -5  -9    3.28    9.85   1
  -8  -5  -9   12.60    8.31   1
  -8  -5  -8    6.15    7.74   1
  -8  -5  -8   11.76    9.60   1
  -8  -5  -8    3.84    6.08   1
  -8  -5  -7   -9.67    8.02   1
  -8  -5  -7    1.37    7.35   1
  -8  -5  -7    5.24    5.54   1
  -8  -5  -7    4.28   10.72   1
  -8  -5  -6   -8.01    7.70   1
  -8  -5  -6    4.88    5.13   1
  -8  -5  -6    1.51    6.84   1
  -8  -5  -6   -8.18    9.55   1
  -8  -5  -5   -1.96    6.36   1
  -8  -5  -5   -5.29    8.14   1
  -8  -5  -5    3.92    7.52   1
  -8  -5  -5   -2.28    5.16   1
  -8  -5  -4   -1.69    4.78   1
  -8  -5  -4   -7.02    8.37   1
  -8  -5  -4    0.72    5.41   1
  -8  -5  -4   -1.04    8.61   1
  -8  -5  -3   -7.51    7.95   1
  -8  -5  -3   -1.80    4.53   1
  -8  -5  -3   -5.43    8.81   1
  -8  -5  -3    4.28    7.66   1
  -8  -5  -2    9.18    8.79   1
  -8  -5  -2    2.92    8.07   1
  -8  -5  -2    9.00    6.54   1
  -8  -5  -2    7.34    9.00   1
  -8  -5  -1   -5.71    8.89   1
  -8  -5  -1   -0.35    7.75   1
  -8  -5  -1    4.93    8.52   1
  -8  -5  -1  -16.00    8.88   1
  -8  -5   0   16.89    9.21   1
  -8  -5   0    7.40    9.25   1
  -8  -5   0   19.01    8.81   1
  -8  -5   0    3.10    8.76   1
  -8  -5   1    0.10    9.33   1
  -8  -5   1  -19.10   10.23   1
  -8  -4 -10   -5.38    7.42   1
  -8  -4 -10  -11.29    8.80   1
  -8  -4 -10   15.92    7.74   1
  -8  -4 -10  -10.05    9.95   1
  -8  -4  -9    1.99    6.91   1
  -8  -4  -9    9.42    6.94   1
  -8  -4  -9    3.24    8.64   1
  -8  -4  -8   -5.20    7.57   1
  -8  -4  -8   -4.67    6.96   1
  -8  -4  -8   -3.24    5.72   1
  -8  -4  -8   -0.03    7.89   1
  -8  -4  -7    6.55    6.04   1
  -8  -4  -7   -1.44    8.50   1
  -8  -4  -7   -7.08    6.01   1
  -8  -4  -7    0.07    7.17   1
  -8  -4  -6  154.01   11.17   1
  -8  -4  -6  166.41   14.45   1
  -8  -4  -6  152.77   14.09   1
  -8  -4  -6  133.63   14.80   1
  -8  -4  -5   78.50   10.99   1
  -8  -4  -5   76.56   11.02   1
  -8  -4  -5   77.09    8.25   1
  -8  -4  -5   77.79   10.58   1
  -8  -4  -4   23.52    8.15   1
  -8  -4  -4    7.51    8.00   1
  -8  -4  -4   14.59    5.73   1
  -8  -4  -4    7.56    7.59   1
  -8  -4  -3   -0.13    7.91   1
  -8  -4  -3   -6.40    7.29   1
  -8  -4  -3   -2.92    7.46   1
  -8  -4  -2   -9.30    7.62   1
  -8  -4  -2    2.79    5.31   1
  -8  -4  -2    9.36    6.79   1
  -8  -4  -2    3.57    8.05   1
  -8  -4  -1   12.25    8.05   1
  -8  -4  -1   19.27    8.08   1
  -8  -4   0   95.26   12.88   1
  -8  -4   0  100.40   12.02   1
  -8  -4   0  106.71   13.22   1
  -8  -4   0   74.13   11.71   1
  -8  -4   1   -3.69    9.52   1
  -8  -4   1   -7.67    8.53   1
  -8  -4   1   -4.88    8.09   1
  -8  -4   1   -1.30    7.34   1
  -8  -4   2   -7.62    8.50   1
  -8  -4   2   -5.66    8.62   1
  -8  -3 -11   -3.92    8.87   1
  -8  -3 -11  -12.25    8.26   1
  -8  -3 -11  -12.04    8.81   1
  -8  -3 -11    3.84    8.66   1
  -8  -3 -10   13.03    8.09   1
  -8  -3 -10   11.70    7.73   1
  -8  -3 -10    5.20    7.43   1
  -8  -3 -10    5.34    8.32   1
  -8  -3  -9  -10.43    9.43   1
  -8  -3  -9  -17.31    7.49   1
  -8  -3  -9   -7.56    6.82   1
  -8  -3  -9   -0.40    6.44   1
  -8  -3  -8    3.24    6.59   1
  -8  -3  -8  -12.82    7.30   1
  -8  -3  -8   11.76    8.57   1
  -8  -3  -8    3.42    5.81   1
  -8  -3  -7   11.90    7.38   1
  -8  -3  -7   24.21    6.89   1
  -8  -3  -7   38.44    7.94   1
  -8  -3  -7   48.72   10.61   1
  -8  -3  -6    4.75    6.80   1
  -8  -3  -6    7.29    7.02   1
  -8  -3  -6   -2.56    5.54   1
  -8  -3  -6  -10.89    7.72   1
  -8  -3  -5   -4.49    7.76   1
  -8  -3  -5    6.15    5.26   1
  -8  -3  -5    7.40    6.64   1
  -8  -3  -5    2.22    5.54   1
  -8  -3  -4    8.70    5.78   1
  -8  -3  -4   15.21    7.72   1
  -8  -3  -4    4.04    7.03   1
  -8  -3  -3    8.07    6.87   1
  -8  -3  -3   10.69    7.65   1
  -8  -3  -3    0.59    6.95   1
  -8  -3  -2  -13.47    8.29   1
  -8  -3  -2   -6.30    6.43   1
  -8  -3  -2    5.62    5.17   1
  -8  -3  -2   -2.59    6.70   1
  -8  -3  -1   19.36    8.36   1
  -8  -3  -1   27.46    7.86   1
  -8  -3  -1   20.07    7.44   1
  -8  -3  -1   46.92   10.14   1
  -8  -3   0   61.94    9.76   1
  -8  -3   0   77.44   10.56   1
  -8  -3   0   79.39   10.34   1
  -8  -3   1   43.16    9.59   1
  -8  -3   1   33.06    9.66   1
  -8  -3   2   18.92    9.31   1
  -8  -3   2   15.84    8.99   1
  -8  -3   2   16.89    8.55   1
  -8  -3   3   -7.73    7.45   1
  -8  -3   3   -6.76    8.42   1
  -8  -3   3   10.30    9.37   1
  -8  -2 -11   -2.76    7.24   1
  -8  -2 -11    1.88    9.23   1
  -8  -2 -11    6.71    8.13   1
  -8  -2 -10   18.40   11.41   1
  -8  -2 -10   15.44    8.65   1
  -8  -2 -10   12.82    7.16   1
  -8  -2 -10   -2.59    9.24   1
  -8  -2 -10   13.32    7.88   1
  -8  -2 -10   -2.79    6.98   1
  -8  -2  -9   76.91    9.82   1
  -8  -2  -9   89.87   11.38   1
  -8  -2  -9   58.52   10.56   1
  -8  -2  -9   70.73   10.26   1
  -8  -2  -9   58.22   12.06   1
  -8  -2  -9   76.56   10.32   1
  -8  -2  -8   13.32    7.15   1
  -8  -2  -8   17.64    7.22   1
  -8  -2  -8   15.68    6.65   1
  -8  -2  -8    9.99    6.89   1
  -8  -2  -8    4.45    8.14   1
  -8  -2  -7    2.31    6.41   1
  -8  -2  -7   -4.16    6.04   1
  -8  -2  -7  -11.16    8.35   1
  -8  -2  -7    9.80    7.14   1
  -8  -2  -6   -1.96    5.88   1
  -8  -2  -6  -10.05    7.73   1
  -8  -2  -6   -4.97    7.18   1
  -8  -2  -6    3.03    4.35   1
  -8  -2  -5   -0.64    6.78   1
  -8  -2  -5    0.98    4.97   1
  -8  -2  -5   -5.34    5.45   1
  -8  -2  -5   -5.62    6.35   1
  -8  -2  -4    1.44    6.43   1
  -8  -2  -4    2.79    6.98   1
  -8  -2  -4   11.76    6.86   1
  -8  -2  -3   -8.64    7.06   1
  -8  -2  -3   -2.66    6.91   1
  -8  -2  -3    0.30    5.19   1
  -8  -2  -2   23.43    7.36   1
  -8  -2  -2   30.03    8.55   1
  -8  -2  -1   14.90    6.64   1
  -8  -2  -1   18.58    6.12   1
  -8  -2  -1   25.00    8.80   1
  -8  -2   0   25.20    6.83   1
  -8  -2   0   41.99    8.55   1
  -8  -2   0   27.25    9.29   1
  -8  -2   1    6.30    7.63   1
  -8  -2   1    5.86    7.94   1
  -8  -2   2   73.96   11.70   1
  -8  -2   2   53.44    8.92   1
  -8  -2   2   64.32   11.39   1
  -8  -2   3    6.86    6.92   1
  -8  -2   3   -3.84    6.62   1
  -8  -2   3    3.65    7.95   1
  -8  -2   4    1.80    8.15   1
  -8  -2   4    2.59    9.31   1
  -8  -1 -11    1.30    9.21   1
  -8  -1 -11    2.53    8.08   1
  -8  -1 -11   -2.86    8.15   1
  -8  -1 -10   -3.76    6.44   1
  -8  -1 -10    9.99    7.33   1
  -8  -1 -10   11.83    7.91   1
  -8  -1 -10   -6.81    7.67   1
  -8  -1 -10   -2.25   11.16   1
  -8  -1 -10   -6.15    8.78   1
  -8  -1  -9   -3.72    6.68   1
  -8  -1  -9   10.11    6.87   1
  -8  -1  -9   14.98    6.11   1
  -8  -1  -9   10.56    7.47   1
  -8  -1  -9   19.89    8.03   1
  -8  -1  -8   58.37    9.32   1
  -8  -1  -8   51.41    9.46   1
  -8  -1  -8   36.60    6.90   1
  -8  -1  -8   54.76    8.14   1
  -8  -1  -8   58.98   10.75   1
  -8  -1  -8   52.56    8.41   1
  -8  -1  -7    6.97    5.49   1
  -8  -1  -7    2.50    6.04   1
  -8  -1  -7    2.46    6.50   1
  -8  -1  -7    0.15    6.19   1
  -8  -1  -7   -0.21    7.19   1
  -8  -1  -6   33.18    7.95   1
  -8  -1  -6   32.95    7.00   1
  -8  -1  -6   22.00    6.75   1
  -8  -1  -6   28.73    8.79   1
  -8  -1  -6   13.84    7.96   1
  -8  -1  -5   64.80    9.02   1
  -8  -1  -5   76.91   10.70   1
  -8  -1  -5   54.17    9.72   1
  -8  -1  -5   51.70   10.50   1
  -8  -1  -4    2.59    5.89   1
  -8  -1  -4    9.49    7.33   1
  -8  -1  -4   12.96    7.63   1
  -8  -1  -3   78.85   11.01   1
  -8  -1  -3  107.95   11.22   1
  -8  -1  -2   41.47    6.83   1
  -8  -1  -2   58.22    9.92   1
  -8  -1  -2   44.76    8.30   1
  -8  -1  -1    3.72    5.40   1
  -8  -1  -1   -0.77    6.53   1
  -8  -1  -1    3.92    4.91   1
  -8  -1   0    9.06    7.46   1
  -8  -1   0    9.12    7.79   1
  -8  -1   0    2.89    5.51   1
  -8  -1   1    5.34    5.87   1
  -8  -1   1    0.59    6.30   1
  -8  -1   1  -14.44    7.90   1
  -8  -1   2    4.93    6.26   1
  -8  -1   2   -9.06    7.22   1
  -8  -1   2    0.27    5.46   1
  -8  -1   2   -2.28    6.64   1
  -8  -1   3    8.24    7.35   1
  -8  -1   3  -12.04    9.72   1
  -8  -1   3    0.53    7.74   1
  -8  -1   3    0.86    6.25   1
  -8  -1   4   -3.80    7.14   1
  -8  -1   4   -4.33    8.86   1
  -8  -1   4   19.54    7.87   1
  -8   0 -11    0.64    7.66   1
  -8   0 -11   -0.48    8.62   1
  -8   0 -10   42.12    9.22   1
  -8   0 -10   41.99    7.13   1
  -8   0 -10   45.16    9.41   1
  -8   0  -9   -3.88    5.63   1
  -8   0  -9    3.92    8.08   1
  -8   0  -9  -12.60    9.80   1
  -8   0  -9   -1.14    6.23   1
  -8   0  -9  -13.03    8.16   1
  -8   0  -9   -8.18    7.44   1
  -8   0  -8    4.49    6.91   1
  -8   0  -8   -7.56    5.45   1
  -8   0  -8    2.72    8.61   1
  -8   0  -8   -2.22    6.41   1
  -8   0  -8   -1.54    4.86   1
  -8   0  -8    7.90    7.92   1
  -8   0  -7   25.60    9.21   1
  -8   0  -7   15.29    7.12   1
  -8   0  -7   35.40    6.90   1
  -8   0  -7   34.11    6.66   1
  -8   0  -7   32.26    8.41   1
  -8   0  -6   13.76    8.09   1
  -8   0  -6    2.69    5.28   1
  -8   0  -6    4.04    5.63   1
  -8   0  -6    2.28    6.98   1
  -8   0  -6   -2.46    5.78   1
  -8   0  -5    5.66    5.52   1
  -8   0  -5    3.84    7.45   1
  -8   0  -5    5.02    5.51   1
  -8   0  -5    1.72    6.24   1
  -8   0  -4   -0.09    6.28   1
  -8   0  -4   -4.08    7.15   1
  -8   0  -4   19.98    7.42   1
  -8   0  -3   76.04    9.77   1
  -8   0  -3   86.86   11.37   1
  -8   0  -3   70.56   10.75   1
  -8   0  -2   10.43    4.97   1
  -8   0  -2    9.12    7.13   1
  -8   0  -2    2.19    5.09   1
  -8   0  -2    4.24    5.93   1
  -8   0  -1   20.07    8.33   1
  -8   0  -1    4.88    6.85   1
  -8   0  -1    9.73    6.99   1
  -8   0   0   20.88    7.22   1
  -8   0   0   17.89    8.21   1
  -8   0   0   10.69    7.91   1
  -8   0   0   18.32    5.56   1
  -8   0   1   15.92    7.10   1
  -8   0   1   -2.59    7.76   1
  -8   0   1    9.12    5.44   1
  -8   0   1    6.00    7.79   1
  -8   0   2   -0.10    4.88   1
  -8   0   2    1.96    8.76   1
  -8   0   2    1.72    6.63   1
  -8   0   2   -0.50    7.90   1
  -8   0   3   12.67    6.48   1
  -8   0   3   33.41    8.55   1
  -8   0   3   21.25    7.56   1
  -8   0   4    3.84    8.31   1
  -8   0   4    8.07    7.27   1
  -8   0   4   13.54    7.21   1
  -8   1 -10    0.66    7.26   1
  -8   1 -10    5.43    7.08   1
  -8   1 -10    1.37    8.42   1
  -8   1  -9   -3.39    7.10   1
  -8   1  -9  -15.37   10.58   1
  -8   1  -9    0.79    7.71   1
  -8   1  -9    4.75    4.93   1
  -8   1  -9  -11.49    6.71   1
  -8   1  -9   -2.19    7.90   1
  -8   1  -8    4.37    7.44   1
  -8   1  -8    2.86    4.93   1
  -8   1  -8    0.72    6.29   1
  -8   1  -8    0.49    5.22   1
  -8   1  -8    2.25    7.05   1
  -8   1  -8   -3.03    8.46   1
  -8   1  -7   -0.36    4.96   1
  -8   1  -7    9.80    7.95   1
  -8   1  -7   -0.72    4.79   1
  -8   1  -7    6.20    5.88   1
  -8   1  -7    2.82    4.84   1
  -8   1  -7   -1.19    6.61   1
  -8   1  -6    9.36    7.47   1
  -8   1  -6    2.43    7.08   1
  -8   1  -6  -11.83    6.67   1
  -8   1  -6   -2.59    4.41   1
  -8   1  -6   -0.31    5.28   1
  -8   1  -6   -2.79    7.55   1
  -8   1  -5    3.06    7.60   1
  -8   1  -5    9.00    7.56   1
  -8   1  -5    0.90    7.01   1
  -8   1  -5    0.94    4.15   1
  -8   1  -4   13.10    6.73   1
  -8   1  -4    8.01    7.24   1
  -8   1  -3   -3.20    6.95   1
  -8   1  -3    4.97    7.14   1
  -8   1  -3   10.05    7.10   1
  -8   1  -2   11.16    7.01   1
  -8   1  -2    7.18    6.97   1
  -8   1  -2    1.66    6.27   1
  -8   1  -2    0.90    3.65   1
  -8   1  -1    8.24    7.17   1
  -8   1  -1    1.56    6.65   1
  -8   1  -1   -0.14    3.54   1
  -8   1  -1   23.23    8.19   1
  -8   1   0   -7.40    7.34   1
  -8   1   0  -12.25    7.84   1
  -8   1   0    5.76    6.86   1
  -8   1   0    1.74    4.22   1
  -8   1   1   30.25    9.57   1
  -8   1   1   46.92   10.00   1
  -8   1   1   37.70    5.89   1
  -8   1   1   61.94    9.44   1
  -8   1   2   32.04    9.74   1
  -8   1   2   20.61    9.72   1
  -8   1   2   60.68    9.04   1
  -8   1   2   43.82    6.36   1
  -8   1   3    2.99    6.37   1
  -8   1   3    7.02    5.14   1
  -8   1   3   24.50    9.50   1
  -8   1   4   22.18    7.63   1
  -8   1   4   32.26   10.45   1
  -8   2 -10    3.35    9.04   1
  -8   2 -10    5.62    7.68   1
  -8   2 -10  -12.60    8.95   1
  -8   2  -9    9.18    6.73   1
  -8   2  -9   -3.50    7.89   1
  -8   2  -9   -6.76    7.59   1
  -8   2  -8   -7.78    8.54   1
  -8   2  -8    5.06    7.74   1
  -8   2  -8    1.39    6.56   1
  -8   2  -8    0.42    4.89   1
  -8   2  -8   -7.29    5.56   1
  -8   2  -8   -4.49    9.41   1
  -8   2  -7   25.60    5.97   1
  -8   2  -7   24.40    8.89   1
  -8   2  -7   29.59    6.31   1
  -8   2  -7   21.81    8.69   1
  -8   2  -7   21.81    8.31   1
  -8   2  -6  -10.05    7.23   1
  -8   2  -6   -0.18    3.98   1
  -8   2  -6   -4.49    5.26   1
  -8   2  -6   -3.88    5.75   1
  -8   2  -6   -5.15    7.85   1
  -8   2  -6   -7.67    7.59   1
  -8   2  -5   17.89    8.29   1
  -8   2  -5   20.34    8.12   1
  -8   2  -5   15.84    4.70   1
  -8   2  -5   13.62    7.68   1
  -8   2  -4  -12.04    7.63   1
  -8   2  -4    0.59    6.39   1
  -8   2  -4   -0.02    3.18   1
  -8   2  -4   -1.72    7.23   1
  -8   2  -3   14.59    4.20   1
  -8   2  -3   10.76    6.23   1
  -8   2  -3   32.95    8.61   1
  -8   2  -3   21.34    8.59   1
  -8   2  -2    8.76    7.58   1
  -8   2  -2    1.14    7.06   1
  -8   2  -2    3.39    3.46   1
  -8   2  -2    9.18    7.09   1
  -8   2  -1    2.31    5.41   1
  -8   2  -1    0.55    6.35   1
  -8   2  -1   10.05    3.61   1
  -8   2  -1    0.32    6.38   1
  -8   2   0   -6.45    7.37   1
  -8   2   0    2.82    6.48   1
  -8   2   0   10.37    4.19   1
  -8   2   0   -2.96    8.12   1
  -8   2   1   -3.53    7.86   1
  -8   2   1    0.61    3.96   1
  -8   2   1   -6.92    8.26   1
  -8   2   1    9.12    6.70   1
  -8   2   2    2.19    6.78   1
  -8   2   2    1.21    7.94   1
  -8   2   2   -0.36    3.89   1
  -8   2   2    6.05    6.94   1
  -8   2   3   -2.04    6.49   1
  -8   2   3   -2.50    7.17   1
  -8   2   4    2.40    8.12   1
  -8   2   4   -4.41    7.14   1
  -8   3  -9   19.89    9.01   1
  -8   3  -9    2.62    6.71   1
  -8   3  -9   15.76    6.91   1
  -8   3  -8    2.50    7.71   1
  -8   3  -8    5.43    5.59   1
  -8   3  -8    0.01    5.63   1
  -8   3  -7   21.81    9.71   1
  -8   3  -7   41.22    6.68   1
  -8   3  -7   48.58    6.97   1
  -8   3  -7   42.38   10.16   1
  -8   3  -7   16.08   10.91   1
  -8   3  -6   13.10    7.89   1
  -8   3  -6   -4.16    6.73   1
  -8   3  -6   10.37    7.79   1
  -8   3  -6   20.52    4.71   1
  -8   3  -6   20.61    8.99   1
  -8   3  -5   -7.24    5.81   1
  -8   3  -5   -6.20    5.83   1
  -8   3  -5   -0.58    6.93   1
  -8   3  -5   -3.28    3.87   1
  -8   3  -4    4.80    7.23   1
  -8   3  -4    0.96    7.21   1
  -8   3  -4   21.72    8.85   1
  -8   3  -4    4.62    3.57   1
  -8   3  -3    0.38    6.55   1
  -8   3  -3   12.04    3.26   1
  -8   3  -3   10.56    3.32   1
  -8   3  -3    9.18    7.64   1
  -8   3  -3   -1.23    6.93   1
  -8   3  -2    0.59    2.54   1
  -8   3  -2    1.32    5.80   1
  -8   3  -2   -0.06    7.21   1
  -8   3  -2    3.69    2.73   1
  -8   3  -2   -5.11    6.06   1
  -8   3  -1   44.09    3.98   1
  -8   3  -1   48.02    4.02   1
  -8   3  -1   69.39   11.50   1
  -8   3  -1   58.52    9.94   1
  -8   3  -1   36.84    9.83   1
  -8   3   0    6.10    7.90   1
  -8   3   0   10.63    7.04   1
  -8   3   0    0.85    6.53   1
  -8   3   1  -10.24    9.73   1
  -8   3   1    9.36    7.28   1
  -8   3   1    8.29    7.95   1
  -8   3   2    6.00    6.32   1
  -8   3   3   33.64   10.32   1
  -8   4  -8   18.06    8.33   1
  -8   4  -8   18.84   10.16   1
  -8   4  -7   13.99    9.80   1
  -8   4  -7   11.70    8.41   1
  -8   4  -6   -2.10    8.76   1
  -8   4  -6    8.88    7.69   1
  -8   4  -5   -2.72    7.26   1
  -8   4  -5    8.07    7.90   1
  -8   4  -5   -0.56    2.88   1
  -8   4  -4    9.92    8.32   1
  -8   4  -4    8.24    6.49   1
  -8   4  -4   10.30    8.28   1
  -8   4  -3   -1.59    7.89   1
  -8   4  -3    8.76    8.23   1
  -8   4  -2   11.49    8.48   1
  -8   4  -2   15.21    8.81   1
  -8   4  -1  430.56   25.32   1
  -8   4  -1  428.49   26.08   1
  -8   4   0   20.43    8.95   1
  -8   4   0    5.48    9.41   1
  -8   4   1   -0.41    8.49   1
  -8   4   2    9.00    7.44   1
  -8   5  -6   -9.61    8.93   1
  -8   5  -6    4.71    7.77   1
  -8   5  -5    7.24    9.63   1
  -8   5  -5   -1.08    7.88   1
  -8   5  -4   -4.41    8.69   1
  -8   5  -4   -1.04    8.34   1
  -8   5  -3   -5.34    8.04   1
  -8   5  -3    7.34    8.94   1
  -8   5  -2  -13.47    9.10   1
  -8   5  -2    8.76    8.70   1
  -8   5  -1    1.06   10.81   1
  -8   5  -1   -6.25    8.20   1
  -8   5   0    0.81    8.44   1
  -8   5   1    7.95    9.87   1
  -7  -8  -7   34.81   11.21   1
  -7  -8  -6   43.16   10.77   1
  -7  -8  -5   -2.02    7.70   1
  -7  -8  -4    8.88    8.58   1
  -7  -8  -4    2.10    9.63   1
  -7  -8  -3   -8.47    9.66   1
  -7  -8  -3    7.29    8.86   1
  -7  -8  -2    6.86    8.54   1
  -7  -8  -2   13.76   10.68   1
  -7  -8  -1    0.88   10.57   1
  -7  -8  -1    3.46    9.19   1
  -7  -7  -9   15.68    8.47   1
  -7  -7  -8   16.48   10.47   1
  -7  -7  -7  -11.09   11.32   1
  -7  -7  -7   -9.99    9.73   1
  -7  -7  -7   19.36    8.45   1
  -7  -7  -6   11.76    9.12   1
  -7  -7  -6   17.72    7.66   1
  -7  -7  -6   -7.95    8.74   1
  -7  -7  -5   41.09   10.26   1
  -7  -7  -5   20.07    8.87   1
  -7  -7  -5   26.94    8.82   1
  -7  -7  -4    9.61    7.75   1
  -7  -7  -4   -2.04    8.35   1
  -7  -7  -4   10.18    7.02   1
  -7  -7  -3   -2.56    6.05   1
  -7  -7  -3   -1.69    7.51   1
  -7  -7  -3    0.49    5.61   1
  -7  -7  -3   -1.00    2.52   1
  -7  -7  -2   -5.90    7.92   1
  -7  -7  -2    8.88    8.70   1
  -7  -7  -2    6.35    9.12   1
  -7  -7  -2   11.42    9.19   1
  -7  -7  -1   21.16    7.91   1
  -7  -7  -1   -3.13    9.17   1
  -7  -7  -1   28.84    9.24   1
  -7  -7   0    6.60    9.15   1
  -7  -7   0    6.60    9.46   1
  -7  -7   1    3.57    7.52   1
  -7  -7   1    6.25   10.00   1
  -7  -6 -10   26.73    8.48   1
  -7  -6 -10   23.62   10.79   1
  -7  -6  -9   22.85   10.04   1
  -7  -6  -9   26.01    7.75   1
  -7  -6  -8   12.46    7.13   1
  -7  -6  -8   11.56    8.36   1
  -7  -6  -8   14.82    9.62   1
  -7  -6  -7    9.99    7.08   1
  -7  -6  -7    0.77    5.63   1
  -7  -6  -7    2.76    6.74   1
  -7  -6  -6   11.70    7.46   1
  -7  -6  -6    6.20    7.87   1
  -7  -6  -6   -0.49    4.07   1
  -7  -6  -6    5.52    5.26   1
  -7  -6  -5  144.48    8.65   1
  -7  -6  -5  115.35   13.10   1
  -7  -6  -5  147.87   13.38   1
  -7  -6  -5  142.09   13.83   1
  -7  -6  -4   25.30    8.25   1
  -7  -6  -4   12.82    8.02   1
  -7  -6  -4   27.77    4.64   1
  -7  -6  -4   22.09    8.37   1
  -7  -6  -3    7.18    3.22   1
  -7  -6  -3   11.70    6.02   1
  -7  -6  -3   -3.06    7.38   1
  -7  -6  -3   -1.88    7.29   1
  -7  -6  -2   17.22    7.64   1
  -7  -6  -2   17.39    8.51   1
  -7  -6  -2    5.66    7.57   1
  -7  -6  -2   14.59    8.10   1
  -7  -6  -1   -1.17    6.37   1
  -7  -6  -1   -1.61    7.37   1
  -7  -6  -1   10.63    6.85   1
  -7  -6  -1   -2.40    6.88   1
  -7  -6   0   25.81    8.33   1
  -7  -6   0   32.49    9.46   1
  -7  -6   0   12.11    8.42   1
  -7  -6   0   10.43    8.01   1
  -7  -6   1   84.46   12.50   1
  -7  -6   1   84.09   11.92   1
  -7  -6   1   79.39   11.94   1
  -7  -6   1   81.00   11.16   1
  -7  -6   2    6.92    8.68   1
  -7  -6   2    3.80    8.85   1
  -7  -6   3   14.98    9.29   1
  -7  -6   3   -1.39    9.96   1
  -7  -5 -11    3.72    6.10   1
  -7  -5 -11    1.32    9.36   1
  -7  -5 -11    7.45    9.39   1
  -7  -5 -10   -4.41    8.15   1
  -7  -5 -10    1.44    5.86   1
  -7  -5  -9   -4.37    8.53   1
  -7  -5  -9   17.14    6.79   1
  -7  -5  -9    3.39    7.58   1
  -7  -5  -8    1.14    7.10   1
  -7  -5  -8    4.00    7.84   1
  -7  -5  -8    2.99    5.99   1
  -7  -5  -8    1.74    4.75   1
  -7  -5  -7    1.28    4.34   1
  -7  -5  -7   -2.82    5.41   1
  -7  -5  -7   -1.32    7.59   1
  -7  -5  -7    0.96    6.59   1
  -7  -5  -6    8.76    6.51   1
  -7  -5  -6    7.02    5.67   1
  -7  -5  -6   10.24    4.29   1
  -7  -5  -6    0.08    5.70   1
  -7  -5  -5   -0.42    4.95   1
  -7  -5  -5    3.46    6.77   1
  -7  -5  -5    0.92    4.99   1
  -7  -5  -5    2.31    3.62   1
  -7  -5  -4   32.38    8.08   1
  -7  -5  -4   51.98    9.23   1
  -7  -5  -4   44.62    9.08   1
  -7  -5  -4   50.55    5.83   1
  -7  -5  -3   22.37    4.45   1
  -7  -5  -3   22.75    8.01   1
  -7  -5  -3   19.45    7.32   1
  -7  -5  -3    9.36    6.85   1
  -7  -5  -2    6.60    7.04   1
  -7  -5  -2   10.11    7.00   1
  -7  -5  -2   12.46    7.34   1
  -7  -5  -1  120.78   12.31   1
  -7  -5  -1  128.82   13.17   1
  -7  -5  -1  140.90   12.82   1
  -7  -5  -1  122.54   12.18   1
  -7  -5   0   -3.06    6.16   1
  -7  -5   0    0.64    4.94   1
  -7  -5   0    1.37    6.83   1
  -7  -5   0   -4.37    6.65   1
  -7  -5   1   -5.38    7.70   1
  -7  -5   1    1.25    5.91   1
  -7  -5   1   -0.44    7.27   1
  -7  -5   1   -4.62    6.36   1
  -7  -5   2    5.90    8.12   1
  -7  -5   2   -2.16    6.53   1
  -7  -5   2   -1.49    6.25   1
  -7  -5   2   11.56    7.07   1
  -7  -5   3    2.92    6.98   1
  -7  -5   3   10.63    9.13   1
  -7  -5   3    2.99    8.37   1
  -7  -5   3   10.11    7.82   1
  -7  -5   4   -5.86    8.62   1
  -7  -5   4    7.73    9.23   1
  -7  -5   4    4.33    9.24   1
  -7  -4 -12    1.46   10.09   1
  -7  -4 -12    0.09    8.46   1
  -7  -4 -11   -6.05   11.22   1
  -7  -4 -11    1.14    5.71   1
  -7  -4 -11    7.45    6.82   1
  -7  -4 -11   -4.71    7.46   1
  -7  -4 -10   -2.53    6.04   1
  -7  -4 -10    3.92    7.92   1
  -7  -4 -10    5.29    6.03   1
  -7  -4 -10   -2.31    7.90   1
  -7  -4  -9    5.34    5.68   1
  -7  -4  -9    7.78    5.86   1
  -7  -4  -9   -5.76    8.45   1
  -7  -4  -9    2.59    6.28   1
  -7  -4  -8   69.22   11.15   1
  -7  -4  -8   92.74    8.67   1
  -7  -4  -8   84.82   10.13   1
  -7  -4  -8   77.79    9.70   1
  -7  -4  -7   31.25    5.93   1
  -7  -4  -7   23.23    7.13   1
  -7  -4  -7   33.99    7.23   1
  -7  -4  -7   47.75    9.26   1
  -7  -4  -6   -0.27    6.06   1
  -7  -4  -6    0.79    5.62   1
  -7  -4  -6   -4.88    4.33   1
  -7  -4  -6    0.90    5.45   1
  -7  -4  -5   12.46    7.06   1
  -7  -4  -5   -7.29    5.94   1
  -7  -4  -5   -4.67    3.97   1
  -7  -4  -5   -6.71    4.82   1
  -7  -4  -4   -4.49    5.47   1
  -7  -4  -4    5.02    6.05   1
  -7  -4  -4    1.69    6.29   1
  -7  -4  -3    1.93    6.00   1
  -7  -4  -3    7.45    4.86   1
  -7  -4  -3    2.89    6.43   1
  -7  -4  -2   -0.30    5.89   1
  -7  -4  -2    7.45    4.97   1
  -7  -4  -2    3.61    6.04   1
  -7  -4  -1   33.87    8.15   1
  -7  -4  -1   20.25    7.56   1
  -7  -4  -1   33.52    7.53   1
  -7  -4  -1   33.87    6.98   1
  -7  -4   0  101.00   11.06   1
  -7  -4   0   64.32    9.30   1
  -7  -4   0   94.87   11.69   1
  -7  -4   1   -4.37    5.73   1
  -7  -4   1   -0.96    6.33   1
  -7  -4   1    7.13    7.05   1
  -7  -4   1    3.10    6.65   1
  -7  -4   2   11.36    7.55   1
  -7  -4   2    3.80    6.98   1
  -7  -4   2    9.49    7.08   1
  -7  -4   3   62.57   11.07   1
  -7  -4   3   64.80   10.30   1
  -7  -4   3   55.35   10.27   1
  -7  -4   4   -2.96    8.29   1
  -7  -4   4   14.14    8.05   1
  -7  -4   4   12.74    8.50   1
  -7  -4   5   14.36    9.78   1
  -7  -4   5   10.63    9.26   1
  -7  -3 -12   24.60   10.22   1
  -7  -3 -12    1.17    9.40   1
  -7  -3 -12   26.63    7.02   1
  -7  -3 -12   -3.03   10.68   1
  -7  -3 -11  -13.03    8.81   1
  -7  -3 -11    2.76    5.58   1
  -7  -3 -11    9.06    9.03   1
  -7  -3 -11   12.67    7.26   1
  -7  -3 -11  -10.50    9.20   1
  -7  -3 -10   16.89    6.82   1
  -7  -3 -10    3.17    7.30   1
  -7  -3 -10   -0.46    7.19   1
  -7  -3 -10   18.49    6.36   1
  -7  -3 -10    2.37    6.31   1
  -7  -3  -9   14.75    6.45   1
  -7  -3  -9   12.25    5.88   1
  -7  -3  -9    1.21    4.38   1
  -7  -3  -9    0.53    5.75   1
  -7  -3  -8    9.99    5.50   1
  -7  -3  -8   11.22    6.03   1
  -7  -3  -8    2.86    5.34   1
  -7  -3  -8    8.18    5.72   1
  -7  -3  -7   -7.51    4.88   1
  -7  -3  -7    3.96    6.13   1
  -7  -3  -7   -9.67    5.78   1
  -7  -3  -7   15.60    6.24   1
  -7  -3  -6   72.42    9.19   1
  -7  -3  -6   43.69    8.86   1
  -7  -3  -6   48.72    6.84   1
  -7  -3  -6   52.85    8.43   1
  -7  -3  -5   28.09    7.00   1
  -7  -3  -5   19.54    6.90   1
  -7  -3  -5   24.50    5.35   1
  -7  -3  -5   28.73    6.00   1
  -7  -3  -4   17.81    6.41   1
  -7  -3  -4   10.82    5.07   1
  -7  -3  -4   26.94    6.64   1
  -7  -3  -3   -0.76    5.32   1
  -7  -3  -3    7.08    5.80   1
  -7  -3  -3   -6.66    5.78   1
  -7  -3  -2   67.73    8.72   1
  -7  -3  -2   67.90    9.39   1
  -7  -3  -2   80.64    9.70   1
  -7  -3  -1   10.30    5.07   1
  -7  -3  -1    9.30    6.53   1
  -7  -3  -1   16.16    5.95   1
  -7  -3  -1   -5.20    6.20   1
  -7  -3   0    8.24    6.54   1
  -7  -3   0   -9.06    5.48   1
  -7  -3   0   -1.21    6.05   1
  -7  -3   1   26.11    7.77   1
  -7  -3   1   41.86    7.63   1
  -7  -3   1   22.37    7.47   1
  -7  -3   2   -3.39    6.55   1
  -7  -3   2    6.50    6.27   1
  -7  -3   3   -0.21    7.17   1
  -7  -3   3    3.39    6.51   1
  -7  -3   3    9.92    8.06   1
  -7  -3   4    5.71    7.22   1
  -7  -3   4   24.40    8.60   1
  -7  -3   4   25.40    9.17   1
  -7  -3   5   19.89    8.47   1
  -7  -3   5    8.82    6.77   1
  -7  -3   5   22.37    8.23   1
  -7  -2 -12   -5.48    9.13   1
  -7  -2 -12   -4.08    7.03   1
  -7  -2 -12   -3.76    6.48   1
  -7  -2 -12   10.37    9.14   1
  -7  -2 -12   -1.74    8.34   1
  -7  -2 -11    8.64    7.06   1
  -7  -2 -11   16.24    6.61   1
  -7  -2 -11    9.24    7.78   1
  -7  -2 -11    9.92    8.69   1
  -7  -2 -11    4.33    8.49   1
  -7  -2 -11    8.70    6.02   1
  -7  -2 -10   38.19    9.64   1
  -7  -2 -10   61.15    9.38   1
  -7  -2 -10   52.42    8.83   1
  -7  -2 -10   47.20    7.42   1
  -7  -2 -10   49.28    9.83   1
  -7  -2 -10   47.06    8.23   1
  -7  -2  -9    5.34    7.44   1
  -7  -2  -9   -5.48    6.22   1
  -7  -2  -9   -1.44    5.06   1
  -7  -2  -9   -3.35    6.48   1
  -7  -2  -9    5.02    5.64   1
  -7  -2  -9    9.80    6.20   1
  -7  -2  -8   76.56   10.68   1
  -7  -2  -8   87.42    8.79   1
  -7  -2  -8  107.33   10.77   1
  -7  -2  -8   84.64    9.38   1
  -7  -2  -7   24.80    6.08   1
  -7  -2  -7   27.25    6.37   1
  -7  -2  -7   26.42    7.30   1
  -7  -2  -7   24.70    6.86   1
  -7  -2  -6   46.79    6.70   1
  -7  -2  -6   49.00    7.28   1
  -7  -2  -6   36.97    8.03   1
  -7  -2  -6   54.76    8.44   1
  -7  -2  -5    2.16    4.82   1
  -7  -2  -5   -4.58    5.05   1
  -7  -2  -5    0.30    5.14   1
  -7  -2  -5   -4.88    4.29   1
  -7  -2  -4   48.58    8.22   1
  -7  -2  -4   41.60    7.48   1
  -7  -2  -4   52.85    8.43   1
  -7  -2  -3   26.63    6.40   1
  -7  -2  -3   39.06    7.62   1
  -7  -2  -3   23.23    7.04   1
  -7  -2  -2    7.90    5.96   1
  -7  -2  -2   16.16    5.23   1
  -7  -2  -1    4.93    5.51   1
  -7  -2  -1    9.12    5.01   1
  -7  -2  -1   19.80    5.61   1
  -7  -2   0   46.79    8.62   1
  -7  -2   0   59.14    7.07   1
  -7  -2   0   52.13    8.81   1
  -7  -2   1   -8.58    6.39   1
  -7  -2   1   -5.11    5.97   1
  -7  -2   1   -5.48    5.19   1
  -7  -2   2    7.24    5.54   1
  -7  -2   2    1.10    6.40   1
  -7  -2   2   -0.81    6.03   1
  -7  -2   3    9.30    7.38   1
  -7  -2   3   24.90    8.08   1
  -7  -2   4   37.82    9.10   1
  -7  -2   4   36.00    9.00   1
  -7  -2   5   21.07    8.45   1
  -7  -2   5   20.79    9.03   1
  -7  -2   5   12.11    7.80   1
  -7  -2   6    8.82    8.73   1
  -7  -2   6   18.49   10.23   1
  -7  -2   6    1.59    8.62   1
  -7  -1 -12    7.56    9.13   1
  -7  -1 -12   -2.50    8.03   1
  -7  -1 -12    2.62    9.04   1
  -7  -1 -11    3.96    7.04   1
  -7  -1 -11   -3.20    5.84   1
  -7  -1 -11   -3.31    4.91   1
  -7  -1 -11  -11.09    8.46   1
  -7  -1 -11    0.45    7.26   1
  -7  -1 -11  -20.43    9.40   1
  -7  -1 -10    4.33    7.70   1
  -7  -1 -10   -0.59    6.47   1
  -7  -1 -10   -8.24    7.00   1
  -7  -1 -10    1.49    5.37   1
  -7  -1 -10   -8.88    6.68   1
  -7  -1 -10   -0.40    4.49   1
  -7  -1  -9    3.57    7.22   1
  -7  -1  -9    8.76    7.16   1
  -7  -1  -9   -4.62    4.82   1
  -7  -1  -9   -1.12    5.87   1
  -7  -1  -9    9.92    5.92   1
  -7  -1  -9    2.62    5.51   1
  -7  -1  -8  121.88   11.26   1
  -7  -1  -8  117.72   10.63   1
  -7  -1  -8  114.28    9.41   1
  -7  -1  -8  114.28   10.69   1
  -7  -1  -8  110.88   11.79   1
  -7  -1  -8  117.94   11.95   1
  -7  -1  -7    8.76    4.97   1
  -7  -1  -7    4.62    5.16   1
  -7  -1  -7    5.62    5.59   1
  -7  -1  -7    4.00    6.24   1
  -7  -1  -7   -1.30    4.38   1
  -7  -1  -6    3.92    5.94   1
  -7  -1  -6    0.41    4.98   1
  -7  -1  -6    4.24    4.53   1
  -7  -1  -6    1.69    4.55   1
  -7  -1  -5   31.47    7.07   1
  -7  -1  -5   39.19    6.51   1
  -7  -1  -5   41.09    6.92   1
  -7  -1  -4   -0.34    5.14   1
  -7  -1  -4    4.80    5.30   1
  -7  -1  -3    6.97    5.60   1
  -7  -1  -3    2.37    5.30   1
  -7  -1  -2    5.71    5.54   1
  -7  -1  -2   11.56    5.85   1
  -7  -1  -1   47.20    8.24   1
  -7  -1  -1   45.43    8.49   1
  -7  -1  -1   37.33    5.74   1
  -7  -1   0   -4.80    5.69   1
  -7  -1   0   12.46    5.08   1
  -7  -1   0   -3.42    4.07   1
  -7  -1   1   68.06    9.73   1
  -7  -1   1   74.82   10.03   1
  -7  -1   1   79.92    8.22   1
  -7  -1   2   21.90    6.65   1
  -7  -1   2   23.91    6.16   1
  -7  -1   2   28.84    8.06   1
  -7  -1   3   32.38    8.19   1
  -7  -1   3   19.89    6.15   1
  -7  -1   3   18.06    7.57   1
  -7  -1   4    2.50    5.06   1
  -7  -1   4    7.78    7.25   1
  -7  -1   4    2.96    6.71   1
  -7  -1   4    8.70    5.72   1
  -7  -1   5   29.70    8.61   1
  -7  -1   5   27.67    7.89   1
  -7  -1   5   39.31    9.15   1
  -7  -1   5   36.00    7.08   1
  -7  -1   6    6.86    5.66   1
  -7  -1   6   -0.83    7.41   1
  -7  -1   6    5.95    8.54   1
  -7  -1   6    1.10    9.37   1
  -7   0 -12   -2.92    8.58   1
  -7   0 -12  -10.11    9.29   1
  -7   0 -12   -9.30    7.32   1
  -7   0 -12   -0.56    6.72   1
  -7   0 -11   -6.97    7.60   1
  -7   0 -11    4.75    7.89   1
  -7   0 -11   -2.25    4.05   1
  -7   0 -11   -8.35    6.59   1
  -7   0 -11    3.88    6.62   1
  -7   0 -11    8.29    7.78   1
  -7   0 -10   11.16    8.22   1
  -7   0 -10   16.16    6.27   1
  -7   0 -10   21.53    7.98   1
  -7   0 -10   21.25    8.02   1
  -7   0 -10    5.57    5.85   1
  -7   0  -9   50.41    8.80   1
  -7   0  -9   53.73    8.94   1
  -7   0  -9   50.55   10.24   1
  -7   0  -9   66.42    7.01   1
  -7   0  -9   59.60    8.49   1
  -7   0  -9   48.58    8.92   1
  -7   0  -8    5.15    7.26   1
  -7   0  -8    3.42    5.62   1
  -7   0  -8   -4.00    6.32   1
  -7   0  -8   -1.51    4.99   1
  -7   0  -8    1.44    3.94   1
  -7   0  -8   -8.88    6.26   1
  -7   0  -7    3.24    4.25   1
  -7   0  -7    9.12    6.10   1
  -7   0  -7   -5.86    5.90   1
  -7   0  -7    3.35    6.15   1
  -7   0  -7    6.86    4.30   1
  -7   0  -7   14.36    5.76   1
  -7   0  -6   64.48    8.19   1
  -7   0  -6   73.79   10.14   1
  -7   0  -6   53.44    8.19   1
  -7   0  -6   81.00    9.54   1
  -7   0  -6   82.81    8.19   1
  -7   0  -5    2.86    5.48   1
  -7   0  -5    8.76    5.80   1
  -7   0  -5   -0.27    5.87   1
  -7   0  -5    4.12    4.26   1
  -7   0  -4    6.50    5.61   1
  -7   0  -4    2.72    5.71   1
  -7   0  -4    5.34    5.41   1
  -7   0  -3   11.90    6.28   1
  -7   0  -3    0.08    4.90   1
  -7   0  -3    2.13    3.74   1
  -7   0  -2   67.57    8.38   1
  -7   0  -2   79.39    9.44   1
  -7   0  -2  101.00   10.45   1
  -7   0  -1   12.74    4.78   1
  -7   0  -1    1.46    3.39   1
  -7   0  -1    7.62    4.75   1
  -7   0  -1    6.66    5.57   1
  -7   0   0   -7.67    5.82   1
  -7   0   0   15.68    6.02   1
  -7   0   0    6.10    3.75   1
  -7   0   0    7.40    5.88   1
  -7   0   1   28.30    5.32   1
  -7   0   1   13.18    6.61   1
  -7   0   1   32.04    8.04   1
  -7   0   1   31.14    6.92   1
  -7   0   2   14.67    5.67   1
  -7   0   2   22.94    7.76   1
  -7   0   2   26.83    6.53   1
  -7   0   2   20.88    5.21   1
  -7   0   3   22.75    6.01   1
  -7   0   3   16.32    7.11   1
  -7   0   3   22.66    8.19   1
  -7   0   3   22.47    5.59   1
  -7   0   4    8.07    5.40   1
  -7   0   4   20.88    6.40   1
  -7   0   4   16.16    7.88   1
  -7   0   4   18.40    7.72   1
  -7   0   5    0.24    5.86   1
  -7   0   5   -1.44    6.77   1
  -7   0   5   -0.64    5.02   1
  -7   0   5    6.35    8.16   1
  -7   0   6   -0.92   10.21   1
  -7   0   6    0.32    6.52   1
  -7   0   6    1.39    5.00   1
  -7   0   6   -2.92    6.91   1
  -7   1 -12    2.86    8.45   1
  -7   1 -12    2.69   10.73   1
  -7   1 -12   -4.93    8.84   1
  -7   1 -12    1.12    7.02   1
  -7   1 -11   26.01    8.16   1
  -7   1 -11   30.14    8.67   1
  -7   1 -11   30.58    8.07   1
  -7   1 -10  109.62   13.19   1
  -7   1 -10  110.25   11.76   1
  -7   1 -10  123.88   12.47   1
  -7   1 -10  112.78    7.86   1
  -7   1 -10   83.91   10.99   1
  -7   1 -10   98.80   10.54   1
  -7   1  -9   10.69    6.61   1
  -7   1  -9    6.66    6.24   1
  -7   1  -9   -5.86    7.45   1
  -7   1  -9    6.86    6.39   1
  -7   1  -9    1.82    5.24   1
  -7   1  -9    2.99    3.60   1
  -7   1  -8    9.73    4.87   1
  -7   1  -8    0.96    5.66   1
  -7   1  -8    4.04    3.98   1
  -7   1  -8    8.12    7.47   1
  -7   1  -8   -7.18    6.11   1
  -7   1  -8    1.82    5.86   1
  -7   1  -7    7.45    6.17   1
  -7   1  -7    2.56    3.94   1
  -7   1  -7    0.28    3.68   1
  -7   1  -7    9.12    6.10   1
  -7   1  -7    6.55    5.84   1
  -7   1  -7    4.80    6.66   1
  -7   1  -6   25.30    6.84   1
  -7   1  -6   29.38    5.53   1
  -7   1  -6   35.28    5.46   1
  -7   1  -6   39.06    7.50   1
  -7   1  -6   40.07    7.22   1
  -7   1  -6   19.80    7.39   1
  -7   1  -5   -4.67    5.44   1
  -7   1  -5    4.71    5.77   1
  -7   1  -5   -5.66    4.86   1
  -7   1  -5   -1.32    3.40   1
  -7   1  -4   -0.62    4.82   1
  -7   1  -4    4.28    6.04   1
  -7   1  -4    8.58    5.74   1
  -7   1  -3    8.76    4.68   1
  -7   1  -3    4.28    5.59   1
  -7   1  -3   15.44    6.05   1
  -7   1  -2    0.52    5.39   1
  -7   1  -2    3.92    4.51   1
  -7   1  -2    1.54    4.98   1
  -7   1  -1   27.35    7.11   1
  -7   1  -1   12.18    6.14   1
  -7   1  -1   23.62    4.08   1
  -7   1  -1   27.56    5.99   1
  -7   1   0   15.84    6.69   1
  -7   1   0    9.80    3.57   1
  -7   1   0   18.06    6.12   1
  -7   1   0    7.78    6.25   1
  -7   1   1    7.34    5.47   1
  -7   1   1    1.56    3.25   1
  -7   1   1   20.61    7.54   1
  -7   1   1    2.53    6.26   1
  -7   1   2    2.72    6.86   1
  -7   1   2   -0.48    3.34   1
  -7   1   2   12.11    5.57   1
  -7   1   2    6.86    5.24   1
  -7   1   3    3.53    4.47   1
  -7   1   3    7.08    7.45   1
  -7   1   3    9.86    6.47   1
  -7   1   3    7.95    5.13   1
  -7   1   4   39.82    6.44   1
  -7   1   4   25.00    9.10   1
  -7   1   4   34.34    7.85   1
  -7   1   4   19.45    5.64   1
  -7   1   5   -1.21    6.84   1
  -7   1   5    0.66    5.20   1
  -7   1   5    5.76    8.93   1
  -7   1   5    0.86    4.37   1
  -7   1   6   47.75    9.67   1
  -7   2 -11    9.80    9.83   1
  -7   2 -11   12.04    7.36   1
  -7   2 -11   -1.77    7.21   1
  -7   2 -11    6.97    7.44   1
  -7   2 -10   12.60    6.74   1
  -7   2 -10   21.25    7.01   1
  -7   2 -10   -3.17    8.40   1
  -7   2 -10    7.73    6.67   1
  -7   2 -10   18.40    3.69   1
  -7   2 -10   19.71    8.44   1
  -7   2  -9   -2.79    6.01   1
  -7   2  -9    3.57    5.14   1
  -7   2  -9   -2.50    6.83   1
  -7   2  -9   -7.34    7.97   1
  -7   2  -9    1.08    3.29   1
  -7   2  -9    3.20    2.22   1
  -7   2  -9    3.53    6.54   1
  -7   2  -8   -9.99    8.03   1
  -7   2  -8   -1.44    3.19   1
  -7   2  -8    9.99    6.13   1
  -7   2  -8    4.62    5.76   1
  -7   2  -8    5.15    4.86   1
  -7   2  -8    6.15    6.35   1
  -7   2  -7    6.15    3.62   1
  -7   2  -7   17.06    7.02   1
  -7   2  -7    6.76    4.42   1
  -7   2  -7    2.66    6.65   1
  -7   2  -7    9.24    5.96   1
  -7   2  -7   -1.56    5.92   1
  -7   2  -6    2.76    4.48   1
  -7   2  -6   11.76    6.11   1
  -7   2  -6    1.74    4.78   1
  -7   2  -6   -1.37    3.77   1
  -7   2  -6    3.13    4.46   1
  -7   2  -5   20.98    6.60   1
  -7   2  -5   16.89    6.66   1
  -7   2  -5   13.91    6.86   1
  -7   2  -5   24.80    4.38   1
  -7   2  -4    8.88    6.08   1
  -7   2  -4   13.84    5.73   1
  -7   2  -4   15.52    5.52   1
  -7   2  -3   -6.10    5.88   1
  -7   2  -3   -8.53    5.96   1
  -7   2  -3   -0.88    5.09   1
  -7   2  -2   79.74   10.18   1
  -7   2  -2   68.39    8.93   1
  -7   2  -2   67.40    5.75   1
  -7   2  -2   68.06    8.91   1
  -7   2  -1   -4.08    5.86   1
  -7   2  -1   -3.31    2.91   1
  -7   2  -1   11.16    4.54   1
  -7   2  -1    5.11    6.24   1
  -7   2   0   63.04    9.21   1
  -7   2   0   61.47    9.56   1
  -7   2   0   55.20    5.05   1
  -7   2   0   70.06    8.70   1
  -7   2   1   -4.28    2.86   1
  -7   2   1    0.71    4.87   1
  -7   2   1    3.80    6.90   1
  -7   2   1    9.30    6.77   1
  -7   2   2    6.66    3.61   1
  -7   2   2   -3.03    6.96   1
  -7   2   2   12.74    6.78   1
  -7   2   2    5.29    5.11   1
  -7   2   3   -2.25    7.65   1
  -7   2   3   -1.49    3.46   1
  -7   2   3   -8.70    6.73   1
  -7   2   3   -2.76    4.65   1
  -7   2   4    5.38    4.08   1
  -7   2   4    1.19    7.32   1
  -7   2   4    2.82    4.54   1
  -7   2   4    5.06    6.97   1
  -7   2   5   28.94    5.60   1
  -7   2   5   22.75    8.40   1
  -7   2   5   38.94    9.36   1
  -7   2   6   -3.61    7.22   1
  -7   2   6    4.24    5.85   1
  -7   3 -11  -11.76    7.48   1
  -7   3 -11   -0.40    8.11   1
  -7   3 -11    0.14    7.65   1
  -7   3 -10    7.84    7.17   1
  -7   3 -10   -3.10    4.08   1
  -7   3 -10   -1.10    6.36   1
  -7   3 -10   -1.17    7.52   1
  -7   3  -9   31.25    8.83   1
  -7   3  -9   25.50    7.58   1
  -7   3  -9   40.07    3.92   1
  -7   3  -9   39.19    4.63   1
  -7   3  -9   51.27    7.45   1
  -7   3  -9   19.98    9.39   1
  -7   3  -8   -1.59    5.67   1
  -7   3  -8    2.13    4.93   1
  -7   3  -8   -0.48    6.91   1
  -7   3  -8    1.37    4.52   1
  -7   3  -8    6.86    7.55   1
  -7   3  -8   -5.71    2.87   1
  -7   3  -8    1.82    3.19   1
  -7   3  -7    2.86    6.62   1
  -7   3  -7    3.31    3.60   1
  -7   3  -7    5.15    5.18   1
  -7   3  -7   -0.46    3.81   1
  -7   3  -7    2.50    5.69   1
  -7   3  -7   -0.44    6.16   1
  -7   3  -6   99.80   10.59   1
  -7   3  -6  106.30   10.93   1
  -7   3  -6  108.16   12.06   1
  -7   3  -6  124.32   12.93   1
  -7   3  -6  105.47    8.22   1
  -7   3  -5    6.10    3.36   1
  -7   3  -5    5.43    6.24   1
  -7   3  -5    4.20    5.95   1
  -7   3  -5    0.67    5.33   1
  -7   3  -4   -6.05    6.30   1
  -7   3  -4    2.92    2.74   1
  -7   3  -4    3.76    5.98   1
  -7   3  -4   -1.39    4.96   1
  -7   3  -3    3.57    2.57   1
  -7   3  -3    7.24    6.19   1
  -7   3  -3    7.95    6.37   1
  -7   3  -3    9.61    6.20   1
  -7   3  -2    4.00    2.32   1
  -7   3  -2    2.25    4.14   1
  -7   3  -2   -4.04    5.71   1
  -7   3  -2    2.72    2.14   1
  -7   3  -2    4.04    6.15   1
  -7   3  -1   -8.01    6.51   1
  -7   3  -1   -3.80    2.03   1
  -7   3  -1   -0.41    5.15   1
  -7   3  -1    5.11    5.24   1
  -7   3  -1   -2.16    1.82   1
  -7   3   0    1.80    6.11   1
  -7   3   0    7.34    5.91   1
  -7   3   0    5.57    6.56   1
  -7   3   1   39.19    8.39   1
  -7   3   1   29.81    6.99   1
  -7   3   1   32.72    3.32   1
  -7   3   1   17.81    7.93   1
  -7   3   2    7.40    7.02   1
  -7   3   2   12.96    5.98   1
  -7   3   2   11.76    7.89   1
  -7   3   3    0.10    2.46   1
  -7   3   3    1.49    7.00   1
  -7   3   3    4.00    7.60   1
  -7   3   4   23.81    8.59   1
  -7   3   4    4.54    3.37   1
  -7   3   4   -0.02    7.51   1
  -7   3   5    2.28    6.64   1
  -7   3   6   11.22    9.11   1
  -7   4 -10   14.14    9.63   1
  -7   4 -10   -6.15    6.60   1
  -7   4 -10    7.24    7.37   1
  -7   4  -9    6.10    6.22   1
  -7   4  -9    3.46    5.77   1
  -7   4  -9    6.50    8.41   1
  -7   4  -9    1.49    3.98   1
  -7   4  -8   -6.25    5.95   1
  -7   4  -8    5.86    4.99   1
  -7   4  -8   14.75    8.37   1
  -7   4  -8    0.86    2.83   1
  -7   4  -8    6.86    7.44   1
  -7   4  -8    5.86    3.68   1
  -7   4  -7   28.20    7.33   1
  -7   4  -7   33.06    8.62   1
  -7   4  -7   30.69    5.21   1
  -7   4  -7   30.36    9.15   1
  -7   4  -6    8.01    6.23   1
  -7   4  -6    3.80    3.43   1
  -7   4  -6    9.00    6.12   1
  -7   4  -6    6.40    7.54   1
  -7   4  -5   -2.66    5.87   1
  -7   4  -5   -4.41    5.84   1
  -7   4  -5    2.28    2.69   1
  -7   4  -4   14.52    7.24   1
  -7   4  -4   -3.53    6.20   1
  -7   4  -4    4.08    5.17   1
  -7   4  -4   -1.14    1.88   1
  -7   4  -3   36.60    8.11   1
  -7   4  -3   49.28    9.27   1
  -7   4  -3   39.44    7.54   1
  -7   4  -2    2.62    6.77   1
  -7   4  -2    0.62    4.14   1
  -7   4  -1   -2.99    6.61   1
  -7   4  -1   -3.88    6.54   1
  -7   4   0   44.09    9.16   1
  -7   4   0   60.06    9.30   1
  -7   4   1    4.16    6.90   1
  -7   4   2    0.71    6.84   1
  -7   4   2   -6.60    8.22   1
  -7   4   3   23.52    8.54   1
  -7   4   3   12.67    9.04   1
  -7   4   4   10.56    8.06   1
  -7   4   5    2.40    8.22   1
  -7   5  -9   34.93   11.82   1
  -7   5  -9   50.55    7.96   1
  -7   5  -8    0.67    5.05   1
  -7   5  -8    3.96    4.82   1
  -7   5  -8   -9.06    9.69   1
  -7   5  -8    8.41    6.55   1
  -7   5  -7   12.46    6.92   1
  -7   5  -7   25.91   10.18   1
  -7   5  -7   37.09    5.12   1
  -7   5  -7   24.30    4.14   1
  -7   5  -7   21.72    5.59   1
  -7   5  -7   35.64    8.36   1
  -7   5  -6   -2.10    2.93   1
  -7   5  -6    1.69    5.95   1
  -7   5  -6   -1.28    3.86   1
  -7   5  -6    2.13    7.33   1
  -7   5  -6  -15.21    7.80   1
  -7   5  -5    9.86    6.41   1
  -7   5  -5   -0.62    7.63   1
  -7   5  -4    5.02    5.69   1
  -7   5  -4  -13.47    6.39   1
  -7   5  -3   -4.84    6.25   1
  -7   5  -3    3.50    7.82   1
  -7   5  -2  206.21   17.23   1
  -7   5  -2  180.36   15.04   1
  -7   5  -1    0.96    6.96   1
  -7   5  -1    7.13    7.48   1
  -7   5   0   28.30    8.62   1
  -7   5   0   12.96    7.99   1
  -7   5   1    3.65    7.33   1
  -7   5   1   11.22    8.44   1
  -7   5   2   -5.24    7.60   1
  -7   5   2   -0.76    6.11   1
  -7   5   3    5.95    8.34   1
  -7   5   4    5.15    8.94   1
  -7   6  -7   -0.26    6.46   1
  -7   6  -7   19.54   11.23   1
  -7   6  -7    2.89    5.98   1
  -7   6  -6   61.15   12.67   1
  -7   6  -5    0.50    6.42   1
  -7   6  -5    3.46    4.87   1
  -7   6  -5   -1.06    7.17   1
  -7   6  -4   10.30    5.59   1
  -7   6  -4   -2.37    6.96   1
  -7   6  -4   15.44    9.90   1
  -7   6  -3   -0.40    7.30   1
  -7   6  -3    6.40    5.16   1
  -7   6  -3   25.00    9.70   1
  -7   6  -2   -1.21    5.70   1
  -7   6  -2    8.58    8.91   1
  -7   6  -2    0.15    7.11   1
  -7   6  -1    1.64    6.37   1
  -7   6  -1   -1.51    8.22   1
  -7   6  -1    3.69    8.45   1
  -7   6   0    4.20    7.05   1
  -7   6   0    2.04    8.09   1
  -7   6   0   -1.69    8.19   1
  -7   6   1   -6.00    9.21   1
  -7   6   1   -0.67    6.48   1
  -7   6   1   -6.55    7.32   1
  -7   6   2   -1.00    8.16   1
  -7   6   2   10.76    8.72   1
  -7   6   3   -1.90    8.83   1
  -7   6   3    9.18    8.48   1
  -7   7  -5   -5.76    7.44   1
  -7   7  -5    9.92    9.83   1
  -7   7  -4   -7.56    7.98   1
  -7   7  -4    8.47    5.88   1
  -7   7  -4   -9.00   10.38   1
  -7   7  -3    2.76    7.80   1
  -7   7  -3    8.01   10.19   1
  -7   7  -3   14.36    6.29   1
  -7   7  -2   19.89    9.54   1
  -7   7  -2   -4.08    8.36   1
  -7   7  -2   -9.55    6.55   1
  -7   7  -1    1.59    7.11   1
  -7   7  -1   -0.28    8.37   1
  -7   7  -1    3.46    8.97   1
  -7   7   0    2.76    9.99   1
  -7   7   0   -3.69    7.22   1
  -7   7   0    5.71    8.80   1
  -7   7   1    7.18    8.31   1
  -7   7   1   -1.42    9.23   1
  -6  -9  -6    2.07    5.96   1
  -6  -9  -5  -14.90    9.80   1
  -6  -9  -4   78.50   12.05   1
  -6  -9  -3   -5.06    8.01   1
  -6  -9  -2   32.95    9.76   1
  -6  -9  -1   25.60    9.31   1
  -6  -9   0   -0.35    8.79   1
  -6  -8  -8   34.34    9.02   1
  -6  -8  -8   29.48   10.86   1
  -6  -8  -8   40.96    7.17   1
  -6  -8  -7  -10.69    7.46   1
  -6  -8  -7    5.76    6.72   1
  -6  -8  -7   -6.86    4.87   1
  -6  -8  -6   44.62    6.55   1
  -6  -8  -6   50.41   10.51   1
  -6  -8  -6   35.52    8.58   1
  -6  -8  -5    3.92    7.72   1
  -6  -8  -5    3.88    8.08   1
  -6  -8  -5   27.25    9.40   1
  -6  -8  -4    1.82    7.53   1
  -6  -8  -4    8.88    7.63   1
  -6  -8  -4   -4.58    6.25   1
  -6  -8  -3   14.90    8.72   1
  -6  -8  -3    3.84    7.76   1
  -6  -8  -3   16.00    7.84   1
  -6  -8  -2  -16.65    8.08   1
  -6  -8  -2    4.84    7.48   1
  -6  -8  -2   -4.80    8.28   1
  -6  -8  -2   -1.10    7.73   1
  -6  -8  -1   61.78   10.22   1
  -6  -8  -1   47.75    8.84   1
  -6  -8  -1   50.41   10.93   1
  -6  -8  -1   39.69    9.07   1
  -6  -8   0   15.44    7.15   1
  -6  -8   0    8.41    8.24   1
  -6  -8   0    1.32    8.19   1
  -6  -8   1    9.06    7.53   1
  -6  -8   1    7.78    8.20   1
  -6  -8   1   21.90    8.99   1
  -6  -8   2   -1.54    7.86   1
  -6  -8   2   18.92   11.14   1
  -6  -8   2   22.56    8.65   1
  -6  -7 -11    0.49    8.93   1
  -6  -7 -10   75.34    7.99   1
  -6  -7 -10   57.30   12.26   1
  -6  -7 -10   53.58    8.78   1
  -6  -7  -9    4.00    4.64   1
  -6  -7  -9    2.04    8.98   1
  -6  -7  -9    5.81    6.99   1
  -6  -7  -8    5.86    7.89   1
  -6  -7  -8    2.86    4.12   1
  -6  -7  -8    2.66    5.90   1
  -6  -7  -7   26.52    7.11   1
  -6  -7  -7   23.14    4.91   1
  -6  -7  -7    7.08    7.98   1
  -6  -7  -6   31.92    8.70   1
  -6  -7  -6   42.77    5.49   1
  -6  -7  -6   49.28    9.13   1
  -6  -7  -5    9.12    7.43   1
  -6  -7  -5    3.84    7.17   1
  -6  -7  -5    9.42    7.06   1
  -6  -7  -4   -3.28    6.41   1
  -6  -7  -4   -1.39    6.51   1
  -6  -7  -4   -2.62    6.67   1
  -6  -7  -3   52.27    9.40   1
  -6  -7  -3   47.33    8.39   1
  -6  -7  -3   54.76   10.06   1
  -6  -7  -2   -2.59    6.44   1
  -6  -7  -2    5.20    7.30   1
  -6  -7  -2   -3.96    7.00   1
  -6  -7  -2   -5.38    6.73   1
  -6  -7  -1    9.18    6.79   1
  -6  -7  -1    1.49    5.69   1
  -6  -7  -1   -3.13    7.22   1
  -6  -7  -1    2.82    7.22   1
  -6  -7   0  125.89   13.91   1
  -6  -7   0  115.78   12.27   1
  -6  -7   0  108.58   11.25   1
  -6  -7   0   93.32   11.59   1
  -6  -7   1    8.12    5.59   1
  -6  -7   1    6.66    8.62   1
  -6  -7   1   -3.61    8.25   1
  -6  -7   1   14.75    6.91   1
  -6  -7   2    7.29    6.86   1
  -6  -7   2   -4.84    8.54   1
  -6  -7   2   12.82    9.81   1
  -6  -7   2    7.95    7.33   1
  -6  -7   3    5.71    9.32   1
  -6  -7   3   26.42    9.25   1
  -6  -7   3   31.47    8.08   1
  -6  -7   4   -7.56   11.11   1
  -6  -7   4   -8.29    8.99   1
  -6  -7   4    3.76    7.80   1
  -6  -6 -11   23.62    9.91   1
  -6  -6 -11   14.06    5.10   1
  -6  -6 -11   15.37    6.04   1
  -6  -6 -11    3.03    9.60   1
  -6  -6 -10   13.47    8.51   1
  -6  -6 -10   18.66    6.31   1
  -6  -6  -9    3.24    5.69   1
  -6  -6  -9   -2.31    3.44   1
  -6  -6  -9    9.18    7.51   1
  -6  -6  -8   -5.24    5.72   1
  -6  -6  -8    1.14    3.15   1
  -6  -6  -8   -2.43    6.33   1
  -6  -6  -7   -2.96    6.23   1
  -6  -6  -7   -0.42    2.68   1
  -6  -6  -7   12.96    6.34   1
  -6  -6  -6    2.76    2.56   1
  -6  -6  -6    0.56    5.51   1
  -6  -6  -6   13.18    7.04   1
  -6  -6  -5    8.29    6.39   1
  -6  -6  -5    0.32    5.64   1
  -6  -6  -5    6.10    5.43   1
  -6  -6  -4   -9.49    6.22   1
  -6  -6  -4    1.46    2.44   1
  -6  -6  -4    0.46    5.63   1
  -6  -6  -4    4.04    5.79   1
  -6  -6  -3   -0.86    4.20   1
  -6  -6  -3    2.37    5.82   1
  -6  -6  -3    7.02    5.04   1
  -6  -6  -3    2.56    2.53   1
  -6  -6  -2   15.13    6.77   1
  -6  -6  -2   12.32    2.81   1
  -6  -6  -2   11.09    6.26   1
  -6  -6  -2    7.90    6.80   1
  -6  -6  -1   10.76    5.58   1
  -6  -6  -1    5.86    6.34   1
  -6  -6  -1   12.67    5.91   1
  -6  -6  -1   13.69    6.96   1
  -6  -6   0   20.25    8.01   1
  -6  -6   0    8.07    6.76   1
  -6  -6   0   10.96    6.82   1
  -6  -6   0   10.82    6.25   1
  -6  -6   1   -4.93    5.15   1
  -6  -6   1   11.22    6.36   1
  -6  -6   1    7.24    7.75   1
  -6  -6   1    3.46    5.84   1
  -6  -6   2    6.00    5.83   1
  -6  -6   2    0.01    7.11   1
  -6  -6   2    7.56    6.77   1
  -6  -6   2   15.44    8.49   1
  -6  -6   3   -6.50    7.96   1
  -6  -6   3   22.66    9.52   1
  -6  -6   3   23.04    8.06   1
  -6  -6   3    2.31    6.41   1
  -6  -6   4   -0.61    7.53   1
  -6  -6   4   -4.20    6.44   1
  -6  -6   4   -0.37    8.87   1
  -6  -6   5   11.42    9.06   1
  -6  -6   5    4.84    8.27   1
  -6  -6   5   -5.20    7.66   1
  -6  -5 -12    8.24    8.61   1
  -6  -5 -12    0.90    8.66   1
  -6  -5 -11   26.52    6.08   1
  -6  -5 -11   26.11    4.80   1
  -6  -5 -11   44.36   10.26   1
  -6  -5 -11   29.48    8.69   1
  -6  -5 -10    9.30    5.92   1
  -6  -5 -10    7.90    7.87   1
  -6  -5 -10   -2.40    5.42   1
  -6  -5  -9   18.58    5.60   1
  -6  -5  -9   10.76    6.69   1
  -6  -5  -9   12.46    3.25   1
  -6  -5  -8   -0.53    4.64   1
  -6  -5  -8    0.12    2.37   1
  -6  -5  -8    9.73    6.24   1
  -6  -5  -7   -1.04    5.53   1
  -6  -5  -7    7.73    5.28   1
  -6  -5  -7   -3.96    2.23   1
  -6  -5  -6  187.96   13.71   1
  -6  -5  -6  189.06   14.85   1
  -6  -5  -6  212.28   14.28   1
  -6  -5  -6  199.66   10.74   1
  -6  -5  -6  196.00    8.96   1
  -6  -5  -5  268.30   16.71   1
  -6  -5  -5  267.00   17.32   1
  -6  -5  -5  271.92   12.20   1
  -6  -5  -5  223.50   15.55   1
  -6  -5  -4   12.04    5.90   1
  -6  -5  -4   19.54    6.45   1
  -6  -5  -4    9.24    3.04   1
  -6  -5  -4   15.84    5.57   1
  -6  -5  -3    3.80    5.38   1
  -6  -5  -3   -3.50    5.54   1
  -6  -5  -3   -4.93    2.53   1
  -6  -5  -3    8.35    6.07   1
  -6  -5  -2   42.90    7.60   1
  -6  -5  -2   30.47    6.29   1
  -6  -5  -2   21.34    6.47   1
  -6  -5  -1    9.55    5.75   1
  -6  -5  -1   20.07    6.99   1
  -6  -5  -1   -4.37    6.06   1
  -6  -5  -1   15.29    6.26   1
  -6  -5   0  167.70   14.50   1
  -6  -5   0  143.28   12.21   1
  -6  -5   0  176.36   13.55   1
  -6  -5   0  169.26   12.75   1
  -6  -5   1    7.73    6.17   1
  -6  -5   1    9.00    7.14   1
  -6  -5   1   13.84    6.10   1
  -6  -5   2   12.25    5.74   1
  -6  -5   2    7.18    6.81   1
  -6  -5   2   26.11    8.38   1
  -6  -5   2    9.67    6.22   1
  -6  -5   3   -6.66    6.35   1
  -6  -5   3    5.95    5.76   1
  -6  -5   3    2.37    7.11   1
  -6  -5   3   10.82    7.04   1
  -6  -5   4   20.52    8.97   1
  -6  -5   4   34.11    7.94   1
  -6  -5   4   39.82    8.96   1
  -6  -5   4   52.13   10.25   1
  -6  -5   5   34.57   10.23   1
  -6  -5   5   10.96    9.33   1
  -6  -5   5   46.65    8.88   1
  -6  -5   5   20.98    7.69   1
  -6  -5   6   -8.12    9.29   1
  -6  -5   6  -19.98    8.67   1
  -6  -4 -13   21.25    9.40   1
  -6  -4 -13   25.60   10.83   1
  -6  -4 -12   30.80    5.99   1
  -6  -4 -12   21.72    8.29   1
  -6  -4 -12   34.69    5.65   1
  -6  -4 -12   27.35   10.36   1
  -6  -4 -11   -2.66    3.16   1
  -6  -4 -11  -12.11    7.66   1
  -6  -4 -11   -5.06    4.59   1
  -6  -4 -11    9.00    6.66   1
  -6  -4 -10   17.39    3.50   1
  -6  -4 -10   21.07    7.71   1
  -6  -4 -10   21.16    6.81   1
  -6  -4 -10   23.81    5.66   1
  -6  -4  -9    2.59    5.47   1
  -6  -4  -9    3.28    4.67   1
  -6  -4  -8   11.83    5.16   1
  -6  -4  -8    3.31    4.22   1
  -6  -4  -8   16.32    2.34   1
  -6  -4  -8   11.42    5.95   1
  -6  -4  -7   35.52    6.79   1
  -6  -4  -7   31.36    5.26   1
  -6  -4  -7   43.16    6.83   1
  -6  -4  -6   19.45    4.23   1
  -6  -4  -6   23.33    5.12   1
  -6  -4  -6   14.21    5.35   1
  -6  -4  -6   22.56    6.84   1
  -6  -4  -5  -10.56    5.20   1
  -6  -4  -5   -1.14    2.85   1
  -6  -4  -5    8.53    5.31   1
  -6  -4  -5    6.40    4.00   1
  -6  -4  -4   61.47    8.00   1
  -6  -4  -4   56.55    7.07   1
  -6  -4  -4   56.85    5.58   1
  -6  -4  -4   67.90    8.24   1
  -6  -4  -3    5.90    5.15   1
  -6  -4  -3    4.58    3.81   1
  -6  -4  -3    4.16    4.98   1
  -6  -4  -2    1.51    4.75   1
  -6  -4  -2   -6.05    5.07   1
  -6  -4  -2   -0.36    5.04   1
  -6  -4  -1    7.56    3.96   1
  -6  -4  -1    4.45    3.80   1
  -6  -4  -1   10.82    5.92   1
  -6  -4  -1   12.60    4.69   1
  -6  -4   0  178.22   12.82   1
  -6  -4   0  187.14   13.41   1
  -6  -4   0  199.09   13.55   1
  -6  -4   0  165.12   13.88   1
  -6  -4   1  118.37   10.66   1
  -6  -4   1  104.45   10.22   1
  -6  -4   1  115.13   11.59   1
  -6  -4   1  109.83   10.69   1
  -6  -4   2   42.12    7.92   1
  -6  -4   2   55.50    8.05   1
  -6  -4   2   48.16    8.61   1
  -6  -4   3   20.98    7.33   1
  -6  -4   3   35.16    8.42   1
  -6  -4   3   30.80    6.77   1
  -6  -4   4   17.31    6.91   1
  -6  -4   4   18.32    6.76   1
  -6  -4   4   17.14    7.95   1
  -6  -4   5    3.42    6.62   1
  -6  -4   5    9.24    5.59   1
  -6  -4   5    4.08    7.31   1
  -6  -4   6   38.44    9.18   1
  -6  -4   6   29.70    9.48   1
  -6  -4   7   -7.62    9.05   1
  -6  -4   7   -0.12    8.54   1
  -6  -3 -13   14.82    8.62   1
  -6  -3 -13   -5.38    7.28   1
  -6  -3 -13    8.64    9.82   1
  -6  -3 -12    3.28    8.54   1
  -6  -3 -12    5.15    7.63   1
  -6  -3 -12    1.25    4.21   1
  -6  -3 -12    4.37    4.18   1
  -6  -3 -12    4.12    5.97   1
  -6  -3 -11   30.80    4.33   1
  -6  -3 -11   22.47    7.96   1
  -6  -3 -11   36.00    6.00   1
  -6  -3 -11   35.76    7.18   1
  -6  -3 -11   19.89    8.03   1
  -6  -3 -10    3.31    5.97   1
  -6  -3 -10    5.15    2.41   1
  -6  -3 -10    4.88    4.64   1
  -6  -3 -10    1.51    4.77   1
  -6  -3  -9   85.75    9.07   1
  -6  -3  -9   97.22    9.07   1
  -6  -3  -9  109.20    9.61   1
  -6  -3  -9   93.32   10.43   1
  -6  -3  -9  109.62    5.44   1
  -6  -3  -8   83.36    8.76   1
  -6  -3  -8   76.74    9.99   1
  -6  -3  -8   79.21    7.83   1
  -6  -3  -8   79.57    8.56   1
  -6  -3  -7   26.63    5.68   1
  -6  -3  -7   19.54    4.77   1
  -6  -3  -7   16.00    5.12   1
  -6  -3  -7   18.75    6.24   1
  -6  -3  -6    6.60    4.63   1
  -6  -3  -6    6.71    4.71   1
  -6  -3  -6   -2.89    3.60   1
  -6  -3  -6    2.76    4.68   1
  -6  -3  -5   -2.69    4.46   1
  -6  -3  -5    0.83    2.91   1
  -6  -3  -5   -3.80    4.60   1
  -6  -3  -5   -3.39    4.53   1
  -6  -3  -4   26.11    6.03   1
  -6  -3  -4   20.16    3.95   1
  -6  -3  -3   -2.99    4.43   1
  -6  -3  -3   -3.57    4.69   1
  -6  -3  -3    1.69    4.71   1
  -6  -3  -2   33.99    5.71   1
  -6  -3  -2   31.02    6.57   1
  -6  -3  -2   30.91    5.56   1
  -6  -3  -1   72.76    7.85   1
  -6  -3  -1   71.74    8.81   1
  -6  -3  -1   64.00    8.16   1
  -6  -3   0   26.73    6.20   1
  -6  -3   0   32.83    5.84   1
  -6  -3   0   34.22    7.25   1
  -6  -3   1   22.28    6.42   1
  -6  -3   1   22.47    6.26   1
  -6  -3   1   22.75    5.82   1
  -6  -3   2  150.80   12.03   1
  -6  -3   2  186.60   13.93   1
  -6  -3   2  157.75   12.06   1
  -6  -3   3   -2.89    5.47   1
  -6  -3   3    4.20    5.70   1
  -6  -3   3    5.02    6.41   1
  -6  -3   4   11.09    6.46   1
  -6  -3   4   15.13    6.61   1
  -6  -3   4    1.66    6.09   1
  -6  -3   5   22.56    7.31   1
  -6  -3   5   13.03    7.08   1
  -6  -3   5    4.49    7.00   1
  -6  -3   6    3.06    7.35   1
  -6  -3   6   30.25    8.36   1
  -6  -3   7    8.47    8.32   1
  -6  -3   7    3.20    9.42   1
  -6  -3   7    4.37    7.86   1
  -6  -2 -13    3.92    9.27   1
  -6  -2 -13   -3.39    8.24   1
  -6  -2 -13    1.59    6.00   1
  -6  -2 -12    7.08    5.27   1
  -6  -2 -12    0.20    4.23   1
  -6  -2 -12    1.19    7.89   1
  -6  -2 -12  -16.00    8.16   1
  -6  -2 -11    3.17    6.59   1
  -6  -2 -11    5.76    6.96   1
  -6  -2 -11   -1.77    4.39   1
  -6  -2 -11   -2.25    4.41   1
  -6  -2 -10   -5.66    5.71   1
  -6  -2 -10   -0.35    5.81   1
  -6  -2 -10    0.67    4.08   1
  -6  -2 -10    5.95    6.10   1
  -6  -2 -10   -0.59    2.08   1
  -6  -2 -10    2.56    5.41   1
  -6  -2 -10    0.05    4.42   1
  -6  -2  -9   11.63    4.91   1
  -6  -2  -9   18.58    5.09   1
  -6  -2  -9   18.15    6.56   1
  -6  -2  -9    6.30    5.82   1
  -6  -2  -8  156.00   12.99   1
  -6  -2  -8  184.14   12.76   1
  -6  -2  -8  207.36   13.25   1
  -6  -2  -8  197.68   12.09   1
  -6  -2  -8  187.14   12.31   1
  -6  -2  -7   11.42    5.48   1
  -6  -2  -7    6.15    4.27   1
  -6  -2  -7    4.84    4.09   1
  -6  -2  -6   21.44    5.56   1
  -6  -2  -6   21.16    5.34   1
  -6  -2  -6   19.54    4.60   1
  -6  -2  -5  207.07   12.38   1
  -6  -2  -5  189.61   12.94   1
  -6  -2  -5  197.68   13.50   1
  -6  -2  -5  182.52   11.08   1
  -6  -2  -4   28.30    5.43   1
  -6  -2  -4   34.81    6.37   1
  -6  -2  -4   31.81    6.43   1
  -6  -2  -3  141.85   11.43   1
  -6  -2  -3  122.77   10.64   1
  -6  -2  -3  121.66    9.93   1
  -6  -2  -2  277.89   16.34   1
  -6  -2  -2  235.93   14.75   1
  -6  -2  -1   10.63    4.89   1
  -6  -2  -1    0.90    4.58   1
  -6  -2   0    5.15    4.72   1
  -6  -2   0    1.02    3.31   1
  -6  -2   0    6.25    4.90   1
  -6  -2   1    1.74    4.36   1
  -6  -2   1   -0.13    4.05   1
  -6  -2   1    5.43    5.31   1
  -6  -2   2   19.18    6.13   1
  -6  -2   2   25.50    6.77   1
  -6  -2   2   16.89    5.26   1
  -6  -2   3   -3.84    5.61   1
  -6  -2   3    8.64    5.17   1
  -6  -2   3    0.35    5.39   1
  -6  -2   4   21.53    6.68   1
  -6  -2   4   20.98    6.14   1
  -6  -2   4   17.56    6.79   1
  -6  -2   5    8.24    6.43   1
  -6  -2   5   22.28    7.27   1
  -6  -2   5   18.92    7.05   1
  -6  -2   6    2.82    6.55   1
  -6  -2   6    5.15    6.08   1
  -6  -2   6    6.92    6.84   1
  -6  -2   7   -3.69    7.68   1
  -6  -2   7   13.25    7.50   1
  -6  -2   7   11.63    7.71   1
  -6  -2   8   27.14    8.75   1
  -6  -2   8   32.95   10.68   1
  -6  -1 -13   -6.40    8.40   1
  -6  -1 -13   -1.37    5.03   1
  -6  -1 -13    1.28    5.13   1
  -6  -1 -13   -4.33    9.07   1
  -6  -1 -12    9.92    5.48   1
  -6  -1 -12    0.32    6.98   1
  -6  -1 -12    9.80    4.01   1
  -6  -1 -12    0.77    7.15   1
  -6  -1 -12   24.90    8.88   1
  -6  -1 -12    9.36    4.77   1
  -6  -1 -11    3.88    4.49   1
  -6  -1 -11    7.29    4.48   1
  -6  -1 -11   -1.85    6.69   1
  -6  -1 -11   -4.67    6.35   1
  -6  -1 -11   -5.90    7.58   1
  -6  -1 -11    4.41    3.02   1
  -6  -1 -10   75.17   10.23   1
  -6  -1 -10   79.92   10.01   1
  -6  -1 -10   60.06    8.84   1
  -6  -1 -10   68.39    9.26   1
  -6  -1 -10   63.84    4.95   1
  -6  -1 -10   64.48    6.91   1
  -6  -1 -10   66.75    7.68   1
  -6  -1  -9   27.25    5.74   1
  -6  -1  -9   30.47    6.40   1
  -6  -1  -9   35.28    5.35   1
  -6  -1  -9   15.92    5.99   1
  -6  -1  -9   24.60    6.65   1
  -6  -1  -8   -6.60    5.81   1
  -6  -1  -8    4.67    3.50   1
  -6  -1  -8    1.99    4.68   1
  -6  -1  -8    7.34    4.01   1
  -6  -1  -8    4.33    3.66   1
  -6  -1  -8   -7.08    5.05   1
  -6  -1  -7   91.39    9.37   1
  -6  -1  -7   90.63    8.00   1
  -6  -1  -7   87.98    9.19   1
  -6  -1  -7   88.74    7.72   1
  -6  -1  -7   83.91    8.43   1
  -6  -1  -6    4.80    4.03   1
  -6  -1  -6    9.36    3.86   1
  -6  -1  -6   -3.20    3.51   1
  -6  -1  -6    2.50    3.48   1
  -6  -1  -5   -2.25    3.72   1
  -6  -1  -5   -3.61    4.52   1
  -6  -1  -5    3.42    3.92   1
  -6  -1  -5   -6.60    3.70   1
  -6  -1  -4   24.70    4.97   1
  -6  -1  -4   17.56    5.28   1
  -6  -1  -4   36.00    6.24   1
  -6  -1  -3   91.78    9.01   1
  -6  -1  -3  113.42   10.01   1
  -6  -1  -2   81.18    8.83   1
  -6  -1  -2   96.83    9.05   1
  -6  -1  -1   16.32    5.33   1
  -6  -1  -1   19.18    5.61   1
  -6  -1   0   17.89    4.31   1
  -6  -1   0   24.21    6.00   1
  -6  -1   0   21.53    5.38   1
  -6  -1   1   -3.28    4.56   1
  -6  -1   1   -0.15    3.42   1
  -6  -1   1    5.71    5.16   1
  -6  -1   2    7.67    5.37   1
  -6  -1   2   22.85    6.31   1
  -6  -1   2   13.69    4.51   1
  -6  -1   3   32.04    7.13   1
  -6  -1   3   14.67    4.83   1
  -6  -1   3   26.94    7.06   1
  -6  -1   4    1.56    5.50   1
  -6  -1   4   -5.57    5.90   1
  -6  -1   4   -7.02    4.66   1
  -6  -1   5   24.80    6.87   1
  -6  -1   5   14.14    5.56   1
  -6  -1   5   19.89    7.40   1
  -6  -1   6   68.06    9.73   1
  -6  -1   6   77.26   10.55   1
  -6  -1   6   92.74    7.32   1
  -6  -1   7    6.10    6.32   1
  -6  -1   7    1.66    7.97   1
  -6  -1   7    1.02    3.78   1
  -6  -1   7   -3.06    6.12   1
  -6  -1   8   25.00    8.60   1
  -6  -1   8   32.15   10.09   1
  -6  -1   8    9.00    8.22   1
  -6   0 -13    7.84    8.18   1
  -6   0 -13    4.71    7.20   1
  -6   0 -13   -1.42    5.52   1
  -6   0 -13    0.96    5.29   1
  -6   0 -13    4.71    9.20   1
  -6   0 -12    2.69    3.97   1
  -6   0 -12   -5.34    6.33   1
  -6   0 -12    5.71    5.59   1
  -6   0 -12    0.85    6.15   1
  -6   0 -12    0.25    3.33   1
  -6   0 -12   -3.42    7.70   1
  -6   0 -11   34.22    8.54   1
  -6   0 -11   39.56    8.55   1
  -6   0 -11   21.16    8.19   1
  -6   0 -11   33.52    6.95   1
  -6   0 -11   42.38    8.20   1
  -6   0 -11   38.19    5.07   1
  -6   0 -10    0.01    4.55   1
  -6   0 -10   -2.72    3.07   1
  -6   0 -10   -4.28    5.05   1
  -6   0 -10   -0.30    5.48   1
  -6   0 -10    0.03    5.72   1
  -6   0 -10    1.08    2.25   1
  -6   0 -10    4.24    5.44   1
  -6   0  -9    9.30    5.61   1
  -6   0  -9    3.39    4.53   1
  -6   0  -9    0.88    3.52   1
  -6   0  -9   -0.38    5.57   1
  -6   0  -9    6.10    4.99   1
  -6   0  -9   -7.24    6.24   1
  -6   0  -8    1.21    4.64   1
  -6   0  -8   -2.92    4.55   1
  -6   0  -8   -2.69    3.05   1
  -6   0  -8   -2.79    4.31   1
  -6   0  -8   -6.50    4.90   1
  -6   0  -8    0.79    3.95   1
  -6   0  -7    3.20    3.33   1
  -6   0  -7    0.31    3.90   1
  -6   0  -7    5.57    3.96   1
  -6   0  -7    0.61    4.40   1
  -6   0  -7    2.13    5.14   1
  -6   0  -7   -0.90    4.16   1
  -6   0  -6   -1.28    3.57   1
  -6   0  -6   -3.31    3.35   1
  -6   0  -6   -5.43    4.52   1
  -6   0  -6   -3.10    4.08   1
  -6   0  -6   -3.76    4.89   1
  -6   0  -5   -9.61    5.46   1
  -6   0  -5   -3.96    3.46   1
  -6   0  -5   -3.61    4.41   1
  -6   0  -5   -5.20    4.33   1
  -6   0  -4   52.56    7.39   1
  -6   0  -4   69.06    8.31   1
  -6   0  -4   55.35    7.29   1
  -6   0  -3    0.40    3.81   1
  -6   0  -3    7.90    4.72   1
  -6   0  -3    2.99    4.19   1
  -6   0  -2    6.05    4.53   1
  -6   0  -2    7.62    4.31   1
  -6   0  -1   44.62    6.81   1
  -6   0  -1   42.64    6.66   1
  -6   0   0    0.24    2.68   1
  -6   0   0   -1.69    4.45   1
  -6   0   0   -1.77    4.52   1
  -6   0   1   52.27    6.80   1
  -6   0   1   76.21    8.03   1
  -6   0   1   72.93    6.49   1
  -6   0   2  160.53   12.42   1
  -6   0   2  124.10   11.36   1
  -6   0   2  152.03    9.86   1
  -6   0   2  171.87   11.27   1
  -6   0   3   26.52    6.80   1
  -6   0   3    9.67    3.98   1
  -6   0   3   15.92    5.19   1
  -6   0   3   15.05    4.73   1
  -6   0   4   27.46    5.03   1
  -6   0   4   22.18    5.46   1
  -6   0   4   19.80    6.14   1
  -6   0   4   33.99    7.70   1
  -6   0   5    4.37    4.93   1
  -6   0   5   15.05    7.37   1
  -6   0   5    5.02    5.82   1
  -6   0   6    9.73    7.49   1
  -6   0   6    7.90    6.18   1
  -6   0   6   -4.41    5.71   1
  -6   0   6    8.88    4.11   1
  -6   0   7   13.47    6.83   1
  -6   0   7    9.55    6.30   1
  -6   0   7    9.36    3.24   1
  -6   0   7   -2.59    8.05   1
  -6   0   8    6.71    6.94   1
  -6   0   8   -0.48    7.18   1
  -6   0   8   -4.71    7.38   1
  -6   1 -13    0.10    6.50   1
  -6   1 -13    6.71    9.43   1
  -6   1 -13    3.50    6.99   1
  -6   1 -12    4.54    8.09   1
  -6   1 -12    6.45    5.23   1
  -6   1 -12    2.34    5.88   1
  -6   1 -12   11.97    7.13   1
  -6   1 -12   -5.34    7.67   1
  -6   1 -11    6.00    7.20   1
  -6   1 -11    1.04    3.26   1
  -6   1 -11    6.71    6.01   1
  -6   1 -11    6.00    2.65   1
  -6   1 -11    3.92    7.17   1
  -6   1 -11   -1.93    4.64   1
  -6   1 -11    3.24    5.22   1
  -6   1 -10  -15.68    7.29   1
  -6   1 -10   -1.19    6.13   1
  -6   1 -10    3.53    3.08   1
  -6   1 -10   -1.12    4.71   1
  -6   1 -10    7.29    6.10   1
  -6   1 -10    1.21    5.50   1
  -6   1 -10    0.94    2.81   1
  -6   1  -9    7.90    5.40   1
  -6   1  -9   15.68    3.72   1
  -6   1  -9   10.18    6.38   1
  -6   1  -9   13.84    2.98   1
  -6   1  -9   13.03    5.78   1
  -6   1  -9    2.86    5.81   1
  -6   1  -9   10.50    4.99   1
  -6   1  -8   36.60    3.27   1
  -6   1  -8   21.90    5.99   1
  -6   1  -8   39.06    6.12   1
  -6   1  -8   32.38    6.37   1
  -6   1  -8   28.41    4.05   1
  -6   1  -8   26.63    5.68   1
  -6   1  -8   16.24    6.53   1
  -6   1  -7   10.63    4.89   1
  -6   1  -7   24.21    5.22   1
  -6   1  -7   35.52    7.39   1
  -6   1  -7   24.21    5.02   1
  -6   1  -7   17.72    3.79   1
  -6   1  -7   23.14    5.77   1
  -6   1  -6   18.23    4.95   1
  -6   1  -6   26.01    6.53   1
  -6   1  -6   27.35    5.96   1
  -6   1  -6   24.80    4.48   1
  -6   1  -6   23.14    4.23   1
  -6   1  -6   21.81    5.32   1
  -6   1  -5   82.26    8.34   1
  -6   1  -5   85.38    8.87   1
  -6   1  -5   78.32    9.20   1
  -6   1  -5   79.92    6.62   1
  -6   1  -4    4.41    4.62   1
  -6   1  -4    2.99    4.53   1
  -6   1  -3   52.42    7.53   1
  -6   1  -3   53.58    7.47   1
  -6   1  -3   57.30    7.27   1
  -6   1  -2   23.81    5.17   1
  -6   1  -2   32.38    6.26   1
  -6   1  -2   24.11    5.70   1
  -6   1  -1    2.99    3.29   1
  -6   1  -1   12.96    4.25   1
  -6   1  -1   11.16    4.94   1
  -6   1  -1    5.15    2.63   1
  -6   1   0    3.24    4.54   1
  -6   1   0    5.24    4.31   1
  -6   1   0    7.18    4.56   1
  -6   1   1    8.94    4.54   1
  -6   1   1   12.18    3.35   1
  -6   1   1   20.98    5.86   1
  -6   1   1   -1.49    4.83   1
  -6   1   2    4.00    5.04   1
  -6   1   2   16.89    6.08   1
  -6   1   2   13.69    4.74   1
  -6   1   2   13.10    3.40   1
  -6   1   3    7.51    4.16   1
  -6   1   3    5.62    3.32   1
  -6   1   3    8.12    5.81   1
  -6   1   3   15.37    6.12   1
  -6   1   4   -8.94    6.28   1
  -6   1   4   -3.35    3.73   1
  -6   1   4   -0.74    3.46   1
  -6   1   4   -4.37    6.19   1
  -6   1   5   28.30    5.00   1
  -6   1   5   19.36    5.19   1
  -6   1   5   27.98    6.88   1
  -6   1   6    0.86    3.42   1
  -6   1   6   -5.76    4.99   1
  -6   1   6    0.26    7.29   1
  -6   1   6    0.26    5.81   1
  -6   1   7    0.08    6.04   1
  -6   1   7    0.59    5.61   1
  -6   1   7   13.40    8.78   1
  -6   1   8    6.97    8.92   1
  -6   1   8   23.33    8.02   1
  -6   1   8    6.55    7.32   1
  -6   2 -12   18.40    7.21   1
  -6   2 -12   19.98    7.87   1
  -6   2 -12    9.86    8.29   1
  -6   2 -12   19.18    6.13   1
  -6   2 -11   26.52    8.96   1
  -6   2 -11   32.04    7.81   1
  -6   2 -11   34.46    5.64   1
  -6   2 -11   37.58    8.09   1
  -6   2 -11   22.47    6.64   1
  -6   2 -11   28.84    9.02   1
  -6   2 -10    9.67    6.90   1
  -6   2 -10    8.01    5.94   1
  -6   2 -10    7.08    3.62   1
  -6   2 -10    9.67    6.84   1
  -6   2 -10    8.53    5.66   1
  -6   2 -10    2.99    5.33   1
  -6   2  -9   59.91    7.89   1
  -6   2  -9   55.20    5.20   1
  -6   2  -9   61.47    9.41   1
  -6   2  -9   58.83    9.05   1
  -6   2  -9   44.09    6.91   1
  -6   2  -9   50.13    8.35   1
  -6   2  -9   55.65    4.33   1
  -6   2  -8    2.92    2.46   1
  -6   2  -8    4.88    5.57   1
  -6   2  -8    1.80    4.15   1
  -6   2  -8    4.04    2.65   1
  -6   2  -8    3.72    4.44   1
  -6   2  -8   10.11    6.11   1
  -6   2  -8   -9.86    5.02   1
  -6   2  -7   59.44    7.56   1
  -6   2  -7   70.56    9.07   1
  -6   2  -7   69.89    8.53   1
  -6   2  -7   69.56    5.50   1
  -6   2  -7   60.68    6.86   1
  -6   2  -7   68.23    4.79   1
  -6   2  -7   69.56    8.34   1
  -6   2  -6   98.01    7.13   1
  -6   2  -6  105.68    9.25   1
  -6   2  -6  110.04   10.70   1
  -6   2  -6   97.42    7.70   1
  -6   2  -6  109.41   10.46   1
  -6   2  -6  109.83    9.64   1
  -6   2  -6   93.90    5.43   1
  -6   2  -5   -3.76    4.69   1
  -6   2  -5   -5.57    2.88   1
  -6   2  -5    0.15    4.04   1
  -6   2  -5   -7.29    4.86   1
  -6   2  -4    1.28    2.24   1
  -6   2  -4    4.00    4.44   1
  -6   2  -4   11.22    5.23   1
  -6   2  -3   47.20    7.28   1
  -6   2  -3   52.85    6.54   1
  -6   2  -3   47.61    7.31   1
  -6   2  -2   15.44    5.11   1
  -6   2  -2    9.61    5.08   1
  -6   2  -1   72.59    8.35   1
  -6   2  -1   67.24    8.04   1
  -6   2  -1   66.26    4.72   1
  -6   2  -1   86.86    8.95   1
  -6   2   0   17.31    4.99   1
  -6   2   0   19.80    3.11   1
  -6   2   0   17.56    5.45   1
  -6   2   1   31.02    3.56   1
  -6   2   1   30.91    5.67   1
  -6   2   1   25.70    5.78   1
  -6   2   1   21.81    6.16   1
  -6   2   2   15.60    3.16   1
  -6   2   2   23.04    5.18   1
  -6   2   2   14.82    4.85   1
  -6   2   2    6.71    5.08   1
  -6   2   3   66.91    8.51   1
  -6   2   3   61.47    7.06   1
  -6   2   3   58.37    8.25   1
  -6   2   3   53.73    5.42   1
  -6   2   4   47.06    5.49   1
  -6   2   4   56.40    8.26   1
  -6   2   4   69.39    8.83   1
  -6   2   4   60.22    6.67   1
  -6   2   5    2.99    4.95   1
  -6   2   5    3.31    5.31   1
  -6   2   5    0.15    3.53   1
  -6   2   6   37.45    7.71   1
  -6   2   6   28.94    8.07   1
  -6   2   6   27.67    5.79   1
  -6   2   7   -0.18    5.16   1
  -6   2   7    2.79    7.48   1
  -6   2   7    3.92    6.10   1
  -6   2   8   11.76    7.20   1
  -6   2   8    6.66    6.71   1
  -6   3 -12    6.20    8.27   1
  -6   3 -12   -5.38    8.63   1
  -6   3 -12   11.42    6.15   1
  -6   3 -11   20.16    7.54   1
  -6   3 -11    7.18    6.86   1
  -6   3 -11   -0.38    5.18   1
  -6   3 -11    8.47    7.16   1
  -6   3 -11    4.49    5.30   1
  -6   3 -10  -11.49    7.80   1
  -6   3 -10    5.02    4.52   1
  -6   3 -10   -3.06    5.88   1
  -6   3 -10   -2.99    4.67   1
  -6   3 -10    0.38    6.56   1
  -6   3  -9    5.71    6.31   1
  -6   3  -9   -0.85    6.20   1
  -6   3  -9    2.79    4.78   1
  -6   3  -9   -0.86    4.63   1
  -6   3  -9    2.92    3.32   1
  -6   3  -8   72.59    7.67   1
  -6   3  -8   78.50    9.57   1
  -6   3  -8   80.46    6.46   1
  -6   3  -8   73.62    4.63   1
  -6   3  -8   68.06    7.92   1
  -6   3  -8   74.30   10.34   1
  -6   3  -8   54.46    8.56   1
  -6   3  -7    1.35    2.39   1
  -6   3  -7   -4.54    4.64   1
  -6   3  -7    2.96    6.09   1
  -6   3  -7   -4.75    5.58   1
  -6   3  -7    3.76    5.32   1
  -6   3  -7    6.10    2.77   1
  -6   3  -7    2.79    3.57   1
  -6   3  -6   15.52    3.23   1
  -6   3  -6    6.71    5.23   1
  -6   3  -6   17.89    6.43   1
  -6   3  -6    2.13    5.31   1
  -6   3  -6    2.46    3.42   1
  -6   3  -6   15.52    3.31   1
  -6   3  -6    8.01    4.30   1
  -6   3  -5   12.96    4.90   1
  -6   3  -5    5.11    5.15   1
  -6   3  -5   12.39    5.91   1
  -6   3  -5   10.89    3.10   1
  -6   3  -4   16.40    4.62   1
  -6   3  -4   11.49    2.71   1
  -6   3  -4   11.70    5.95   1
  -6   3  -4   16.65    5.79   1
  -6   3  -3    0.83    5.04   1
  -6   3  -3    5.81    4.92   1
  -6   3  -3    1.96    1.99   1
  -6   3  -3    2.34    4.25   1
  -6   3  -2    8.01    5.09   1
  -6   3  -2    1.37    4.87   1
  -6   3  -2    1.51    1.67   1
  -6   3  -2    1.56    1.70   1
  -6   3  -2    0.08    4.40   1
  -6   3  -1 1149.21   44.07   1
  -6   3  -1 1098.26   42.42   1
  -6   3  -1 1070.60   33.37   1
  -6   3  -1 1146.50   42.66   1
  -6   3  -1 1064.72   33.28   1
  -6   3   0  337.82   19.12   1
  -6   3   0  316.48   18.15   1
  -6   3   0  311.52   17.30   1
  -6   3   1    0.66    5.14   1
  -6   3   1   -0.40    1.47   1
  -6   3   1    3.10    4.86   1
  -6   3   1    5.62    4.41   1
  -6   3   2   19.01    6.80   1
  -6   3   2   26.11    5.72   1
  -6   3   2   26.94    3.01   1
  -6   3   2   15.84    5.97   1
  -6   3   3   15.76    6.99   1
  -6   3   3   -1.37    5.71   1
  -6   3   4   24.50    6.73   1
  -6   3   4   12.18    5.79   1
  -6   3   4   16.32    3.47   1
  -6   3   5   43.30    9.87   1
  -6   3   5   42.90    5.37   1
  -6   3   5   36.24    7.34   1
  -6   3   6  -14.36    8.94   1
  -6   3   6  -10.63    6.78   1
  -6   3   6    0.17    3.64   1
  -6   3   7   -0.79    5.06   1
  -6   3   7    2.62    6.38   1
  -6   3   8    6.05    6.74   1
  -6   4 -11    3.13    7.58   1
  -6   4 -11    4.00    6.04   1
  -6   4 -11    3.65    7.91   1
  -6   4 -10   10.76    6.82   1
  -6   4 -10    9.67    8.02   1
  -6   4 -10   17.56    8.46   1
  -6   4 -10    1.51    4.94   1
  -6   4 -10   15.92    5.99   1
  -6   4  -9   23.14    7.89   1
  -6   4  -9   23.81    5.76   1
  -6   4  -9   24.11    5.30   1
  -6   4  -9   16.73    5.89   1
  -6   4  -8   12.46    7.06   1
  -6   4  -8   -4.33    4.78   1
  -6   4  -8   -0.96    4.78   1
  -6   4  -7    3.96    4.54   1
  -6   4  -7   10.43    6.46   1
  -6   4  -7   10.11    2.42   1
  -6   4  -7    9.80    5.45   1
  -6   4  -7   11.36    3.98   1
  -6   4  -7   14.67    4.37   1
  -6   4  -6    3.13    4.32   1
  -6   4  -6    1.69    3.07   1
  -6   4  -6   -5.57    3.21   1
  -6   4  -6   18.40    7.12   1
  -6   4  -6    3.13    3.89   1
  -6   4  -5   83.54   10.79   1
  -6   4  -5   92.54    6.93   1
  -6   4  -5   81.18    5.95   1
  -6   4  -5  101.40    9.26   1
  -6   4  -4    6.66    2.27   1
  -6   4  -4    1.74    5.57   1
  -6   4  -4    4.93    4.26   1
  -6   4  -3   -0.41    5.06   1
  -6   4  -3    0.42    4.67   1
  -6   4  -2   -0.77    5.17   1
  -6   4  -2   -2.62    4.80   1
  -6   4  -1   10.43    5.56   1
  -6   4  -1    9.06    6.14   1
  -6   4   0   -2.19    5.12   1
  -6   4   0    2.04    5.41   1
  -6   4   1   -1.04    5.04   1
  -6   4   1   -7.56    6.27   1
  -6   4   2   -2.82    6.05   1
  -6   4   2    8.35    6.01   1
  -6   4   3    8.76    6.10   1
  -6   4   3    6.81    7.31   1
  -6   4   4   -1.88    5.34   1
  -6   4   4   -4.45    5.78   1
  -6   4   4   -0.36    2.00   1
  -6   4   5   41.73   10.21   1
  -6   4   5   80.82    9.71   1
  -6   4   5   61.15    5.16   1
  -6   4   6   13.40    6.81   1
  -6   4   6   -3.53   10.04   1
  -6   4   6    2.04    3.12   1
  -6   4   7   -1.30    6.98   1
  -6   5 -10    5.34    6.61   1
  -6   5 -10    2.72    6.01   1
  -6   5  -9    0.96    5.02   1
  -6   5  -9    1.21    5.32   1
  -6   5  -9   -1.06    7.70   1
  -6   5  -9    2.43    4.52   1
  -6   5  -8   -1.80    6.35   1
  -6   5  -8    6.81    4.75   1
  -6   5  -8   -1.23    4.11   1
  -6   5  -8    2.16    4.85   1
  -6   5  -7    3.31    4.30   1
  -6   5  -7    8.07    6.76   1
  -6   5  -7    0.09    3.31   1
  -6   5  -7   -1.88    4.77   1
  -6   5  -6   19.54    4.69   1
  -6   5  -6    9.00    6.24   1
  -6   5  -6   18.75    3.55   1
  -6   5  -6   14.82    3.39   1
  -6   5  -5    5.02    2.51   1
  -6   5  -5   11.36    4.99   1
  -6   5  -5    0.00    1.00   1
  -6   5  -5   11.02    4.25   1
  -6   5  -4   24.11    6.09   1
  -6   5  -3   25.10    7.82   1
  -6   5  -3    8.47    5.47   1
  -6   5  -2    3.80    6.40   1
  -6   5  -2    5.76    5.71   1
  -6   5  -1   30.69    7.87   1
  -6   5  -1   25.40    6.96   1
  -6   5   0    3.39    5.96   1
  -6   5   0    4.16    6.32   1
  -6   5   1    6.15    4.81   1
  -6   5   1    7.24    6.24   1
  -6   5   2   -1.51    5.68   1
  -6   5   2   -1.64    6.73   1
  -6   5   3   23.72    7.30   1
  -6   5   3   20.07    8.69   1
  -6   5   4    6.45    8.03   1
  -6   5   4   12.25    6.86   1
  -6   5   5   53.00    9.03   1
  -6   5   5   12.46   10.17   1
  -6   5   6   10.30    7.38   1
  -6   5   6    0.00    1.00   1
  -6   6  -9   -5.86    6.44   1
  -6   6  -9   -1.21    6.60   1
  -6   6  -8   22.94    6.51   1
  -6   6  -8   13.03    5.63   1
  -6   6  -7   10.76    4.26   1
  -6   6  -7    7.95    5.64   1
  -6   6  -7   11.22    7.17   1
  -6   6  -7    8.29    5.07   1
  -6   6  -6    0.31    4.72   1
  -6   6  -6   -2.25    6.87   1
  -6   6  -6    0.76    4.77   1
  -6   6  -6    2.53    2.89   1
  -6   6  -5   -2.10    6.35   1
  -6   6  -5    2.16    5.35   1
  -6   6  -5    2.34    4.68   1
  -6   6  -5    6.45    3.25   1
  -6   6  -4   19.01    6.37   1
  -6   6  -4   11.16    4.14   1
  -6   6  -3   14.98    6.04   1
  -6   6  -3    2.10    4.12   1
  -6   6  -2    2.02    4.52   1
  -6   6  -2   -3.06    5.70   1
  -6   6  -1   -0.19    6.17   1
  -6   6  -1    3.53    6.88   1
  -6   6  -1   12.25    5.60   1
  -6   6   0    1.56    5.22   1
  -6   6   0   10.30    6.93   1
  -6   6   0    1.54    6.57   1
  -6   6   1   -4.20    7.17   1
  -6   6   1   -0.23    5.74   1
  -6   6   1   -6.86    7.28   1
  -6   6   2   45.16    9.00   1
  -6   6   2   26.42    8.43   1
  -6   6   3   23.33    8.21   1
  -6   6   3    5.29    7.36   1
  -6   6   3   25.81    8.23   1
  -6   6   4    9.80    7.39   1
  -6   6   4  -16.73   10.14   1
  -6   6   4   -4.62    6.97   1
  -6   6   5   -0.55    9.00   1
  -6   6   5   18.58    8.28   1
  -6   7  -7   -9.06    8.25   1
  -6   7  -7   -4.20    6.68   1
  -6   7  -6    6.86    6.08   1
  -6   7  -6   11.56    7.89   1
  -6   7  -6    9.00    6.54   1
  -6   7  -5   10.76    6.36   1
  -6   7  -5    5.11    7.28   1
  -6   7  -5   -2.69    3.35   1
  -6   7  -5   -0.85    5.23   1
  -6   7  -4    4.71    5.82   1
  -6   7  -4    0.16    4.26   1
  -6   7  -3    6.30    6.07   1
  -6   7  -3    1.44    4.39   1
  -6   7  -2   -2.31    4.80   1
  -6   7  -2   -4.33    6.45   1
  -6   7  -1   -3.31    5.64   1
  -6   7  -1   -0.69    6.24   1
  -6   7   0    2.79    5.78   1
  -6   7   0    4.28    7.78   1
  -6   7   0    3.28    7.49   1
  -6   7   1   92.54   12.51   1
  -6   7   1   65.45   11.16   1
  -6   7   1   50.27    9.50   1
  -6   7   2    1.80    7.05   1
  -6   7   2    0.02    7.67   1
  -6   7   2    7.56    8.47   1
  -6   7   3    1.42    7.54   1
  -6   7   3    1.19   10.18   1
  -6   7   3    0.94    8.11   1
  -6   7   4   10.30    8.28   1
  -6   7   4    2.56    9.02   1
  -6   8  -5   -0.10    8.06   1
  -6   8  -5    2.28    7.43   1
  -6   8  -4   11.22    8.58   1
  -6   8  -4   -7.02    6.41   1
  -6   8  -3   18.58    7.33   1
  -6   8  -3   21.90    6.46   1
  -6   8  -2    3.06    5.64   1
  -6   8  -2    2.53    6.93   1
  -6   8  -1   -5.38    8.26   1
  -6   8   0   -1.35    7.73   1
  -6   8   0   -1.35    6.91   1
  -6   8   1   22.37   10.03   1
  -6   8   1    9.86    7.60   1
  -6   8   2   12.46    9.95   1
  -6   8   2   -1.42    7.95   1
  -5 -10  -6   -4.28    7.41   1
  -5 -10  -5   14.67    7.43   1
  -5 -10  -4   -3.61    7.33   1
  -5 -10  -3   25.30    8.85   1
  -5 -10  -2  122.32   13.27   1
  -5 -10  -1   -6.76    8.32   1
  -5 -10  -1   -5.24   11.36   1
  -5  -9  -8    3.42    6.59   1
  -5  -9  -7   11.49    9.49   1
  -5  -9  -7   11.22    6.50   1
  -5  -9  -6   60.68    8.57   1
  -5  -9  -6   80.10   10.74   1
  -5  -9  -5    3.57    5.63   1
  -5  -9  -5   -4.97    8.56   1
  -5  -9  -4   -0.07    5.45   1
  -5  -9  -4    4.62    5.68   1
  -5  -9  -3   10.18    7.46   1
  -5  -9  -3   12.82    8.52   1
  -5  -9  -2   13.76    7.27   1
  -5  -9  -2    9.86    7.98   1
  -5  -9  -2    5.34    7.95   1
  -5  -9  -1   -7.34    7.70   1
  -5  -9  -1   -3.46    6.44   1
  -5  -9  -1    3.72    8.45   1
  -5  -9   0   -1.54    6.80   1
  -5  -9   0    3.57    6.39   1
  -5  -9   0    2.76   10.26   1
  -5  -9   1   -3.96    7.56   1
  -5  -9   1   16.81    6.97   1
  -5  -9   2   11.63    8.66   1
  -5  -9   2   -2.72    6.86   1
  -5  -8 -10    0.05    5.68   1
  -5  -8 -10    8.24    8.90   1
  -5  -8  -9    3.72    5.60   1
  -5  -8  -9    9.86    7.10   1
  -5  -8  -8   13.91    6.56   1
  -5  -8  -8   -0.41    5.08   1
  -5  -8  -7    5.81    4.87   1
  -5  -8  -7    9.49    7.88   1
  -5  -8  -6    1.19    7.41   1
  -5  -8  -6    5.71    4.78   1
  -5  -8  -5   38.44    8.56   1
  -5  -8  -5   43.69    6.61   1
  -5  -8  -5   39.19    8.89   1
  -5  -8  -4    6.92    6.84   1
  -5  -8  -4    1.28    4.00   1
  -5  -8  -4    7.18    6.11   1
  -5  -8  -3    1.80    5.76   1
  -5  -8  -3    5.02    6.90   1
  -5  -8  -3    1.77    6.30   1
  -5  -8  -3    0.27    4.52   1
  -5  -8  -2    1.96    6.05   1
  -5  -8  -2   12.32    6.39   1
  -5  -8  -2   -9.73    7.74   1
  -5  -8  -2    7.40    7.29   1
  -5  -8  -1   20.52    7.43   1
  -5  -8  -1   22.85    8.99   1
  -5  -8  -1   29.59    7.07   1
  -5  -8  -1   21.90    8.42   1
  -5  -8   0   17.81    7.34   1
  -5  -8   0   10.82    6.45   1
  -5  -8   0   14.90    6.56   1
  -5  -8   0   15.92    7.58   1
  -5  -8   1   -7.18    7.83   1
  -5  -8   1    1.99    6.99   1
  -5  -8   1  -11.56    5.92   1
  -5  -8   2   87.61    9.17   1
  -5  -8   2   78.85   10.83   1
  -5  -8   2   64.64   11.42   1
  -5  -8   3   33.06    9.09   1
  -5  -8   3   34.57    7.64   1
  -5  -8   4    0.59    7.41   1
  -5  -7 -11   11.16    6.08   1
  -5  -7 -11    2.86    8.31   1
  -5  -7 -10    9.73    8.11   1
  -5  -7 -10    5.66    5.14   1
  -5  -7  -9   67.24    7.71   1
  -5  -7  -9   49.56    9.43   1
  -5  -7  -8   17.72    5.05   1
  -5  -7  -8   18.75    7.62   1
  -5  -7  -8   24.01    6.47   1
  -5  -7  -7   -2.62    5.02   1
  -5  -7  -7  -10.18    4.21   1
  -5  -7  -7   -3.03    6.33   1
  -5  -7  -6   -7.45    5.35   1
  -5  -7  -6   -2.02    3.75   1
  -5  -7  -6   -2.96    6.05   1
  -5  -7  -5  189.06   14.30   1
  -5  -7  -5  196.56   11.50   1
  -5  -7  -5  204.78   15.17   1
  -5  -7  -4  108.37   11.03   1
  -5  -7  -4  104.86    8.40   1
  -5  -7  -4  114.49   11.77   1
  -5  -7  -3    6.35    5.75   1
  -5  -7  -3    2.10    4.15   1
  -5  -7  -3    1.28    5.70   1
  -5  -7  -2    2.72    6.43   1
  -5  -7  -2    3.72    5.21   1
  -5  -7  -1   13.69    5.85   1
  -5  -7  -1   12.04    6.25   1
  -5  -7  -1   -4.84    6.20   1
  -5  -7   0   18.58    7.15   1
  -5  -7   0   -0.28    4.93   1
  -5  -7   0    2.40    6.08   1
  -5  -7   0    2.76    7.20   1
  -5  -7   1  190.44   14.35   1
  -5  -7   1  178.22   12.28   1
  -5  -7   1  153.02   13.36   1
  -5  -7   1  153.26   14.61   1
  -5  -7   2    7.67    7.59   1
  -5  -7   2    4.71    4.95   1
  -5  -7   2   -2.50    6.95   1
  -5  -7   2    3.20    6.05   1
  -5  -7   3   -0.66    6.16   1
  -5  -7   3    5.52    8.18   1
  -5  -7   3   -2.16    5.38   1
  -5  -7   3    0.66    5.01   1
  -5  -7   3    3.13    2.27   1
  -5  -7   4    3.80    2.89   1
  -5  -7   4    1.59    7.11   1
  -5  -7   4   -2.34    8.38   1
  -5  -7   4    7.95    5.47   1
  -5  -7   5   22.85    6.60   1
  -5  -7   5    4.16    6.73   1
  -5  -6 -12   14.75    9.83   1
  -5  -6 -12  -14.06    9.82   1
  -5  -6 -12   -1.21    5.83   1
  -5  -6 -11   -1.61    4.83   1
  -5  -6 -11   12.60    8.24   1
  -5  -6 -11    5.57    7.55   1
  -5  -6 -10   -4.54    4.22   1
  -5  -6 -10    7.56    4.35   1
  -5  -6 -10   -9.86    7.98   1
  -5  -6 -10   -3.76    7.33   1
  -5  -6  -9   16.24    5.56   1
  -5  -6  -9   20.07    4.75   1
  -5  -6  -9   19.27    5.27   1
  -5  -6  -8   -2.86    6.22   1
  -5  -6  -8   -4.97    4.95   1
  -5  -6  -8   -5.11    3.89   1
  -5  -6  -7   -1.10    3.05   1
  -5  -6  -7   -5.76    5.95   1
  -5  -6  -6   23.14    6.06   1
  -5  -6  -6   17.98    5.17   1
  -5  -6  -6   13.40    3.51   1
  -5  -6  -5   -1.30    5.15   1
  -5  -6  -5    0.48    2.62   1
  -5  -6  -5   -3.46    4.91   1
  -5  -6  -4   43.03    7.35   1
  -5  -6  -4   32.15    6.92   1
  -5  -6  -4   32.60    4.57   1
  -5  -6  -3  103.84    9.99   1
  -5  -6  -3   84.27    9.91   1
  -5  -6  -3  104.65   10.03   1
  -5  -6  -2    3.24    4.18   1
  -5  -6  -2   -5.20    5.20   1
  -5  -6  -2   -2.34    4.74   1
  -5  -6  -1  172.40   12.60   1
  -5  -6  -1  201.36   15.04   1
  -5  -6  -1  164.61   12.83   1
  -5  -6  -1  207.94   13.27   1
  -5  -6   0    8.76    5.09   1
  -5  -6   0    1.44    5.88   1
  -5  -6   0   -0.10    5.32   1
  -5  -6   0    3.06    5.39   1
  -5  -6   1   17.39    5.42   1
  -5  -6   1   16.08    6.66   1
  -5  -6   1   29.59    6.42   1
  -5  -6   2    9.24    5.96   1
  -5  -6   2   14.59    5.27   1
  -5  -6   2    3.35    5.16   1
  -5  -6   2    3.35    6.77   1
  -5  -6   3    8.64    7.00   1
  -5  -6   3    1.64    4.68   1
  -5  -6   3    4.28    5.26   1
  -5  -6   3    6.20    6.87   1
  -5  -6   4    6.71    5.85   1
  -5  -6   4    5.38    7.52   1
  -5  -6   4   20.34    5.77   1
  -5  -6   4   19.89    6.60   1
  -5  -6   5   -4.84    6.91   1
  -5  -6   5    3.35    5.60   1
  -5  -6   5    5.71    8.32   1
  -5  -6   5    8.07    8.12   1
  -5  -6   6   19.54    8.04   1
  -5  -6   6    7.08    6.22   1
  -5  -6   7   25.81    7.01   1
  -5  -6   7   31.70    9.12   1
  -5  -5 -13   23.91    8.90   1
  -5  -5 -13   30.47   11.04   1
  -5  -5 -12    2.31    8.27   1
  -5  -5 -12    3.06    5.08   1
  -5  -5 -12   -4.16    7.14   1
  -5  -5 -11    2.02    4.06   1
  -5  -5 -11   -2.16    5.20   1
  -5  -5 -11    5.24    6.78   1
  -5  -5 -11    2.31    3.92   1
  -5  -5 -10   32.60    5.48   1
  -5  -5 -10   28.30    4.89   1
  -5  -5 -10   23.04    6.82   1
  -5  -5 -10   41.34    8.74   1
  -5  -5  -9   -4.49    3.82   1
  -5  -5  -9    1.59    3.30   1
  -5  -5  -9    3.61    5.28   1
  -5  -5  -8   99.00   10.15   1
  -5  -5  -8  130.42    9.82   1
  -5  -5  -8  112.36    7.42   1
  -5  -5  -7  122.99   10.87   1
  -5  -5  -7  138.77    8.01   1
  -5  -5  -7  127.92   10.18   1
  -5  -5  -6    0.94    4.00   1
  -5  -5  -6   -4.93    5.19   1
  -5  -5  -6    3.46    2.23   1
  -5  -5  -5   -0.37    2.29   1
  -5  -5  -5   -5.90    4.71   1
  -5  -5  -5   -0.35    4.45   1
  -5  -5  -5   -2.28    2.14   1
  -5  -5  -4    0.92    2.21   1
  -5  -5  -4    0.56    2.20   1
  -5  -5  -4   -3.69    4.76   1
  -5  -5  -4    7.67    4.82   1
  -5  -5  -3   -5.11    4.47   1
  -5  -5  -3    1.12    1.78   1
  -5  -5  -3    1.39    3.19   1
  -5  -5  -3    5.57    4.91   1
  -5  -5  -2   16.48    5.12   1
  -5  -5  -2   23.91    4.89   1
  -5  -5  -2    9.80    5.70   1
  -5  -5  -2   19.62    2.75   1
  -5  -5  -1   56.55    7.22   1
  -5  -5  -1   51.98    7.50   1
  -5  -5  -1   62.09    7.09   1
  -5  -5   0  197.40   12.36   1
  -5  -5   0  176.36   13.81   1
  -5  -5   0  176.09   12.74   1
  -5  -5   0  151.29   11.81   1
  -5  -5   1   59.60    7.10   1
  -5  -5   1   39.19    6.89   1
  -5  -5   1   54.46    7.68   1
  -5  -5   1   49.00    8.40   1
  -5  -5   2   -1.39    4.86   1
  -5  -5   2    8.70    4.66   1
  -5  -5   2   -0.38    5.17   1
  -5  -5   3  116.42    9.71   1
  -5  -5   3  127.46   11.74   1
  -5  -5   3  115.35   10.74   1
  -5  -5   3  120.12   11.40   1
  -5  -5   4   30.36    8.38   1
  -5  -5   4   32.15    8.05   1
  -5  -5   4   48.44    7.93   1
  -5  -5   4   42.12    6.62   1
  -5  -5   5   32.49    8.09   1
  -5  -5   5   24.60    8.33   1
  -5  -5   6    6.35    7.41   1
  -5  -5   6   -1.56    7.70   1
  -5  -5   6   -1.59    5.37   1
  -5  -5   7    5.86    6.58   1
  -5  -5   7   -0.62    6.05   1
  -5  -4 -13   10.37    9.34   1
  -5  -4 -13    4.37    7.15   1
  -5  -4 -13    6.71    8.18   1
  -5  -4 -13   -5.52    5.88   1
  -5  -4 -12   41.34    9.90   1
  -5  -4 -12   38.07    8.14   1
  -5  -4 -12   39.06    6.38   1
  -5  -4 -12   48.58    4.74   1
  -5  -4 -11    7.56    7.26   1
  -5  -4 -11   15.37    4.47   1
  -5  -4 -11   12.96    6.05   1
  -5  -4 -11   22.47    4.46   1
  -5  -4 -10    5.57    3.54   1
  -5  -4 -10   -0.17    4.78   1
  -5  -4 -10   10.56    6.57   1
  -5  -4 -10   -1.56    3.57   1
  -5  -4  -9   20.98    3.76   1
  -5  -4  -9   19.62    5.85   1
  -5  -4  -9   11.83    6.33   1
  -5  -4  -9   15.92    4.47   1
  -5  -4  -8    8.76    2.78   1
  -5  -4  -8   11.97    4.15   1
  -5  -4  -8    3.10    4.82   1
  -5  -4  -7    8.53    5.08   1
  -5  -4  -7    6.92    2.31   1
  -5  -4  -7   10.11    4.13   1
  -5  -4  -6   79.57    5.00   1
  -5  -4  -6   88.17    6.57   1
  -5  -4  -6   89.87    8.72   1
  -5  -4  -6  105.47    8.63   1
  -5  -4  -5    8.88    4.53   1
  -5  -4  -5    9.80    3.88   1
  -5  -4  -5    9.24    2.98   1
  -5  -4  -5    9.49    1.97   1
  -5  -4  -4  121.00    9.90   1
  -5  -4  -4  117.29    6.93   1
  -5  -4  -4  115.13    9.87   1
  -5  -4  -4  125.22    9.62   1
  -5  -4  -3   -1.80    2.95   1
  -5  -4  -3    3.72    4.71   1
  -5  -4  -3    6.35    4.28   1
  -5  -4  -2   95.06    8.58   1
  -5  -4  -2   78.68    8.87   1
  -5  -4  -2   63.36    7.00   1
  -5  -4  -1   88.36    8.46   1
  -5  -4  -1   81.18    8.29   1
  -5  -4  -1  112.78   10.20   1
  -5  -4   0   -3.72    3.36   1
  -5  -4   0    2.28    4.59   1
  -5  -4   0    1.08    3.89   1
  -5  -4   0    5.29    4.60   1
  -5  -4   1   54.32    7.22   1
  -5  -4   1   50.13    6.66   1
  -5  -4   1   49.70    7.33   1
  -5  -4   1   51.70    7.91   1
  -5  -4   2   10.05    4.63   1
  -5  -4   2   -1.30    5.31   1
  -5  -4   2    5.11    4.75   1
  -5  -4   3  -11.22    6.10   1
  -5  -4   3   12.89    4.95   1
  -5  -4   3    1.56    5.00   1
  -5  -4   4   67.73    7.74   1
  -5  -4   4   53.44    8.33   1
  -5  -4   4   76.56    9.62   1
  -5  -4   5   21.07    6.15   1
  -5  -4   5   11.83    5.85   1
  -5  -4   5   12.96    6.55   1
  -5  -4   6   13.40    5.93   1
  -5  -4   6   12.82    7.80   1
  -5  -4   7  -10.43    7.69   1
  -5  -4   7   -2.99    5.95   1
  -5  -4   7   -1.64    7.68   1
  -5  -4   8    6.00    8.43   1
  -5  -4   8    2.66    7.43   1
  -5  -3 -14    5.57   10.76   1
  -5  -3 -13   94.09   10.28   1
  -5  -3 -13   81.54   10.66   1
  -5  -3 -13  115.35   13.75   1
  -5  -3 -12   -7.56    6.27   1
  -5  -3 -12    0.35    5.25   1
  -5  -3 -12    2.16    7.14   1
  -5  -3 -12   -4.88    3.14   1
  -5  -3 -11    5.81    4.72   1
  -5  -3 -11    3.84    5.41   1
  -5  -3 -11    4.04    6.03   1
  -5  -3 -10  123.43    8.00   1
  -5  -3 -10  124.99    8.72   1
  -5  -3 -10  124.55   10.04   1
  -5  -3 -10  128.82   12.03   1
  -5  -3  -9    4.49    3.39   1
  -5  -3  -9   -3.96    3.98   1
  -5  -3  -9    8.58    2.81   1
  -5  -3  -9    5.20    4.38   1
  -5  -3  -8   29.27    5.09   1
  -5  -3  -8   39.94    6.19   1
  -5  -3  -8   31.70    5.40   1
  -5  -3  -8   32.38    3.41   1
  -5  -3  -7  223.50   12.86   1
  -5  -3  -7  214.62   11.72   1
  -5  -3  -7  214.92    8.80   1
  -5  -3  -7  207.65   12.68   1
  -5  -3  -6  122.54    8.41   1
  -5  -3  -6  121.00    5.50   1
  -5  -3  -6  126.11    9.66   1
  -5  -3  -6  113.00    8.93   1
  -5  -3  -5   -2.02    2.64   1
  -5  -3  -5    4.49    3.48   1
  -5  -3  -5    3.96    3.94   1
  -5  -3  -5   -3.76    3.69   1
  -5  -3  -4   28.62    5.67   1
  -5  -3  -4   34.22    5.50   1
  -5  -3  -4   40.32    6.22   1
  -5  -3  -4   34.11    4.09   1
  -5  -3  -3  149.82   10.77   1
  -5  -3  -3  159.26   10.60   1
  -5  -3  -3  153.02   10.64   1
  -5  -3  -2   31.58    5.73   1
  -5  -3  -2   30.36    5.18   1
  -5  -3  -2   17.14    5.30   1
  -5  -3  -1    3.80    4.33   1
  -5  -3  -1    2.04    3.75   1
  -5  -3  -1   -5.11    4.11   1
  -5  -3   0  153.02   11.63   1
  -5  -3   0  155.00   10.96   1
  -5  -3   0  167.44   10.87   1
  -5  -3   1    0.14    3.43   1
  -5  -3   1    3.80    3.63   1
  -5  -3   1    2.89    5.10   1
  -5  -3   2    3.53    4.40   1
  -5  -3   2    2.16    4.12   1
  -5  -3   2    1.96    4.31   1
  -5  -3   3   15.13    4.75   1
  -5  -3   3   13.32    4.09   1
  -5  -3   3    7.02    5.30   1
  -5  -3   4  140.90   10.68   1
  -5  -3   4  161.80   12.47   1
  -5  -3   4  120.34   10.31   1
  -5  -3   5    2.19    4.97   1
  -5  -3   5   20.61    6.63   1
  -5  -3   5    7.08    5.00   1
  -5  -3   6   56.55    8.57   1
  -5  -3   6   50.13    8.78   1
  -5  -3   7   20.07    6.27   1
  -5  -3   7   17.56    6.79   1
  -5  -3   7   27.88    7.08   1
  -5  -3   8   -9.99    8.91   1
  -5  -3   8   -0.19    6.61   1
  -5  -3   8    5.66    6.81   1
  -5  -3   9    4.58    8.22   1
  -5  -3   9    7.29    7.99   1
  -5  -2 -14   -2.31    7.39   1
  -5  -2 -14    9.49    7.70   1
  -5  -2 -13    6.45    6.35   1
  -5  -2 -13   -5.57    6.47   1
  -5  -2 -12   20.16    4.22   1
  -5  -2 -12   14.21    5.43   1
  -5  -2 -12   25.70    6.90   1
  -5  -2 -11   -3.28    6.15   1
  -5  -2 -11    3.57    3.59   1
  -5  -2 -11    1.51    4.08   1
  -5  -2 -11   -0.28    5.32   1
  -5  -2 -10   22.56    4.56   1
  -5  -2 -10   25.30    6.44   1
  -5  -2 -10   24.30    6.80   1
  -5  -2 -10   25.20    5.12   1
  -5  -2  -9   -4.88    3.58   1
  -5  -2  -9   -5.15    3.59   1
  -5  -2  -9    3.50    3.78   1
  -5  -2  -9    2.16    3.35   1
  -5  -2  -8  204.20   12.00   1
  -5  -2  -8  191.55   11.63   1
  -5  -2  -8  193.49   11.96   1
  -5  -2  -8  218.15   13.29   1
  -5  -2  -8  189.61    8.54   1
  -5  -2  -7   29.16    4.97   1
  -5  -2  -7   33.29    4.96   1
  -5  -2  -7   32.49    2.51   1
  -5  -2  -7   39.82    5.55   1
  -5  -2  -6   -1.85    2.80   1
  -5  -2  -6   -1.28    3.30   1
  -5  -2  -6   -0.67    3.13   1
  -5  -2  -6   -2.99    4.08   1
  -5  -2  -5  105.47    7.60   1
  -5  -2  -5   93.90    8.72   1
  -5  -2  -5  108.78    8.14   1
  -5  -2  -5  103.43    8.75   1
  -5  -2  -4   10.37    4.44   1
  -5  -2  -4    7.95    3.55   1
  -5  -2  -4    3.28    3.62   1
  -5  -2  -4    5.76    3.17   1
  -5  -2  -3   -0.59    3.03   1
  -5  -2  -3    2.69    3.84   1
  -5  -2  -3    2.79    3.37   1
  -5  -2  -2    3.76    4.31   1
  -5  -2  -1   52.42    6.95   1
  -5  -2  -1   33.18    5.53   1
  -5  -2   0   96.63    9.24   1
  -5  -2   0   99.80    8.39   1
  -5  -2   0  100.40    8.02   1
  -5  -2   1  166.15   10.57   1
  -5  -2   1  192.93   11.67   1
  -5  -2   1  163.33   12.01   1
  -5  -2   2   30.25    5.28   1
  -5  -2   2   19.54    5.04   1
  -5  -2   2   17.47    5.18   1
  -5  -2   3  133.63   10.64   1
  -5  -2   3  131.33   10.08   1
  -5  -2   3  135.02   10.23   1
  -5  -2   4   -0.11    3.80   1
  -5  -2   4    1.10    4.47   1
  -5  -2   4    2.28    4.29   1
  -5  -2   5   51.12    7.29   1
  -5  -2   5   39.06    6.75   1
  -5  -2   5   42.90    6.55   1
  -5  -2   6   32.38    7.17   1
  -5  -2   6   20.70    6.64   1
  -5  -2   6   46.79    7.93   1
  -5  -2   7    2.31    6.02   1
  -5  -2   7    5.34    6.56   1
  -5  -2   7   -8.76    5.98   1
  -5  -2   8   98.01   10.69   1
  -5  -2   8   75.86    9.58   1
  -5  -2   9   -0.92    6.78   1
  -5  -2   9    0.77    7.73   1
  -5  -2   9    3.92    9.94   1
  -5  -1 -14   -8.82    7.60   1
  -5  -1 -14    4.88   10.03   1
  -5  -1 -13    0.44    5.87   1
  -5  -1 -13   -3.88    3.43   1
  -5  -1 -13   -2.69    6.79   1
  -5  -1 -12   -3.96    4.18   1
  -5  -1 -12  -18.23    7.52   1
  -5  -1 -12   -2.07    5.56   1
  -5  -1 -12   -2.04    4.18   1
  -5  -1 -11    5.43    6.15   1
  -5  -1 -11    1.10    3.59   1
  -5  -1 -11    2.59    5.25   1
  -5  -1 -11    0.13    3.39   1
  -5  -1 -10    7.34    3.79   1
  -5  -1 -10    6.15    3.72   1
  -5  -1 -10   10.24    5.12   1
  -5  -1 -10    1.93    4.50   1
  -5  -1  -9  118.16    8.26   1
  -5  -1  -9  113.42    9.80   1
  -5  -1  -9  120.78    9.01   1
  -5  -1  -9  120.12   10.30   1
  -5  -1  -9  140.90   10.92   1
  -5  -1  -8    2.62    3.34   1
  -5  -1  -8    4.93    2.93   1
  -5  -1  -8    0.10    2.82   1
  -5  -1  -8    9.92    4.54   1
  -5  -1  -8    1.88    4.14   1
  -5  -1  -7   11.09    1.60   1
  -5  -1  -7    9.99    3.41   1
  -5  -1  -7   11.70    3.83   1
  -5  -1  -7    4.93    3.86   1
  -5  -1  -7    9.24    4.07   1
  -5  -1  -7   11.22    4.56   1
  -5  -1  -6   76.56    7.00   1
  -5  -1  -6   82.26    6.71   1
  -5  -1  -6   87.80    8.06   1
  -5  -1  -6   91.97    7.86   1
  -5  -1  -5   81.00    7.56   1
  -5  -1  -5   69.22    7.16   1
  -5  -1  -5   83.54    6.95   1
  -5  -1  -5   76.91    6.49   1
  -5  -1  -4    9.00    3.96   1
  -5  -1  -4   13.62    3.91   1
  -5  -1  -4    9.24    3.28   1
  -5  -1  -3    7.18    3.91   1
  -5  -1  -3   11.02    3.85   1
  -5  -1  -2  106.30    8.66   1
  -5  -1  -2  116.21    9.27   1
  -5  -1  -1   66.42    7.33   1
  -5  -1  -1   78.50    7.62   1
  -5  -1   0    5.15    4.22   1
  -5  -1   0    4.12    3.25   1
  -5  -1   0    6.30    3.87   1
  -5  -1   1   76.39    6.64   1
  -5  -1   1   82.08    7.97   1
  -5  -1   1   68.72    7.79   1
  -5  -1   2   62.41    7.43   1
  -5  -1   2   58.06    6.25   1
  -5  -1   2   66.42    7.17   1
  -5  -1   3   52.85    6.25   1
  -5  -1   3   46.92    6.85   1
  -5  -1   3   57.61    7.29   1
  -5  -1   4   20.98    5.77   1
  -5  -1   4   35.64    6.33   1
  -5  -1   4   34.46    5.52   1
  -5  -1   5   -3.72    5.21   1
  -5  -1   5   -2.66    4.43   1
  -5  -1   5    5.95    4.93   1
  -5  -1   6    5.11    5.02   1
  -5  -1   6   -1.49    5.64   1
  -5  -1   6   -2.04    5.03   1
  -5  -1   7   34.22    3.98   1
  -5  -1   7   40.32    7.37   1
  -5  -1   7   21.53    6.96   1
  -5  -1   7   45.02    8.05   1
  -5  -1   8   -3.92    5.74   1
  -5  -1   8    0.40    6.06   1
  -5  -1   8    8.24    6.77   1
  -5  -1   9    7.67    7.65   1
  -5  -1   9   -5.02    8.29   1
  -5  -1   9   -0.56    5.79   1
  -5   0 -14   -8.53    9.17   1
  -5   0 -14    7.45    7.48   1
  -5   0 -13   50.13    8.92   1
  -5   0 -13   52.13   10.69   1
  -5   0 -13   51.27    9.02   1
  -5   0 -13   59.44    6.94   1
  -5   0 -12   26.32    7.18   1
  -5   0 -12   17.39    7.76   1
  -5   0 -11   10.05    6.09   1
  -5   0 -11   11.97    3.67   1
  -5   0 -11   22.85    7.17   1
  -5   0 -11    9.12    5.74   1
  -5   0 -11    7.73    4.39   1
  -5   0 -10  247.43   11.64   1
  -5   0 -10  231.95   14.93   1
  -5   0 -10  224.40   14.98   1
  -5   0 -10  235.62   15.35   1
  -5   0 -10  233.17   12.22   1
  -5   0 -10  241.49   15.54   1
  -5   0 -10  225.60   13.52   1
  -5   0  -9   28.30    6.17   1
  -5   0  -9   19.71    5.15   1
  -5   0  -9   15.21    4.37   1
  -5   0  -9   26.73    5.17   1
  -5   0  -9   23.04    3.55   1
  -5   0  -9   33.29    4.15   1
  -5   0  -8    6.66    4.75   1
  -5   0  -8    9.24    4.38   1
  -5   0  -8    9.67    4.04   1
  -5   0  -8    2.34    4.19   1
  -5   0  -8    8.64    2.18   1
  -5   0  -8    8.35    3.76   1
  -5   0  -8    9.18    2.91   1
  -5   0  -7   16.32    4.28   1
  -5   0  -7    7.34    3.74   1
  -5   0  -7   18.92    4.70   1
  -5   0  -7   17.72    2.19   1
  -5   0  -7   14.59    4.74   1
  -5   0  -7   22.56    3.61   1
  -5   0  -7   12.74    4.86   1
  -5   0  -6  113.85    8.96   1
  -5   0  -6  115.13    7.51   1
  -5   0  -6  103.43    7.93   1
  -5   0  -6  113.21    8.72   1
  -5   0  -6  120.78   10.11   1
  -5   0  -6  110.67    8.84   1
  -5   0  -5    6.20    3.39   1
  -5   0  -5    8.70    4.01   1
  -5   0  -5    6.00    3.63   1
  -5   0  -5    8.76    2.90   1
  -5   0  -5   15.29    3.91   1
  -5   0  -4    5.15    3.63   1
  -5   0  -4    4.88    3.18   1
  -5   0  -4    5.86    3.68   1
  -5   0  -3   25.50    4.95   1
  -5   0  -3   28.62    5.35   1
  -5   0  -2    2.99    3.43   1
  -5   0  -2    5.15    3.63   1
  -5   0  -1   26.42    4.73   1
  -5   0  -1   32.72    5.49   1
  -5   0   0   55.35    6.84   1
  -5   0   0   57.61    5.31   1
  -5   0   0   66.75    7.19   1
  -5   0   1   14.52    4.88   1
  -5   0   1   12.46    3.25   1
  -5   0   1   17.72    4.29   1
  -5   0   2   17.56    5.20   1
  -5   0   2   17.22    3.90   1
  -5   0   2    9.67    4.60   1
  -5   0   3   40.20    6.34   1
  -5   0   3   30.47    6.29   1
  -5   0   3   29.48    4.45   1
  -5   0   4   61.47    7.53   1
  -5   0   4   74.30    6.72   1
  -5   0   4   68.89    5.98   1
  -5   0   4   56.10    7.79   1
  -5   0   5    4.97    4.10   1
  -5   0   5    3.06    2.66   1
  -5   0   5   -4.20    3.85   1
  -5   0   5    0.05    3.75   1
  -5   0   6   16.24    5.48   1
  -5   0   6   22.94    3.64   1
  -5   0   6   17.81    6.58   1
  -5   0   6   16.24    5.64   1
  -5   0   7  370.18   20.39   1
  -5   0   7  333.06   17.89   1
  -5   0   7  318.27   17.84   1
  -5   0   8   46.10    8.83   1
  -5   0   8   49.28    7.44   1
  -5   0   8   34.69    7.77   1
  -5   0   9    6.66    5.78   1
  -5   0   9   10.30    8.02   1
  -5   0   9   -2.59    7.24   1
  -5   1 -13   16.24    9.35   1
  -5   1 -13   14.52    6.55   1
  -5   1 -12   -1.32    4.46   1
  -5   1 -12    2.43    5.24   1
  -5   1 -12   -4.33    4.87   1
  -5   1 -12  -10.24    6.98   1
  -5   1 -11   12.96    5.11   1
  -5   1 -11    5.71    4.45   1
  -5   1 -11    7.18    5.95   1
  -5   1 -11    5.57    4.63   1
  -5   1 -11    6.71    6.42   1
  -5   1 -10   92.93    9.64   1
  -5   1 -10   87.05    5.41   1
  -5   1 -10   62.73    7.60   1
  -5   1 -10   86.49    9.86   1
  -5   1 -10   90.25    8.74   1
  -5   1 -10   75.52    9.39   1
  -5   1 -10   92.74    7.51   1
  -5   1  -9   -0.15    2.14   1
  -5   1  -9   -1.19    3.88   1
  -5   1  -9    0.74    3.84   1
  -5   1  -9    7.45    4.31   1
  -5   1  -9    3.31    3.09   1
  -5   1  -9   -9.86    4.96   1
  -5   1  -9   -1.93    4.81   1
  -5   1  -8   13.76    4.38   1
  -5   1  -8   15.29    4.77   1
  -5   1  -8   28.73    5.68   1
  -5   1  -8   18.58    2.93   1
  -5   1  -8   11.42    5.14   1
  -5   1  -8   21.72    3.45   1
  -5   1  -8   15.84    4.70   1
  -5   1  -7   24.90    3.49   1
  -5   1  -7   19.27    4.39   1
  -5   1  -7   27.04    3.02   1
  -5   1  -7   26.42    4.83   1
  -5   1  -7   24.11    5.70   1
  -5   1  -7   31.81    5.19   1
  -5   1  -7   30.69    5.65   1
  -5   1  -6   11.76    3.50   1
  -5   1  -6   14.36    1.97   1
  -5   1  -6   17.98    3.05   1
  -5   1  -6   13.40    4.32   1
  -5   1  -6    7.67    4.54   1
  -5   1  -6    8.18    3.43   1
  -5   1  -6   10.63    3.59   1
  -5   1  -5    5.48    3.74   1
  -5   1  -5   12.89    4.88   1
  -5   1  -5   11.36    2.90   1
  -5   1  -5    1.82    3.40   1
  -5   1  -5    7.73    2.84   1
  -5   1  -5    7.78    1.39   1
  -5   1  -4   98.41    9.13   1
  -5   1  -4  102.01    8.69   1
  -5   1  -4   85.38    7.76   1
  -5   1  -3   12.82    4.15   1
  -5   1  -3   10.30    3.53   1
  -5   1  -3    6.60    3.80   1
  -5   1  -2   87.42    8.04   1
  -5   1  -2   67.57    6.90   1
  -5   1  -2   81.36    7.94   1
  -5   1  -1   69.56    7.17   1
  -5   1  -1   60.37    7.15   1
  -5   1  -1   67.73    7.24   1
  -5   1   0  199.66   13.00   1
  -5   1   0  231.34   12.78   1
  -5   1   0  195.44    9.51   1
  -5   1   0  213.74   13.16   1
  -5   1   1   23.23    3.37   1
  -5   1   1   23.62    5.25   1
  -5   1   1   16.48    3.98   1
  -5   1   1   24.01    5.49   1
  -5   1   2   -0.69    4.53   1
  -5   1   2    8.24    4.25   1
  -5   1   2    1.82    2.38   1
  -5   1   2    5.06    3.24   1
  -5   1   3    8.76    3.91   1
  -5   1   3    4.41    4.54   1
  -5   1   3    8.70    3.30   1
  -5   1   3   -2.04    2.80   1
  -5   1   4    1.17    2.68   1
  -5   1   4   -3.69    4.38   1
  -5   1   4    0.40    2.84   1
  -5   1   4   -0.77    4.70   1
  -5   1   5  102.62    8.31   1
  -5   1   5  107.74    9.55   1
  -5   1   5  102.62   10.33   1
  -5   1   5  102.01    6.87   1
  -5   1   6   14.21    4.90   1
  -5   1   6   19.71    5.59   1
  -5   1   6   26.52    3.30   1
  -5   1   6   27.98    6.67   1
  -5   1   7   -0.77    4.26   1
  -5   1   7   -3.92    4.99   1
  -5   1   7    2.62    6.54   1
  -5   1   8   19.27    8.34   1
  -5   1   8   24.90    6.19   1
  -5   1   8   15.60    5.85   1
  -5   1   9    3.13    6.09   1
  -5   1   9   -4.84    6.91   1
  -5   1   9   15.05    8.85   1
  -5   2 -13   -4.16    6.08   1
  -5   2 -13   12.67    9.61   1
  -5   2 -13    1.61    6.88   1
  -5   2 -12    1.02    4.93   1
  -5   2 -12   10.82    5.86   1
  -5   2 -12    0.07    5.07   1
  -5   2 -12    5.57    6.56   1
  -5   2 -11   21.53    5.75   1
  -5   2 -11   19.18    6.31   1
  -5   2 -11   18.49    5.33   1
  -5   2 -11   25.20    7.43   1
  -5   2 -10   11.63    5.59   1
  -5   2 -10    7.24    5.16   1
  -5   2 -10   10.89    4.62   1
  -5   2 -10    4.62    6.02   1
  -5   2 -10    3.84    4.74   1
  -5   2 -10   17.39    4.75   1
  -5   2  -9   75.17    8.84   1
  -5   2  -9   77.79    7.59   1
  -5   2  -9   71.23    8.44   1
  -5   2  -9   69.89    9.03   1
  -5   2  -9   75.86    6.62   1
  -5   2  -9   68.89    8.47   1
  -5   2  -8   36.00    6.48   1
  -5   2  -8   27.14    5.21   1
  -5   2  -8   24.40    5.34   1
  -5   2  -8   29.38    4.12   1
  -5   2  -8   34.34    3.05   1
  -5   2  -8   38.56    5.71   1
  -5   2  -8   28.73    6.32   1
  -5   2  -7    1.17    4.10   1
  -5   2  -7    0.16    2.01   1
  -5   2  -7    6.86    4.61   1
  -5   2  -7    2.02    3.38   1
  -5   2  -7    0.32    1.87   1
  -5   2  -7   -1.00    4.14   1
  -5   2  -7    0.77    3.12   1
  -5   2  -6  243.67   10.61   1
  -5   2  -6  237.16   13.24   1
  -5   2  -6  216.09   12.05   1
  -5   2  -6  265.04   15.63   1
  -5   2  -6  259.53   10.63   1
  -5   2  -6  238.70   14.83   1
  -5   2  -6  227.71   13.28   1
  -5   2  -5   37.82    3.32   1
  -5   2  -5   25.10    5.01   1
  -5   2  -5   30.14    4.83   1
  -5   2  -5   29.92    3.94   1
  -5   2  -5   25.60    4.76   1
  -5   2  -5   40.96    6.27   1
  -5   2  -4    2.22    2.77   1
  -5   2  -4   -0.50    3.31   1
  -5   2  -4    4.00    4.08   1
  -5   2  -4   -0.79    1.85   1
  -5   2  -3    3.28    3.48   1
  -5   2  -3    5.38    3.20   1
  -5   2  -3    5.06    3.91   1
  -5   2  -3    7.02    2.17   1
  -5   2  -2    6.25    4.20   1
  -5   2  -2   13.76    4.30   1
  -5   2  -2    5.34    3.70   1
  -5   2  -1    3.72    3.63   1
  -5   2  -1    8.82    4.28   1
  -5   2  -1    2.19    1.72   1
  -5   2  -1    2.76    3.92   1
  -5   2   0   -0.36    3.77   1
  -5   2   0   -1.04    3.94   1
  -5   2   0   -5.29    3.73   1
  -5   2   0   -1.96    1.76   1
  -5   2   1   67.90    7.91   1
  -5   2   1   62.88    6.50   1
  -5   2   1   57.76    7.14   1
  -5   2   1   55.06    4.16   1
  -5   2   2   48.44    5.71   1
  -5   2   2   48.86    6.71   1
  -5   2   2   50.98    4.28   1
  -5   2   2   55.35    6.70   1
  -5   2   3   -5.20    4.92   1
  -5   2   3   -3.24    2.38   1
  -5   2   3   -0.02    3.30   1
  -5   2   3    1.93    4.00   1
  -5   2   4   31.25    4.25   1
  -5   2   4   21.62    6.14   1
  -5   2   4   33.06    5.86   1
  -5   2   4   40.96    4.74   1
  -5   2   5    5.15    3.22   1
  -5   2   5   14.14    6.47   1
  -5   2   5   -1.10    4.33   1
  -5   2   6   15.60    4.50   1
  -5   2   6   19.01    7.50   1
  -5   2   6   17.39    5.67   1
  -5   2   7   13.76    7.57   1
  -5   2   7   24.01    6.08   1
  -5   2   8   13.76    5.27   1
  -5   2   8   10.24    5.95   1
  -5   2   8    6.00    8.38   1
  -5   2   9    1.19    5.78   1
  -5   2   9    3.57    5.22   1
  -5   3 -13   29.92    8.86   1
  -5   3 -13   55.20   11.59   1
  -5   3 -13   31.25    8.50   1
  -5   3 -12    7.90    6.80   1
  -5   3 -12    9.55    6.92   1
  -5   3 -12    1.88    6.08   1
  -5   3 -12    0.90    4.60   1
  -5   3 -11   17.47    5.77   1
  -5   3 -11    1.37    6.25   1
  -5   3 -10    4.71    4.77   1
  -5   3 -10    7.51    5.92   1
  -5   3 -10    9.42    6.69   1
  -5   3 -10    8.07    4.37   1
  -5   3  -9    5.20    5.65   1
  -5   3  -9    9.86    4.02   1
  -5   3  -9    8.41    4.00   1
  -5   3  -9    4.04    4.62   1
  -5   3  -8    6.40    5.46   1
  -5   3  -8   -3.13    3.40   1
  -5   3  -8   -3.28    3.33   1
  -5   3  -8    0.64    3.87   1
  -5   3  -7   63.36    5.73   1
  -5   3  -7   70.73    6.73   1
  -5   3  -7   67.90    6.59   1
  -5   3  -7   76.21    8.21   1
  -5   3  -7   69.06    8.97   1
  -5   3  -6    1.23    4.31   1
  -5   3  -6   -0.06    2.09   1
  -5   3  -6   -0.66    2.79   1
  -5   3  -6    7.18    4.66   1
  -5   3  -6    0.50    3.07   1
  -5   3  -6   -2.16    1.79   1
  -5   3  -5   27.14    3.65   1
  -5   3  -5   13.76    4.01   1
  -5   3  -5   22.85    4.49   1
  -5   3  -5   28.62    5.67   1
  -5   3  -5   20.43    3.34   1
  -5   3  -4    1.96    2.18   1
  -5   3  -4    0.31    2.05   1
  -5   3  -4    3.24    3.24   1
  -5   3  -4    6.05    4.48   1
  -5   3  -3   52.71    3.92   1
  -5   3  -3   62.09    7.56   1
  -5   3  -3   51.98    7.35   1
  -5   3  -3   58.22    6.41   1
  -5   3  -2   61.78    7.23   1
  -5   3  -2   65.45    7.12   1
  -5   3  -2   64.64    3.70   1
  -5   3  -2   55.95    6.88   1
  -5   3  -1   25.30    5.63   1
  -5   3  -1   25.50    5.66   1
  -5   3  -1   25.00    5.20   1
  -5   3   0  105.47    9.45   1
  -5   3   0  109.62    9.63   1
  -5   3   0   91.97    8.44   1
  -5   3   1    6.86    3.41   1
  -5   3   1   -1.19    3.71   1
  -5   3   1  -11.83    5.37   1
  -5   3   2    1.04    3.30   1
  -5   3   2    1.61    1.37   1
  -5   3   2   -2.79    4.98   1
  -5   3   2   -6.30    4.32   1
  -5   3   3   50.69    4.13   1
  -5   3   3   67.40    7.72   1
  -5   3   3   56.10    8.09   1
  -5   3   4   33.06    6.09   1
  -5   3   4   19.18    3.42   1
  -5   3   4    5.02    5.60   1
  -5   3   5   33.99    4.43   1
  -5   3   5   39.94    8.22   1
  -5   3   5   39.69    6.30   1
  -5   3   6    8.12    3.48   1
  -5   3   6   16.89    7.48   1
  -5   3   6   11.29    5.38   1
  -5   3   7   37.21    8.91   1
  -5   3   7   31.25    5.48   1
  -5   3   7   35.88    6.71   1
  -5   3   8   14.90    5.40   1
  -5   3   8   17.81    5.65   1
  -5   3   8    9.92    6.68   1
  -5   3   9    0.46    6.11   1
  -5   3   9   11.76    5.56   1
  -5   4 -12    1.32    7.20   1
  -5   4 -12   13.91    8.80   1
  -5   4 -11   21.16    6.81   1
  -5   4 -11   25.81    8.23   1
  -5   4 -10    2.59    5.70   1
  -5   4 -10    4.54    7.07   1
  -5   4  -9   84.09    9.90   1
  -5   4  -9   78.32    8.32   1
  -5   4  -9   90.44    7.23   1
  -5   4  -9   87.61    9.17   1
  -5   4  -8    9.36    6.36   1
  -5   4  -8   14.52    3.96   1
  -5   4  -8   11.09    4.53   1
  -5   4  -8   20.52    5.25   1
  -5   4  -7   78.68    7.10   1
  -5   4  -7   77.97    8.65   1
  -5   4  -7   70.39    7.05   1
  -5   4  -7   79.39    6.95   1
  -5   4  -6   17.47    4.18   1
  -5   4  -6   33.41    6.47   1
  -5   4  -6   22.66    4.19   1
  -5   4  -6   24.90    2.79   1
  -5   4  -6   24.50    2.67   1
  -5   4  -6   20.25    3.87   1
  -5   4  -5    2.34    3.03   1
  -5   4  -5    0.67    3.20   1
  -5   4  -5   -2.43    4.40   1
  -5   4  -5    1.39    2.24   1
  -5   4  -4   26.21    3.17   1
  -5   4  -4   30.69    4.32   1
  -5   4  -4   27.46    4.82   1
  -5   4  -3   10.69    4.51   1
  -5   4  -3   18.66    2.16   1
  -5   4  -2  268.63   15.08   1
  -5   4  -1  155.50   11.72   1
  -5   4  -1  175.83   12.99   1
  -5   4   0   67.40    8.37   1
  -5   4   0   54.46    7.38   1
  -5   4   1   -4.80    4.95   1
  -5   4   1    3.69    4.34   1
  -5   4   2    5.90    4.81   1
  -5   4   2   -1.35    4.80   1
  -5   4   3   23.81    5.86   1
  -5   4   3    3.69    4.07   1
  -5   4   4    5.90    4.52   1
  -5   4   4    7.45    6.17   1
  -5   4   4    4.67    1.86   1
  -5   4   5   -1.99    4.62   1
  -5   4   5   -1.25    6.25   1
  -5   4   5    0.08    2.04   1
  -5   4   6   16.48    5.68   1
  -5   4   6   13.91    6.04   1
  -5   4   7   12.46    4.45   1
  -5   4   7   13.91    8.80   1
  -5   4   7   14.06    5.85   1
  -5   4   8   21.16    8.74   1
  -5   4   8   24.80    6.37   1
  -5   4   8   16.65    5.06   1
  -5   4   9   58.37   11.46   1
  -5   4   9   77.44    8.27   1
  -5   5 -11   11.76    7.27   1
  -5   5 -11   13.10    7.96   1
  -5   5 -10   -9.00    6.18   1
  -5   5 -10    5.62    5.64   1
  -5   5 -10    0.46    6.09   1
  -5   5  -9  163.33    9.20   1
  -5   5  -9  158.00   11.56   1
  -5   5  -9  149.33   13.20   1
  -5   5  -9  150.31   11.77   1
  -5   5  -8  135.02    8.60   1
  -5   5  -8  126.56   10.12   1
  -5   5  -8  130.87    9.84   1
  -5   5  -8  136.66   11.92   1
  -5   5  -7    7.56    3.90   1
  -5   5  -7    5.06    4.28   1
  -5   5  -7    9.18    4.85   1
  -5   5  -6   92.74    8.09   1
  -5   5  -6   89.11    7.55   1
  -5   5  -6   90.25    9.12   1
  -5   5  -6   96.24    7.06   1
  -5   5  -5   29.48    3.48   1
  -5   5  -5   36.36    5.43   1
  -5   5  -5   32.38    3.87   1
  -5   5  -5   39.44    6.53   1
  -5   5  -5   28.41    5.12   1
  -5   5  -4    0.34    1.76   1
  -5   5  -4    0.83    3.33   1
  -5   5  -4   -1.44    2.74   1
  -5   5  -4    9.12    4.05   1
  -5   5  -3   32.95    5.17   1
  -5   5  -3   42.90    6.03   1
  -5   5  -3   32.04    4.87   1
  -5   5  -2    5.29    4.00   1
  -5   5  -1   -9.30    4.64   1
  -5   5   0   -1.49    4.68   1
  -5   5   0   -4.84    3.96   1
  -5   5   1    3.06    4.86   1
  -5   5   1    4.71    5.69   1
  -5   5   2    4.80    5.34   1
  -5   5   2    1.37    5.31   1
  -5   5   3    7.18    6.32   1
  -5   5   3   -0.20    5.21   1
  -5   5   4   43.43    7.51   1
  -5   5   4   44.09    7.44   1
  -5   5   4   42.38    7.29   1
  -5   5   5   20.79    8.30   1
  -5   5   5   26.11    6.54   1
  -5   5   5   16.81    7.38   1
  -5   5   6    7.34    5.42   1
  -5   5   6    4.41    7.27   1
  -5   5   6   12.32    8.35   1
  -5   5   7   17.56    9.13   1
  -5   5   7   27.77    6.43   1
  -5   5   8    6.86    8.12   1
  -5   5   8   28.30    7.02   1
  -5   6 -10    7.40   10.17   1
  -5   6 -10  -16.24    7.74   1
  -5   6 -10    2.82    7.26   1
  -5   6  -9    9.80    6.57   1
  -5   6  -9    9.24    6.08   1
  -5   6  -9   -4.49    5.72   1
  -5   6  -8    7.18    4.98   1
  -5   6  -8    5.20    7.02   1
  -5   6  -8    4.12    5.72   1
  -5   6  -7  -12.32    6.81   1
  -5   6  -7   -5.95    5.32   1
  -5   6  -7    3.72    4.05   1
  -5   6  -7    1.85    3.62   1
  -5   6  -6    8.24    4.94   1
  -5   6  -6    8.53    5.78   1
  -5   6  -6    0.90    3.34   1
  -5   6  -5   -3.96    4.42   1
  -5   6  -5    0.79    2.46   1
  -5   6  -5    1.00    2.48   1
  -5   6  -5    1.17    3.84   1
  -5   6  -5   -4.97    5.49   1
  -5   6  -4    3.76    4.31   1
  -5   6  -4    3.10    2.71   1
  -5   6  -4    7.78    4.58   1
  -5   6  -3   40.20    6.21   1
  -5   6  -3   50.55    5.69   1
  -5   6  -3   34.57    6.23   1
  -5   6  -2   19.98    4.74   1
  -5   6  -2   18.49    5.68   1
  -5   6  -1   -4.16    4.65   1
  -5   6  -1    6.20    4.08   1
  -5   6   0   41.60    7.35   1
  -5   6   0   33.06    5.98   1
  -5   6   1   17.72    5.73   1
  -5   6   1    8.76    5.98   1
  -5   6   2   12.11    6.33   1
  -5   6   2   10.56    5.78   1
  -5   6   2   -0.23    5.07   1
  -5   6   3   15.84    6.53   1
  -5   6   3   19.45    6.97   1
  -5   6   3   12.74    6.43   1
  -5   6   4   14.98    5.96   1
  -5   6   4   15.84    8.20   1
  -5   6   4    9.80    5.88   1
  -5   6   5    3.50    5.46   1
  -5   6   5    1.06    6.92   1
  -5   6   6   19.54    6.90   1
  -5   6   6    2.79    7.18   1
  -5   6   7    2.86    6.15   1
  -5   6   7  -13.10    9.56   1
  -5   7  -9    7.08    8.14   1
  -5   7  -9   11.29    9.81   1
  -5   7  -9   16.65    7.10   1
  -5   7  -8   -0.48    7.56   1
  -5   7  -8   -0.09    5.87   1
  -5   7  -8    5.43    5.50   1
  -5   7  -7   38.07    8.76   1
  -5   7  -7   33.76    5.81   1
  -5   7  -7   17.72    6.99   1
  -5   7  -6   -2.79    6.41   1
  -5   7  -6    1.44    3.60   1
  -5   7  -6    1.99    5.44   1
  -5   7  -6   -2.50    3.35   1
  -5   7  -5    1.59    2.67   1
  -5   7  -5   -3.76    4.35   1
  -5   7  -5   -0.85    4.80   1
  -5   7  -5    1.85    4.84   1
  -5   7  -4   72.93    6.49   1
  -5   7  -4   66.75    8.66   1
  -5   7  -4   80.46    8.25   1
  -5   7  -3   -1.14    3.36   1
  -5   7  -3   -0.46    4.80   1
  -5   7  -3   -1.32    4.67   1
  -5   7  -2    4.75    4.10   1
  -5   7  -2    2.92    5.06   1
  -5   7  -1   49.42    7.03   1
  -5   7  -1   40.32    7.49   1
  -5   7   0    5.38    4.78   1
  -5   7   0    2.86    5.64   1
  -5   7   1    3.31    6.22   1
  -5   7   1   -0.18    5.33   1
  -5   7   2   35.52    9.18   1
  -5   7   2   47.75    9.12   1
  -5   7   2   30.25    7.37   1
  -5   7   3    3.13    6.27   1
  -5   7   3    0.71    5.95   1
  -5   7   4    6.76    7.12   1
  -5   7   4    9.86    6.85   1
  -5   7   5   -1.54    7.14   1
  -5   7   5    6.10    6.72   1
  -5   7   6    0.72    9.18   1
  -5   7   6   12.82    7.16   1
  -5   8  -7   23.62    8.75   1
  -5   8  -7   45.56    9.99   1
  -5   8  -6    6.60    6.84   1
  -5   8  -6    1.35    6.47   1
  -5   8  -5   48.02    4.99   1
  -5   8  -5   68.23    9.75   1
  -5   8  -5   55.65    8.95   1
  -5   8  -4   -0.38    3.58   1
  -5   8  -4    0.56    5.99   1
  -5   8  -4    1.96    6.10   1
  -5   8  -3    2.99    4.15   1
  -5   8  -3    0.42    6.25   1
  -5   8  -2    9.49    4.87   1
  -5   8  -1   -1.77    5.13   1
  -5   8   0   12.11    6.40   1
  -5   8   1    0.92    5.93   1
  -5   8   2    3.69    6.64   1
  -5   8   3  -12.39    8.45   1
  -5   8   3   -4.75    6.98   1
  -5   8   4    1.74    8.24   1
  -5   8   4   17.14    8.28   1
  -5   8   5    8.07    7.84   1
  -5   8   5    1.51    8.88   1
  -5   9  -4    5.48    7.63   1
  -5   9  -4   24.60    8.83   1
  -5   9  -3   -5.86    6.92   1
  -5   9  -3   -6.05    7.63   1
  -5   9  -3   -3.88    4.73   1
  -5   9  -2   -1.23    5.46   1
  -5   9  -1   -1.28    6.06   1
  -5   9   0   19.10    7.52   1
  -5   9   1    9.30    7.26   1
  -5   9   2   11.36    8.29   1
  -4 -10  -7   14.14    8.27   1
  -4 -10  -6   -3.65    7.22   1
  -4 -10  -5    3.06    7.28   1
  -4 -10  -5    6.00    8.77   1
  -4 -10  -4   48.16   10.41   1
  -4 -10  -3    4.24    7.05   1
  -4 -10  -3   -6.25    8.45   1
  -4 -10  -3    2.40    7.59   1
  -4 -10  -2   29.05    8.30   1
  -4 -10  -2   21.90    8.52   1
  -4 -10  -1   12.18    8.59   1
  -4 -10  -1   20.79    8.48   1
  -4 -10   0    2.46    9.45   1
  -4 -10   0    0.62    6.98   1
  -4 -10   0   21.90    7.11   1
  -4 -10   1    5.38    6.12   1
  -4 -10   1   -6.66    7.79   1
  -4  -9  -8   87.80   12.74   1
  -4  -9  -8   86.68   10.61   1
  -4  -9  -7   -0.83    6.22   1
  -4  -9  -7    3.06    7.98   1
  -4  -9  -6   16.24    8.14   1
  -4  -9  -6    0.56    5.88   1
  -4  -9  -5   29.38    6.72   1
  -4  -9  -5   31.25    7.94   1
  -4  -9  -4    1.02    5.47   1
  -4  -9  -4    1.14    6.68   1
  -4  -9  -3    6.20    5.23   1
  -4  -9  -3   -1.12    4.62   1
  -4  -9  -2   -2.40    6.76   1
  -4  -9  -2    1.25    5.58   1
  -4  -9  -2    7.18    7.02   1
  -4  -9  -1   76.74    8.94   1
  -4  -9  -1   67.90    9.89   1
  -4  -9  -1   68.89   10.29   1
  -4  -9   0   14.59    7.18   1
  -4  -9   0    3.10    4.89   1
  -4  -9   0    8.76    7.64   1
  -4  -9   1   -1.32    7.70   1
  -4  -9   1    7.95    5.30   1
  -4  -9   1    3.03    6.75   1
  -4  -9   2   40.96    9.09   1
  -4  -9   2   58.68    7.35   1
  -4  -9   3   -5.86    7.36   1
  -4  -9   3   10.24    4.99   1
  -4  -9   4   13.91    7.91   1
  -4  -8 -11    2.31    8.66   1
  -4  -8 -11   -0.17    6.92   1
  -4  -8 -10   71.57   11.51   1
  -4  -8 -10   45.70   11.36   1
  -4  -8  -9   24.90    9.08   1
  -4  -8  -8    3.31    7.10   1
  -4  -8  -8   -2.16    4.97   1
  -4  -8  -7   51.70    9.06   1
  -4  -8  -7   34.93    6.74   1
  -4  -8  -6   11.76    5.35   1
  -4  -8  -6   21.44    6.02   1
  -4  -8  -5   27.98    6.14   1
  -4  -8  -5   34.46    7.87   1
  -4  -8  -4    6.60    4.68   1
  -4  -8  -4    4.49    6.06   1
  -4  -8  -3   22.85    5.64   1
  -4  -8  -3   48.02    8.18   1
  -4  -8  -2   29.81    7.21   1
  -4  -8  -2   15.37    4.94   1
  -4  -8  -1    3.69    5.64   1
  -4  -8  -1   -3.57    6.39   1
  -4  -8  -1    5.57    4.91   1
  -4  -8   0  158.26   11.07   1
  -4  -8   0  138.06   11.98   1
  -4  -8   0  137.36   12.19   1
  -4  -8   1    0.85    6.64   1
  -4  -8   2   14.06    6.07   1
  -4  -8   2   -5.11    4.43   1
  -4  -8   2   14.14    6.62   1
  -4  -8   3   36.84    9.47   1
  -4  -8   3   47.20    8.38   1
  -4  -8   3   56.85    6.64   1
  -4  -8   4   -4.80    5.96   1
  -4  -8   4    0.50    4.02   1
  -4  -8   4   -2.99    6.47   1
  -4  -8   5    9.06    6.80   1
  -4  -8   5    8.07    5.06   1
  -4  -7 -12   -4.45   10.30   1
  -4  -7 -12    1.12    6.89   1
  -4  -7 -12    1.54    9.05   1
  -4  -7 -11   18.15    8.35   1
  -4  -7 -11   26.01    8.87   1
  -4  -7 -10    2.92    5.54   1
  -4  -7 -10    8.47    7.22   1
  -4  -7 -10    1.96    7.06   1
  -4  -7  -9   -0.90    6.63   1
  -4  -7  -9    6.55    4.86   1
  -4  -7  -8    1.21    6.01   1
  -4  -7  -8    5.29    4.55   1
  -4  -7  -7    4.88    6.01   1
  -4  -7  -7    1.72    3.83   1
  -4  -7  -6   -5.57    5.57   1
  -4  -7  -6   -0.76    3.64   1
  -4  -7  -5   -0.23    5.01   1
  -4  -7  -5    5.29    3.68   1
  -4  -7  -5    3.92    4.75   1
  -4  -7  -4   -0.83    4.80   1
  -4  -7  -4    3.42    3.59   1
  -4  -7  -4   -3.57    5.18   1
  -4  -7  -3    5.34    5.31   1
  -4  -7  -3   11.49    5.63   1
  -4  -7  -2    6.71    3.83   1
  -4  -7  -2    4.45    5.57   1
  -4  -7  -2    9.55    5.31   1
  -4  -7  -1   44.89    7.50   1
  -4  -7  -1   44.09    7.57   1
  -4  -7  -1   45.16    6.32   1
  -4  -7  -1   46.51    6.68   1
  -4  -7   0   13.18    6.82   1
  -4  -7   0   11.56    5.92   1
  -4  -7   0   21.34    5.08   1
  -4  -7   0   25.00    6.20   1
  -4  -7   1   17.39    5.59   1
  -4  -7   1   22.56    6.74   1
  -4  -7   1    4.33    6.03   1
  -4  -7   1   13.76    4.75   1
  -4  -7   2   18.66    4.75   1
  -4  -7   2    8.18    6.52   1
  -4  -7   2   19.45    5.91   1
  -4  -7   3   16.73    4.74   1
  -4  -7   3   17.89    7.19   1
  -4  -7   4    7.45    3.93   1
  -4  -7   4    3.46    5.02   1
  -4  -7   4    1.37    2.39   1
  -4  -7   4   11.22    7.37   1
  -4  -7   5    8.64    6.00   1
  -4  -7   5   -5.81    3.08   1
  -4  -7   5   -5.29    6.95   1
  -4  -7   5    6.20    4.33   1
  -4  -7   6   62.57    8.70   1
  -4  -7   6   45.70    5.68   1
  -4  -7   7    1.82    7.07   1
  -4  -6 -13    0.90    9.58   1
  -4  -6 -13   -1.82    7.51   1
  -4  -6 -13    4.16   10.44   1
  -4  -6 -12   10.24    7.17   1
  -4  -6 -12    7.08    6.49   1
  -4  -6 -12    6.86    8.54   1
  -4  -6 -11   40.20    9.13   1
  -4  -6 -11   62.88   10.15   1
  -4  -6 -11   44.76    7.49   1
  -4  -6 -10    3.50    4.64   1
  -4  -6 -10   13.03    6.86   1
  -4  -6 -10   17.56    7.04   1
  -4  -6  -9   16.16    5.55   1
  -4  -6  -9   16.97    4.78   1
  -4  -6  -8   -0.45    3.43   1
  -4  -6  -8    0.37    5.25   1
  -4  -6  -8   -2.72    3.73   1
  -4  -6  -7    3.84    5.21   1
  -4  -6  -7    0.50    3.79   1
  -4  -6  -7    1.74    3.30   1
  -4  -6  -6  143.52   10.78   1
  -4  -6  -6  137.12   11.01   1
  -4  -6  -6  148.35    9.50   1
  -4  -6  -5  461.39   21.91   1
  -4  -6  -5  436.81   21.32   1
  -4  -6  -5  450.29   18.67   1
  -4  -6  -4   -6.05    4.87   1
  -4  -6  -4    1.42    4.71   1
  -4  -6  -4    1.00    2.60   1
  -4  -6  -3   29.92    4.49   1
  -4  -6  -3   30.14    6.04   1
  -4  -6  -3   29.48    6.52   1
  -4  -6  -2   38.94    7.11   1
  -4  -6  -2   33.06    4.60   1
  -4  -6  -2   29.81    5.79   1
  -4  -6  -1   11.83    4.40   1
  -4  -6  -1   14.06    5.18   1
  -4  -6  -1   -1.32    5.20   1
  -4  -6   0  133.17    9.69   1
  -4  -6   0  130.64   10.52   1
  -4  -6   0  117.94   10.21   1
  -4  -6   0  143.04   12.44   1
  -4  -6   1   75.52    8.17   1
  -4  -6   1   74.48    8.46   1
  -4  -6   1   62.73    8.24   1
  -4  -6   1   89.87    7.77   1
  -4  -6   2   44.76    8.30   1
  -4  -6   2   43.56    5.94   1
  -4  -6   2   26.63    6.50   1
  -4  -6   2   31.47    6.28   1
  -4  -6   3  -11.09    6.06   1
  -4  -6   3    3.69    6.49   1
  -4  -6   3    4.58    3.85   1
  -4  -6   3   -3.53    4.78   1
  -4  -6   4   16.56    4.56   1
  -4  -6   4   10.05    6.09   1
  -4  -6   4   -0.66    4.86   1
  -4  -6   5   87.42    7.11   1
  -4  -6   5   97.02    8.08   1
  -4  -6   5   85.93   10.94   1
  -4  -6   5  101.00    9.85   1
  -4  -6   6   -2.66    7.24   1
  -4  -6   6    0.08    4.71   1
  -4  -6   6    3.53    3.91   1
  -4  -6   6    1.06    3.61   1
  -4  -6   7    6.05    6.49   1
  -4  -6   7   14.98    4.72   1
  -4  -6   7    8.29    4.84   1
  -4  -6   8    8.82    7.13   1
  -4  -6   8   -8.53    6.13   1
  -4  -5 -13    5.11    6.55   1
  -4  -5 -13    0.96    8.90   1
  -4  -5 -12   84.09    9.54   1
  -4  -5 -12   99.60   11.78   1
  -4  -5 -12   89.87   11.19   1
  -4  -5 -11   -5.62    7.16   1
  -4  -5 -11   -2.56    4.45   1
  -4  -5 -11   -4.33    5.99   1
  -4  -5 -10    6.45    5.69   1
  -4  -5 -10    0.25    3.79   1
  -4  -5 -10   11.90    6.62   1
  -4  -5  -9   40.32    7.24   1
  -4  -5  -9   44.49    5.74   1
  -4  -5  -9   44.62    5.08   1
  -4  -5  -9   42.38    7.68   1
  -4  -5  -8   20.79    5.84   1
  -4  -5  -8   24.60    4.27   1
  -4  -5  -8   16.89    4.11   1
  -4  -5  -7    1.46    2.47   1
  -4  -5  -7    4.80    4.51   1
  -4  -5  -7   11.29    4.17   1
  -4  -5  -6   96.04    6.86   1
  -4  -5  -6  108.16    8.74   1
  -4  -5  -6  109.20    9.40   1
  -4  -5  -5   18.49    3.18   1
  -4  -5  -5   22.18    5.18   1
  -4  -5  -5   14.90    4.79   1
  -4  -5  -4   57.76    7.45   1
  -4  -5  -4   63.20    7.15   1
  -4  -5  -4   51.41    4.73   1
  -4  -5  -3    2.02    1.59   1
  -4  -5  -3   -5.90    4.96   1
  -4  -5  -3    3.57    3.63   1
  -4  -5  -3    4.16    2.33   1
  -4  -5  -2   15.05    5.74   1
  -4  -5  -2   23.14    3.66   1
  -4  -5  -2   19.01    4.80   1
  -4  -5  -2   21.72    2.14   1
  -4  -5  -1    2.86    2.84   1
  -4  -5  -1    8.24    5.28   1
  -4  -5  -1    8.58    3.81   1
  -4  -5   0  195.16   11.73   1
  -4  -5   0  224.40   14.68   1
  -4  -5   0  212.58   12.83   1
  -4  -5   0  229.22   13.02   1
  -4  -5   1  264.39   16.91   1
  -4  -5   1  287.98   14.59   1
  -4  -5   1  284.60   15.52   1
  -4  -5   1  285.61   15.55   1
  -4  -5   2   72.42    9.02   1
  -4  -5   2   79.39    7.13   1
  -4  -5   2   58.83    7.36   1
  -4  -5   2   64.80    7.57   1
  -4  -5   3   64.64    6.59   1
  -4  -5   3   65.45    8.90   1
  -4  -5   3   66.10    8.13   1
  -4  -5   3   70.22    7.88   1
  -4  -5   4    1.90    5.66   1
  -4  -5   4   16.97    5.93   1
  -4  -5   4   15.76    5.32   1
  -4  -5   4   22.18    4.71   1
  -4  -5   5   65.45    6.63   1
  -4  -5   5   64.48    8.99   1
  -4  -5   5   47.47    7.30   1
  -4  -5   5   51.55    8.76   1
  -4  -5   6   23.14    7.89   1
  -4  -5   7    3.39    7.80   1
  -4  -5   7    6.92    4.26   1
  -4  -5   8   17.39    4.92   1
  -4  -5   9   -2.19    6.96   1
  -4  -4 -14   38.94   11.73   1
  -4  -4 -13   -1.64    8.35   1
  -4  -4 -13    5.90    5.54   1
  -4  -4 -12    3.96    7.36   1
  -4  -4 -12   -1.02    5.21   1
  -4  -4 -11   65.77    8.43   1
  -4  -4 -11   49.14    8.97   1
  -4  -4 -10   19.10    5.86   1
  -4  -4 -10    9.61    2.60   1
  -4  -4 -10   -2.82    5.75   1
  -4  -4  -9   41.34    6.56   1
  -4  -4  -9   59.29    7.55   1
  -4  -4  -9   64.96    5.64   1
  -4  -4  -9   53.58    5.71   1
  -4  -4  -8  210.54   13.06   1
  -4  -4  -8  229.83   11.52   1
  -4  -4  -8  235.62   11.97   1
  -4  -4  -7   21.72    4.29   1
  -4  -4  -7   20.79    4.83   1
  -4  -4  -7   27.77    3.58   1
  -4  -4  -6    6.50    3.72   1
  -4  -4  -6    6.15    2.18   1
  -4  -4  -6    9.49    3.20   1
  -4  -4  -5    8.64    3.70   1
  -4  -4  -5    8.82    2.61   1
  -4  -4  -5    2.43    3.71   1
  -4  -4  -4   95.26    5.66   1
  -4  -4  -4   91.20    8.21   1
  -4  -4  -4   89.68    5.68   1
  -4  -4  -4   99.80    8.19   1
  -4  -4  -3   -0.77    1.81   1
  -4  -4  -3    1.00    4.00   1
  -4  -4  -3    6.97    3.12   1
  -4  -4  -3    1.23    1.55   1
  -4  -4  -2   26.52    4.33   1
  -4  -4  -2   24.50    2.67   1
  -4  -4  -2   27.98    5.92   1
  -4  -4  -2   20.52    4.53   1
  -4  -4  -1  127.24    9.48   1
  -4  -4  -1  140.66    9.25   1
  -4  -4  -1  138.06   10.11   1
  -4  -4   0   17.56    4.86   1
  -4  -4   0   14.82    5.31   1
  -4  -4   0   16.16    4.18   1
  -4  -4   0   14.06    4.35   1
  -4  -4   1  170.82   10.98   1
  -4  -4   1  168.48   11.94   1
  -4  -4   1  190.44   10.76   1
  -4  -4   1  176.89   11.44   1
  -4  -4   2  207.36   11.52   1
  -4  -4   2  180.36   13.16   1
  -4  -4   2  172.66   11.56   1
  -4  -4   3   18.49    4.13   1
  -4  -4   3   12.04    5.62   1
  -4  -4   3   18.15    5.28   1
  -4  -4   4   29.38    4.99   1
  -4  -4   4   37.82    6.64   1
  -4  -4   4   43.16    7.49   1
  -4  -4   5   10.82    4.61   1
  -4  -4   5    4.16    5.75   1
  -4  -4   5   26.42    6.48   1
  -4  -4   6   53.58    8.64   1
  -4  -4   6   64.64    6.91   1
  -4  -4   6   54.91    8.45   1
  -4  -4   7    8.47    7.10   1
  -4  -4   7   22.75    5.34   1
  -4  -4   7   20.07    6.99   1
  -4  -4   8    3.84    4.63   1
  -4  -4   8   -1.23    7.30   1
  -4  -3 -14   -7.29    5.99   1
  -4  -3 -14   -4.54    8.09   1
  -4  -3 -13   -2.04    5.66   1
  -4  -3 -13   -8.88    7.81   1
  -4  -3 -12   -0.13    4.98   1
  -4  -3 -12    1.04    4.65   1
  -4  -3 -12    8.18    5.32   1
  -4  -3 -11    1.88    4.33   1
  -4  -3 -11    0.96    5.90   1
  -4  -3 -11    6.15    4.36   1
  -4  -3 -10    9.67    4.73   1
  -4  -3 -10    6.05    5.51   1
  -4  -3 -10    5.62    2.61   1
  -4  -3  -9    1.80    4.72   1
  -4  -3  -9   11.16    2.94   1
  -4  -3  -8  294.12   14.06   1
  -4  -3  -8  300.33   15.25   1
  -4  -3  -8  317.20   16.39   1
  -4  -3  -7   66.91    4.91   1
  -4  -3  -7   63.36    6.53   1
  -4  -3  -7   69.39    6.16   1
  -4  -3  -6   11.63    3.41   1
  -4  -3  -6   15.52    4.02   1
  -4  -3  -6   17.22    3.98   1
  -4  -3  -6   10.89    2.11   1
  -4  -3  -5  280.56   13.40   1
  -4  -3  -5  249.64   13.27   1
  -4  -3  -5  239.63    9.60   1
  -4  -3  -5  249.01   11.36   1
  -4  -3  -4  139.00    8.96   1
  -4  -3  -4  114.92    5.57   1
  -4  -3  -4  129.05    9.09   1
  -4  -3  -4  126.11    6.96   1
  -4  -3  -3  113.85    6.40   1
  -4  -3  -3  109.62    7.75   1
  -4  -3  -3  112.36    5.30   1
  -4  -3  -3  125.22    8.95   1
  -4  -3  -2  656.90   26.66   1
  -4  -3  -2  634.03   25.18   1
  -4  -3  -2  626.50   25.53   1
  -4  -3  -1    0.38    2.22   1
  -4  -3  -1    7.40    4.41   1
  -4  -3  -1    0.74    3.10   1
  -4  -3   0   14.36    4.78   1
  -4  -3   1    0.62    3.44   1
  -4  -3   1   -5.48    4.96   1
  -4  -3   1    3.53    3.42   1
  -4  -3   2  110.04    8.60   1
  -4  -3   2  121.44   10.14   1
  -4  -3   2  111.30    8.44   1
  -4  -3   3    2.99    3.43   1
  -4  -3   3    3.28    4.24   1
  -4  -3   3    3.65    3.71   1
  -4  -3   4   24.90    6.29   1
  -4  -3   4   35.28    5.35   1
  -4  -3   4   30.36    5.07   1
  -4  -3   5   39.56    6.92   1
  -4  -3   5   34.46    5.64   1
  -4  -3   6   -1.56    4.43   1
  -4  -3   6    4.41    5.29   1
  -4  -3   7    3.35    4.43   1
  -4  -3   7    4.33    6.07   1
  -4  -3   7    5.24    5.86   1
  -4  -3   8   67.40    7.72   1
  -4  -3   8   49.14    9.53   1
  -4  -3   8   54.76    8.29   1
  -4  -3   9   19.01    6.10   1
  -4  -3   9    6.35    7.66   1
  -4  -2 -14   16.56   10.34   1
  -4  -2 -14    9.61    6.45   1
  -4  -2 -13    0.28    5.02   1
  -4  -2 -13    7.45    7.86   1
  -4  -2 -12   27.04    6.24   1
  -4  -2 -12   48.16    9.16   1
  -4  -2 -11    1.37    3.74   1
  -4  -2 -11   -2.76    4.32   1
  -4  -2 -11   -1.37    2.25   1
  -4  -2 -11   -4.04    5.95   1
  -4  -2 -10   18.23    4.44   1
  -4  -2 -10   22.94    6.42   1
  -4  -2 -10   14.82    4.77   1
  -4  -2 -10   20.61    3.54   1
  -4  -2  -9  132.94   10.38   1
  -4  -2  -9  139.24    9.44   1
  -4  -2  -9  138.30    8.47   1
  -4  -2  -8   21.07    4.13   1
  -4  -2  -8   18.92    3.48   1
  -4  -2  -8   14.75    4.92   1
  -4  -2  -7   84.46    7.90   1
  -4  -2  -7   84.46    6.62   1
  -4  -2  -7   77.97    6.89   1
  -4  -2  -7   81.54    6.68   1
  -4  -2  -6   34.93    4.61   1
  -4  -2  -6   32.38    4.55   1
  -4  -2  -6   39.06    3.00   1
  -4  -2  -6   35.64    4.66   1
  -4  -2  -5    9.12    3.20   1
  -4  -2  -5   12.04    1.46   1
  -4  -2  -5   13.25    3.20   1
  -4  -2  -5    8.88    3.28   1
  -4  -2  -4   48.86    5.59   1
  -4  -2  -4   47.89    4.57   1
  -4  -2  -4   57.00    5.44   1
  -4  -2  -3   97.22    7.10   1
  -4  -2  -3   88.74    7.35   1
  -4  -2  -3   82.81    7.28   1
  -4  -2  -2  470.89   19.53   1
  -4  -2  -2  483.12   20.22   1
  -4  -2  -2  450.29   20.37   1
  -4  -2  -1    2.89    3.16   1
  -4  -2  -1    8.58    3.98   1
  -4  -2   0   17.64    3.53   1
  -4  -2   0   20.52    4.89   1
  -4  -2   1   10.24    3.65   1
  -4  -2   1    8.35    4.05   1
  -4  -2   1   12.67    3.77   1
  -4  -2   2   50.69    6.12   1
  -4  -2   2   49.98    5.80   1
  -4  -2   2   50.41    5.68   1
  -4  -2   3    4.00    3.32   1
  -4  -2   3   11.16    4.41   1
  -4  -2   3   14.98    4.10   1
  -4  -2   4   19.27    4.74   1
  -4  -2   4   18.15    4.60   1
  -4  -2   4   30.80    5.77   1
  -4  -2   5   51.12    6.86   1
  -4  -2   5   41.34    6.69   1
  -4  -2   5   61.78    7.07   1
  -4  -2   6   57.46    7.28   1
  -4  -2   6   53.88    7.05   1
  -4  -2   6   59.60    7.10   1
  -4  -2   7   15.68    5.46   1
  -4  -2   7   -3.50    5.42   1
  -4  -2   7    9.12    5.07   1
  -4  -2   8   88.55   10.54   1
  -4  -2   8   98.41    9.32   1
  -4  -2   8   91.78    9.39   1
  -4  -2   9    6.76    5.36   1
  -4  -2   9    1.17    5.55   1
  -4  -2   9   -2.28    6.46   1
  -4  -2  10   10.37    9.98   1
  -4  -1 -14    6.40    9.21   1
  -4  -1 -13   19.36    8.71   1
  -4  -1 -12    3.13    5.03   1
  -4  -1 -12    9.86    2.95   1
  -4  -1 -12   -1.69    4.76   1
  -4  -1 -11   75.17    6.76   1
  -4  -1 -11   77.62    5.99   1
  -4  -1 -11   74.48    8.11   1
  -4  -1 -11   88.55    9.41   1
  -4  -1 -10   11.56    3.47   1
  -4  -1 -10    6.55    4.45   1
  -4  -1 -10    7.34    2.76   1
  -4  -1 -10    4.71    4.08   1
  -4  -1  -9    0.76    4.33   1
  -4  -1  -9   -3.53    3.80   1
  -4  -1  -9   -5.24    2.98   1
  -4  -1  -9    0.18    2.18   1
  -4  -1  -8    2.79    2.47   1
  -4  -1  -8    0.32    3.63   1
  -4  -1  -8   -2.16    3.62   1
  -4  -1  -8   -0.94    2.75   1
  -4  -1  -8   -1.32    3.59   1
  -4  -1  -7    3.69    2.61   1
  -4  -1  -7    7.45    2.73   1
  -4  -1  -7    6.66    2.94   1
  -4  -1  -7   -3.13    3.40   1
  -4  -1  -6    0.81    3.13   1
  -4  -1  -6    3.84    2.63   1
  -4  -1  -6    3.20    2.58   1
  -4  -1  -6   -2.22    2.18   1
  -4  -1  -5   -0.67    2.35   1
  -4  -1  -5    1.96    2.72   1
  -4  -1  -5   -2.34    2.30   1
  -4  -1  -5    0.16    2.57   1
  -4  -1  -4  126.79    7.66   1
  -4  -1  -4  117.94    7.60   1
  -4  -1  -4  128.37    8.84   1
  -4  -1  -4  113.64    8.10   1
  -4  -1  -3   62.41    5.21   1
  -4  -1  -3   54.02    5.88   1
  -4  -1  -3   58.22    5.49   1
  -4  -1  -2   10.69    3.47   1
  -4  -1  -2   12.82    3.79   1
  -4  -1  -1   76.21    6.63   1
  -4  -1  -1   76.74    6.66   1
  -4  -1   0    3.39    3.09   1
  -4  -1   0    4.67    2.55   1
  -4  -1   1   53.88    6.02   1
  -4  -1   1   64.32    6.26   1
  -4  -1   1   59.75    5.41   1
  -4  -1   2  406.83   17.35   1
  -4  -1   2  418.20   19.22   1
  -4  -1   2  408.44   18.59   1
  -4  -1   3   69.56    6.51   1
  -4  -1   3   62.25    6.94   1
  -4  -1   3   60.06    6.66   1
  -4  -1   4    8.53    3.85   1
  -4  -1   4   20.70    5.01   1
  -4  -1   4   21.44    4.54   1
  -4  -1   5   37.33    5.62   1
  -4  -1   5   35.88    5.99   1
  -4  -1   5   25.81    4.47   1
  -4  -1   6   49.14    6.59   1
  -4  -1   6   53.14    7.00   1
  -4  -1   6   36.36    6.27   1
  -4  -1   7    3.06    4.93   1
  -4  -1   7   -3.46    4.80   1
  -4  -1   7   -0.18    4.86   1
  -4  -1   8    1.77    5.53   1
  -4  -1   8    2.59    4.41   1
  -4  -1   8   -2.25    5.22   1
  -4  -1   9   22.94    6.13   1
  -4  -1   9   21.72    7.64   1
  -4  -1   9   21.90    6.74   1
  -4  -1  10  -16.81    8.94   1
  -4   0 -14   10.30   10.14   1
  -4   0 -13    5.34    3.14   1
  -4   0 -13   -2.22    5.78   1
  -4   0 -12    1.32    4.71   1
  -4   0 -12    1.69    3.02   1
  -4   0 -12    6.30    6.83   1
  -4   0 -11    8.24    6.08   1
  -4   0 -11   -2.99    4.67   1
  -4   0 -11    3.50    2.95   1
  -4   0 -10   -0.53    2.70   1
  -4   0 -10    2.79    4.28   1
  -4   0 -10    7.56    2.91   1
  -4   0 -10   -2.25    5.13   1
  -4   0  -9   13.03    5.05   1
  -4   0  -9   21.44    5.09   1
  -4   0  -9   24.01    4.12   1
  -4   0  -9   22.37    3.22   1
  -4   0  -8  106.30    6.60   1
  -4   0  -8  126.34    9.44   1
  -4   0  -8  109.41    9.00   1
  -4   0  -8  105.06    7.79   1
  -4   0  -8  122.77    9.75   1
  -4   0  -7   -0.01    2.96   1
  -4   0  -7    3.57    3.67   1
  -4   0  -7    1.69    2.16   1
  -4   0  -7    7.02    3.82   1
  -4   0  -7   -0.88    2.39   1
  -4   0  -6  176.36   10.62   1
  -4   0  -6  177.96   10.14   1
  -4   0  -6  174.77    7.40   1
  -4   0  -6  180.36   10.21   1
  -4   0  -6  154.50    9.94   1
  -4   0  -6  157.50    8.28   1
  -4   0  -6  170.56   11.23   1
  -4   0  -5  141.85    9.77   1
  -4   0  -5  136.89    7.72   1
  -4   0  -5  154.50    8.95   1
  -4   0  -5  149.82    9.30   1
  -4   0  -5  146.17    5.80   1
  -4   0  -5  142.80    8.60   1
  -4   0  -5  154.50    9.45   1
  -4   0  -4   72.25    6.46   1
  -4   0  -4   68.56    6.29   1
  -4   0  -4   68.56    5.30   1
  -4   0  -3   65.61    6.16   1
  -4   0  -3   72.25    6.29   1
  -4   0  -2  117.51    8.46   1
  -4   0  -2  124.32    8.25   1
  -4   0  -1    5.81    3.18   1
  -4   0  -1    4.04    3.22   1
  -4   0   0    8.70    3.60   1
  -4   0   0    4.62    2.37   1
  -4   0   0    6.55    3.43   1
  -4   0   1   27.25    4.70   1
  -4   0   1   21.44    3.43   1
  -4   0   1   30.25    4.84   1
  -4   0   2    9.30    3.42   1
  -4   0   2    0.28    3.33   1
  -4   0   2    1.99    2.57   1
  -4   0   3   57.00    5.44   1
  -4   0   3   59.91    6.97   1
  -4   0   3   74.30    7.07   1
  -4   0   4    3.65    3.78   1
  -4   0   4   -8.70    4.78   1
  -4   0   4   -3.96    3.14   1
  -4   0   5   38.69    6.34   1
  -4   0   5   55.95    4.34   1
  -4   0   5   40.96    5.50   1
  -4   0   5   54.76    6.36   1
  -4   0   6   10.96    2.18   1
  -4   0   6   12.04    5.20   1
  -4   0   6   14.75    4.45   1
  -4   0   6   10.24    4.29   1
  -4   0   7    3.10    5.07   1
  -4   0   7    1.85    4.03   1
  -4   0   7   -1.44    4.30   1
  -4   0   8   28.52    6.73   1
  -4   0   8   21.81    6.63   1
  -4   0   8   31.36    5.82   1
  -4   0   9    8.88    6.44   1
  -4   0  10   -7.78    7.53   1
  -4   0  10    6.30    4.87   1
  -4   1 -14  -10.63   10.56   1
  -4   1 -13    1.14    3.77   1
  -4   1 -13  -16.16    8.76   1
  -4   1 -12   44.22    6.12   1
  -4   1 -12   67.57   10.19   1
  -4   1 -11   11.97    6.30   1
  -4   1 -11    6.15    4.02   1
  -4   1 -10   60.22    6.83   1
  -4   1 -10   48.30    7.78   1
  -4   1 -10   73.27    8.05   1
  -4   1 -10   66.59    7.02   1
  -4   1  -9   86.86    8.02   1
  -4   1  -9   97.02    8.67   1
  -4   1  -9   93.12    7.91   1
  -4   1  -9   85.19    8.49   1
  -4   1  -9   92.93    5.21   1
  -4   1  -9   98.21    7.73   1
  -4   1  -9   93.32    8.11   1
  -4   1  -8   32.04    5.77   1
  -4   1  -8   30.14    4.94   1
  -4   1  -8   32.95    5.74   1
  -4   1  -8   38.19    5.19   1
  -4   1  -8   32.95    3.10   1
  -4   1  -8   30.47    5.19   1
  -4   1  -8   36.24    4.33   1
  -4   1  -7   55.50    6.41   1
  -4   1  -7   69.39    7.00   1
  -4   1  -7   62.09    6.30   1
  -4   1  -7   67.57    6.90   1
  -4   1  -7   59.91    4.18   1
  -4   1  -7   52.71    5.66   1
  -4   1  -7   64.00    4.96   1
  -4   1  -6  290.70   13.98   1
  -4   1  -6  293.09   11.64   1
  -4   1  -6  267.65   11.12   1
  -4   1  -6  289.34   14.97   1
  -4   1  -6  269.29   13.46   1
  -4   1  -6  300.68   15.61   1
  -4   1  -6  284.26   13.83   1
  -4   1  -5   -0.14    1.08   1
  -4   1  -5    1.21    2.68   1
  -4   1  -5    2.82    2.49   1
  -4   1  -5   -2.40    1.77   1
  -4   1  -5    3.69    2.76   1
  -4   1  -5    0.86    2.23   1
  -4   1  -5   -2.07    3.57   1
  -4   1  -4    4.41    3.36   1
  -4   1  -4   -2.56    3.04   1
  -4   1  -4   -0.48    1.84   1
  -4   1  -4    1.77    2.63   1
  -4   1  -4    1.00    0.94   1
  -4   1  -3   73.96    6.36   1
  -4   1  -3   73.62    7.04   1
  -4   1  -3   98.60    7.75   1
  -4   1  -2   93.70    7.36   1
  -4   1  -2  100.60    7.42   1
  -4   1  -2   93.90    7.56   1
  -4   1  -1   54.32    5.31   1
  -4   1  -1   49.14    5.75   1
  -4   1  -1   45.83    5.55   1
  -4   1   0  164.10    9.99   1
  -4   1   0  154.01    9.93   1
  -4   1   0  172.13    9.71   1
  -4   1   0  152.28    7.40   1
  -4   1   1   79.21    6.23   1
  -4   1   1   86.68    7.45   1
  -4   1   1   81.00    5.22   1
  -4   1   1   77.44    7.22   1
  -4   1   2   17.98    4.83   1
  -4   1   2   22.47    3.51   1
  -4   1   2   15.76    4.05   1
  -4   1   2   21.34    2.96   1
  -4   1   3   22.18    3.49   1
  -4   1   3   33.87    5.01   1
  -4   1   3   35.52    4.05   1
  -4   1   3   37.95    5.91   1
  -4   1   4  282.58   13.11   1
  -4   1   4  252.81   14.63   1
  -4   1   4  282.24   12.10   1
  -4   1   4  268.30   14.41   1
  -4   1   5    4.45    3.50   1
  -4   1   5   -6.25    4.90   1
  -4   1   5    2.89    3.03   1
  -4   1   5   -0.07    1.92   1
  -4   1   6   24.40    4.74   1
  -4   1   6   31.58    6.41   1
  -4   1   6   22.09    4.70   1
  -4   1   7   27.77    5.06   1
  -4   1   7   23.14    5.39   1
  -4   1   7   34.22    7.14   1
  -4   1   8   45.97    8.14   1
  -4   1   8   27.35    6.28   1
  -4   1   8   35.64    5.49   1
  -4   1   9    2.62    5.54   1
  -4   1   9    0.81    3.91   1
  -4   1  10    2.46    4.52   1
  -4   1  10   -6.00    6.81   1
  -4   1  11   -1.51    8.22   1
  -4   1  11   29.48    9.56   1
  -4   2 -13   11.70    5.68   1
  -4   2 -13   22.28    9.16   1
  -4   2 -13   17.81    5.40   1
  -4   2 -12    5.76    7.44   1
  -4   2 -12    5.43    4.99   1
  -4   2 -12    9.86    5.90   1
  -4   2 -12   -3.53    3.84   1
  -4   2 -11    5.38    6.12   1
  -4   2 -11   14.21    4.52   1
  -4   2 -11   10.76    4.85   1
  -4   2 -10   21.62    5.02   1
  -4   2 -10   12.04    3.96   1
  -4   2 -10   23.43    5.61   1
  -4   2  -9   12.25    3.64   1
  -4   2  -9   15.84    5.17   1
  -4   2  -9   13.69    4.29   1
  -4   2  -9   16.89    5.59   1
  -4   2  -8   95.45    8.40   1
  -4   2  -8  108.16    9.36   1
  -4   2  -8   96.63    8.85   1
  -4   2  -8  108.16    7.70   1
  -4   2  -8  116.64    7.99   1
  -4   2  -7   -4.20    3.36   1
  -4   2  -7    8.53    3.10   1
  -4   2  -7    7.02    4.45   1
  -4   2  -7    3.39    2.32   1
  -4   2  -7    5.71    4.45   1
  -4   2  -6   95.26    8.78   1
  -4   2  -6   97.02    7.88   1
  -4   2  -6   92.54    7.12   1
  -4   2  -6   87.98    4.69   1
  -4   2  -6   99.20    7.17   1
  -4   2  -6  101.20    6.44   1
  -4   2  -5    1.04    3.28   1
  -4   2  -5    6.35    2.12   1
  -4   2  -5    4.04    2.65   1
  -4   2  -5    4.58    2.48   1
  -4   2  -5    2.02    4.00   1
  -4   2  -5    1.37    1.45   1
  -4   2  -4    3.39    1.62   1
  -4   2  -4    5.15    2.86   1
  -4   2  -4    4.80    2.10   1
  -4   2  -4   14.90    4.48   1
  -4   2  -3   13.25    2.26   1
  -4   2  -3   13.18    3.48   1
  -4   2  -3   16.73    4.42   1
  -4   2  -3   12.60    2.13   1
  -4   2  -2   35.28    5.46   1
  -4   2  -2   30.14    4.94   1
  -4   2  -2   30.58    2.77   1
  -4   2  -2   35.52    4.41   1
  -4   2  -1 2255.30   73.13   1
  -4   2  -1 2285.80   74.58   1
  -4   2  -1 2267.66   76.19   1
  -4   2   0 1971.36   59.50   1
  -4   2   0 1991.84   66.94   1
  -4   2   0 2012.42   69.08   1
  -4   2   0 2049.37   67.00   1
  -4   2   1   -1.17    2.74   1
  -4   2   1   -0.81    1.57   1
  -4   2   1   -2.99    3.32   1
  -4   2   1   -1.93    3.61   1
  -4   2   2   56.10    4.04   1
  -4   2   2   57.91    7.00   1
  -4   2   2   53.14    5.69   1
  -4   2   2   54.91    5.34   1
  -4   2   3    1.64    3.20   1
  -4   2   3   -4.00    3.20   1
  -4   2   3   -0.52    1.64   1
  -4   2   3    6.35    2.77   1
  -4   2   4   22.66    5.81   1
  -4   2   4   15.37    3.84   1
  -4   2   4   10.56    2.80   1
  -4   2   5  108.78    7.51   1
  -4   2   5  117.51    8.89   1
  -4   2   5  114.06   10.47   1
  -4   2   6    0.04    3.00   1
  -4   2   6    4.75    3.84   1
  -4   2   6    2.86    5.00   1
  -4   2   7   29.48    5.32   1
  -4   2   7   33.41    7.40   1
  -4   2   7   33.76    5.35   1
  -4   2   8    2.25    4.08   1
  -4   2   8   13.03    5.99   1
  -4   2   8    6.97    4.75   1
  -4   2   9    5.66    3.86   1
  -4   2   9    0.01    5.28   1
  -4   2  10    2.19    8.26   1
  -4   2  10    1.10    6.55   1
  -4   3 -13   -0.11    7.50   1
  -4   3 -13  -14.59    9.63   1
  -4   3 -12   46.24    8.43   1
  -4   3 -12   44.89    9.51   1
  -4   3 -12   49.00    5.60   1
  -4   3 -11   -0.56    3.26   1
  -4   3 -11    1.25    6.29   1
  -4   3 -11   -2.92    5.13   1
  -4   3 -10    5.57    4.81   1
  -4   3 -10    1.90    2.79   1
  -4   3 -10   -3.42    5.40   1
  -4   3  -9   91.20    8.60   1
  -4   3  -9   85.56    8.14   1
  -4   3  -9   90.44    6.85   1
  -4   3  -9   95.06    9.36   1
  -4   3  -8   20.88    3.47   1
  -4   3  -8   20.98    4.49   1
  -4   3  -8   25.40    5.14   1
  -4   3  -8   15.52    5.44   1
  -4   3  -7    6.60    2.72   1
  -4   3  -7    1.02    3.96   1
  -4   3  -7    2.10    2.96   1
  -4   3  -6   -3.61    2.85   1
  -4   3  -6    0.16    2.53   1
  -4   3  -6    2.89    2.48   1
  -4   3  -6   -1.04    3.55   1
  -4   3  -5  249.01   11.99   1
  -4   3  -5  219.34   10.96   1
  -4   3  -5  237.78   12.64   1
  -4   3  -5  256.96   14.75   1
  -4   3  -5  231.95   10.97   1
  -4   3  -4   55.06    4.60   1
  -4   3  -4   56.85    6.94   1
  -4   3  -4   55.50    4.32   1
  -4   3  -4   50.41    5.25   1
  -4   3  -3    0.29    1.81   1
  -4   3  -3    1.99    1.33   1
  -4   3  -3    4.54    4.05   1
  -4   3  -3    0.71    2.69   1
  -4   3  -2    5.57    2.69   1
  -4   3  -2   -6.20    3.78   1
  -4   3  -1   21.53    4.73   1
  -4   3  -1   27.25    4.91   1
  -4   3   0    5.38    3.43   1
  -4   3   0    6.35    3.68   1
  -4   3   0    5.95    3.76   1
  -4   3   1    5.29    3.82   1
  -4   3   1   14.21    4.67   1
  -4   3   2   16.00    5.28   1
  -4   3   2    9.49    1.54   1
  -4   3   2   11.49    4.07   1
  -4   3   3    0.52    1.40   1
  -4   3   3   -1.51    4.45   1
  -4   3   4    2.46    3.45   1
  -4   3   4   -0.23    4.53   1
  -4   3   4    1.12    1.82   1
  -4   3   5  121.44    7.49   1
  -4   3   5  117.94    8.91   1
  -4   3   5  111.09   10.54   1
  -4   3   6   27.14    7.19   1
  -4   3   6   21.25    3.96   1
  -4   3   6   35.28    5.35   1
  -4   3   7   -0.90    3.29   1
  -4   3   7    4.00    3.88   1
  -4   3   7   -1.49    6.20   1
  -4   3   8   65.45    6.80   1
  -4   3   8   52.42    6.81   1
  -4   3   9    9.24    6.99   1
  -4   3   9   24.50    5.15   1
  -4   3   9   14.21    5.81   1
  -4   3  10   -0.02    5.10   1
  -4   3  10    1.44    8.06   1
  -4   3  10   -4.28    3.81   1
  -4   4 -12   -4.54    7.67   1
  -4   4 -12    2.10    7.19   1
  -4   4 -11   -1.35    6.31   1
  -4   4 -11   -6.10    6.22   1
  -4   4 -10    3.50    5.01   1
  -4   4 -10    7.51    5.21   1
  -4   4  -9    4.58    2.61   1
  -4   4  -9   11.02    4.98   1
  -4   4  -9    6.05    5.22   1
  -4   4  -8    0.34    3.80   1
  -4   4  -8    4.58    4.11   1
  -4   4  -8   -0.61    2.14   1
  -4   4  -8    4.54    4.90   1
  -4   4  -7   -7.18    4.72   1
  -4   4  -7    4.00    3.56   1
  -4   4  -7   -1.21    2.11   1
  -4   4  -7   -2.76    3.39   1
  -4   4  -6   34.34    4.92   1
  -4   4  -6   30.69    4.54   1
  -4   4  -6   26.42    4.73   1
  -4   4  -6   27.98    3.81   1
  -4   4  -5   14.67    3.06   1
  -4   4  -5   21.07    3.67   1
  -4   4  -5   21.16    4.88   1
  -4   4  -5   10.24    3.39   1
  -4   4  -5   16.81    2.05   1
  -4   4  -4   59.29    4.47   1
  -4   4  -4   59.29    4.62   1
  -4   4  -4   58.83    5.68   1
  -4   4  -4   52.27    5.35   1
  -4   4  -3   87.80    6.56   1
  -4   4  -3   91.20    7.26   1
  -4   4  -3   85.01    4.61   1
  -4   4  -2   36.97    4.99   1
  -4   4  -2   30.80    4.11   1
  -4   4  -1    2.86    3.68   1
  -4   4   0   20.16    5.12   1
  -4   4   1   39.56    5.54   1
  -4   4   2   11.09    4.40   1
  -4   4   2    5.86    4.84   1
  -4   4   3   26.21    6.25   1
  -4   4   3   27.98    5.40   1
  -4   4   4  101.61    9.48   1
  -4   4   4  117.51    9.11   1
  -4   4   5   71.40    9.13   1
  -4   4   5   71.91    7.29   1
  -4   4   6   -3.65    6.15   1
  -4   4   6    3.35    3.70   1
  -4   4   6   -1.12    2.48   1
  -4   4   7   82.63   10.54   1
  -4   4   7   97.61    7.51   1
  -4   4   7   96.43    8.25   1
  -4   4   8   36.84    5.58   1
  -4   4   8   26.94    7.89   1
  -4   4   8   21.62    4.93   1
  -4   4   9   -0.96    5.45   1
  -4   4   9    9.55    4.08   1
  -4   4  10    5.29    3.73   1
  -4   4  10  -10.69    8.57   1
  -4   5 -12    9.61    9.36   1
  -4   5 -12   -3.57    9.37   1
  -4   5 -11    8.24    7.23   1
  -4   5 -11  -17.14    7.87   1
  -4   5 -10   15.76    6.59   1
  -4   5 -10   31.70    7.66   1
  -4   5  -9    5.29    6.07   1
  -4   5  -9   -0.13    4.87   1
  -4   5  -9   -7.29    5.35   1
  -4   5  -8    5.48    4.68   1
  -4   5  -8    5.38    2.27   1
  -4   5  -8    9.92    5.67   1
  -4   5  -8   17.47    5.18   1
  -4   5  -7   82.08    8.52   1
  -4   5  -7   65.93    7.47   1
  -4   5  -7   76.56    7.35   1
  -4   5  -7   73.79    5.50   1
  -4   5  -6   23.23    4.24   1
  -4   5  -6   20.52    3.62   1
  -4   5  -6   16.16    4.66   1
  -4   5  -6   13.62    5.02   1
  -4   5  -5    6.76    2.81   1
  -4   5  -5    5.90    1.60   1
  -4   5  -5    4.75    2.70   1
  -4   5  -5    6.35    3.98   1
  -4   5  -5    9.18    3.82   1
  -4   5  -4   17.06    2.89   1
  -4   5  -4   18.58    2.84   1
  -4   5  -4   14.82    3.77   1
  -4   5  -4    9.49    3.76   1
  -4   5  -3  101.00    5.03   1
  -4   5  -3   99.60    6.59   1
  -4   5  -3  104.45    7.97   1
  -4   5  -3   96.43    7.86   1
  -4   5  -2   -2.92    3.15   1
  -4   5  -2    2.86    2.50   1
  -4   5  -2   -2.79    3.37   1
  -4   5  -1   14.59    3.74   1
  -4   5  -1   14.59    4.35   1
  -4   5   0    8.53    4.38   1
  -4   5   0   14.67    3.91   1
  -4   5   1   -1.85    4.62   1
  -4   5   1    7.78    3.79   1
  -4   5   2   27.35    6.28   1
  -4   5   2   21.72    5.03   1
  -4   5   3   83.17    8.39   1
  -4   5   3   92.54    8.85   1
  -4   5   3   86.49    8.74   1
  -4   5   4   -3.57    5.37   1
  -4   5   4    5.43    4.57   1
  -4   5   4   -2.46    5.02   1
  -4   5   5   31.25    5.59   1
  -4   5   5   27.67    7.57   1
  -4   5   5   27.88    5.91   1
  -4   5   6    3.10    6.02   1
  -4   5   6    6.86    4.45   1
  -4   5   7    3.53    6.99   1
  -4   5   7    4.28    4.26   1
  -4   5   8   20.52    8.43   1
  -4   5   8   26.01    5.41   1
  -4   5   9    0.55    6.99   1
  -4   5   9    8.47    4.77   1
  -4   6 -11    6.40    8.55   1
  -4   6 -11    6.97    8.24   1
  -4   6 -10    7.34    7.05   1
  -4   6 -10   -1.90    7.09   1
  -4   6  -9  106.71   11.16   1
  -4   6  -9  105.47   10.48   1
  -4   6  -9   83.91   10.44   1
  -4   6  -8   -6.20    4.78   1
  -4   6  -8    0.18    5.49   1
  -4   6  -8    3.84    5.21   1
  -4   6  -7   -5.20    4.65   1
  -4   6  -7    4.20    4.22   1
  -4   6  -7    9.30    5.49   1
  -4   6  -6   28.41    3.94   1
  -4   6  -6   46.51    5.46   1
  -4   6  -6   36.72    6.67   1
  -4   6  -6   34.69    6.36   1
  -4   6  -5    9.42    3.13   1
  -4   6  -5    1.72    3.83   1
  -4   6  -5    7.40    2.99   1
  -4   6  -5    7.13    4.49   1
  -4   6  -4    1.37    3.11   1
  -4   6  -4   -4.28    4.10   1
  -4   6  -4   -0.79    4.24   1
  -4   6  -4   -3.76    2.21   1
  -4   6  -4   -1.74    2.11   1
  -4   6  -3    3.76    3.88   1
  -4   6  -3    3.50    2.47   1
  -4   6  -3    6.71    3.47   1
  -4   6  -2   -2.25    3.72   1
  -4   6  -2    7.51    4.16   1
  -4   6  -2    3.28    3.00   1
  -4   6  -1   15.52    4.57   1
  -4   6  -1    3.24    3.28   1
  -4   6   0    7.56    3.80   1
  -4   6   0   -1.88    4.06   1
  -4   6   1  196.28   13.45   1
  -4   6   1  198.53   12.68   1
  -4   6   2   11.70    5.27   1
  -4   6   2   26.73    6.00   1
  -4   6   3    3.72    5.40   1
  -4   6   3   -3.80    4.91   1
  -4   6   4   21.07    6.70   1
  -4   6   4   31.25    6.71   1
  -4   6   5    6.76    5.15   1
  -4   6   5    3.03    6.02   1
  -4   6   6   -1.17    4.34   1
  -4   6   6    3.88    6.58   1
  -4   6   7   -0.56    7.15   1
  -4   6   7   -0.44    4.94   1
  -4   6   8   10.89    8.51   1
  -4   6   9   10.63    4.96   1
  -4   6   9    3.13   10.87   1
  -4   7  -9    9.36    7.47   1
  -4   7  -9    5.95    6.69   1
  -4   7  -9   11.16    7.01   1
  -4   7  -8    5.52    6.44   1
  -4   7  -8   -3.13    5.10   1
  -4   7  -8    1.54    6.22   1
  -4   7  -7   23.04    6.62   1
  -4   7  -7    8.88    4.53   1
  -4   7  -7   14.59    6.04   1
  -4   7  -6    1.30    3.69   1
  -4   7  -6    5.24    5.36   1
  -4   7  -5    9.73    2.37   1
  -4   7  -5   10.96    5.43   1
  -4   7  -5   21.44    5.56   1
  -4   7  -4    3.53    2.78   1
  -4   7  -4    4.04    4.94   1
  -4   7  -4   -3.17    4.84   1
  -4   7  -3   84.46    6.62   1
  -4   7  -3   71.23    8.10   1
  -4   7  -2    6.40    4.86   1
  -4   7  -2    1.21    3.19   1
  -4   7  -1    4.12    3.98   1
  -4   7   0    3.65    4.20   1
  -4   7   1   45.02    6.98   1
  -4   7   2   21.16    5.43   1
  -4   7   3   24.50    6.53   1
  -4   7   4   36.36    7.48   1
  -4   7   5   12.11    5.78   1
  -4   7   5   14.59    7.41   1
  -4   7   6   13.69    6.29   1
  -4   7   6   -1.72    7.18   1
  -4   7   7  114.70   13.71   1
  -4   7   7  117.72   10.42   1
  -4   7   8   24.60    6.45   1
  -4   8  -8   13.25    7.79   1
  -4   8  -8    3.65    6.76   1
  -4   8  -8    5.57    8.50   1
  -4   8  -7   32.38    8.31   1
  -4   8  -7   21.62    8.09   1
  -4   8  -6    4.24    6.22   1
  -4   8  -6    4.08    6.79   1
  -4   8  -5   31.02    7.69   1
  -4   8  -5   24.60    3.47   1
  -4   8  -5   37.45    7.22   1
  -4   8  -4   -9.99    6.51   1
  -4   8  -4   14.06    6.07   1
  -4   8  -4    2.56    2.85   1
  -4   8  -3   25.20    4.72   1
  -4   8  -3   30.69    6.32   1
  -4   8  -3   19.45    6.97   1
  -4   8  -2   40.96    6.02   1
  -4   8  -2   54.76    8.29   1
  -4   8  -1   14.67    5.21   1
  -4   8   0   29.92    6.45   1
  -4   8   1    2.13    5.02   1
  -4   8   2   -2.07    5.70   1
  -4   8   3   45.83    8.67   1
  -4   8   4  -11.16    7.41   1
  -4   8   5   12.04    7.22   1
  -4   8   5   -1.99    7.81   1
  -4   8   6   -2.56    8.61   1
  -4   8   6   11.56    6.73   1
  -4   8   7   56.40   13.82   1
  -4   8   7   70.90    9.43   1
  -4   9  -6   64.48    9.96   1
  -4   9  -6   58.22   10.53   1
  -4   9  -5   18.32    7.53   1
  -4   9  -5   25.10    9.22   1
  -4   9  -4    8.24    6.49   1
  -4   9  -4    3.20    3.65   1
  -4   9  -4    5.57    7.65   1
  -4   9  -3    0.10    5.57   1
  -4   9  -3   -0.72    7.33   1
  -4   9  -3    3.96    4.18   1
  -4   9  -2   92.93    8.87   1
  -4   9  -2   88.17   11.27   1
  -4   9  -1   25.40    6.25   1
  -4   9   0    3.35    5.71   1
  -4   9   1   15.68    6.81   1
  -4   9   2   -1.08    6.80   1
  -4   9   3   -3.31    7.10   1
  -4   9   4   10.56    8.84   1
  -4   9   5   12.25    8.33   1
  -4   9   5   -0.41    8.04   1
  -4  10  -3   -5.95    9.76   1
  -4  10  -3    0.01    7.14   1
  -4  10  -2    7.13    5.55   1
  -4  10  -2   -2.96    9.53   1
  -4  10  -2   21.44    7.69   1
  -4  10  -1   -0.49    6.45   1
  -4  10   0    3.06    6.72   1
  -4  10   1   -6.00    7.79   1
  -4  10   2   11.09    8.32   1
  -3 -11  -4   18.32    9.24   1
  -3 -11  -3    2.69    9.64   1
  -3 -11  -3   -4.16    8.20   1
  -3 -11  -2  118.81   12.21   1
  -3 -11  -2  109.62   13.40   1
  -3 -11  -1   10.37    7.73   1
  -3 -11  -1    4.93    8.75   1
  -3 -10  -8  -17.72    9.09   1
  -3 -10  -7    9.92    7.81   1
  -3 -10  -7   19.45   10.14   1
  -3 -10  -6   70.39   10.24   1
  -3 -10  -6   82.45   12.35   1
  -3 -10  -5    1.42    7.90   1
  -3 -10  -5    5.02    6.90   1
  -3 -10  -4  -10.18    7.27   1
  -3 -10  -4   -8.88    7.45   1
  -3 -10  -3   41.22    8.47   1
  -3 -10  -3    8.64    7.11   1
  -3 -10  -3   29.16    8.21   1
  -3 -10  -2   -0.94    6.81   1
  -3 -10  -2    7.73    6.17   1
  -3 -10  -2    5.15    6.58   1
  -3 -10  -1   -7.24    7.10   1
  -3 -10  -1   -3.13    6.69   1
  -3 -10  -1   -4.84    7.00   1
  -3 -10   0   -7.13    7.80   1
  -3 -10   0   11.70    7.46   1
  -3 -10   0    4.54    5.28   1
  -3 -10   1   12.74    7.93   1
  -3 -10   1   20.34    5.41   1
  -3 -10   1   13.40    7.91   1
  -3 -10   2   -5.57    7.08   1
  -3 -10   2    2.53    4.32   1
  -3 -10   2    5.02    8.15   1
  -3 -10   3    5.62    7.92   1
  -3  -9 -10   -1.85    7.32   1
  -3  -9 -10   11.09    8.32   1
  -3  -9  -9   -5.52    9.68   1
  -3  -9  -9  -10.37    7.47   1
  -3  -9  -9   -6.71    7.56   1
  -3  -9  -8    6.76    8.53   1
  -3  -9  -8    0.62    6.37   1
  -3  -9  -7   14.06    6.38   1
  -3  -9  -7    5.43    5.73   1
  -3  -9  -6   -6.86    5.87   1
  -3  -9  -6   -3.53    6.96   1
  -3  -9  -5   36.48    7.49   1
  -3  -9  -5   48.30    8.76   1
  -3  -9  -4    4.28    6.17   1
  -3  -9  -4   -3.46    5.58   1
  -3  -9  -3   14.36    5.99   1
  -3  -9  -3    1.93    5.56   1
  -3  -9  -2   11.97    6.09   1
  -3  -9  -2   -6.66    5.73   1
  -3  -9  -2    6.35    5.90   1
  -3  -9  -1   18.92    7.05   1
  -3  -9   0   31.25    7.04   1
  -3  -9   0   52.85    8.14   1
  -3  -9   0   56.25    7.05   1
  -3  -9   0   44.36    8.13   1
  -3  -9   1    0.31    3.77   1
  -3  -9   1    9.67    6.97   1
  -3  -9   1    6.71    5.54   1
  -3  -9   2   42.64    7.57   1
  -3  -9   2   57.91    6.09   1
  -3  -9   2   54.61    9.31   1
  -3  -9   3   65.29    6.14   1
  -3  -9   3   55.06    8.76   1
  -3  -9   3   53.58    9.81   1
  -3  -9   4    0.77    6.16   1
  -3  -9   4    3.57    7.41   1
  -3  -9   5   -0.96    6.90   1
  -3  -8 -11   31.25    9.50   1
  -3  -8 -11   11.83    7.50   1
  -3  -8 -11   31.81   11.05   1
  -3  -8 -10    2.25    8.49   1
  -3  -8 -10   -4.24    5.81   1
  -3  -8 -10    7.62    7.18   1
  -3  -8  -9   61.78   10.53   1
  -3  -8  -9   77.62   10.22   1
  -3  -8  -8   -3.88    5.79   1
  -3  -8  -8   -0.74    6.74   1
  -3  -8  -7    8.94    5.38   1
  -3  -8  -7    8.18    6.18   1
  -3  -8  -6    5.90    4.47   1
  -3  -8  -6   -4.12    5.20   1
  -3  -8  -5  133.86   11.57   1
  -3  -8  -5  105.06    9.64   1
  -3  -8  -4  205.06   14.32   1
  -3  -8  -4  201.92   13.07   1
  -3  -8  -3   -2.43    4.06   1
  -3  -8  -3    2.86    4.70   1
  -3  -8  -2    1.37    3.88   1
  -3  -8  -2   -1.51    5.09   1
  -3  -8  -1   17.31    5.99   1
  -3  -8  -1   16.16    5.63   1
  -3  -8   0    7.45    5.30   1
  -3  -8   0   10.18    5.68   1
  -3  -8   0    2.62    4.99   1
  -3  -8   1  162.31    9.94   1
  -3  -8   1  143.04   11.24   1
  -3  -8   1  155.00   12.45   1
  -3  -8   2    8.35    6.47   1
  -3  -8   2    2.92    4.28   1
  -3  -8   2   16.73    4.09   1
  -3  -8   3   12.39    3.52   1
  -3  -8   3   11.83    4.95   1
  -3  -8   3   13.99    7.03   1
  -3  -8   4    4.45    4.85   1
  -3  -8   4    5.20    3.24   1
  -3  -8   4    6.40    7.03   1
  -3  -8   5    0.29    7.18   1
  -3  -8   5    3.96    5.37   1
  -3  -8   6    3.84    5.96   1
  -3  -8   7   -3.61    6.69   1
  -3  -7 -12   -1.17    8.10   1
  -3  -7 -12    4.08    7.27   1
  -3  -7 -11    3.10    7.60   1
  -3  -7 -11    9.55    7.17   1
  -3  -7 -11   -0.38    5.93   1
  -3  -7 -10    3.88    5.20   1
  -3  -7 -10   -2.02    6.48   1
  -3  -7 -10    1.64    5.53   1
  -3  -7  -9   25.30    6.34   1
  -3  -7  -9   24.50    6.04   1
  -3  -7  -9   34.22    7.60   1
  -3  -7  -8    5.66    4.66   1
  -3  -7  -8   -4.37    5.48   1
  -3  -7  -7   -2.89    5.20   1
  -3  -7  -7   -1.28    3.80   1
  -3  -7  -6   17.81    4.73   1
  -3  -7  -6   20.34    6.22   1
  -3  -7  -5    2.53    4.90   1
  -3  -7  -5    7.56    4.12   1
  -3  -7  -4    2.86    4.83   1
  -3  -7  -4    4.88    3.71   1
  -3  -7  -3  151.78   10.10   1
  -3  -7  -3  165.38   11.83   1
  -3  -7  -2    1.69    3.41   1
  -3  -7  -2    0.02    3.11   1
  -3  -7  -1   93.51    8.12   1
  -3  -7  -1  103.43    9.36   1
  -3  -7  -1   94.48    8.94   1
  -3  -7   0   60.22    7.76   1
  -3  -7   0   66.59    7.51   1
  -3  -7   0   69.72    7.85   1
  -3  -7   1   61.94    7.87   1
  -3  -7   1   61.94    5.98   1
  -3  -7   1   62.41    7.27   1
  -3  -7   2   -2.82    5.38   1
  -3  -7   2   -6.40    4.45   1
  -3  -7   2    4.84    3.21   1
  -3  -7   3    1.46    2.73   1
  -3  -7   3    1.28    4.29   1
  -3  -7   3   -1.28    5.29   1
  -3  -7   4   35.64    4.30   1
  -3  -7   4   30.69    3.32   1
  -3  -7   4   45.83    6.77   1
  -3  -7   4   38.44    7.81   1
  -3  -7   5   14.21    6.94   1
  -3  -7   5    5.57    5.14   1
  -3  -7   5   -0.48    2.73   1
  -3  -7   5   -0.20    2.59   1
  -3  -7   6   -5.02    5.06   1
  -3  -7   6    5.11    3.80   1
  -3  -7   6    1.90    7.42   1
  -3  -7   7   76.91    8.95   1
  -3  -7   7   61.47    6.74   1
  -3  -7   7   70.73   11.77   1
  -3  -7   8   -0.22    6.19   1
  -3  -7   8   -0.11    4.82   1
  -3  -6 -13   39.44   11.05   1
  -3  -6 -13   11.22    8.58   1
  -3  -6 -12    1.25    7.88   1
  -3  -6 -12    6.25    6.60   1
  -3  -6 -11    7.02    5.88   1
  -3  -6 -11    4.28    6.38   1
  -3  -6 -11   -3.80    6.32   1
  -3  -6 -10   55.06    8.90   1
  -3  -6 -10   54.91    8.89   1
  -3  -6 -10   69.22    8.15   1
  -3  -6  -9   -0.14    4.23   1
  -3  -6  -9  -14.67    6.28   1
  -3  -6  -9   -1.77    5.40   1
  -3  -6  -8   43.30    7.63   1
  -3  -6  -8   64.16    6.89   1
  -3  -6  -7  215.80   14.10   1
  -3  -6  -7  209.38   12.15   1
  -3  -6  -6    3.61    3.19   1
  -3  -6  -6   -1.37    4.47   1
  -3  -6  -5    7.24    3.28   1
  -3  -6  -4    8.29    4.44   1
  -3  -6  -4   -0.25    2.80   1
  -3  -6  -4   -0.64    2.64   1
  -3  -6  -3    7.34    4.82   1
  -3  -6  -3    7.02    4.08   1
  -3  -6  -3    3.69    2.80   1
  -3  -6  -2   45.43    6.74   1
  -3  -6  -2   36.72    4.85   1
  -3  -6  -2   36.00    5.64   1
  -3  -6  -1   53.00    6.99   1
  -3  -6  -1   54.02    6.47   1
  -3  -6  -1   59.29    6.01   1
  -3  -6   0  250.91   12.99   1
  -3  -6   0  271.59   16.48   1
  -3  -6   0  248.69   13.88   1
  -3  -6   0  265.04   14.33   1
  -3  -6   1  135.72   11.88   1
  -3  -6   1  122.77    9.75   1
  -3  -6   1  131.10    9.62   1
  -3  -6   1  127.69    8.36   1
  -3  -6   2    0.79    2.58   1
  -3  -6   2   -2.37    4.62   1
  -3  -6   2    4.41    3.99   1
  -3  -6   3  116.64    6.05   1
  -3  -6   3  127.01    9.47   1
  -3  -6   3  112.15    7.41   1
  -3  -6   3  120.12   10.30   1
  -3  -6   4   67.57    8.55   1
  -3  -6   4   71.23    5.23   1
  -3  -6   4   84.27    6.24   1
  -3  -6   4   76.74    7.53   1
  -3  -6   5   43.69    4.76   1
  -3  -6   5   24.80    5.58   1
  -3  -6   5   38.07    7.53   1
  -3  -6   5   38.94    4.49   1
  -3  -6   6    2.53    3.53   1
  -3  -6   6    6.35    6.55   1
  -3  -6   6    9.61    2.98   1
  -3  -6   6    5.11    4.70   1
  -3  -6   7    8.64    4.35   1
  -3  -6   7   10.30    5.33   1
  -3  -6   8    1.23    5.08   1
  -3  -6   8   -2.25    4.77   1
  -3  -6   8   10.76    9.77   1
  -3  -6   9    4.08    6.22   1
  -3  -6   9   -2.56    6.27   1
  -3  -5 -13   -7.02    8.69   1
  -3  -5 -13   -4.54    4.94   1
  -3  -5 -12   35.76    9.09   1
  -3  -5 -11   29.16    6.91   1
  -3  -5 -11   34.57    7.53   1
  -3  -5 -11   24.21    6.10   1
  -3  -5 -10    4.41    5.71   1
  -3  -5 -10   -1.93    4.48   1
  -3  -5 -10    5.71    5.40   1
  -3  -5  -9   14.75    5.53   1
  -3  -5  -9   20.98    6.05   1
  -3  -5  -9   19.01    4.80   1
  -3  -5  -8    8.88    5.13   1
  -3  -5  -8   21.72    4.29   1
  -3  -5  -7   29.48    4.67   1
  -3  -5  -7   34.81    4.60   1
  -3  -5  -7   34.46    5.87   1
  -3  -5  -6   44.22    5.32   1
  -3  -5  -6   43.03    4.99   1
  -3  -5  -6   43.03    6.30   1
  -3  -5  -5    0.50    2.31   1
  -3  -5  -5    1.17    3.37   1
  -3  -5  -5    2.34    3.67   1
  -3  -5  -4  208.51   12.13   1
  -3  -5  -4  192.93   11.67   1
  -3  -5  -4  203.63   10.56   1
  -3  -5  -3    7.67    2.66   1
  -3  -5  -3    8.41    3.71   1
  -3  -5  -3    7.40    4.19   1
  -3  -5  -2   36.36    4.22   1
  -3  -5  -2   31.58    5.06   1
  -3  -5  -2   35.40    6.07   1
  -3  -5  -1  282.24   15.79   1
  -3  -5  -1  270.93   13.83   1
  -3  -5  -1  260.18   12.58   1
  -3  -5   0    2.43    3.31   1
  -3  -5   0   -4.16    4.45   1
  -3  -5   0   14.98    4.72   1
  -3  -5   0   -3.10    2.85   1
  -3  -5   1   19.62    4.87   1
  -3  -5   1   29.59    6.53   1
  -3  -5   1   18.23    4.27   1
  -3  -5   1   19.45    3.70   1
  -3  -5   2   13.84    4.09   1
  -3  -5   2   10.82    4.01   1
  -3  -5   2   10.89    3.10   1
  -3  -5   2   20.70    5.91   1
  -3  -5   3   32.60    4.11   1
  -3  -5   3   22.66    4.57   1
  -3  -5   3   25.60    5.77   1
  -3  -5   3   25.60    6.48   1
  -3  -5   4   86.68    6.52   1
  -3  -5   4   77.62    9.16   1
  -3  -5   4   87.61    7.86   1
  -3  -5   4   71.40    8.28   1
  -3  -5   5   -0.56    4.76   1
  -3  -5   5    5.20    3.97   1
  -3  -5   5   -1.49    2.95   1
  -3  -5   6   45.97    5.02   1
  -3  -5   6   39.31    5.39   1
  -3  -5   6   52.85    8.43   1
  -3  -5   6   51.55    6.61   1
  -3  -5   7    3.96    3.18   1
  -3  -5   7   -5.52    4.14   1
  -3  -5   7    8.58    4.69   1
  -3  -5   7    2.37    6.34   1
  -3  -5   8    5.29    4.78   1
  -3  -5   8   19.71    7.90   1
  -3  -5   8   13.69    5.25   1
  -3  -5   9   31.25    6.82   1
  -3  -5   9   39.44    7.03   1
  -3  -5  10   13.84    5.65   1
  -3  -5  10    3.10    7.39   1
  -3  -5  10    9.86    6.78   1
  -3  -4 -14   -0.64    9.14   1
  -3  -4 -14   -2.66    9.06   1
  -3  -4 -13  142.32   14.08   1
  -3  -4 -13  120.34    9.65   1
  -3  -4 -12    3.39    7.10   1
  -3  -4 -12   -1.77    4.04   1
  -3  -4 -11   -1.30    4.67   1
  -3  -4 -11    9.00    6.42   1
  -3  -4 -10  105.88    9.88   1
  -3  -4 -10  102.21    9.50   1
  -3  -4  -9    2.25    4.29   1
  -3  -4  -9    1.19    4.47   1
  -3  -4  -8    4.04    3.90   1
  -3  -4  -8    5.95    4.44   1
  -3  -4  -8   -0.92    2.21   1
  -3  -4  -8   -2.89    2.99   1
  -3  -4  -7  456.68   17.95   1
  -3  -4  -7  425.60   19.39   1
  -3  -4  -7  433.89   17.50   1
  -3  -4  -6  106.71    7.23   1
  -3  -4  -6   91.97    7.67   1
  -3  -4  -6   91.20    6.30   1
  -3  -4  -5   80.28    6.63   1
  -3  -4  -5   69.22    6.49   1
  -3  -4  -5   67.57    5.26   1
  -3  -4  -4    3.50    2.51   1
  -3  -4  -4   12.53    3.89   1
  -3  -4  -4    2.50    1.90   1
  -3  -4  -3  289.34   10.89   1
  -3  -4  -3  324.72   14.78   1
  -3  -4  -3  304.50   12.56   1
  -3  -4  -3  299.64   15.23   1
  -3  -4  -2    1.17    1.77   1
  -3  -4  -2    0.19    1.12   1
  -3  -4  -2   -4.20    3.07   1
  -3  -4  -2    3.20    3.83   1
  -3  -4  -1   76.21    5.41   1
  -3  -4  -1   76.56    6.47   1
  -3  -4  -1   72.76    7.34   1
  -3  -4   0  256.96   12.18   1
  -3  -4   0  250.59   14.25   1
  -3  -4   0  246.49   12.56   1
  -3  -4   1   16.97    4.45   1
  -3  -4   1    8.76    3.37   1
  -3  -4   1   16.73    3.44   1
  -3  -4   1   11.63    4.57   1
  -3  -4   2    0.77    2.39   1
  -3  -4   2   -2.22    2.92   1
  -3  -4   2   -2.86    3.92   1
  -3  -4   2    1.04    3.47   1
  -3  -4   3   -2.46    2.83   1
  -3  -4   3    0.12    5.02   1
  -3  -4   4  272.58   14.53   1
  -3  -4   4  242.11   11.83   1
  -3  -4   4  230.13   14.56   1
  -3  -4   5   -2.79    4.88   1
  -3  -4   5   12.04    3.61   1
  -3  -4   5   11.16    4.74   1
  -3  -4   6   96.83    9.84   1
  -3  -4   6  114.92    7.72   1
  -3  -4   7   14.75    4.30   1
  -3  -4   7   12.96    6.48   1
  -3  -4   8    5.29    6.49   1
  -3  -4   8   20.79    4.38   1
  -3  -4   9    6.35    5.59   1
  -3  -4   9   -4.58    7.70   1
  -3  -4  10   90.82    7.24   1
  -3  -4  10   65.93    9.42   1
  -3  -3 -14   21.53   10.30   1
  -3  -3 -14    5.81    8.24   1
  -3  -3 -13    2.50    4.23   1
  -3  -3 -13    6.60    7.92   1
  -3  -3 -12   17.31    7.57   1
  -3  -3 -12   -1.37    4.19   1
  -3  -3 -11   19.27    4.57   1
  -3  -3 -11   23.72    7.01   1
  -3  -3 -10   47.20    7.42   1
  -3  -3 -10   49.42    6.61   1
  -3  -3  -9    2.96    4.40   1
  -3  -3  -9    0.94    1.47   1
  -3  -3  -9   -4.28    3.48   1
  -3  -3  -8  161.54   10.93   1
  -3  -3  -8  123.43    9.11   1
  -3  -3  -8  152.03    7.40   1
  -3  -3  -7  148.60    9.26   1
  -3  -3  -7  147.62    8.02   1
  -3  -3  -7  134.56    9.74   1
  -3  -3  -6    8.64    2.35   1
  -3  -3  -6    5.76    2.40   1
  -3  -3  -6   -1.96    2.88   1
  -3  -3  -5  172.66    9.46   1
  -3  -3  -5  175.30    8.21   1
  -3  -3  -5  180.90    9.95   1
  -3  -3  -4   19.36    2.64   1
  -3  -3  -4   23.62    3.79   1
  -3  -3  -4   18.49    3.61   1
  -3  -3  -4   15.92    2.39   1
  -3  -3  -3   40.07    3.16   1
  -3  -3  -3   39.94    3.16   1
  -3  -3  -3   35.88    4.07   1
  -3  -3  -3   41.60    4.90   1
  -3  -3  -2    4.16    3.22   1
  -3  -3  -2    4.88    2.87   1
  -3  -3  -1   21.62    4.56   1
  -3  -3  -1   23.81    3.90   1
  -3  -3  -1   16.08    3.53   1
  -3  -3   0  402.40   16.85   1
  -3  -3   0  423.95   18.53   1
  -3  -3   0  414.53   17.10   1
  -3  -3   1  181.98   11.33   1
  -3  -3   1  174.77    9.52   1
  -3  -3   1  165.38   10.03   1
  -3  -3   2    6.40    2.83   1
  -3  -3   2   12.11    4.04   1
  -3  -3   2    9.86    3.01   1
  -3  -3   3  381.03   17.18   1
  -3  -3   3  360.62   18.23   1
  -3  -3   3  378.30   15.95   1
  -3  -3   4   19.89    3.84   1
  -3  -3   4   20.07    5.56   1
  -3  -3   4   19.36    4.84   1
  -3  -3   5   28.20    5.73   1
  -3  -3   5   39.82    5.93   1
  -3  -3   5   28.62    4.28   1
  -3  -3   6   76.91    8.42   1
  -3  -3   6   72.42    7.83   1
  -3  -3   6   91.01    7.06   1
  -3  -3   7    5.76    5.33   1
  -3  -3   7   -8.58    5.04   1
  -3  -3   7   -0.03    3.72   1
  -3  -3   8  109.41    8.37   1
  -3  -3   8   97.02   10.44   1
  -3  -3   9    5.52    6.72   1
  -3  -3  10   45.29   10.10   1
  -3  -3  10   63.20    5.09   1
  -3  -3  11   -8.29    8.12   1
  -3  -2 -14   17.64    8.23   1
  -3  -2 -14    9.42    9.27   1
  -3  -2 -13    8.12    5.87   1
  -3  -2 -12    1.99    6.03   1
  -3  -2 -12   -1.77    3.59   1
  -3  -2 -11    4.67    3.84   1
  -3  -2 -11    6.50    5.81   1
  -3  -2 -10    1.28    3.37   1
  -3  -2 -10    4.33    3.95   1
  -3  -2 -10   -1.54    3.10   1
  -3  -2  -9  144.24    9.37   1
  -3  -2  -9  151.78   11.09   1
  -3  -2  -9  151.29    7.13   1
  -3  -2  -9  139.48    9.45   1
  -3  -2  -8   22.56    4.47   1
  -3  -2  -8   26.94    4.15   1
  -3  -2  -8   27.77    3.16   1
  -3  -2  -7   26.52    4.12   1
  -3  -2  -7   26.21    3.89   1
  -3  -2  -7   23.52    3.30   1
  -3  -2  -6   20.70    3.09   1
  -3  -2  -6   24.30    3.55   1
  -3  -2  -5  305.20   13.28   1
  -3  -2  -5  289.00   12.92   1
  -3  -2  -5  292.07   12.30   1
  -3  -2  -4   11.02    2.52   1
  -3  -2  -4   15.05    1.71   1
  -3  -2  -4   11.97    2.91   1
  -3  -2  -4    9.18    2.79   1
  -3  -2  -3    1.32    2.71   1
  -3  -2  -3    2.34    2.39   1
  -3  -2  -3    1.64    0.90   1
  -3  -2  -3   -0.21    1.76   1
  -3  -2  -2   92.74    6.36   1
  -3  -2  -2   85.56    6.29   1
  -3  -2  -2   85.75    4.07   1
  -3  -2  -2   78.68    6.21   1
  -3  -2  -1  317.20   13.18   1
  -3  -2  -1  311.88   14.13   1
  -3  -2  -1  286.96   13.21   1
  -3  -2   0    3.84    2.70   1
  -3  -2   0   -3.03    3.24   1
  -3  -2   1  124.77    7.60   1
  -3  -2   1  134.56    8.12   1
  -3  -2   1  126.56    8.32   1
  -3  -2   2  107.12    7.45   1
  -3  -2   2  124.32    8.47   1
  -3  -2   2  121.22    7.93   1
  -3  -2   3  129.05    8.41   1
  -3  -2   3  126.34    7.87   1
  -3  -2   3  125.89    8.98   1
  -3  -2   4   48.58    6.13   1
  -3  -2   4   39.56    4.91   1
  -3  -2   4   39.94    5.44   1
  -3  -2   5    0.36    3.08   1
  -3  -2   5    6.25    4.25   1
  -3  -2   5    1.74    3.25   1
  -3  -2   6    3.17    4.06   1
  -3  -2   6    4.54    4.26   1
  -3  -2   6    1.21    3.50   1
  -3  -2   7   44.09    6.24   1
  -3  -2   7   30.69    5.21   1
  -3  -2   7   45.16    7.12   1
  -3  -2   8   -0.67    5.03   1
  -3  -2   8    0.90    4.03   1
  -3  -2   8   -1.69    4.24   1
  -3  -2   9   -0.14    6.29   1
  -3  -2  10    8.12    7.41   1
  -3  -1 -14   -3.61    9.12   1
  -3  -1 -14    7.08    6.86   1
  -3  -1 -13   49.42    8.72   1
  -3  -1 -12   63.68   10.05   1
  -3  -1 -12   78.32    7.43   1
  -3  -1 -11   -2.13    5.52   1
  -3  -1 -11    1.61    3.40   1
  -3  -1 -10  252.49   13.35   1
  -3  -1 -10  246.49   15.39   1
  -3  -1 -10  246.80   10.68   1
  -3  -1  -9  116.21    7.76   1
  -3  -1  -9  104.24    8.37   1
  -3  -1  -9  129.28    7.05   1
  -3  -1  -9  124.32   10.26   1
  -3  -1  -8   19.10    4.11   1
  -3  -1  -8   15.68    2.77   1
  -3  -1  -8   16.24    3.30   1
  -3  -1  -8   14.14    4.29   1
  -3  -1  -7   59.75    4.95   1
  -3  -1  -7   55.35    4.61   1
  -3  -1  -7   62.57    6.01   1
  -3  -1  -7   60.06    6.36   1
  -3  -1  -6  155.75    8.24   1
  -3  -1  -6  147.62    8.99   1
  -3  -1  -6  167.44    9.06   1
  -3  -1  -6  159.77    8.34   1
  -3  -1  -5  145.93    7.97   1
  -3  -1  -5  121.88    7.51   1
  -3  -1  -5  131.79    7.35   1
  -3  -1  -4   24.50    3.27   1
  -3  -1  -4   24.60    3.27   1
  -3  -1  -4   23.14    3.17   1
  -3  -1  -3   59.44    4.32   1
  -3  -1  -3   54.46    4.58   1
  -3  -1  -3   63.68    5.11   1
  -3  -1  -3   58.37    4.89   1
  -3  -1  -2   -3.03    2.26   1
  -3  -1  -2   -2.56    1.89   1
  -3  -1  -1   64.00    5.60   1
  -3  -1  -1   66.91    5.56   1
  -3  -1   0   84.64    6.62   1
  -3  -1   0   80.28    6.09   1
  -3  -1   1   -1.21    2.44   1
  -3  -1   1    2.16    2.65   1
  -3  -1   1    0.74    2.91   1
  -3  -1   2  119.68    7.66   1
  -3  -1   2  133.40    8.55   1
  -3  -1   2  122.32    7.96   1
  -3  -1   3   42.25    4.68   1
  -3  -1   3   38.81    4.73   1
  -3  -1   3   38.56    4.72   1
  -3  -1   4   38.56    4.84   1
  -3  -1   4   35.28    4.99   1
  -3  -1   4   30.80    4.88   1
  -3  -1   5   82.63    7.27   1
  -3  -1   5   93.70    7.55   1
  -3  -1   5   93.51    7.54   1
  -3  -1   6    1.88    3.37   1
  -3  -1   6    2.04    3.43   1
  -3  -1   6    9.30    3.90   1
  -3  -1   7  462.68   21.08   1
  -3  -1   7  473.93   21.33   1
  -3  -1   7  489.74   22.13   1
  -3  -1   8  209.96   12.75   1
  -3  -1   8  187.69   13.15   1
  -3  -1   8  185.23   11.43   1
  -3  -1   9   18.84    6.60   1
  -3  -1  10   29.27    7.90   1
  -3  -1  11  -11.63    7.91   1
  -3   0 -14   99.20   10.36   1
  -3   0 -14   84.82   13.45   1
  -3   0 -13    6.20    5.13   1
  -3   0 -13   -0.08    5.28   1
  -3   0 -12    0.36    2.23   1
  -3   0 -12    3.72    6.52   1
  -3   0 -11    0.98    2.18   1
  -3   0 -11   10.50    5.70   1
  -3   0 -10  149.08    8.55   1
  -3   0 -10  159.52   10.10   1
  -3   0 -10  146.17   11.61   1
  -3   0  -9   30.47    4.86   1
  -3   0  -9   42.38    6.38   1
  -3   0  -9   31.58    3.93   1
  -3   0  -8   61.62    6.28   1
  -3   0  -8   67.08    5.41   1
  -3   0  -8   62.57    4.59   1
  -3   0  -8   72.93    7.34   1
  -3   0  -7   22.37    2.84   1
  -3   0  -7   24.21    4.43   1
  -3   0  -7   25.00    4.30   1
  -3   0  -7   29.48    4.89   1
  -3   0  -7   21.90    3.46   1
  -3   0  -6    0.83    2.78   1
  -3   0  -6   -0.83    2.64   1
  -3   0  -6    1.21    2.88   1
  -3   0  -6    0.61    2.01   1
  -3   0  -6    1.69    1.59   1
  -3   0  -5   17.14    3.31   1
  -3   0  -5   24.01    4.12   1
  -3   0  -5   21.81    3.74   1
  -3   0  -5   22.37    2.55   1
  -3   0  -5   20.79    3.28   1
  -3   0  -4  254.08   10.52   1
  -3   0  -4  275.56   11.95   1
  -3   0  -4  263.09    9.41   1
  -3   0  -4  278.22   12.34   1
  -3   0  -4  261.47   12.29   1
  -3   0  -3    7.84    2.18   1
  -3   0  -3   11.56    2.79   1
  -3   0  -2   24.50    3.56   1
  -3   0  -2   26.94    3.32   1
  -3   0  -1  459.67   18.01   1
  -3   0  -1  449.44   18.66   1
  -3   0   0  404.81   16.50   1
  -3   0   0  429.32   17.40   1
  -3   0   1  444.79   16.45   1
  -3   0   1  449.02   18.22   1
  -3   0   1  463.97   18.52   1
  -3   0   2   39.56    3.90   1
  -3   0   2   40.83    4.86   1
  -3   0   2   47.20    5.08   1
  -3   0   3   17.14    3.23   1
  -3   0   3   25.10    3.51   1
  -3   0   3   15.44    3.85   1
  -3   0   4    3.35    2.82   1
  -3   0   4    1.74    3.51   1
  -3   0   4    3.65    3.13   1
  -3   0   5  158.00    9.55   1
  -3   0   5  140.90    9.97   1
  -3   0   5  145.20    9.16   1
  -3   0   6  121.00    8.80   1
  -3   0   6  113.85    9.18   1
  -3   0   6  123.43    8.44   1
  -3   0   7    0.86    3.01   1
  -3   0   7    0.77    3.89   1
  -3   0   7    4.45    3.84   1
  -3   0   8   35.28    4.99   1
  -3   0   8   25.10    5.81   1
  -3   0   8   34.93    6.26   1
  -3   0   9   20.98    4.31   1
  -3   0   9   -1.30    5.34   1
  -3   0  10   13.18    6.53   1
  -3   0  11   11.90    6.28   1
  -3   0  11   -8.88    7.93   1
  -3   0  12   -8.76    7.28   1
  -3   1 -14   36.48   11.60   1
  -3   1 -14   19.98    7.33   1
  -3   1 -13   -0.86    3.26   1
  -3   1 -13   -1.37    2.85   1
  -3   1 -13    8.29    5.36   1
  -3   1 -13   -2.28    8.49   1
  -3   1 -12    1.59    3.18   1
  -3   1 -12   -2.02    5.65   1
  -3   1 -12   -2.76    3.15   1
  -3   1 -11   29.70    4.69   1
  -3   1 -11   39.56    7.93   1
  -3   1 -10   25.20    6.02   1
  -3   1  -9   94.67    7.98   1
  -3   1  -9   78.32    8.14   1
  -3   1  -8  165.38   10.80   1
  -3   1  -8  153.26   10.15   1
  -3   1  -7   12.74    4.07   1
  -3   1  -7   19.18    4.29   1
  -3   1  -7    9.61    2.98   1
  -3   1  -7   16.56    1.95   1
  -3   1  -6  354.95   15.45   1
  -3   1  -6  351.94   15.38   1
  -3   1  -6  339.66   12.16   1
  -3   1  -6  323.64   13.67   1
  -3   1  -6  331.60   16.02   1
  -3   1  -6  334.89   14.64   1
  -3   1  -5  214.33   10.54   1
  -3   1  -5  214.33   10.25   1
  -3   1  -5  190.72    8.84   1
  -3   1  -5  202.78    7.97   1
  -3   1  -5  205.35   11.18   1
  -3   1  -5  192.10    9.70   1
  -3   1  -4   23.62    3.11   1
  -3   1  -4   21.62    2.23   1
  -3   1  -4   15.13    3.27   1
  -3   1  -4   18.66    3.89   1
  -3   1  -4   15.37    2.20   1
  -3   1  -4   19.01    2.96   1
  -3   1  -3    5.43    3.12   1
  -3   1  -3    4.45    1.81   1
  -3   1  -3    6.40    1.37   1
  -3   1  -3    4.41    2.31   1
  -3   1  -2    9.24    3.10   1
  -3   1  -2   11.83    3.30   1
  -3   1  -2   12.25    1.47   1
  -3   1  -1   -0.71    2.59   1
  -3   1  -1   -3.24    2.59   1
  -3   1  -1   -1.37    1.90   1
  -3   1   0   10.24    1.79   1
  -3   1   0    9.61    2.91   1
  -3   1   0   11.70    3.35   1
  -3   1   0   15.44    3.07   1
  -3   1   1  119.68    7.00   1
  -3   1   1  117.72    5.64   1
  -3   1   1  115.78    7.53   1
  -3   1   1  113.85    7.47   1
  -3   1   2  178.76   10.16   1
  -3   1   2  172.13    9.45   1
  -3   1   2  180.10    8.59   1
  -3   1   2  171.35    7.85   1
  -3   1   3   -0.88    1.88   1
  -3   1   3    0.69    3.60   1
  -3   1   3    0.90    2.57   1
  -3   1   3    0.71    1.92   1
  -3   1   4   48.86    5.03   1
  -3   1   4   51.27    6.16   1
  -3   1   4   47.20    3.43   1
  -3   1   4   39.06    4.25   1
  -3   1   5   24.90    2.20   1
  -3   1   5   20.34    4.96   1
  -3   1   5   28.20    4.14   1
  -3   1   5   33.52    4.52   1
  -3   1   6   41.22    4.75   1
  -3   1   6   43.82    5.16   1
  -3   1   6   52.85    6.11   1
  -3   1   7    0.50    2.75   1
  -3   1   7    0.76    4.25   1
  -3   1   7   -0.92    3.30   1
  -3   1   8   73.79    6.36   1
  -3   1   8   59.14    7.23   1
  -3   1   9   -0.56    4.30   1
  -3   1   9   12.82    3.51   1
  -3   1  11    5.52    5.40   1
  -3   1  11    1.85    6.99   1
  -3   1  12   58.68   10.88   1
  -3   2 -14   -0.18    9.04   1
  -3   2 -14   -4.45    9.41   1
  -3   2 -13   42.51   10.43   1
  -3   2 -13   43.96    5.97   1
  -3   2 -13   44.22    6.25   1
  -3   2 -13   32.72    5.72   1
  -3   2 -12   31.92    8.48   1
  -3   2 -12   17.47    4.85   1
  -3   2 -12   23.91    4.69   1
  -3   2 -11   28.52    7.48   1
  -3   2 -10    6.97    3.06   1
  -3   2 -10   12.32    5.76   1
  -3   2 -10   10.11    4.71   1
  -3   2  -9   -2.40    2.29   1
  -3   2  -9   -3.53    3.68   1
  -3   2  -9    6.15    3.42   1
  -3   2  -8   15.60    4.90   1
  -3   2  -8   11.29    2.96   1
  -3   2  -8   17.72    4.13   1
  -3   2  -8   16.65    4.73   1
  -3   2  -7  116.21    8.41   1
  -3   2  -7  102.41    6.68   1
  -3   2  -7   94.09    7.95   1
  -3   2  -7  109.62    7.54   1
  -3   2  -6    0.76    1.93   1
  -3   2  -6   -0.23    2.51   1
  -3   2  -6    2.56    2.21   1
  -3   2  -6    4.93    2.93   1
  -3   2  -6    5.06    3.56   1
  -3   2  -5   46.79    2.46   1
  -3   2  -5   46.10    4.62   1
  -3   2  -5   44.36    4.13   1
  -3   2  -5   44.89    4.15   1
  -3   2  -5   39.19    5.38   1
  -3   2  -5   52.42    4.92   1
  -3   2  -4    1.30    1.89   1
  -3   2  -4    0.92    1.57   1
  -3   2  -4   -2.76    3.19   1
  -3   2  -4    2.69    2.85   1
  -3   2  -4    2.34    1.87   1
  -3   2  -3   17.06    2.31   1
  -3   2  -3   18.06    3.91   1
  -3   2  -3   13.76    2.15   1
  -3   2  -3    9.00    2.40   1
  -3   2  -2  400.00   17.20   1
  -3   2  -2  388.48   13.40   1
  -3   2  -2  378.69   15.96   1
  -3   2  -2  390.85   14.23   1
  -3   2  -1   50.27    5.10   1
  -3   2  -1   46.92    4.66   1
  -3   2  -1   46.10    2.58   1
  -3   2   0   37.09    4.63   1
  -3   2   0   34.93    4.26   1
  -3   2   0   40.96    4.86   1
  -3   2   0   35.52    2.03   1
  -3   2   1   22.28    3.96   1
  -3   2   1   26.73    2.07   1
  -3   2   1   31.25    3.80   1
  -3   2   1   27.14    4.27   1
  -3   2   2   26.83    3.42   1
  -3   2   2   18.06    2.12   1
  -3   2   2   18.58    4.31   1
  -3   2   2   25.60    3.95   1
  -3   2   3  113.85    8.54   1
  -3   2   3  111.51    7.39   1
  -3   2   3  113.00    5.95   1
  -3   2   4   17.81    3.54   1
  -3   2   4    8.47    2.44   1
  -3   2   5  222.61   10.74   1
  -3   2   5  200.51   13.03   1
  -3   2   5  216.68   11.19   1
  -3   2   6    8.76    3.26   1
  -3   2   6   11.09    4.93   1
  -3   2   6   16.65    3.51   1
  -3   2   7   30.58    6.41   1
  -3   2   7   31.92    4.18   1
  -3   2   7   21.16    4.32   1
  -3   2   8   98.80    6.76   1
  -3   2   8   81.54    7.77   1
  -3   2   9    9.55    3.28   1
  -3   2   9    5.52    4.75   1
  -3   2   9   11.29    6.45   1
  -3   2  10   44.76    4.28   1
  -3   2  10   26.73    7.03   1
  -3   2  10   45.02    8.86   1
  -3   2  11    0.24    6.98   1
  -3   2  11   -7.56    6.98   1
  -3   2  12   -3.50    8.41   1
  -3   2  12    3.13    7.82   1
  -3   3 -13    2.92    6.53   1
  -3   3 -13    2.34    5.63   1
  -3   3 -13   -1.04    8.26   1
  -3   3 -12    4.24    4.94   1
  -3   3 -12   -5.29    7.31   1
  -3   3 -12    2.59    2.70   1
  -3   3 -12    7.95    5.81   1
  -3   3 -11   20.16    3.32   1
  -3   3 -11   20.79    6.75   1
  -3   3 -11   16.32    3.23   1
  -3   3 -11   12.11    7.03   1
  -3   3 -10   16.08    5.69   1
  -3   3 -10   25.30    6.84   1
  -3   3 -10   19.18    3.24   1
  -3   3  -9   66.42    8.15   1
  -3   3  -9   86.49    8.37   1
  -3   3  -9   76.04    5.23   1
  -3   3  -8   77.97    7.77   1
  -3   3  -8   64.48    6.91   1
  -3   3  -8   74.65    5.01   1
  -3   3  -8   74.13    7.75   1
  -3   3  -7   72.59    5.11   1
  -3   3  -7   85.75    7.41   1
  -3   3  -7   79.03    6.93   1
  -3   3  -7   74.65    7.26   1
  -3   3  -6  180.10   10.20   1
  -3   3  -6  187.42   10.68   1
  -3   3  -6  176.89   10.64   1
  -3   3  -6  181.98    8.63   1
  -3   3  -5    2.13    3.27   1
  -3   3  -5    0.52    2.33   1
  -3   3  -5   -2.28    2.48   1
  -3   3  -5    3.61    2.01   1
  -3   3  -4   57.30    4.69   1
  -3   3  -4   56.10    5.54   1
  -3   3  -4   61.78    5.19   1
  -3   3  -4   74.48    5.01   1
  -3   3  -3   28.30    3.62   1
  -3   3  -3   38.32    3.22   1
  -3   3  -3   44.09    4.12   1
  -3   3  -2  185.78    7.63   1
  -3   3  -2  205.35    9.46   1
  -3   3  -2  210.83   10.16   1
  -3   3  -1  992.88   32.77   1
  -3   3  -1  965.34   34.18   1
  -3   3   0  114.92    8.15   1
  -3   3   2   18.75    4.42   1
  -3   3   2    8.01    1.19   1
  -3   3   2   12.11    3.55   1
  -3   3   3   57.15    3.63   1
  -3   3   3   63.04    5.88   1
  -3   3   3   57.46    6.97   1
  -3   3   4   -1.85    4.46   1
  -3   3   4    3.13    1.77   1
  -3   3   4   -2.37    2.62   1
  -3   3   5    9.73    2.56   1
  -3   3   5   10.56    3.18   1
  -3   3   5    7.18    4.66   1
  -3   3   6   47.61    4.83   1
  -3   3   6   40.58    4.59   1
  -3   3   6   42.25    6.89   1
  -3   3   7   15.60    3.87   1
  -3   3   7   20.07    3.76   1
  -3   3   8    7.34    5.47   1
  -3   3   8    1.85    3.45   1
  -3   3   8    1.56    2.75   1
  -3   3   9  175.30   14.03   1
  -3   3   9  149.82   11.02   1
  -3   3   9  158.51    8.56   1
  -3   3  10   10.18    7.02   1
  -3   3  10    3.76    5.24   1
  -3   3  11    2.79    6.58   1
  -3   3  11   -3.72    6.52   1
  -3   4 -13    5.34    9.38   1
  -3   4 -13  -11.83    7.36   1
  -3   4 -13   -2.19    9.65   1
  -3   4 -12    2.34    6.12   1
  -3   4 -12   -4.71    5.95   1
  -3   4 -12   -8.35    7.28   1
  -3   4 -11   53.14    9.19   1
  -3   4 -11   36.48    8.46   1
  -3   4 -10    0.85    4.66   1
  -3   4 -10   -1.99    5.10   1
  -3   4  -9  137.36   11.02   1
  -3   4  -9  131.56   11.01   1
  -3   4  -8  386.91   19.28   1
  -3   4  -8  382.98   18.79   1
  -3   4  -8  453.69   19.60   1
  -3   4  -7   38.81    5.86   1
  -3   4  -7   36.97    5.47   1
  -3   4  -7   32.26    2.95   1
  -3   4  -7   39.82    5.55   1
  -3   4  -6   78.68    7.27   1
  -3   4  -6   88.17    5.26   1
  -3   4  -6   90.25    7.22   1
  -3   4  -6  100.40    8.02   1
  -3   4  -5  128.14    8.83   1
  -3   4  -5  130.64    8.00   1
  -3   4  -5  145.93    9.18   1
  -3   4  -5  134.56    7.19   1
  -3   4  -4    2.50    3.22   1
  -3   4  -4    6.76    2.34   1
  -3   4  -4    8.47    2.44   1
  -3   4  -4    8.70    3.19   1
  -3   4  -4    8.64    1.53   1
  -3   4  -3   78.32    4.78   1
  -3   4  -3   68.23    5.62   1
  -3   4  -3   76.91    6.14   1
  -3   4  -3   74.82    4.67   1
  -3   4  -2    9.00    3.06   1
  -3   4  -2   10.89    1.65   1
  -3   4  -2    8.24    2.87   1
  -3   4  -2   16.24    2.66   1
  -3   4  -1    2.59    2.51   1
  -3   4  -1    6.10    2.47   1
  -3   4  -1    6.76    3.17   1
  -3   4   0   12.60    3.83   1
  -3   4   1    2.59    3.64   1
  -3   4   2   23.43    4.36   1
  -3   4   3    1.30    3.03   1
  -3   4   3    6.10    4.54   1
  -3   4   4   27.35    5.54   1
  -3   4   4   25.91    5.70   1
  -3   4   4   28.20    4.57   1
  -3   4   5  142.80   11.47   1
  -3   4   5  161.54    9.41   1
  -3   4   5  133.63   10.40   1
  -3   4   6    7.18    4.93   1
  -3   4   6   19.10    4.02   1
  -3   4   7   49.14    7.85   1
  -3   4   7   59.44    5.55   1
  -3   4   8   10.30    3.53   1
  -3   4   9   89.68   11.17   1
  -3   4   9   88.55    6.02   1
  -3   4  10    2.76    7.07   1
  -3   4  11   12.89    8.69   1
  -3   5 -12   21.53    9.84   1
  -3   5 -12    5.43    6.52   1
  -3   5 -11   -1.69    6.81   1
  -3   5 -11   -6.15    7.34   1
  -3   5 -11    1.82    7.13   1
  -3   5 -10   -0.79    5.34   1
  -3   5 -10   -7.84    6.33   1
  -3   5  -9    3.35    4.72   1
  -3   5  -9   13.03    5.78   1
  -3   5  -8    7.56    5.01   1
  -3   5  -8    8.76    4.56   1
  -3   5  -8   -2.69    4.59   1
  -3   5  -7    1.88    4.16   1
  -3   5  -7   -2.66    3.88   1
  -3   5  -7   -0.48    3.19   1
  -3   5  -6   17.31    4.58   1
  -3   5  -6   17.31    2.25   1
  -3   5  -6   23.14    5.00   1
  -3   5  -6   14.75    4.15   1
  -3   5  -5    2.25    1.95   1
  -3   5  -5   -2.19    2.84   1
  -3   5  -5    2.22    3.46   1
  -3   5  -5   -0.77    3.38   1
  -3   5  -4   21.53    3.25   1
  -3   5  -4   20.79    3.56   1
  -3   5  -4   25.10    2.40   1
  -3   5  -4   19.36    4.31   1
  -3   5  -4   14.52    4.11   1
  -3   5  -3   75.52    5.04   1
  -3   5  -3   82.08    5.07   1
  -3   5  -3   77.09    5.97   1
  -3   5  -3   89.87    7.20   1
  -3   5  -2   87.80    6.75   1
  -3   5  -2   86.49    7.25   1
  -3   5  -2   87.98    6.00   1
  -3   5  -1   -3.50    2.43   1
  -3   5  -1   -2.59    3.16   1
  -3   5  -1   -1.77    3.11   1
  -3   5   0   49.56    5.35   1
  -3   5   0   59.29    6.31   1
  -3   5   1  111.30    8.23   1
  -3   5   1  116.21    8.84   1
  -3   5   2   -0.27    3.94   1
  -3   5   2    6.25    3.60   1
  -3   5   3   37.33    5.99   1
  -3   5   3   42.64    6.79   1
  -3   5   4   19.45    4.50   1
  -3   5   5   24.21    5.02   1
  -3   5   5   24.11    4.62   1
  -3   5   6   16.48    5.68   1
  -3   5   6   25.91    4.38   1
  -3   5   7    3.80    4.49   1
  -3   5   7    5.34    3.42   1
  -3   5   8   49.00    8.82   1
  -3   5   8   44.62    5.34   1
  -3   5   9    8.35    3.06   1
  -3   5   9    2.13    7.07   1
  -3   5  10   -5.15    7.81   1
  -3   5  11  -21.62   10.69   1
  -3   6 -11   31.58    8.88   1
  -3   6 -11   53.00   10.92   1
  -3   6 -10   10.05    7.86   1
  -3   6 -10   27.04    8.32   1
  -3   6  -9   65.29    9.05   1
  -3   6  -9   57.00    9.21   1
  -3   6  -8   -0.64    5.14   1
  -3   6  -8    9.06    5.66   1
  -3   6  -8    7.18    5.04   1
  -3   6  -7   42.90    7.34   1
  -3   6  -7   34.11    6.19   1
  -3   6  -7   26.32    5.44   1
  -3   6  -6   15.21    5.07   1
  -3   6  -6   15.52    5.36   1
  -3   6  -6   18.06    4.50   1
  -3   6  -5    9.49    4.25   1
  -3   6  -5    3.65    3.21   1
  -3   6  -5   -2.72    4.26   1
  -3   6  -4  162.56    8.67   1
  -3   6  -4  186.87   10.66   1
  -3   6  -4  151.04    7.37   1
  -3   6  -4  161.80   10.94   1
  -3   6  -3   23.81    3.42   1
  -3   6  -3   31.81    4.85   1
  -3   6  -2   61.15    5.47   1
  -3   6  -2   58.06    6.55   1
  -3   6  -2   64.00    6.08   1
  -3   6  -1   67.73    7.08   1
  -3   6  -1   56.25    5.55   1
  -3   6  -1   65.45    6.47   1
  -3   6   0   58.68    6.59   1
  -3   6   0   58.83    6.14   1
  -3   6   1   -5.48    3.60   1
  -3   6   2   69.89    7.36   1
  -3   6   3    1.85    2.96   1
  -3   6   4   29.59    6.20   1
  -3   6   5    7.29    4.97   1
  -3   6   5    1.39    3.82   1
  -3   6   6   18.58    6.38   1
  -3   6   6   19.89    4.91   1
  -3   6   7   61.47    9.56   1
  -3   6   7   63.04    6.51   1
  -3   6   8    4.62    3.70   1
  -3   6   8   -2.56    5.02   1
  -3   6   9   61.00    5.94   1
  -3   6  10  -13.76    9.42   1
  -3   7 -10   10.69    7.85   1
  -3   7 -10   -5.20    9.67   1
  -3   7 -10   -8.12    8.78   1
  -3   7  -9   -0.02    6.66   1
  -3   7  -9    2.62    7.71   1
  -3   7  -8   19.18    6.13   1
  -3   7  -8   20.98    7.51   1
  -3   7  -7   33.76    7.79   1
  -3   7  -7   39.31    6.52   1
  -3   7  -7   46.92    7.12   1
  -3   7  -6    9.00    5.52   1
  -3   7  -6   -1.30    4.77   1
  -3   7  -6    2.79    4.01   1
  -3   7  -5  125.22   10.97   1
  -3   7  -5  121.22    9.47   1
  -3   7  -5  110.25    8.19   1
  -3   7  -4   24.50    3.27   1
  -3   7  -4   44.22    7.05   1
  -3   7  -3   -7.51    4.93   1
  -3   7  -3    0.96    2.33   1
  -3   7  -3   -0.34    3.40   1
  -3   7  -2   16.16    3.70   1
  -3   7  -2    7.51    4.71   1
  -3   7  -1   45.29    5.52   1
  -3   7  -1   51.55    7.32   1
  -3   7   0    7.24    4.63   1
  -3   7   0   17.89    4.40   1
  -3   7   1   20.16    4.76   1
  -3   7   2   53.73    7.18   1
  -3   7   3   -5.48    4.87   1
  -3   7   5   70.06    9.21   1
  -3   7   6   27.77    7.69   1
  -3   7   6   47.06    6.86   1
  -3   7   7   -2.16    5.35   1
  -3   7   7    6.05    4.43   1
  -3   7   8    0.37    7.97   1
  -3   7   8    0.27    4.08   1
  -3   7   9   -7.67    9.09   1
  -3   8  -9    1.74    9.85   1
  -3   8  -9   19.10    8.39   1
  -3   8  -8    3.10    6.65   1
  -3   8  -8    1.06    7.77   1
  -3   8  -7   13.84    5.95   1
  -3   8  -7   36.60    7.50   1
  -3   8  -7   16.48    7.55   1
  -3   8  -6   13.40    5.93   1
  -3   8  -6   12.89    7.18   1
  -3   8  -5   10.37    5.09   1
  -3   8  -5   10.56    6.63   1
  -3   8  -4   10.89    5.02   1
  -3   8  -4   19.54    6.72   1
  -3   8  -4   14.21    3.17   1
  -3   8  -3    2.34    3.40   1
  -3   8  -3    3.39    4.20   1
  -3   8  -3   10.30    5.91   1
  -3   8  -2    6.71    5.23   1
  -3   8  -2    4.49    3.94   1
  -3   8  -1    4.12    5.36   1
  -3   8  -1    5.81    4.24   1
  -3   8   0   44.89    6.70   1
  -3   8   0   39.82    7.07   1
  -3   8   1   39.56    6.79   1
  -3   8   2    6.50    3.98   1
  -3   8   3   21.34    6.38   1
  -3   8   5   -0.88    6.71   1
  -3   8   6    0.72    6.85   1
  -3   8   7   31.25    9.28   1
  -3   8   7   40.20    7.23   1
  -3   8   8    5.57    5.10   1
  -3   8   8    0.06    8.46   1
  -3   9  -7    2.92    8.72   1
  -3   9  -6   -2.50    7.84   1
  -3   9  -6    5.38    6.36   1
  -3   9  -5   16.81    6.15   1
  -3   9  -4   36.84    4.86   1
  -3   9  -4   45.43    6.87   1
  -3   9  -3   -1.21    6.42   1
  -3   9  -3    6.45    4.88   1
  -3   9  -3   -3.50    4.19   1
  -3   9  -2   12.53    4.60   1
  -3   9  -2   16.40    7.45   1
  -3   9  -2   12.46    4.80   1
  -3   9  -1  125.89   11.44   1
  -3   9  -1  122.77    9.97   1
  -3   9   0   49.56    7.60   1
  -3   9   1    1.06    5.38   1
  -3   9   2    1.54    5.26   1
  -3   9   3   15.13    5.52   1
  -3   9   4    7.56    7.37   1
  -3   9   5    2.99    7.37   1
  -3   9   6   38.32   10.65   1
  -3   9   7   28.09    8.06   1
  -3  10  -4    1.77    6.22   1
  -3  10  -4   -5.29    9.11   1
  -3  10  -3   -1.00    5.60   1
  -3  10  -3    1.72    4.79   1
  -3  10  -3    6.97    8.55   1
  -3  10  -2   30.03    9.43   1
  -3  10  -2   33.76    6.97   1
  -3  10  -1   -5.02    5.51   1
  -3  10  -1    9.00    8.04   1
  -3  10  -1    4.00    5.40   1
  -3  10   0    3.46    5.88   1
  -3  10   1   -6.92    6.52   1
  -3  10   3   -1.54    7.27   1
  -3  10   4    7.24    7.64   1
  -2 -11  -5    3.76    7.49   1
  -2 -11  -4   40.58    8.92   1
  -2 -11  -4   32.04    9.40   1
  -2 -11  -4   41.99   10.37   1
  -2 -11  -3   13.76    8.01   1
  -2 -11  -3    8.82    7.60   1
  -2 -11  -3   20.25    8.01   1
  -2 -11  -2    2.31    5.99   1
  -2 -11  -2    1.59    6.38   1
  -2 -11  -2    4.84    7.48   1
  -2 -11  -1   41.09    7.95   1
  -2 -11  -1   38.94    8.49   1
  -2 -11  -1   39.56    9.43   1
  -2 -11   0   -4.37    8.15   1
  -2 -11   0   -0.77    7.67   1
  -2 -11   0    3.61    5.13   1
  -2 -11   1   11.16    8.88   1
  -2 -11   1    4.16    4.94   1
  -2 -11   1    5.38    7.89   1
  -2 -10  -8   97.61   10.87   1
  -2 -10  -8   88.92   13.77   1
  -2 -10  -8   82.26   13.24   1
  -2 -10  -7    0.56    7.93   1
  -2 -10  -7    3.03    6.12   1
  -2 -10  -7   -3.46    9.08   1
  -2 -10  -6   -6.81    7.73   1
  -2 -10  -6    1.12    7.27   1
  -2 -10  -5   44.22    9.71   1
  -2 -10  -5   27.46    8.59   1
  -2 -10  -4   11.90    7.18   1
  -2 -10  -4    2.89    7.14   1
  -2 -10  -3   -0.56    6.15   1
  -2 -10  -3  -10.24    6.27   1
  -2 -10  -3   -5.11    6.83   1
  -2 -10  -2    0.04    5.63   1
  -2 -10  -2   -0.36    5.65   1
  -2 -10  -2    0.77    5.35   1
  -2 -10  -1   57.46    8.49   1
  -2 -10  -1   34.46    8.57   1
  -2 -10   0   26.01    7.04   1
  -2 -10   0   18.58    7.76   1
  -2 -10   0   26.42    7.20   1
  -2 -10   1   -1.88    4.06   1
  -2 -10   1   -0.53    3.75   1
  -2 -10   1    3.50    5.72   1
  -2 -10   1   11.83    6.54   1
  -2 -10   2   47.61    9.25   1
  -2 -10   2   57.00    8.76   1
  -2 -10   2   52.85    5.53   1
  -2 -10   2   47.47    5.79   1
  -2 -10   3    3.92    3.09   1
  -2 -10   3    0.83    7.41   1
  -2 -10   3   -1.88    2.77   1
  -2 -10   3    1.02    6.02   1
  -2 -10   4   -4.45    6.63   1
  -2 -10   4   -5.95    7.56   1
  -2  -9 -10   10.18    9.83   1
  -2  -9 -10   20.52    8.52   1
  -2  -9  -9   60.22   11.80   1
  -2  -9  -9   52.27    8.97   1
  -2  -9  -8    6.92    7.47   1
  -2  -9  -8   -2.31    7.30   1
  -2  -9  -7    6.76    6.71   1
  -2  -9  -7    9.73    7.43   1
  -2  -9  -6    2.43    6.15   1
  -2  -9  -6    2.99    6.61   1
  -2  -9  -5   53.58    8.49   1
  -2  -9  -5   84.82   10.32   1
  -2  -9  -4    2.72    5.51   1
  -2  -9  -4   -4.67    6.09   1
  -2  -9  -3    7.51    5.81   1
  -2  -9  -2   63.04    8.26   1
  -2  -9  -2   76.21    8.21   1
  -2  -9  -2   54.46    8.27   1
  -2  -9  -1    2.16    5.00   1
  -2  -9  -1   -3.92    5.50   1
  -2  -9  -1   10.24    5.38   1
  -2  -9   0   46.24    7.34   1
  -2  -9   0   47.61    7.73   1
  -2  -9   1   51.12    8.72   1
  -2  -9   1   51.98    7.79   1
  -2  -9   1   58.22    8.24   1
  -2  -9   2   20.88    6.76   1
  -2  -9   2   24.01    6.27   1
  -2  -9   3   27.25    6.37   1
  -2  -9   3   29.27    7.68   1
  -2  -9   3   32.26    4.09   1
  -2  -9   3   36.00    4.08   1
  -2  -9   4    2.86    5.24   1
  -2  -9   4   -1.93    4.84   1
  -2  -9   5    5.34    5.91   1
  -2  -9   5    3.92    7.33   1
  -2  -9   6    2.34    6.40   1
  -2  -8 -11   -6.20    7.47   1
  -2  -8 -11    5.06    9.45   1
  -2  -8 -11    9.18    7.76   1
  -2  -8 -10   -6.25    6.45   1
  -2  -8 -10    0.59    8.09   1
  -2  -8 -10   -7.67    6.87   1
  -2  -8 -10   -1.00    6.74   1
  -2  -8  -9   19.10    7.17   1
  -2  -8  -9   30.69    8.75   1
  -2  -8  -9   30.58    6.97   1
  -2  -8  -8    7.78    5.64   1
  -2  -8  -8    0.76    4.37   1
  -2  -8  -8   -3.42    6.22   1
  -2  -8  -7    3.46    6.29   1
  -2  -8  -7    4.84    5.59   1
  -2  -8  -6    5.71    4.59   1
  -2  -8  -6    8.18    6.12   1
  -2  -8  -5    2.76    4.58   1
  -2  -8  -5   -2.34    3.92   1
  -2  -8  -4   -0.90    5.24   1
  -2  -8  -4    2.89    4.49   1
  -2  -8  -3   14.67    5.44   1
  -2  -8  -2    3.10    4.33   1
  -2  -8  -2   -1.66    4.28   1
  -2  -8  -1   51.27    7.30   1
  -2  -8  -1   69.89    8.03   1
  -2  -8  -1   64.96    7.42   1
  -2  -8   0   13.54    5.15   1
  -2  -8   0   10.43    4.65   1
  -2  -8   0   16.56    5.13   1
  -2  -8   1   33.87    5.94   1
  -2  -8   1   24.11    6.19   1
  -2  -8   1   29.48    6.08   1
  -2  -8   2   29.27    4.00   1
  -2  -8   2   27.14    6.04   1
  -2  -8   2   21.72    5.22   1
  -2  -8   3   31.81    3.84   1
  -2  -8   3   24.50    6.63   1
  -2  -8   3   26.94    5.81   1
  -2  -8   4    4.37    5.89   1
  -2  -8   4    8.88    4.71   1
  -2  -8   5   -4.45    6.20   1
  -2  -8   5   -3.31    4.30   1
  -2  -8   6   39.94    6.57   1
  -2  -8   6   42.25    8.84   1
  -2  -8   7   22.47    5.88   1
  -2  -7 -12    3.50    8.45   1
  -2  -7 -12    2.99    8.03   1
  -2  -7 -12   -5.02    9.90   1
  -2  -7 -11    9.18    6.79   1
  -2  -7 -11   10.89    8.98   1
  -2  -7 -10   28.62    8.67   1
  -2  -7 -10   33.64    7.66   1
  -2  -7  -9   16.32    6.14   1
  -2  -7  -9   16.16    7.08   1
  -2  -7  -8   12.60    6.32   1
  -2  -7  -8   16.97    5.85   1
  -2  -7  -8    1.64    4.28   1
  -2  -7  -7   -1.37    5.01   1
  -2  -7  -7   -0.23    3.04   1
  -2  -7  -6   51.55    7.61   1
  -2  -7  -6   55.35    6.99   1
  -2  -7  -5  420.25   19.27   1
  -2  -7  -5  400.40   20.41   1
  -2  -7  -4   12.96    4.90   1
  -2  -7  -4   26.11    5.11   1
  -2  -7  -3   74.65    7.26   1
  -2  -7  -3   80.10    8.05   1
  -2  -7  -2   11.63    3.96   1
  -2  -7  -2   10.30    3.72   1
  -2  -7  -1    8.07    4.26   1
  -2  -7  -1    9.99    4.04   1
  -2  -7   0   50.69    6.55   1
  -2  -7   0   49.28    6.18   1
  -2  -7   0   53.00    6.55   1
  -2  -7   1  118.59    9.15   1
  -2  -7   1  134.33    9.97   1
  -2  -7   2   19.54    4.69   1
  -2  -7   2   19.80    3.20   1
  -2  -7   2   11.16    4.01   1
  -2  -7   3   23.81    4.78   1
  -2  -7   3   18.40    5.41   1
  -2  -7   3   29.48    3.37   1
  -2  -7   4    1.69    5.02   1
  -2  -7   4   -4.08    3.51   1
  -2  -7   4   -1.80    1.82   1
  -2  -7   5  106.71    8.68   1
  -2  -7   5  104.45   10.42   1
  -2  -7   6    3.76    3.14   1
  -2  -7   6    5.62    6.49   1
  -2  -7   7    3.65    6.88   1
  -2  -7   7    6.40    3.85   1
  -2  -7   7    0.62    4.38   1
  -2  -7   8    6.60    7.04   1
  -2  -7   8   14.75    5.15   1
  -2  -7   8    3.61    4.52   1
  -2  -7   9   -2.28    5.71   1
  -2  -7   9    3.13    5.45   1
  -2  -6 -13   -0.59    9.24   1
  -2  -6 -13    8.64    9.06   1
  -2  -6 -13   -2.46    9.89   1
  -2  -6 -12  120.78   13.63   1
  -2  -6 -12   98.41   11.71   1
  -2  -6 -12  122.54   11.96   1
  -2  -6 -11    5.43    6.62   1
  -2  -6 -11   -1.93    5.67   1
  -2  -6 -10    7.90    5.68   1
  -2  -6 -10    3.24    6.23   1
  -2  -6 -10   -2.59    5.70   1
  -2  -6  -9   48.16    6.80   1
  -2  -6  -9   44.62    7.21   1
  -2  -6  -9   44.36    7.73   1
  -2  -6  -8    4.71    4.47   1
  -2  -6  -8    0.18    3.93   1
  -2  -6  -8    1.82    4.94   1
  -2  -6  -7    9.18    3.94   1
  -2  -6  -7   15.21    4.52   1
  -2  -6  -6  164.35   11.79   1
  -2  -6  -6  162.31   10.45   1
  -2  -6  -5   20.52    4.08   1
  -2  -6  -5   13.54    4.64   1
  -2  -6  -4    4.04    3.82   1
  -2  -6  -3    2.53    3.34   1
  -2  -6  -3    8.64    3.23   1
  -2  -6  -2   55.95    6.28   1
  -2  -6  -2   63.52    6.06   1
  -2  -6  -1    6.10    3.51   1
  -2  -6  -1    3.88    3.03   1
  -2  -6   0  136.19    9.34   1
  -2  -6   0  144.00    9.60   1
  -2  -6   0  137.83    9.16   1
  -2  -6   1  426.42   19.00   1
  -2  -6   1  420.66   18.46   1
  -2  -6   1  428.90   18.22   1
  -2  -6   2  106.71    6.40   1
  -2  -6   2  102.82    7.91   1
  -2  -6   2   87.42    8.04   1
  -2  -6   3   89.68    4.74   1
  -2  -6   3   74.65    7.95   1
  -2  -6   3   90.06    7.21   1
  -2  -6   3   80.46    5.38   1
  -2  -6   4    0.92    3.15   1
  -2  -6   4    4.24    4.66   1
  -2  -6   4   -3.80    2.26   1
  -2  -6   4   -1.10    1.93   1
  -2  -6   5  163.58   11.77   1
  -2  -6   5  160.28   10.13   1
  -2  -6   5  150.80    8.35   1
  -2  -6   6    3.84    3.02   1
  -2  -6   6   12.39    4.01   1
  -2  -6   6   14.14    6.47   1
  -2  -6   7   32.15    5.10   1
  -2  -6   7   24.70    6.86   1
  -2  -6   7   15.68    4.59   1
  -2  -6   8    1.17    4.19   1
  -2  -6   8    7.90    6.80   1
  -2  -6   8    6.55    4.30   1
  -2  -6   9    1.19    4.32   1
  -2  -6   9    1.69    5.12   1
  -2  -6   9   16.00    9.84   1
  -2  -6  10   25.10    7.01   1
  -2  -6  10   14.29    5.14   1
  -2  -6  10   15.29    7.12   1
  -2  -5 -13   19.89    8.92   1
  -2  -5 -13   14.59    9.02   1
  -2  -5 -12    9.92    7.94   1
  -2  -5 -12    8.35    6.99   1
  -2  -5 -11   27.98    7.41   1
  -2  -5 -10   20.34    6.40   1
  -2  -5 -10   26.52    6.69   1
  -2  -5  -9   11.29    4.70   1
  -2  -5  -9    3.96    4.86   1
  -2  -5  -9   10.56    5.26   1
  -2  -5  -8  273.24   14.55   1
  -2  -5  -8  278.89   15.03   1
  -2  -5  -8  261.15   15.19   1
  -2  -5  -7    9.42    4.24   1
  -2  -5  -7    1.69    2.91   1
  -2  -5  -6   89.87    7.96   1
  -2  -5  -6   92.54    7.12   1
  -2  -5  -5   33.64    5.10   1
  -2  -5  -5   29.81    4.26   1
  -2  -5  -4  133.17    9.00   1
  -2  -5  -4  125.66    8.07   1
  -2  -5  -3   23.43    4.45   1
  -2  -5  -3   14.90    3.17   1
  -2  -5  -2    9.49    3.02   1
  -2  -5  -2    3.65    3.13   1
  -2  -5  -1  148.35    8.77   1
  -2  -5  -1  140.66    9.01   1
  -2  -5   0   -2.16    3.62   1
  -2  -5   0   -0.26    2.68   1
  -2  -5   0    0.92    2.30   1
  -2  -5   1  372.49   16.21   1
  -2  -5   1  375.97   15.12   1
  -2  -5   1  379.47   16.75   1
  -2  -5   2   86.49    5.58   1
  -2  -5   2   84.27    7.34   1
  -2  -5   2   78.50    6.56   1
  -2  -5   2   80.10    4.12   1
  -2  -5   3   81.90    4.89   1
  -2  -5   3   89.68    6.82   1
  -2  -5   3   84.09    7.89   1
  -2  -5   3   88.36    5.26   1
  -2  -5   4   57.46    4.55   1
  -2  -5   4   46.65    3.82   1
  -2  -5   4   50.41    6.53   1
  -2  -5   4   56.55    5.72   1
  -2  -5   5   15.84    3.26   1
  -2  -5   5   14.44    2.43   1
  -2  -5   5   15.37    3.76   1
  -2  -5   5   21.90    5.34   1
  -2  -5   6   59.60    5.87   1
  -2  -5   6   62.41    4.11   1
  -2  -5   6   60.06    6.36   1
  -2  -5   6   55.20    7.88   1
  -2  -5   7   31.47    5.16   1
  -2  -5   7   41.34    5.40   1
  -2  -5   7   30.80    6.99   1
  -2  -5   8    6.10    3.80   1
  -2  -5   8    0.86    6.55   1
  -2  -5   8    1.00    3.98   1
  -2  -5   9   66.59    6.85   1
  -2  -5   9   46.38    9.40   1
  -2  -5   9   49.56    7.32   1
  -2  -5  10   20.98    7.05   1
  -2  -5  10   22.37    5.77   1
  -2  -5  10   24.70    5.77   1
  -2  -4 -14   -0.24    8.27   1
  -2  -4 -14  -10.37    9.21   1
  -2  -4 -13   18.84    8.68   1
  -2  -4 -13    7.02    7.90   1
  -2  -4 -12   -0.48    3.37   1
  -2  -4 -12    7.67    6.87   1
  -2  -4 -12    9.92    7.37   1
  -2  -4 -11    7.56    6.32   1
  -2  -4 -10   12.32    4.49   1
  -2  -4  -9    2.04    4.40   1
  -2  -4  -9   16.16    4.98   1
  -2  -4  -8  309.41   15.83   1
  -2  -4  -8  298.25   15.54   1
  -2  -4  -7  177.96   10.94   1
  -2  -4  -7  187.69   11.23   1
  -2  -4  -6   16.81    3.28   1
  -2  -4  -6   19.71    4.26   1
  -2  -4  -5  206.50   11.50   1
  -2  -4  -5  211.41   10.18   1
  -2  -4  -5  225.90   10.52   1
  -2  -4  -4  248.69   12.30   1
  -2  -4  -4  244.61   11.57   1
  -2  -4  -4  213.45   10.52   1
  -2  -4  -3   81.90    5.61   1
  -2  -4  -3   88.92    6.79   1
  -2  -4  -3   94.48    7.00   1
  -2  -4  -2  805.99   30.09   1
  -2  -4  -2  808.26   29.00   1
  -2  -4  -2  831.75   27.69   1
  -2  -4  -1   61.94    4.88   1
  -2  -4  -1   56.55    6.17   1
  -2  -4  -1   65.45    5.50   1
  -2  -4   0   84.82    6.45   1
  -2  -4   0   82.99    5.83   1
  -2  -4   0   86.86    7.64   1
  -2  -4   1    1.06    3.67   1
  -2  -4   1   -0.56    1.82   1
  -2  -4   1    0.40    2.36   1
  -2  -4   1    3.46    2.34   1
  -2  -4   2  203.35   11.41   1
  -2  -4   2  225.00   10.80   1
  -2  -4   2  233.17   12.83   1
  -2  -4   2  207.36    9.50   1
  -2  -4   3    4.00    4.44   1
  -2  -4   3   10.96    2.32   1
  -2  -4   3   17.81    4.39   1
  -2  -4   4    7.95    4.06   1
  -2  -4   4   19.18    2.72   1
  -2  -4   5  101.61    6.05   1
  -2  -4   5  103.23    8.74   1
  -2  -4   6    5.24    2.24   1
  -2  -4   6    6.05    4.67   1
  -2  -4   6    4.04    3.14   1
  -2  -4   7    4.16    3.35   1
  -2  -4   7    1.30    3.58   1
  -2  -4   8   63.52    7.33   1
  -2  -4   8   80.10    9.49   1
  -2  -4   9   -1.35    4.50   1
  -2  -4   9   -0.55    6.11   1
  -2  -4  10    4.97    7.89   1
  -2  -4  10   10.69    4.25   1
  -2  -4  10   -6.86    5.82   1
  -2  -4  11   10.50    7.26   1
  -2  -4  11   12.89    5.10   1
  -2  -3 -14   -2.31    8.33   1
  -2  -3 -14   12.89    9.69   1
  -2  -3 -13    1.96    7.00   1
  -2  -3 -13    1.85    6.77   1
  -2  -3 -12   14.75    6.76   1
  -2  -3 -12   17.31    3.66   1
  -2  -3 -12   17.47    5.85   1
  -2  -3 -11   22.00    5.53   1
  -2  -3 -11    8.01    3.11   1
  -2  -3 -10    5.06    2.65   1
  -2  -3 -10    3.03    4.91   1
  -2  -3  -9  217.27   13.56   1
  -2  -3  -9  228.01   12.99   1
  -2  -3  -8   -2.37    3.08   1
  -2  -3  -8    5.20    3.97   1
  -2  -3  -7   24.30    4.14   1
  -2  -3  -7   17.56    4.19   1
  -2  -3  -6   98.21    5.35   1
  -2  -3  -6  108.37    7.70   1
  -2  -3  -6  103.23    7.32   1
  -2  -3  -5   19.80    2.76   1
  -2  -3  -4    4.16    2.24   1
  -2  -3  -4   10.18    3.13   1
  -2  -3  -4    3.39    1.77   1
  -2  -3  -3    8.12    2.96   1
  -2  -3  -3    9.67    2.05   1
  -2  -3  -3    4.97    2.77   1
  -2  -3  -2 1260.96   36.93   1
  -2  -3  -2 1249.62   39.59   1
  -2  -3  -2 1324.23   43.67   1
  -2  -3  -2 1326.42   41.52   1
  -2  -3  -1    1.69    1.56   1
  -2  -3  -1   -0.77    3.12   1
  -2  -3  -1    1.49    2.37   1
  -2  -3   0   11.36    3.77   1
  -2  -3   0    4.08    2.46   1
  -2  -3   0    8.35    2.08   1
  -2  -3   1   39.31    4.51   1
  -2  -3   1   42.38    5.34   1
  -2  -3   1   41.34    4.24   1
  -2  -3   1   35.88    3.59   1
  -2  -3   2   59.44    5.71   1
  -2  -3   2   56.70    6.17   1
  -2  -3   2   59.44    4.47   1
  -2  -3   3   14.52    4.19   1
  -2  -3   3    8.12    2.22   1
  -2  -3   3    6.76    2.70   1
  -2  -3   4   76.21    6.81   1
  -2  -3   4   67.08    5.08   1
  -2  -3   4   66.26    7.00   1
  -2  -3   5   51.41    6.31   1
  -2  -3   5   50.41    6.39   1
  -2  -3   5   50.84    4.42   1
  -2  -3   6    8.41    4.52   1
  -2  -3   6    1.59    2.17   1
  -2  -3   7  103.63    6.72   1
  -2  -3   7   91.39    8.41   1
  -2  -3   8  155.00   11.95   1
  -2  -3   9   12.89    3.30   1
  -2  -3   9   15.92    6.86   1
  -2  -3  10    1.19    6.78   1
  -2  -3  10   -6.00    5.14   1
  -2  -3  10   -0.24    3.05   1
  -2  -3  11    3.76    6.17   1
  -2  -3  11   11.02    3.19   1
  -2  -3  11    5.76    7.44   1
  -2  -3  12  -10.89    7.13   1
  -2  -3  12   -0.17    8.19   1
  -2  -2 -14   -6.45    7.67   1
  -2  -2 -14  -14.82    9.39   1
  -2  -2 -13   61.31    9.08   1
  -2  -2 -13   55.80   10.31   1
  -2  -2 -12    9.86    5.28   1
  -2  -2 -12   23.14    7.60   1
  -2  -2 -11   41.47    6.83   1
  -2  -2 -11   30.80    4.11   1
  -2  -2 -10   79.21    8.19   1
  -2  -2 -10   80.46    6.28   1
  -2  -2  -9   18.23    5.21   1
  -2  -2  -9   11.90    2.97   1
  -2  -2  -8    4.97    3.61   1
  -2  -2  -8    1.82    2.67   1
  -2  -2  -7    3.31    2.48   1
  -2  -2  -7    0.83    3.04   1
  -2  -2  -7    2.37    1.20   1
  -2  -2  -6    2.28    1.27   1
  -2  -2  -6    6.81    2.61   1
  -2  -2  -6    3.84    2.94   1
  -2  -2  -5   26.94    3.43   1
  -2  -2  -5   21.25    2.40   1
  -2  -2  -4  161.54    8.13   1
  -2  -2  -4  161.04    7.61   1
  -2  -2  -3  250.59   11.08   1
  -2  -2  -3  279.22   10.03   1
  -2  -2  -3  272.91   11.56   1
  -2  -2  -3  272.58    9.91   1
  -2  -2  -2   27.04    2.29   1
  -2  -2  -2   28.41    3.73   1
  -2  -2  -2   26.94    3.43   1
  -2  -2  -2   29.48    2.39   1
  -2  -2  -1   96.83    6.30   1
  -2  -2  -1   82.08    4.35   1
  -2  -2  -1   98.41    5.75   1
  -2  -2   0    3.35    3.18   1
  -2  -2   0    3.50    2.21   1
  -2  -2   1   18.75    3.46   1
  -2  -2   1   31.25    4.25   1
  -2  -2   2  761.21   27.04   1
  -2  -2   2  768.40   28.83   1
  -2  -2   2  755.70   26.39   1
  -2  -2   3  272.25   13.20   1
  -2  -2   3  260.82   11.30   1
  -2  -2   3  272.58   12.88   1
  -2  -2   4    3.03    3.27   1
  -2  -2   4    6.25    3.15   1
  -2  -2   4    2.66    2.31   1
  -2  -2   5   90.82    6.29   1
  -2  -2   5   93.70    7.74   1
  -2  -2   5   88.36    7.33   1
  -2  -2   6   45.83    6.09   1
  -2  -2   6   47.33    4.82   1
  -2  -2   6   57.61    6.07   1
  -2  -2   7    2.72    3.96   1
  -2  -2   8    3.76    4.62   1
  -2  -2   8    6.00    2.35   1
  -2  -2   9   60.06    4.34   1
  -2  -2   9   37.70    7.25   1
  -2  -2  10    0.10    6.17   1
  -2  -2  11   -6.10    6.13   1
  -2  -2  11    4.41    7.60   1
  -2  -2  12   28.94    8.50   1
  -2  -2  12   31.25    7.16   1
  -2  -1 -14    2.25    6.90   1
  -2  -1 -14    3.88    9.02   1
  -2  -1 -13    1.12    7.31   1
  -2  -1 -13    5.15    5.77   1
  -2  -1 -12   -1.51    4.90   1
  -2  -1 -12   27.98    8.04   1
  -2  -1 -11    0.74    5.28   1
  -2  -1 -10    6.76    5.15   1
  -2  -1 -10    6.10    2.87   1
  -2  -1  -9   13.99    4.86   1
  -2  -1  -9   18.23    3.33   1
  -2  -1  -8  180.63    9.68   1
  -2  -1  -8  177.42    7.73   1
  -2  -1  -8  188.51   11.53   1
  -2  -1  -7   26.21    3.69   1
  -2  -1  -7   26.42    4.52   1
  -2  -1  -7   30.69    2.66   1
  -2  -1  -7   32.95    3.67   1
  -2  -1  -6  402.80   14.85   1
  -2  -1  -6  404.01   15.68   1
  -2  -1  -6  408.85   16.98   1
  -2  -1  -5   71.40    4.73   1
  -2  -1  -5   65.29    5.49   1
  -2  -1  -5   61.00    4.06   1
  -2  -1  -4  424.77   15.66   1
  -2  -1  -4  433.89   15.41   1
  -2  -1  -4  431.39   15.37   1
  -2  -1  -3   60.06    4.18   1
  -2  -1  -3   56.25    4.05   1
  -2  -1  -3   64.96    4.35   1
  -2  -1  -2  326.16   12.28   1
  -2  -1  -2  325.80   13.00   1
  -2  -1  -2  309.41   10.20   1
  -2  -1  -1   11.22    3.01   1
  -2  -1   0    6.60    2.93   1
  -2  -1   1   27.14    3.75   1
  -2  -1   1   25.50    3.23   1
  -2  -1   1   32.38    3.53   1
  -2  -1   2    2.46    2.45   1
  -2  -1   2    4.84    2.68   1
  -2  -1   2   -4.24    2.51   1
  -2  -1   3  183.33    9.48   1
  -2  -1   3  170.30    8.87   1
  -2  -1   3  184.14    9.23   1
  -2  -1   4   22.00    3.75   1
  -2  -1   4   21.53    3.62   1
  -2  -1   4   12.39    3.24   1
  -2  -1   5   60.22    6.05   1
  -2  -1   5   64.00    5.60   1
  -2  -1   5   66.10    5.69   1
  -2  -1   6   21.16    4.51   1
  -2  -1   6   26.73    4.14   1
  -2  -1   6   22.28    4.06   1
  -2  -1   7    2.66    3.68   1
  -2  -1   7    0.29    2.89   1
  -2  -1   7   -1.49    3.07   1
  -2  -1   8   26.94    5.71   1
  -2  -1   9   48.02    7.62   1
  -2  -1  10    5.48    6.13   1
  -2  -1  11   15.05    7.68   1
  -2  -1  11   36.00    6.96   1
  -2  -1  12   26.52    6.90   1
  -2   0 -14    0.46    6.15   1
  -2   0 -14   -7.56    9.46   1
  -2   0 -13   21.53    6.22   1
  -2   0 -13   11.36    8.42   1
  -2   0 -12   63.52    8.61   1
  -2   0 -12   49.00    6.86   1
  -2   0 -11   -0.45    3.99   1
  -2   0 -11   -5.62    5.97   1
  -2   0 -11    0.44    1.64   1
  -2   0 -11    1.32    1.66   1
  -2   0 -10  136.66   10.52   1
  -2   0 -10  125.66    6.50   1
  -2   0 -10  112.78    6.58   1
  -2   0  -9   52.56    5.07   1
  -2   0  -9   43.03    6.56   1
  -2   0  -8  119.46    9.18   1
  -2   0  -8  119.68    7.66   1
  -2   0  -7   25.00    3.50   1
  -2   0  -7   26.83    4.56   1
  -2   0  -6  597.80   22.49   1
  -2   0  -6  584.19   22.24   1
  -2   0  -6  563.59   19.94   1
  -2   0  -5   12.67    1.85   1
  -2   0  -5   10.89    2.77   1
  -2   0  -5   12.32    3.23   1
  -2   0  -4   16.48    2.03   1
  -2   0  -4   21.34    2.77   1
  -2   0  -4   16.16    3.14   1
  -2   0  -4   16.89    3.21   1
  -2   0  -4   13.40    2.49   1
  -2   0  -3   30.80    3.33   1
  -2   0  -3   31.70    2.59   1
  -2   0  -3   36.36    3.38   1
  -2   0  -2  565.49   20.45   1
  -2   0  -2  571.69   20.08   1
  -2   0  -1    8.58    1.99   1
  -2   0  -1   11.42    2.50   1
  -2   0   0  539.63   19.51   1
  -2   0   0  556.02   20.28   1
  -2   0   1   30.69    3.66   1
  -2   0   1   34.46    3.17   1
  -2   0   1   35.28    3.68   1
  -2   0   2    1.56    2.08   1
  -2   0   2    1.59    2.60   1
  -2   0   2    1.51    2.07   1
  -2   0   3   -2.76    2.22   1
  -2   0   3   -2.62    2.66   1
  -2   0   3   -1.10    2.08   1
  -2   0   4  682.78   25.08   1
  -2   0   4  678.08   24.48   1
  -2   0   4  659.46   24.14   1
  -2   0   5   45.70    4.33   1
  -2   0   5   34.34    4.81   1
  -2   0   5   39.94    4.42   1
  -2   0   6    1.04    3.02   1
  -2   0   6    8.47    2.97   1
  -2   0   6    1.93    3.22   1
  -2   0   7   73.79    5.67   1
  -2   0   7   78.15    7.25   1
  -2   0   8   34.34    5.63   1
  -2   0   8   38.07    4.20   1
  -2   0   9   11.09    5.33   1
  -2   0  10    7.45    5.57   1
  -2   0  10    1.64    4.40   1
  -2   0  11   48.58    7.39   1
  -2   0  11   34.34    8.32   1
  -2   0  12   -5.20    6.06   1
  -2   0  12   -3.53    7.63   1
  -2   1 -14    6.25    9.35   1
  -2   1 -13   36.48    4.23   1
  -2   1 -13   36.00    9.48   1
  -2   1 -13   44.49    4.54   1
  -2   1 -13   49.56    6.76   1
  -2   1 -12   -1.19    4.12   1
  -2   1 -12    0.56    6.55   1
  -2   1 -12   -0.55    2.68   1
  -2   1 -11    8.35    3.12   1
  -2   1 -11    6.71    3.57   1
  -2   1 -11    7.13    4.65   1
  -2   1 -10   30.25    4.62   1
  -2   1 -10   39.44    4.40   1
  -2   1 -10   39.69    7.18   1
  -2   1  -9   18.66    5.27   1
  -2   1  -8   52.56    6.52   1
  -2   1  -7   75.86    6.27   1
  -2   1  -7   78.85    6.93   1
  -2   1  -6  256.32   12.49   1
  -2   1  -6  254.40   12.12   1
  -2   1  -6  261.47   12.29   1
  -2   1  -5   10.11    1.21   1
  -2   1  -5    8.47    3.26   1
  -2   1  -5   13.25    3.06   1
  -2   1  -5    7.45    2.68   1
  -2   1  -4    1.19    1.61   1
  -2   1  -4   -5.24    2.43   1
  -2   1  -4    1.77    2.07   1
  -2   1  -4    3.69    2.53   1
  -2   1  -4   -0.35    0.71   1
  -2   1  -3  130.87    6.41   1
  -2   1  -3  131.79    5.28   1
  -2   1  -3  134.10    6.02   1
  -2   1  -3  125.44    6.72   1
  -2   1  -3  138.06    7.76   1
  -2   1  -3  130.64    6.40   1
  -2   1  -2  173.71    8.70   1
  -2   1  -2  174.24    6.86   1
  -2   1  -2  169.00    7.80   1
  -2   1  -2  169.52    6.51   1
  -2   1  -1 3270.70   99.51   1
  -2   1  -1 3142.72   93.06   1
  -2   1  -1 3114.76   97.11   1
  -2   1   010000.00  298.00   1
  -2   1   0 8368.59  290.91   1
  -2   1   0 9846.59  285.78   1
  -2   1   1   24.01    6.27   1
  -2   1   1   25.81   11.28   1
  -2   1   1   31.58    3.26   1
  -2   1   1   30.69    5.76   1
  -2   1   2   36.60    4.36   1
  -2   1   2   29.27    2.70   1
  -2   1   2   37.45    3.67   1
  -2   1   2   36.12    2.88   1
  -2   1   3   14.90    3.55   1
  -2   1   3   18.06    2.63   1
  -2   1   3   19.45    1.94   1
  -2   1   3   17.39    2.67   1
  -2   1   4    2.59    1.96   1
  -2   1   4    4.84    3.21   1
  -2   1   5  184.96   10.88   1
  -2   1   5  201.07   10.21   1
  -2   1   5  195.72    9.51   1
  -2   1   6   36.24    5.54   1
  -2   1   6   39.69    3.78   1
  -2   1   6   34.11    4.67   1
  -2   1   7  119.46    8.74   1
  -2   1   7  107.33    6.42   1
  -2   1   8    1.49    3.20   1
  -2   1   9   -4.20    4.51   1
  -2   1   9   -0.76    4.42   1
  -2   1  10   15.21    5.85   1
  -2   1  10   23.72    6.04   1
  -2   1  11   -2.59    5.60   1
  -2   1  11    4.80    4.64   1
  -2   1  12   13.76    7.35   1
  -2   1  12    3.50    7.89   1
  -2   2 -14   -0.13    9.26   1
  -2   2 -13    6.92    8.05   1
  -2   2 -13    1.17    4.13   1
  -2   2 -13   -5.06    4.41   1
  -2   2 -12   26.21    5.22   1
  -2   2 -12   39.69    5.29   1
  -2   2 -12   29.38    8.35   1
  -2   2 -11   24.30    4.24   1
  -2   2 -11   17.22    4.65   1
  -2   2 -11   24.90    7.39   1
  -2   2 -10    2.50    2.94   1
  -2   2 -10   -7.29    5.40   1
  -2   2  -9  154.01   11.42   1
  -2   2  -8    7.90    4.10   1
  -2   2  -7    6.97    3.85   1
  -2   2  -6    7.34    2.98   1
  -2   2  -6   12.18    2.02   1
  -2   2  -6    7.78    2.85   1
  -2   2  -6   12.04    3.33   1
  -2   2  -5  382.59   15.26   1
  -2   2  -5  361.00   15.20   1
  -2   2  -5  385.34   15.70   1
  -2   2  -5  379.86   13.64   1
  -2   2  -4  307.65   11.58   1
  -2   2  -4  287.98   12.56   1
  -2   2  -4  304.50   12.56   1
  -2   2  -4  306.60   12.61   1
  -2   2  -3   19.18    3.68   1
  -2   2  -3   25.91    2.65   1
  -2   2  -3   19.54    3.18   1
  -2   2  -3   27.88    2.96   1
  -2   2  -3   19.27    2.55   1
  -2   2  -2   40.32    3.30   1
  -2   2  -2   43.82    4.63   1
  -2   2  -2   42.25    2.99   1
  -2   2  -2   38.94    3.37   1
  -2   2  -1  117.94    4.56   1
  -2   2  -1  127.01    6.09   1
  -2   2  -1  133.40    7.39   1
  -2   2  -1  130.87    6.64   1
  -2   2   0   20.88    3.29   1
  -2   2   0   15.84    3.10   1
  -2   2   1   47.89    4.84   1
  -2   2   1   60.53    2.65   1
  -2   2   2  104.86    7.17   1
  -2   2   2   99.40    6.18   1
  -2   2   2   95.26    4.49   1
  -2   2   3   -1.44    1.92   1
  -2   2   3    2.10    1.39   1
  -2   2   4    6.35    2.17   1
  -2   2   4   11.56    3.81   1
  -2   2   4    4.97    2.14   1
  -2   2   5  134.10    9.50   1
  -2   2   5  106.92    6.62   1
  -2   2   5  143.52    7.91   1
  -2   2   6  174.24    8.45   1
  -2   2   6  179.02    9.90   1
  -2   2   7   -0.50    2.74   1
  -2   2   7    1.85    1.85   1
  -2   2   8  160.28   10.63   1
  -2   2   8  136.89    7.02   1
  -2   2   8  164.61   11.29   1
  -2   2   9    8.64    5.17   1
  -2   2   9    6.86    1.94   1
  -2   2   9    0.21    4.05   1
  -2   2  10   16.00    5.68   1
  -2   2  10   21.07    6.33   1
  -2   2  11   61.31    9.08   1
  -2   2  12    4.93    6.75   1
  -2   2  12    6.60    7.61   1
  -2   3 -13   68.39   11.41   1
  -2   3 -13   56.25    9.90   1
  -2   3 -13   55.06    7.87   1
  -2   3 -12    3.57    4.35   1
  -2   3 -12   -5.06    6.84   1
  -2   3 -12   11.09    7.73   1
  -2   3 -11   -5.95    6.49   1
  -2   3 -11    5.06    4.41   1
  -2   3 -11   -0.50    1.96   1
  -2   3 -11   -2.86    2.06   1
  -2   3 -11    4.04    5.83   1
  -2   3 -10    3.42    1.92   1
  -2   3 -10   -0.05    5.05   1
  -2   3 -10   -0.29    3.47   1
  -2   3 -10    0.31    4.01   1
  -2   3  -9   31.25    6.15   1
  -2   3  -9   42.12    3.37   1
  -2   3  -9   35.64    6.45   1
  -2   3  -9   33.06    2.99   1
  -2   3  -8   -1.04    1.20   1
  -2   3  -8   -0.13    3.28   1
  -2   3  -8    0.83    1.37   1
  -2   3  -8   -2.22    4.23   1
  -2   3  -7    2.28    1.15   1
  -2   3  -7    6.00    3.38   1
  -2   3  -7   10.56    3.83   1
  -2   3  -6   42.90    5.24   1
  -2   3  -6   44.36    5.33   1
  -2   3  -6   42.51    5.09   1
  -2   3  -6   34.22    2.57   1
  -2   3  -5   52.13    5.20   1
  -2   3  -5   53.88    3.23   1
  -2   3  -5   55.65    5.22   1
  -2   3  -5   55.95    5.39   1
  -2   3  -4   81.90    5.79   1
  -2   3  -4   85.01    6.09   1
  -2   3  -4   87.98    6.19   1
  -2   3  -4   83.72    4.39   1
  -2   3  -3  193.77    7.24   1
  -2   3  -3  192.65    8.33   1
  -2   3  -3  210.83    9.58   1
  -2   3  -3  196.00    8.68   1
  -2   3  -3  211.70    9.89   1
  -2   3  -2   25.50    2.32   1
  -2   3  -2   24.60    2.88   1
  -2   3  -2   24.80    2.39   1
  -2   3  -2   27.25    3.34   1
  -2   3  -1    3.57    2.08   1
  -2   3  -1    5.52    1.83   1
  -2   3  -1    4.49    2.33   1
  -2   3   0   62.57    4.75   1
  -2   3   0   66.59    5.22   1
  -2   3   1   43.69    4.89   1
  -2   3   2   69.72    6.35   1
  -2   3   3   19.62    4.34   1
  -2   3   4  303.80   15.69   1
  -2   3   4  354.57   14.31   1
  -2   3   4  312.23   12.72   1
  -2   3   5   51.12    4.29   1
  -2   3   5   49.00    4.34   1
  -2   3   5   59.60    6.48   1
  -2   3   6   62.41    7.11   1
  -2   3   6   56.40    5.26   1
  -2   3   6   60.53    4.67   1
  -2   3   7  143.52    9.10   1
  -2   3   7  148.35   10.96   1
  -2   3   7  137.83    7.28   1
  -2   3   8   72.76    6.99   1
  -2   3   8   87.05    8.77   1
  -2   3   8   61.15    4.22   1
  -2   3   9   -1.90    5.00   1
  -2   3   9    4.97    4.15   1
  -2   3  10   -4.20    5.82   1
  -2   3  10   -7.51    4.55   1
  -2   3  11   12.96    6.62   1
  -2   3  11    7.62    6.18   1
  -2   3  12    7.73    7.56   1
  -2   4 -13   20.07   10.66   1
  -2   4 -13   14.21    9.27   1
  -2   4 -12    7.73    7.62   1
  -2   4 -12    7.13    5.98   1
  -2   4 -12   10.89    7.72   1
  -2   4 -11   -2.37    6.90   1
  -2   4 -11    2.62    4.96   1
  -2   4 -11    1.59    5.17   1
  -2   4 -10   37.95    7.52   1
  -2   4 -10   33.06    7.71   1
  -2   4 -10   30.25    6.27   1
  -2   4  -9    6.05    4.53   1
  -2   4  -9    1.77    4.87   1
  -2   4  -8    4.24    4.12   1
  -2   4  -8    0.77    4.15   1
  -2   4  -7  131.33    9.63   1
  -2   4  -7  133.40    9.93   1
  -2   4  -6    2.92    2.50   1
  -2   4  -6    5.57    3.68   1
  -2   4  -6    7.24    3.60   1
  -2   4  -5    9.06    3.25   1
  -2   4  -5    4.12    3.37   1
  -2   4  -5    4.24    3.05   1
  -2   4  -4    0.94    2.39   1
  -2   4  -4    4.93    2.93   1
  -2   4  -4    2.22    1.37   1
  -2   4  -4    0.81    2.72   1
  -2   4  -3  374.42   14.32   1
  -2   4  -3  355.70   12.82   1
  -2   4  -3  388.48   15.77   1
  -2   4  -3  386.52   14.94   1
  -2   4  -3  351.94   13.51   1
  -2   4  -2   54.17    5.00   1
  -2   4  -2   45.02    4.03   1
  -2   4  -2   42.77    3.53   1
  -2   4  -2   50.69    3.56   1
  -2   4  -1    6.55    2.20   1
  -2   4  -1    6.20    2.69   1
  -2   4  -1    4.80    2.37   1
  -2   4   0   57.30    5.15   1
  -2   4   0   44.09    4.38   1
  -2   4   0   42.77    4.71   1
  -2   4   1    0.55    2.28   1
  -2   4   1    0.29    2.81   1
  -2   4   2    2.31    2.77   1
  -2   4   2   15.60    3.95   1
  -2   4   3  265.69   13.37   1
  -2   4   4   25.60    4.86   1
  -2   4   5   25.40    3.63   1
  -2   4   5   21.16    4.97   1
  -2   4   6    5.43    4.10   1
  -2   4   6   10.56    2.60   1
  -2   4   7    1.30    1.87   1
  -2   4   7   -1.00    3.02   1
  -2   4   8   24.90    3.09   1
  -2   4   8   26.94    6.33   1
  -2   4   9    2.62    5.51   1
  -2   4  10   83.36   10.41   1
  -2   4  11    7.13    7.16   1
  -2   4  12    6.71    8.29   1
  -2   5 -12    6.20    9.21   1
  -2   5 -12   -2.59    7.31   1
  -2   5 -12    1.10    9.03   1
  -2   5 -11    5.52    7.33   1
  -2   5 -11    9.55    6.61   1
  -2   5 -11   -0.58    6.29   1
  -2   5 -10    0.88    5.75   1
  -2   5 -10   -0.44    6.34   1
  -2   5 -10   -2.07    5.30   1
  -2   5  -9  130.87   11.67   1
  -2   5  -9  146.17   12.33   1
  -2   5  -9  133.63   12.02   1
  -2   5  -8    0.56    3.88   1
  -2   5  -8   -0.85    4.58   1
  -2   5  -7   41.34    6.56   1
  -2   5  -7   41.34    6.30   1
  -2   5  -6   62.25    6.47   1
  -2   5  -6   62.57    6.64   1
  -2   5  -6   68.39    7.28   1
  -2   5  -5   -1.19    3.20   1
  -2   5  -5    2.46    3.30   1
  -2   5  -5    3.06    3.26   1
  -2   5  -4    4.67    1.30   1
  -2   5  -4    3.06    2.94   1
  -2   5  -4   -0.46    2.73   1
  -2   5  -4    6.50    3.47   1
  -2   5  -3   11.49    2.78   1
  -2   5  -3   18.49    3.53   1
  -2   5  -3   12.74    3.86   1
  -2   5  -3   14.14    2.11   1
  -2   5  -2    0.49    1.53   1
  -2   5  -2   -2.99    2.18   1
  -2   5  -1   34.46    3.87   1
  -2   5  -1   38.81    4.61   1
  -2   5   0   -3.20    2.47   1
  -2   5   0    7.67    3.32   1
  -2   5   1  313.64   14.17   1
  -2   5   2  172.40   10.50   1
  -2   5   3    3.10    3.48   1
  -2   5   4   40.83    6.13   1
  -2   5   6   29.70    4.14   1
  -2   5   6   31.02    5.46   1
  -2   5   7    4.16    4.90   1
  -2   5   7    1.80    2.71   1
  -2   5   8   42.90    4.06   1
  -2   5   8   36.84    6.43   1
  -2   5   9   44.09    8.50   1
  -2   5  10   -0.86    6.57   1
  -2   5  11   17.22    8.72   1
  -2   6 -11    7.56    9.02   1
  -2   6 -11   -1.46    7.72   1
  -2   6 -11    6.35    7.76   1
  -2   6 -10   16.56    7.81   1
  -2   6 -10    7.29    6.37   1
  -2   6 -10    7.67    7.26   1
  -2   6  -9    9.12    5.32   1
  -2   6  -9   -0.86    6.25   1
  -2   6  -9   20.61    6.81   1
  -2   6  -8   19.01    5.93   1
  -2   6  -8   10.69    5.62   1
  -2   6  -7   24.21    6.00   1
  -2   6  -7   15.37    5.96   1
  -2   6  -6    4.97    4.33   1
  -2   6  -6    7.90    3.93   1
  -2   6  -6   12.46    4.31   1
  -2   6  -5   49.98    6.36   1
  -2   6  -5   60.06    6.20   1
  -2   6  -5   59.75    6.03   1
  -2   6  -4    0.85    3.83   1
  -2   6  -4    9.18    3.27   1
  -2   6  -4    2.79    1.64   1
  -2   6  -4    8.64    3.47   1
  -2   6  -3   99.00    6.96   1
  -2   6  -3   96.24    5.89   1
  -2   6  -3   99.60    8.38   1
  -2   6  -2   42.64    4.31   1
  -2   6  -2   45.70    5.95   1
  -2   6  -1   -1.82    2.30   1
  -2   6  -1   -4.20    3.65   1
  -2   6   0   45.43    5.93   1
  -2   6   0   42.12    5.06   1
  -2   6   1  122.32    8.63   1
  -2   6   1  126.34    9.22   1
  -2   6   2   97.61    8.10   1
  -2   6   3   53.58    6.59   1
  -2   6   4   96.83    8.86   1
  -2   6   5   29.27    5.84   1
  -2   6   6    6.30    4.92   1
  -2   6   7  180.63   13.71   1
  -2   6   7  176.36   10.09   1
  -2   6   8   59.91    9.29   1
  -2   6   8   95.26    6.44   1
  -2   6   9    3.57    2.42   1
  -2   6   9    1.74    6.55   1
  -2   6  10    8.29    7.95   1
  -2   6  11    8.01    6.68   1
  -2   7 -10   47.89   10.38   1
  -2   7 -10   63.04   11.12   1
  -2   7 -10   34.57    9.29   1
  -2   7  -9    6.60    8.17   1
  -2   7  -9    4.12    7.71   1
  -2   7  -9    7.13    6.94   1
  -2   7  -8   -1.80    7.32   1
  -2   7  -8   -1.85    5.52   1
  -2   7  -8   -6.15    6.70   1
  -2   7  -7   65.61    8.75   1
  -2   7  -7   73.10    8.21   1
  -2   7  -6   14.52    4.57   1
  -2   7  -6   10.11    6.04   1
  -2   7  -6    9.18    4.79   1
  -2   7  -5   46.24    5.98   1
  -2   7  -5   42.25    5.98   1
  -2   7  -5   39.19    7.39   1
  -2   7  -4   23.91    3.23   1
  -2   7  -4   22.18    4.33   1
  -2   7  -4   15.68    5.46   1
  -2   7  -3  109.20    7.52   1
  -2   7  -3   94.28    6.41   1
  -2   7  -3   93.12    9.07   1
  -2   7  -2   36.48    4.59   1
  -2   7  -2   22.47    3.70   1
  -2   7  -2   28.52    5.66   1
  -2   7  -1  127.69    8.36   1
  -2   7  -1  109.62    9.42   1
  -2   7   0   40.07    5.32   1
  -2   7   0   58.98    7.37   1
  -2   7   1    9.30    3.66   1
  -2   7   1   12.82    4.94   1
  -2   7   2   -4.75    3.79   1
  -2   7   3   86.49    8.56   1
  -2   7   4    1.44    4.34   1
  -2   7   5    1.74    4.51   1
  -2   7   6   75.00    9.35   1
  -2   7   7   83.17   10.21   1
  -2   7   7   83.36    7.85   1
  -2   7   9    3.06    3.19   1
  -2   7   9    3.57    3.18   1
  -2   7   9   -9.36    7.71   1
  -2   8  -9   24.01    9.21   1
  -2   8  -9   22.09   11.09   1
  -2   8  -8    7.24    6.99   1
  -2   8  -8   -1.00    7.68   1
  -2   8  -8    5.02    7.93   1
  -2   8  -7   21.25    7.01   1
  -2   8  -7   14.59    7.72   1
  -2   8  -6   26.21    7.78   1
  -2   8  -5   85.75   10.37   1
  -2   8  -5   91.97    7.67   1
  -2   8  -4   22.47    4.83   1
  -2   8  -4    9.92    2.96   1
  -2   8  -4   14.90    6.25   1
  -2   8  -3   13.32    4.23   1
  -2   8  -3   11.16    3.34   1
  -2   8  -3    5.38    5.71   1
  -2   8  -2  113.00    8.29   1
  -2   8  -2  133.17    8.54   1
  -2   8  -2  118.16   10.87   1
  -2   8  -1  170.56   10.71   1
  -2   8  -1  172.66   12.88   1
  -2   8   0    2.86    3.79   1
  -2   8   0    5.11    3.62   1
  -2   8   1   21.44    5.00   1
  -2   8   1   22.28    6.23   1
  -2   8   2    9.73    4.74   1
  -2   8   3   17.14    5.63   1
  -2   8   6    1.30    5.86   1
  -2   8   7   12.32    7.58   1
  -2   8   8    2.43    7.89   1
  -2   8   8    1.10    4.30   1
  -2   8   8    2.96    5.09   1
  -2   8   9   -1.32    8.92   1
  -2   8   9    3.61    4.22   1
  -2   9  -7  -14.59    9.47   1
  -2   9  -6   39.44    9.80   1
  -2   9  -6   28.52   11.43   1
  -2   9  -5   17.81    5.23   1
  -2   9  -5    9.99    7.52   1
  -2   9  -4   -0.27    4.12   1
  -2   9  -4   -0.74    5.25   1
  -2   9  -4    1.42    3.05   1
  -2   9  -3   38.32    5.32   1
  -2   9  -3   30.36    5.29   1
  -2   9  -3   24.11    6.48   1
  -2   9  -2    0.85    4.10   1
  -2   9  -2    7.45    3.66   1
  -2   9  -1   19.27    6.85   1
  -2   9  -1   16.32    4.93   1
  -2   9  -1   22.37    4.64   1
  -2   9   0    1.49    4.51   1
  -2   9   0    4.00    6.24   1
  -2   9   1    9.80    5.45   1
  -2   9   2    3.46    4.91   1
  -2   9   3    7.67    5.93   1
  -2   9   4   81.54   10.11   1
  -2   9   5   93.12   11.58   1
  -2   9   6   15.37    7.84   1
  -2   9   7    5.34    8.45   1
  -2   9   7   -0.96    6.76   1
  -2   9   8   21.72    6.43   1
  -2   9   8   14.82   11.55   1
  -2  10  -5   -5.57    9.20   1
  -2  10  -4    6.55    8.55   1
  -2  10  -4    2.96    5.02   1
  -2  10  -3   28.30    5.85   1
  -2  10  -3    2.82    8.10   1
  -2  10  -2   23.91    4.99   1
  -2  10  -2   23.43    8.91   1
  -2  10  -1   39.94    7.08   1
  -2  10  -1   65.61    6.32   1
  -2  10  -1   45.56    9.72   1
  -2  10   0    1.99    7.08   1
  -2  10   0   -2.86    5.44   1
  -2  10   1    6.55    5.89   1
  -2  10   2    1.49    6.08   1
  -2  10   3   -6.71    7.15   1
  -2  10   4   -3.92    7.56   1
  -2  10   5   -7.73    7.78   1
  -2  10   5    4.28    8.11   1
  -2  10   6  -15.21    9.28   1
  -2  10   6    5.57    8.12   1
  -2  11  -1   20.70   10.10   1
  -2  11  -1   31.25    7.60   1
  -2  11   0    5.02    8.65   1
  -2  11   0   -4.93    6.70   1
  -2  11   1    7.73    7.51   1
  -2  11   2   11.70    8.28   1
  -1 -11  -6   87.80   13.31   1
  -1 -11  -5   12.46    9.32   1
  -1 -11  -5   14.21    9.27   1
  -1 -11  -4    4.04    6.67   1
  -1 -11  -4    8.53    7.88   1
  -1 -11  -4   -4.41    8.40   1
  -1 -11  -3   20.52    7.07   1
  -1 -11  -3   36.60    8.59   1
  -1 -11  -3   17.14    8.53   1
  -1 -11  -2   -2.79    6.45   1
  -1 -11  -2    5.62    7.96   1
  -1 -11  -2    2.66    6.16   1
  -1 -11  -1    8.82    6.77   1
  -1 -11  -1   19.27    6.94   1
  -1 -11  -1    5.20    7.48   1
  -1 -11   0   -6.50    5.15   1
  -1 -11   0   -7.78    6.97   1
  -1 -11   0   10.24    7.62   1
  -1 -11   1   17.56    8.04   1
  -1 -11   1    1.74    4.36   1
  -1 -11   1    4.41    6.26   1
  -1 -11   2    8.53    7.59   1
  -1 -11   2    2.16    7.11   1
  -1 -10  -8    0.38    6.14   1
  -1 -10  -8    3.53    6.62   1
  -1 -10  -7   25.10    9.32   1
  -1 -10  -7   13.91    6.42   1
  -1 -10  -7   22.75   10.59   1
  -1 -10  -7   -3.06    9.10   1
  -1 -10  -6    2.25    5.70   1
  -1 -10  -6    3.46    7.96   1
  -1 -10  -6    1.72    8.15   1
  -1 -10  -5   -7.24    7.53   1
  -1 -10  -5    6.71    7.04   1
  -1 -10  -5    8.07    6.53   1
  -1 -10  -4    4.67    6.52   1
  -1 -10  -4   -4.62    5.93   1
  -1 -10  -4    2.22    6.94   1
  -1 -10  -3   24.80    6.18   1
  -1 -10  -3    9.92    7.18   1
  -1 -10  -3   37.82    8.24   1
  -1 -10  -3   25.50    6.97   1
  -1 -10  -2    4.20    6.19   1
  -1 -10  -2   -1.56    5.20   1
  -1 -10  -2   -1.61    5.05   1
  -1 -10  -2   -5.90    6.95   1
  -1 -10  -1    0.36    5.05   1
  -1 -10  -1   -1.23    4.57   1
  -1 -10  -1    0.28    4.77   1
  -1 -10  -1    9.49    5.36   1
  -1 -10   0   38.32    8.91   1
  -1 -10   0   72.42    9.02   1
  -1 -10   0   61.62    7.38   1
  -1 -10   1    2.50    3.70   1
  -1 -10   1    0.10    5.22   1
  -1 -10   1   -1.00    5.46   1
  -1 -10   1    6.35    7.01   1
  -1 -10   2   10.96    3.51   1
  -1 -10   2   11.42    5.75   1
  -1 -10   2   22.66    4.28   1
  -1 -10   2   12.53    6.37   1
  -1 -10   3   67.57    8.22   1
  -1 -10   3   49.42    8.44   1
  -1 -10   4   -3.61    7.03   1
  -1 -10   4    5.57    5.43   1
  -1 -10   5   -3.65    6.04   1
  -1 -10   5  -12.11    8.56   1
  -1  -9 -10   -5.71    7.12   1
  -1  -9 -10    3.65   10.24   1
  -1  -9  -9   25.40    9.98   1
  -1  -9  -9   28.94    7.32   1
  -1  -9  -8   -6.40    5.41   1
  -1  -9  -8   -0.06    6.46   1
  -1  -9  -8   -4.16    7.63   1
  -1  -9  -7   25.20    7.03   1
  -1  -9  -7   45.97    7.19   1
  -1  -9  -7   29.05    8.62   1
  -1  -9  -6    5.24    6.55   1
  -1  -9  -6    2.43    5.87   1
  -1  -9  -6    9.86    6.85   1
  -1  -9  -5   35.05    7.81   1
  -1  -9  -5   40.83    7.16   1
  -1  -9  -5   45.29    8.08   1
  -1  -9  -4  207.36   15.26   1
  -1  -9  -4  234.09   15.61   1
  -1  -9  -4  236.54   16.00   1
  -1  -9  -3   21.44    6.48   1
  -1  -9  -3    5.71    5.69   1
  -1  -9  -3   17.39    6.00   1
  -1  -9  -2    1.80    4.45   1
  -1  -9  -2    6.25    4.60   1
  -1  -9  -2    7.95    5.70   1
  -1  -9  -2   -1.19    4.88   1
  -1  -9  -1   15.29    5.40   1
  -1  -9  -1   -0.71    5.46   1
  -1  -9  -1   16.24    4.92   1
  -1  -9  -1    9.67    4.60   1
  -1  -9   0  -10.63    4.69   1
  -1  -9   0   -5.76    3.94   1
  -1  -9   0   -0.83    4.22   1
  -1  -9   0    9.18    6.00   1
  -1  -9   1   65.12    7.91   1
  -1  -9   1   61.47    6.27   1
  -1  -9   1   40.83    6.90   1
  -1  -9   1   61.62    7.54   1
  -1  -9   2   42.64    4.57   1
  -1  -9   2   43.82    6.62   1
  -1  -9   2   35.16    7.83   1
  -1  -9   2   38.32    6.81   1
  -1  -9   3   14.67    2.60   1
  -1  -9   3   19.45    5.82   1
  -1  -9   3   17.64    5.12   1
  -1  -9   3   12.96    2.66   1
  -1  -9   4   -5.52    5.92   1
  -1  -9   4   -6.30    4.32   1
  -1  -9   5  -10.89    7.19   1
  -1  -9   5    5.66    4.33   1
  -1  -9   6    9.73    4.49   1
  -1  -9   6    4.54    7.28   1
  -1  -8 -11    8.82   10.04   1
  -1  -8 -11   14.98    7.89   1
  -1  -8 -10   10.43    8.85   1
  -1  -8 -10   -7.34    7.64   1
  -1  -8 -10    2.22    6.32   1
  -1  -8  -9   16.65    8.49   1
  -1  -8  -9   19.45    6.61   1
  -1  -8  -8   13.32    7.59   1
  -1  -8  -8   18.40    5.83   1
  -1  -8  -8    6.15    7.24   1
  -1  -8  -7    9.36    5.63   1
  -1  -8  -7    1.82    6.43   1
  -1  -8  -7    0.88    5.43   1
  -1  -8  -7   -4.54    4.60   1
  -1  -8  -6    3.72    5.60   1
  -1  -8  -5   22.37    5.96   1
  -1  -8  -5   27.77    5.69   1
  -1  -8  -4   -9.24    4.99   1
  -1  -8  -4   -3.03    4.80   1
  -1  -8  -3   66.75    8.17   1
  -1  -8  -3   96.04    8.82   1
  -1  -8  -2   19.18    5.17   1
  -1  -8  -2    8.24    4.82   1
  -1  -8  -1    3.20    4.58   1
  -1  -8  -1   18.06    4.68   1
  -1  -8  -1   14.59    5.12   1
  -1  -8   0  136.19    9.57   1
  -1  -8   0  143.04   10.05   1
  -1  -8   0  114.06   10.25   1
  -1  -8   1   38.69    5.85   1
  -1  -8   1   33.99    5.71   1
  -1  -8   1   26.83    6.01   1
  -1  -8   2    2.50    4.27   1
  -1  -8   2    1.59    3.78   1
  -1  -8   2    5.29    2.71   1
  -1  -8   2    5.48    5.05   1
  -1  -8   3    2.59    1.93   1
  -1  -8   3    5.11    1.99   1
  -1  -8   3   -1.14    3.53   1
  -1  -8   3    6.35    4.79   1
  -1  -8   4   31.92    6.55   1
  -1  -8   4   44.36    5.86   1
  -1  -8   5    0.29    3.29   1
  -1  -8   5   -2.92    5.75   1
  -1  -8   6    4.04    3.54   1
  -1  -8   6   -6.97    6.76   1
  -1  -8   7   93.51   11.41   1
  -1  -8   7   82.08    6.89   1
  -1  -8   8    1.00    9.50   1
  -1  -8   8    3.50    4.11   1
  -1  -7 -11   -2.62    7.39   1
  -1  -7 -11    7.29    8.59   1
  -1  -7 -11    2.31    6.57   1
  -1  -7 -10   47.06    9.88   1
  -1  -7 -10   54.32    8.25   1
  -1  -7  -9   20.79    6.02   1
  -1  -7  -9   -0.08    6.52   1
  -1  -7  -9    5.57    5.66   1
  -1  -7  -8   23.23    5.59   1
  -1  -7  -8   11.63    4.43   1
  -1  -7  -8   20.88    7.13   1
  -1  -7  -7  222.01   15.20   1
  -1  -7  -7  214.04   13.75   1
  -1  -7  -7  242.11   13.38   1
  -1  -7  -6    0.90    4.14   1
  -1  -7  -6   17.64    4.70   1
  -1  -7  -5   21.16    4.78   1
  -1  -7  -5   31.92    6.33   1
  -1  -7  -4    4.20    3.73   1
  -1  -7  -4    6.86    4.45   1
  -1  -7  -3   21.90    5.34   1
  -1  -7  -3   21.81    4.95   1
  -1  -7  -2   17.06    4.38   1
  -1  -7  -2   21.72    4.29   1
  -1  -7  -1   10.05    3.93   1
  -1  -7  -1   10.76    4.07   1
  -1  -7  -1    2.56    3.49   1
  -1  -7   0  263.09   13.95   1
  -1  -7   0  267.32   14.72   1
  -1  -7   0  266.34   13.38   1
  -1  -7   1  186.05   11.73   1
  -1  -7   1  187.42   10.95   1
  -1  -7   1  189.61   11.02   1
  -1  -7   2    1.17    3.15   1
  -1  -7   2    6.50    3.16   1
  -1  -7   2    2.25    3.78   1
  -1  -7   3   73.27    6.51   1
  -1  -7   3   66.59    4.41   1
  -1  -7   3   69.72    4.34   1
  -1  -7   3   74.13    7.58   1
  -1  -7   4   98.41    7.34   1
  -1  -7   4   83.91    8.43   1
  -1  -7   5   29.27    4.54   1
  -1  -7   5   19.27    6.06   1
  -1  -7   6    6.05    5.56   1
  -1  -7   7   17.31    6.91   1
  -1  -7   7    9.00    3.48   1
  -1  -7   8   -1.06    7.33   1
  -1  -7   8   -3.57    3.25   1
  -1  -7   9    2.22    4.53   1
  -1  -7   9   -1.69    6.03   1
  -1  -7   9    8.53    5.43   1
  -1  -6 -13   -2.96    7.81   1
  -1  -6 -13    5.76    8.78   1
  -1  -6 -12   15.13    9.02   1
  -1  -6 -12   -7.56    7.37   1
  -1  -6 -12   -6.00    6.27   1
  -1  -6 -11   43.56    8.18   1
  -1  -6 -11   40.58    9.56   1
  -1  -6 -11   31.92    8.25   1
  -1  -6 -10   -1.04    5.53   1
  -1  -6 -10    2.07    4.78   1
  -1  -6 -10  -14.14    6.09   1
  -1  -6  -9   19.10    5.59   1
  -1  -6  -9   13.40    5.64   1
  -1  -6  -9    8.64    6.47   1
  -1  -6  -8   20.61    5.45   1
  -1  -6  -8   16.32    5.74   1
  -1  -6  -8   24.50    5.44   1
  -1  -6  -7   46.24    6.53   1
  -1  -6  -7   34.81    6.61   1
  -1  -6  -7   50.41    6.25   1
  -1  -6  -6    2.46    3.42   1
  -1  -6  -6   -1.59    3.98   1
  -1  -6  -5    3.96    2.59   1
  -1  -6  -5   12.18    4.40   1
  -1  -6  -4  157.75    9.80   1
  -1  -6  -4  147.14   10.43   1
  -1  -6  -3   31.70    5.07   1
  -1  -6  -3   32.83    4.93   1
  -1  -6  -2   14.29    3.33   1
  -1  -6  -2   15.92    3.91   1
  -1  -6  -1  258.89   13.52   1
  -1  -6  -1  277.56   13.66   1
  -1  -6   0   19.18    3.94   1
  -1  -6   0   11.49    3.66   1
  -1  -6   0   15.37    3.92   1
  -1  -6   1   -2.46    3.39   1
  -1  -6   1    0.34    2.83   1
  -1  -6   1    0.88    2.67   1
  -1  -6   2   43.43    5.67   1
  -1  -6   2   45.16    5.91   1
  -1  -6   2   49.84    5.08   1
  -1  -6   3   51.84    5.18   1
  -1  -6   3   52.27    5.78   1
  -1  -6   3   54.17    3.53   1
  -1  -6   4   28.52    3.95   1
  -1  -6   4   18.58    4.05   1
  -1  -6   5    3.76    2.60   1
  -1  -6   5    8.82    4.75   1
  -1  -6   5    5.86    2.81   1
  -1  -6   6   42.51    7.30   1
  -1  -6   6   73.44    5.83   1
  -1  -6   6   55.95    5.54   1
  -1  -6   7    0.69    2.69   1
  -1  -6   7    5.90    5.59   1
  -1  -6   7   -0.46    3.18   1
  -1  -6   8    5.38    4.27   1
  -1  -6   8    7.95    6.66   1
  -1  -6   8    1.85    3.13   1
  -1  -6   9   40.70    6.89   1
  -1  -6   9   55.50    8.05   1
  -1  -6   9   53.29    5.40   1
  -1  -6   9   52.85    9.60   1
  -1  -6  10    0.06    5.44   1
  -1  -6  10    9.80    3.76   1
  -1  -6  10   -0.96    6.13   1
  -1  -5 -13  104.86   12.49   1
  -1  -5 -13   82.99   12.75   1
  -1  -5 -12   23.04    8.06   1
  -1  -5 -12   26.42    8.94   1
  -1  -5 -11    4.88    5.83   1
  -1  -5 -11    2.40    4.56   1
  -1  -5 -10   16.40    6.80   1
  -1  -5 -10   37.82    6.03   1
  -1  -5  -9   14.75    6.45   1
  -1  -5  -9   27.88    5.91   1
  -1  -5  -8   16.16    5.39   1
  -1  -5  -8   22.94    5.08   1
  -1  -5  -7  314.35   15.25   1
  -1  -5  -7  288.66   15.97   1
  -1  -5  -7  301.72   15.29   1
  -1  -5  -6   -7.18    3.97   1
  -1  -5  -6    2.79    3.37   1
  -1  -5  -6   -1.14    3.08   1
  -1  -5  -5  224.70   11.99   1
  -1  -5  -5  235.62   12.89   1
  -1  -5  -4   -4.20    3.28   1
  -1  -5  -4   -1.93    2.84   1
  -1  -5  -3  196.00   10.92   1
  -1  -5  -3  204.20   10.57   1
  -1  -5  -2   43.30    5.00   1
  -1  -5  -2   34.93    4.37   1
  -1  -5  -1  227.71   11.17   1
  -1  -5  -1  230.74   11.24   1
  -1  -5   0  117.29    7.58   1
  -1  -5   0  108.16    7.07   1
  -1  -5   0  109.62    7.75   1
  -1  -5   1   58.52    5.20   1
  -1  -5   1   57.46    5.76   1
  -1  -5   1   73.62    6.01   1
  -1  -5   2    2.28    3.08   1
  -1  -5   2    8.47    2.50   1
  -1  -5   2   10.05    3.36   1
  -1  -5   3    1.88    1.29   1
  -1  -5   3    0.29    3.10   1
  -1  -5   3    1.42    1.43   1
  -1  -5   3    1.66    2.19   1
  -1  -5   4  217.27   10.32   1
  -1  -5   4  197.12   11.51   1
  -1  -5   4  206.21    9.48   1
  -1  -5   5   81.18    5.95   1
  -1  -5   5   73.62    5.66   1
  -1  -5   5   76.04    7.15   1
  -1  -5   6  124.99    7.38   1
  -1  -5   6  125.22   10.29   1
  -1  -5   6  119.68    8.10   1
  -1  -5   7    0.56    3.16   1
  -1  -5   7   -5.62    5.02   1
  -1  -5   7   -0.90    2.64   1
  -1  -5   8   64.16    5.61   1
  -1  -5   8   51.84    6.62   1
  -1  -5   8   53.58    7.32   1
  -1  -5   9    2.59    4.06   1
  -1  -5   9    2.50    4.23   1
  -1  -5   9    2.69    3.25   1
  -1  -5   9    2.59    4.70   1
  -1  -5  10   50.84    9.70   1
  -1  -5  10   66.42    7.99   1
  -1  -5  10   66.26    6.19   1
  -1  -5  10   65.93    8.61   1
  -1  -5  11    7.24    6.35   1
  -1  -5  11    1.88    5.43   1
  -1  -5  11   10.89    4.29   1
  -1  -5  11    3.61    3.95   1
  -1  -4 -13   11.63    7.98   1
  -1  -4 -13    2.86    7.88   1
  -1  -4 -12    7.78    6.86   1
  -1  -4 -12    6.05    6.74   1
  -1  -4 -11   32.38    7.17   1
  -1  -4 -11   39.31    7.02   1
  -1  -4 -11   33.87    3.49   1
  -1  -4 -10   41.86    7.76   1
  -1  -4 -10   43.69    7.27   1
  -1  -4  -9   22.47    5.59   1
  -1  -4  -8   43.96    5.97   1
  -1  -4  -7  282.24   14.11   1
  -1  -4  -7  290.02   14.99   1
  -1  -4  -6   18.06    4.16   1
  -1  -4  -6   14.98    3.72   1
  -1  -4  -5   93.90    7.17   1
  -1  -4  -5  105.47    7.19   1
  -1  -4  -4   73.79    5.84   1
  -1  -4  -4   81.00    6.48   1
  -1  -4  -3   79.57    6.24   1
  -1  -4  -3   90.25    5.89   1
  -1  -4  -2   11.02    2.92   1
  -1  -4  -2   11.49    2.78   1
  -1  -4  -1    1.12    2.06   1
  -1  -4  -1   -3.03    2.30   1
  -1  -4   0  634.54   22.17   1
  -1  -4   0  625.00   22.00   1
  -1  -4   1   35.28    4.16   1
  -1  -4   1   32.60    3.88   1
  -1  -4   1   33.52    3.71   1
  -1  -4   2  131.79    5.51   1
  -1  -4   2  141.61    8.09   1
  -1  -4   2  125.22    5.82   1
  -1  -4   2  132.48    7.37   1
  -1  -4   3  450.29   15.70   1
  -1  -4   3  417.79   15.13   1
  -1  -4   3  447.75   18.62   1
  -1  -4   3  451.56   17.00   1
  -1  -4   4  107.54    7.88   1
  -1  -4   4  109.62    6.28   1
  -1  -4   4  107.95    6.23   1
  -1  -4   4   92.35    4.42   1
  -1  -4   5    0.62    2.16   1
  -1  -4   5    2.89    2.48   1
  -1  -4   6  134.33   10.20   1
  -1  -4   6  139.71    8.04   1
  -1  -4   6  129.05    8.63   1
  -1  -4   7   -2.13    4.32   1
  -1  -4   7   -0.04    2.87   1
  -1  -4   8   42.38    6.12   1
  -1  -4   8   32.04    6.57   1
  -1  -4   9   46.79    8.07   1
  -1  -4   9   53.29    6.13   1
  -1  -4   9   54.61    7.09   1
  -1  -4  10   80.10    8.95   1
  -1  -4  10   70.22   10.06   1
  -1  -4  10   80.64    7.36   1
  -1  -4  11    9.86    6.41   1
  -1  -4  11    6.25    9.50   1
  -1  -4  11   21.16    4.97   1
  -1  -4  12    6.50    4.54   1
  -1  -4  12   -2.86    6.62   1
  -1  -3 -14   26.52   10.20   1
  -1  -3 -13   -0.48    7.34   1
  -1  -3 -13   -0.66    7.10   1
  -1  -3 -12   -9.30    6.65   1
  -1  -3 -12   -0.07    5.41   1
  -1  -3 -11    9.42    5.71   1
  -1  -3 -11    2.10    5.37   1
  -1  -3 -10    0.06    1.59   1
  -1  -3 -10   -4.62    4.95   1
  -1  -3 -10    5.71    5.02   1
  -1  -3  -9  112.78    9.35   1
  -1  -3  -8   57.15    6.50   1
  -1  -3  -7   26.11    4.39   1
  -1  -3  -7   23.52    4.27   1
  -1  -3  -6   -3.53    2.67   1
  -1  -3  -6    3.50    2.81   1
  -1  -3  -5  284.26   12.48   1
  -1  -3  -5  274.90   12.93   1
  -1  -3  -4    3.92    2.49   1
  -1  -3  -4    5.57    1.79   1
  -1  -3  -3   38.56    3.73   1
  -1  -3  -3   35.64    4.06   1
  -1  -3  -2   26.94    3.43   1
  -1  -3  -2   32.15    3.18   1
  -1  -3  -1  602.21   21.10   1
  -1  -3  -1  608.12   22.69   1
  -1  -3   0    1.74    3.12   1
  -1  -3   0   -0.23    1.79   1
  -1  -3   0    0.90    1.84   1
  -1  -3   1  139.71    8.27   1
  -1  -3   1  140.66    6.88   1
  -1  -3   1  131.33    7.11   1
  -1  -3   1  136.19    4.90   1
  -1  -3   1  139.24    7.32   1
  -1  -3   2  205.35    8.02   1
  -1  -3   2  201.07    9.93   1
  -1  -3   2  198.25    9.01   1
  -1  -3   2  197.12    7.86   1
  -1  -3   3  169.00    7.02   1
  -1  -3   3  170.56    9.40   1
  -1  -3   3  184.42    7.88   1
  -1  -3   4   68.39    3.97   1
  -1  -3   4   75.00    5.37   1
  -1  -3   4   81.36    6.49   1
  -1  -3   5    0.72    2.35   1
  -1  -3   5    6.55    2.82   1
  -1  -3   6   19.45    3.79   1
  -1  -3   6   16.56    4.23   1
  -1  -3   7   21.72    4.94   1
  -1  -3   7   22.18    4.43   1
  -1  -3   8    8.53    3.74   1
  -1  -3   8    4.33    3.58   1
  -1  -3   8    2.59    2.74   1
  -1  -3   9   -1.51    4.75   1
  -1  -3   9    5.62    3.03   1
  -1  -3   9    2.89    3.23   1
  -1  -3  10    0.59    2.90   1
  -1  -3  10    3.65    4.93   1
  -1  -3  10    6.00    6.42   1
  -1  -3  11   13.40    3.59   1
  -1  -3  11    9.18    4.12   1
  -1  -3  11   11.22    6.16   1
  -1  -3  11    0.21    7.20   1
  -1  -3  12   67.24   10.17   1
  -1  -3  12   89.49    7.76   1
  -1  -2 -14   -2.50    7.87   1
  -1  -2 -14   -0.79    8.88   1
  -1  -2 -13    9.86    6.53   1
  -1  -2 -13   15.60    8.30   1
  -1  -2 -12   97.42   10.46   1
  -1  -2 -12  103.02   11.16   1
  -1  -2 -11   -5.43    5.59   1
  -1  -2 -11    0.45    4.33   1
  -1  -2 -10  135.72   10.48   1
  -1  -2 -10  134.79   10.91   1
  -1  -2  -9  230.13   13.96   1
  -1  -2  -9  253.13   14.32   1
  -1  -2  -9  225.30    9.61   1
  -1  -2  -8    3.80    3.59   1
  -1  -2  -8    8.76    2.07   1
  -1  -2  -7  104.04    7.55   1
  -1  -2  -6  120.34    7.90   1
  -1  -2  -6  118.59    7.41   1
  -1  -2  -5  372.10   15.43   1
  -1  -2  -5  413.31   15.86   1
  -1  -2  -4   16.97    1.81   1
  -1  -2  -4   19.18    2.98   1
  -1  -2  -4   24.30    3.45   1
  -1  -2  -3   29.38    2.60   1
  -1  -2  -3   29.92    3.28   1
  -1  -2  -2    4.58    2.14   1
  -1  -2  -2    1.32    1.61   1
  -1  -2  -2    3.17    2.24   1
  -1  -2  -1  101.00    4.82   1
  -1  -2  -1   98.60    5.36   1
  -1  -2  -1   97.61    5.53   1
  -1  -2   0   64.48    5.14   1
  -1  -2   0   70.73    4.20   1
  -1  -2   0   65.29    4.04   1
  -1  -2   1    9.42    1.60   1
  -1  -2   1    7.78    2.57   1
  -1  -2   1   11.90    2.14   1
  -1  -2   1    6.05    2.61   1
  -1  -2   2  214.33   10.54   1
  -1  -2   2  224.10    9.88   1
  -1  -2   2  221.71    8.34   1
  -1  -2   3    1.74    2.56   1
  -1  -2   3    2.02    1.39   1
  -1  -2   3   -0.24    1.59   1
  -1  -2   4    2.31    1.76   1
  -1  -2   4    3.42    2.74   1
  -1  -2   5  269.29   13.46   1
  -1  -2   5  278.89   11.36   1
  -1  -2   6    0.35    3.07   1
  -1  -2   7  390.46   18.18   1
  -1  -2   7  371.72   15.04   1
  -1  -2   8  502.66   22.87   1
  -1  -2   8  580.33   20.24   1
  -1  -2   9    4.71    4.90   1
  -1  -2   9   15.76    2.86   1
  -1  -2   9   13.99    4.94   1
  -1  -2  10   29.05    6.25   1
  -1  -2  10   40.58    6.75   1
  -1  -2  11   38.19    5.69   1
  -1  -2  11   21.34    7.76   1
  -1  -2  11   30.80    7.10   1
  -1  -2  12    4.62    8.47   1
  -1  -2  12   -3.03    6.40   1
  -1  -2  12    4.28    4.35   1
  -1  -2  13   12.25    5.60   1
  -1  -2  13    3.28    8.22   1
  -1  -1 -14   92.74   13.29   1
  -1  -1 -14   83.17   10.76   1
  -1  -1 -13    1.49    5.66   1
  -1  -1 -13    7.56    6.88   1
  -1  -1 -12   22.66    7.90   1
  -1  -1 -12   24.21    6.30   1
  -1  -1 -11   -5.76    5.66   1
  -1  -1 -11    3.24    4.39   1
  -1  -1 -10  137.59   10.09   1
  -1  -1 -10  107.95   10.18   1
  -1  -1  -9  133.40    9.47   1
  -1  -1  -9  132.25   10.12   1
  -1  -1  -8   51.41    3.87   1
  -1  -1  -8   51.41    6.31   1
  -1  -1  -7    1.80    3.14   1
  -1  -1  -6   32.49    4.10   1
  -1  -1  -6   38.56    3.23   1
  -1  -1  -5  200.51    9.06   1
  -1  -1  -5  201.64    9.94   1
  -1  -1  -4  345.22   13.38   1
  -1  -1  -4  309.06   11.25   1
  -1  -1  -4  350.44   12.73   1
  -1  -1  -3   21.62    2.60   1
  -1  -1  -3   23.33    2.99   1
  -1  -1  -3   17.89    1.78   1
  -1  -1  -2    5.66    1.71   1
  -1  -1  -2    7.08    1.54   1
  -1  -1  -2    7.84    1.74   1
  -1  -1  -1  621.01   19.94   1
  -1  -1  -1  568.35   19.07   1
  -1  -1   0   44.89    2.81   1
  -1  -1   1 2667.72   87.81   1
  -1  -1   1 2688.42   84.00   1
  -1  -1   1 2824.92   81.85   1
  -1  -1   2   71.23    4.73   1
  -1  -1   2   64.48    4.01   1
  -1  -1   2   69.56    5.00   1
  -1  -1   3   20.34    2.98   1
  -1  -1   3   14.75    3.07   1
  -1  -1   3   20.98    2.47   1
  -1  -1   4   -1.10    2.35   1
  -1  -1   4    2.34    1.81   1
  -1  -1   4    2.04    2.20   1
  -1  -1   5  140.42    8.53   1
  -1  -1   5  140.19    7.34   1
  -1  -1   5  128.14    7.47   1
  -1  -1   6  323.64   15.11   1
  -1  -1   6  311.88   12.01   1
  -1  -1   7    0.92    1.40   1
  -1  -1   7   -0.88    3.16   1
  -1  -1   8   75.00    4.16   1
  -1  -1   8   84.82    8.10   1
  -1  -1   9   20.88    5.58   1
  -1  -1  10   25.81    4.88   1
  -1  -1  10   24.30    6.51   1
  -1  -1  11   -3.53    5.45   1
  -1  -1  11   -6.10    6.47   1
  -1  -1  11   -2.37    4.00   1
  -1  -1  12   -5.38    7.38   1
  -1  -1  12    6.86    5.03   1
  -1  -1  12    7.67    6.37   1
  -1  -1  13   36.60    6.90   1
  -1  -1  13   32.49    7.30   1
  -1   0 -14   49.84   11.44   1
  -1   0 -14   46.92    8.63   1
  -1   0 -13   -4.49    5.30   1
  -1   0 -13   -1.88    6.44   1
  -1   0 -12    3.53    6.77   1
  -1   0 -11   19.71    6.57   1
  -1   0 -11   22.94    5.27   1
  -1   0 -10   55.50    6.41   1
  -1   0 -10   67.24    8.53   1
  -1   0  -9   47.47    3.44   1
  -1   0  -9   43.03    6.43   1
  -1   0  -9   58.06    5.94   1
  -1   0  -8  261.79   14.56   1
  -1   0  -8  255.04   12.78   1
  -1   0  -8  262.44   10.69   1
  -1   0  -7   14.52    2.06   1
  -1   0  -7   13.91    3.28   1
  -1   0  -6  166.41    7.74   1
  -1   0  -6  148.84    9.27   1
  -1   0  -5  695.38   24.26   1
  -1   0  -5  679.12   23.45   1
  -1   0  -4   94.28    4.47   1
  -1   0  -4   96.43    5.89   1
  -1   0  -4   87.42    5.05   1
  -1   0  -3    4.67    1.90   1
  -1   0  -3    1.93    1.08   1
  -1   0  -3   -1.00    1.76   1
  -1   0  -2   60.22    2.79   1
  -1   0  -2   56.25    3.45   1
  -1   0  -2   47.61    3.17   1
  -1   0   0   -0.16    1.09   1
  -1   0   0   -1.32    0.53   1
  -1   0   1   90.25    4.75   1
  -1   0   1  103.43    4.47   1
  -1   0   2  514.84   18.15   1
  -1   0   2  514.38   17.24   1
  -1   0   2  524.41   17.86   1
  -1   0   3    5.20    1.78   1
  -1   0   3   -1.64    2.00   1
  -1   0   3    1.08    2.29   1
  -1   0   4   34.69    3.18   1
  -1   0   4   36.48    3.87   1
  -1   0   4   37.95    3.94   1
  -1   0   5   47.20    4.81   1
  -1   0   5   45.83    3.66   1
  -1   0   6   30.14    3.07   1
  -1   0   6   28.30    4.26   1
  -1   0   7   15.52    4.10   1
  -1   0   8  124.32    9.37   1
  -1   0   9   14.90    4.17   1
  -1   0   9   12.74    5.00   1
  -1   0  10   14.29    4.46   1
  -1   0  10    5.62    4.93   1
  -1   0  11   -0.31    5.92   1
  -1   0  11    3.80    4.29   1
  -1   0  12   85.01   11.06   1
  -1   0  12   92.74    9.05   1
  -1   0  12   91.58   10.53   1
  -1   0  13    2.99    5.47   1
  -1   0  13   -4.45    7.55   1
  -1   1 -14   -0.79    7.00   1
  -1   1 -13   18.58    5.34   1
  -1   1 -13   17.98    7.55   1
  -1   1 -12   82.99    8.02   1
  -1   1 -12   66.26    9.93   1
  -1   1 -12   73.62    5.49   1
  -1   1 -11   17.31    4.58   1
  -1   1 -11   27.88    7.29   1
  -1   1 -11   19.54    3.54   1
  -1   1 -10   -3.31    2.22   1
  -1   1 -10    1.59    2.87   1
  -1   1 -10    4.41    5.08   1
  -1   1  -9    0.46    2.05   1
  -1   1  -9   -1.56    2.55   1
  -1   1  -9   -1.28    4.07   1
  -1   1  -8   84.09    5.87   1
  -1   1  -8   83.17    8.03   1
  -1   1  -8   90.06    6.45   1
  -1   1  -7  100.80    6.22   1
  -1   1  -7  108.37    8.33   1
  -1   1  -7  102.41    6.27   1
  -1   1  -6    7.34    3.41   1
  -1   1  -5   51.70    5.03   1
  -1   1  -4   23.14    3.27   1
  -1   1  -4   29.59    3.70   1
  -1   1  -3    1.59    1.92   1
  -1   1  -3    2.79    2.07   1
  -1   1  -3   -2.40    2.45   1
  -1   1  -2  873.79   26.60   1
  -1   1  -2  898.20   28.77   1
  -1   1  -2  838.10   27.21   1
  -1   1  -2  862.60   27.02   1
  -1   1  -2  862.60   27.02   1
  -1   1  -1    0.49    1.76   1
  -1   1  -1    1.17    0.89   1
  -1   1  -1    1.54    1.26   1
  -1   1   0    2.31    1.49   1
  -1   1   1  100.80    3.82   1
  -1   1   1   91.58    4.40   1
  -1   1   1  101.61    5.44   1
  -1   1   2   91.20    4.58   1
  -1   1   2   90.44    5.71   1
  -1   1   2   86.12    4.27   1
  -1   1   3   38.81    4.11   1
  -1   1   3   47.06    3.02   1
  -1   1   3   39.06    3.38   1
  -1   1   4   16.73    2.62   1
  -1   1   4   16.40    1.86   1
  -1   1   4   12.04    3.19   1
  -1   1   5  611.57   22.26   1
  -1   1   5  691.69   24.20   1
  -1   1   6    1.00    1.42   1
  -1   1   6   -2.66    2.61   1
  -1   1   7    2.72    3.04   1
  -1   1   7    1.23    2.95   1
  -1   1   8  219.34   12.44   1
  -1   1   8  227.41   12.67   1
  -1   1   9   19.62    5.05   1
  -1   1   9   30.14    5.27   1
  -1   1  10   61.94    8.03   1
  -1   1  10   66.42    7.50   1
  -1   1  11   -3.80    5.58   1
  -1   1  11   10.24    5.18   1
  -1   1  12    8.41    5.28   1
  -1   1  12   -2.19    6.54   1
  -1   1  13   17.31    6.41   1
  -1   1  13    7.08    7.87   1
  -1   2 -13   34.93    8.27   1
  -1   2 -13   31.02    5.68   1
  -1   2 -12    5.11    4.07   1
  -1   2 -12    1.77    6.17   1
  -1   2 -12    0.56    3.26   1
  -1   2 -11    6.30    3.11   1
  -1   2 -11   13.25    6.55   1
  -1   2 -11    5.52    3.38   1
  -1   2 -10   32.72    4.00   1
  -1   2 -10   27.14    6.46   1
  -1   2 -10   26.32    4.41   1
  -1   2  -9   46.51    5.32   1
  -1   2  -9   46.51    7.09   1
  -1   2  -9   54.61    4.58   1
  -1   2  -8  114.70    8.14   1
  -1   2  -8  105.88    6.38   1
  -1   2  -8  115.99    9.05   1
  -1   2  -7   24.30    2.66   1
  -1   2  -7   17.47    4.43   1
  -1   2  -6  390.06   13.82   1
  -1   2  -6  388.09   16.94   1
  -1   2  -5   23.23    4.05   1
  -1   2  -4   16.40    2.75   1
  -1   2  -4   12.25    2.80   1
  -1   2  -4   12.60    1.21   1
  -1   2  -4   14.98    3.02   1
  -1   2  -3    2.02    2.07   1
  -1   2  -3    5.90    2.24   1
  -1   2  -3    0.07    1.92   1
  -1   2  -3    2.72    0.79   1
  -1   2  -2   10.18    2.04   1
  -1   2  -2    6.10    2.12   1
  -1   2  -2    6.97    0.90   1
  -1   2  -2    6.25    2.15   1
  -1   2  -2    6.81    1.20   1
  -1   2  -1 2903.05   91.60   1
  -1   2  -1 2838.76   88.44   1
  -1   2  -1 3204.69   89.44   1
  -1   2  -1 3113.64   88.16   1
  -1   2   0   82.81    4.73   1
  -1   2   0   79.39    4.45   1
  -1   2   0   85.19    4.80   1
  -1   2   1  245.55   10.34   1
  -1   2   1  248.06   10.08   1
  -1   2   2   33.52    3.47   1
  -1   2   2   30.69    3.55   1
  -1   2   3   85.01    6.09   1
  -1   2   3   90.25    4.75   1
  -1   2   3   84.64    6.07   1
  -1   2   4   45.83    4.87   1
  -1   2   4   39.94    3.67   1
  -1   2   4   46.10    2.99   1
  -1   2   5   97.42    7.30   1
  -1   2   5   92.54    4.62   1
  -1   2   5  103.84    6.52   1
  -1   2   6   74.48    3.80   1
  -1   2   6   73.96    6.02   1
  -1   2   6   73.10    6.67   1
  -1   2   7   14.14    3.99   1
  -1   2   7    9.30    3.36   1
  -1   2   8    4.41    2.90   1
  -1   2   8    3.20    3.40   1
  -1   2   9  214.92   13.19   1
  -1   2   9  211.70   13.10   1
  -1   2  10   41.99    6.48   1
  -1   2  10   35.88    6.71   1
  -1   2  11    7.56    5.17   1
  -1   2  11   -6.30    4.77   1
  -1   2  12   42.77    8.11   1
  -1   2  12   57.00    8.61   1
  -1   2  13    9.36    9.36   1
  -1   2  13    9.49    7.02   1
  -1   3 -13   15.52   10.32   1
  -1   3 -12  -10.24    8.19   1
  -1   3 -12   -0.77    4.17   1
  -1   3 -11   60.68    7.01   1
  -1   3 -11   78.68   10.29   1
  -1   3 -10    2.22    5.69   1
  -1   3 -10    6.15    3.92   1
  -1   3  -9   58.52    7.96   1
  -1   3  -9   58.37    6.57   1
  -1   3  -8  654.85   26.61   1
  -1   3  -8  667.19   27.38   1
  -1   3  -7  149.08   10.01   1
  -1   3  -7  153.02   10.64   1
  -1   3  -7  153.76   10.42   1
  -1   3  -6   27.04    4.68   1
  -1   3  -6   29.05    4.85   1
  -1   3  -5  318.98   14.29   1
  -1   3  -5  311.52   14.47   1
  -1   3  -4   15.37    3.37   1
  -1   3  -4   14.52    2.82   1
  -1   3  -4   17.64    3.44   1
  -1   3  -3   52.42    4.34   1
  -1   3  -3   43.96    3.85   1
  -1   3  -3   51.12    4.58   1
  -1   3  -3   51.27    2.58   1
  -1   3  -2   69.72    3.51   1
  -1   3  -2   72.08    5.26   1
  -1   3  -2   66.10    4.39   1
  -1   3  -2   70.73    4.54   1
  -1   3  -2   68.23    3.47   1
  -1   3  -1    4.16    1.59   1
  -1   3  -1    4.04    1.49   1
  -1   3  -1    2.79    1.54   1
  -1   3  -1    6.66    2.01   1
  -1   3   0   59.75    4.48   1
  -1   3   0   67.90    4.94   1
  -1   3   0   61.78    4.24   1
  -1   3   1    4.80    2.45   1
  -1   3   1    3.06    2.10   1
  -1   3   2   21.53    3.34   1
  -1   3   3   -4.54    2.60   1
  -1   3   4   -1.06    2.68   1
  -1   3   5  294.81   11.68   1
  -1   3   5  304.15   14.65   1
  -1   3   6   54.46    6.20   1
  -1   3   6   55.80    3.44   1
  -1   3   7  100.00    8.40   1
  -1   3   8    8.76    4.32   1
  -1   3   9  188.24   12.90   1
  -1   3  10   29.16    6.59   1
  -1   3  11    4.97    5.53   1
  -1   3  12   57.15    9.22   1
  -1   3  13   11.76    7.13   1
  -1   4 -12   59.60   10.81   1
  -1   4 -12   61.31   10.49   1
  -1   4 -12   46.79    7.66   1
  -1   4 -11    0.81    6.95   1
  -1   4 -11    5.52    6.77   1
  -1   4 -11   -4.97    5.35   1
  -1   4 -10    2.10    4.64   1
  -1   4 -10   -2.19    5.56   1
  -1   4 -10    0.48    4.89   1
  -1   4  -9    5.62    4.08   1
  -1   4  -9    7.34    5.42   1
  -1   4  -9    7.51    5.59   1
  -1   4  -8    2.59    4.57   1
  -1   4  -8    1.46    3.80   1
  -1   4  -8   10.50    4.86   1
  -1   4  -7   13.32    4.60   1
  -1   4  -7   17.56    5.03   1
  -1   4  -6   20.07    5.11   1
  -1   4  -5    3.57    3.06   1
  -1   4  -5    6.15    2.68   1
  -1   4  -5    9.06    3.79   1
  -1   4  -4   66.75    5.07   1
  -1   4  -4   51.98    5.34   1
  -1   4  -4   55.50    5.81   1
  -1   4  -3  140.19    8.52   1
  -1   4  -3  140.42    7.82   1
  -1   4  -3  129.28    5.91   1
  -1   4  -3  138.06    7.28   1
  -1   4  -2  165.64    7.72   1
  -1   4  -2  176.36    8.23   1
  -1   4  -2  163.58    7.16   1
  -1   4  -2  174.50    9.51   1
  -1   4  -1   14.36    3.18   1
  -1   4  -1   22.18    2.73   1
  -1   4   0   19.18    2.80   1
  -1   4   0   20.70    3.55   1
  -1   4   1  345.96   14.14   1
  -1   4   1  343.36   14.82   1
  -1   4   2    5.62    2.70   1
  -1   4   3   69.56    6.17   1
  -1   4   4   20.16    3.59   1
  -1   4   5  126.79    9.01   1
  -1   4   6   15.05    2.25   1
  -1   4   6    6.60    2.88   1
  -1   4   7   16.16    4.74   1
  -1   4   7   21.07    2.30   1
  -1   4   8   65.29    7.76   1
  -1   4   9   43.16    7.10   1
  -1   4  10    1.30    5.11   1
  -1   4  11   11.09    5.86   1
  -1   4  12    0.13    5.56   1
  -1   4  13   -5.38    7.70   1
  -1   5 -12    2.56    6.50   1
  -1   5 -12   -5.34    9.66   1
  -1   5 -12    3.13    8.89   1
  -1   5 -11   27.88    7.81   1
  -1   5 -11   31.70    8.11   1
  -1   5 -11   41.47    9.79   1
  -1   5 -10   60.53   10.11   1
  -1   5 -10   57.46    9.70   1
  -1   5 -10   48.30    8.06   1
  -1   5  -9  107.74   10.38   1
  -1   5  -9   94.48    9.72   1
  -1   5  -9  101.40   10.88   1
  -1   5  -8   11.09    5.13   1
  -1   5  -8    5.95    5.17   1
  -1   5  -8   -4.20    4.63   1
  -1   5  -7    4.45    4.56   1
  -1   5  -7    9.00    5.04   1
  -1   5  -7    8.07    4.77   1
  -1   5  -6   98.01    8.51   1
  -1   5  -6  105.88    9.26   1
  -1   5  -5   -2.82    3.56   1
  -1   5  -5   -2.25    3.45   1
  -1   5  -4  187.42   10.40   1
  -1   5  -4  186.05    9.28   1
  -1   5  -4  187.96   11.24   1
  -1   5  -3  178.49   10.96   1
  -1   5  -3  187.42    9.86   1
  -1   5  -3  186.60    8.20   1
  -1   5  -3  203.35    9.13   1
  -1   5  -2  166.93    9.82   1
  -1   5  -2  138.06    7.28   1
  -1   5  -2  161.54    7.63   1
  -1   5  -1   13.40    2.64   1
  -1   5  -1   10.63    3.39   1
  -1   5   0  251.54   12.69   1
  -1   5   0  258.24   11.89   1
  -1   5   1    1.44    1.70   1
  -1   5   1    2.34    2.97   1
  -1   5   2   42.77    4.97   1
  -1   5   3   26.73    4.45   1
  -1   5   4   83.36    7.49   1
  -1   5   5   -3.53    3.76   1
  -1   5   6   -2.22    3.81   1
  -1   5   7  195.44   13.14   1
  -1   5   7  183.87    8.95   1
  -1   5   8   -3.84    4.39   1
  -1   5   9   65.77    8.76   1
  -1   5  10   -2.13    4.64   1
  -1   5  11   20.34    7.58   1
  -1   5  12   -0.37    7.33   1
  -1   6 -11   19.54    7.96   1
  -1   6 -11   27.67   10.41   1
  -1   6 -10   26.63    8.77   1
  -1   6 -10   -2.19    6.87   1
  -1   6 -10   17.39    8.67   1
  -1   6  -9    5.02    6.76   1
  -1   6  -9   -1.77    4.71   1
  -1   6  -9    5.29    6.16   1
  -1   6  -8   47.06    8.37   1
  -1   6  -8   93.51   10.25   1
  -1   6  -8   67.57    9.37   1
  -1   6  -7   26.42    6.58   1
  -1   6  -7   16.81    5.08   1
  -1   6  -7    8.35    5.32   1
  -1   6  -6   50.13    7.50   1
  -1   6  -6   43.56    6.07   1
  -1   6  -6   34.22    7.02   1
  -1   6  -5  142.09    9.77   1
  -1   6  -5  144.72   10.59   1
  -1   6  -4  115.78    8.39   1
  -1   6  -4  117.94    9.77   1
  -1   6  -4  110.46    7.15   1
  -1   6  -3    4.75    2.18   1
  -1   6  -3   -0.18    2.17   1
  -1   6  -3   -1.96    3.70   1
  -1   6  -2   17.56    4.36   1
  -1   6  -2   10.11    2.80   1
  -1   6  -2   16.56    2.77   1
  -1   6  -1   90.63    7.43   1
  -1   6  -1   69.06    5.65   1
  -1   6   0   -0.29    3.37   1
  -1   6   1  122.10    8.84   1
  -1   6   1  112.15    7.84   1
  -1   6   2   82.45    7.26   1
  -1   6   3   35.28    5.46   1
  -1   6   4    3.84    3.76   1
  -1   6   5  203.06   12.82   1
  -1   6   6   20.07    5.11   1
  -1   6   7   75.69    8.53   1
  -1   6   8   12.82    4.58   1
  -1   6   8   20.34    2.89   1
  -1   6   8   25.40    3.43   1
  -1   6   9   27.88    7.39   1
  -1   6  10    1.93    6.59   1
  -1   6  11   12.89    8.11   1
  -1   6  12   20.79    8.12   1
  -1   7 -10    9.30    8.48   1
  -1   7 -10    7.84    8.62   1
  -1   7 -10  -10.18    9.00   1
  -1   7  -9   22.18    8.57   1
  -1   7  -9   14.52    8.38   1
  -1   7  -9   49.98    9.19   1
  -1   7  -8    3.03    6.82   1
  -1   7  -8  -11.70    6.98   1
  -1   7  -8   -4.84    6.95   1
  -1   7  -7    5.86    6.39   1
  -1   7  -7   13.91    6.79   1
  -1   7  -7   26.32    6.87   1
  -1   7  -6   46.92    7.12   1
  -1   7  -6   40.20    6.72   1
  -1   7  -6   38.07    8.02   1
  -1   7  -5   22.56    6.46   1
  -1   7  -5   26.32    7.18   1
  -1   7  -4    2.02    2.78   1
  -1   7  -4    2.40    4.40   1
  -1   7  -3   24.11    3.73   1
  -1   7  -3   16.08    4.81   1
  -1   7  -3   27.88    3.80   1
  -1   7  -2   43.56    4.09   1
  -1   7  -2   39.44    4.52   1
  -1   7  -2   48.02    6.79   1
  -1   7  -1    7.40    3.16   1
  -1   7  -1    9.49    2.53   1
  -1   7  -1   15.05    4.81   1
  -1   7   0   53.73    6.74   1
  -1   7   0   38.56    5.09   1
  -1   7   1  156.25   10.00   1
  -1   7   1  135.49   10.48   1
  -1   7   2    8.88    3.81   1
  -1   7   3   47.61    6.49   1
  -1   7   4   67.57    7.89   1
  -1   7   5    5.52    4.51   1
  -1   7   6   -0.59    4.96   1
  -1   7   7   48.44    5.43   1
  -1   7   7   29.70    6.21   1
  -1   7   8   14.98    3.64   1
  -1   7   8   19.10    3.93   1
  -1   7   8    7.90    4.89   1
  -1   7   9   16.56    7.33   1
  -1   7  10   -6.92    7.94   1
  -1   7  11   27.35    9.31   1
  -1   8  -9    8.07    9.32   1
  -1   8  -9   12.46    9.67   1
  -1   8  -8    5.76    7.68   1
  -1   8  -8    5.52    9.12   1
  -1   8  -8   -7.02    7.69   1
  -1   8  -7   -5.81    7.62   1
  -1   8  -7   -2.22    6.88   1
  -1   8  -6   28.09    8.16   1
  -1   8  -6    3.17    6.69   1
  -1   8  -5   20.61    5.72   1
  -1   8  -4   79.74   10.72   1
  -1   8  -4   88.36   10.15   1
  -1   8  -3   23.33    3.67   1
  -1   8  -3   17.64    5.54   1
  -1   8  -3   26.21    6.55   1
  -1   8  -3   22.94    4.12   1
  -1   8  -2   16.40    3.48   1
  -1   8  -2   11.76    3.57   1
  -1   8  -2   15.52    5.59   1
  -1   8  -1  180.10   12.88   1
  -1   8  -1  186.32    9.01   1
  -1   8  -1  198.53   11.27   1
  -1   8   0  172.13   12.60   1
  -1   8   0  183.06   11.37   1
  -1   8   1   -3.42    4.88   1
  -1   8   1    2.96    3.58   1
  -1   8   2   -0.30    3.92   1
  -1   8   2   -1.35    3.25   1
  -1   8   3   19.10    5.42   1
  -1   8   4    0.17    4.44   1
  -1   8   5   16.24    5.64   1
  -1   8   5   33.64    6.38   1
  -1   8   6   54.91    6.97   1
  -1   8   6   29.59    7.40   1
  -1   8   7  130.42    9.59   1
  -1   8   7   94.09   11.06   1
  -1   8   8   -7.18    5.52   1
  -1   8   8   -2.66    4.01   1
  -1   8   9    7.62    6.18   1
  -1   8   9   20.88    4.30   1
  -1   8   9   13.76    4.01   1
  -1   9  -7   22.09    9.78   1
  -1   9  -6    6.45    8.38   1
  -1   9  -6    5.52    7.57   1
  -1   9  -5    6.15    7.04   1
  -1   9  -5    4.58    8.05   1
  -1   9  -4    2.16    6.82   1
  -1   9  -4   27.98    8.99   1
  -1   9  -3   -2.25    3.27   1
  -1   9  -3  -10.82    7.90   1
  -1   9  -3   -6.30    3.82   1
  -1   9  -3   -9.55    6.61   1
  -1   9  -2   28.20    7.01   1
  -1   9  -2   35.28    7.96   1
  -1   9  -2   41.47    4.51   1
  -1   9  -2   31.58    5.73   1
  -1   9  -1    1.14    6.44   1
  -1   9  -1    0.72    3.99   1
  -1   9  -1   -0.07    2.69   1
  -1   9  -1    0.48    5.24   1
  -1   9   0   72.08    7.98   1
  -1   9   0   85.19   10.89   1
  -1   9   0   89.30    5.86   1
  -1   9   0   83.91   10.08   1
  -1   9   1    4.08    4.89   1
  -1   9   1    2.10    5.57   1
  -1   9   1    6.45    5.99   1
  -1   9   2   61.00    9.22   1
  -1   9   2   39.19    7.01   1
  -1   9   3   13.18    6.39   1
  -1   9   3   14.90    5.87   1
  -1   9   4    2.69    4.17   1
  -1   9   4   -7.02    5.46   1
  -1   9   5   18.58    7.15   1
  -1   9   5   32.60    6.85   1
  -1   9   6    4.20    5.45   1
  -1   9   6    2.62    6.84   1
  -1   9   7   -1.72    5.29   1
  -1   9   7   -2.96    7.16   1
  -1   9   8   26.73    6.00   1
  -1   9   8    8.47    7.68   1
  -1   9   9    3.84    4.74   1
  -1  10  -5   -0.27    8.60   1
  -1  10  -4   -5.95    8.15   1
  -1  10  -3   18.66    8.21   1
  -1  10  -3   -0.67    6.48   1
  -1  10  -2   43.16    4.34   1
  -1  10  -2   24.90    5.99   1
  -1  10  -2   40.32    9.14   1
  -1  10  -1   21.25    5.99   1
  -1  10  -1   20.25    8.10   1
  -1  10  -1    3.57    7.56   1
  -1  10  -1   17.22    3.65   1
  -1  10   0   -1.21    2.95   1
  -1  10   0   -4.67    5.53   1
  -1  10   0   -7.40    7.13   1
  -1  10   0    0.64    6.70   1
  -1  10   1   -3.57    6.99   1
  -1  10   1    2.22    5.48   1
  -1  10   1    2.69    6.99   1
  -1  10   1    3.72    2.93   1
  -1  10   2   17.39    6.84   1
  -1  10   2   -2.16    5.35   1
  -1  10   3   49.28    9.27   1
  -1  10   4  133.40   13.17   1
  -1  10   4  112.15   12.50   1
  -1  10   5   16.48    7.55   1
  -1  10   5    7.73    8.17   1
  -1  10   6   11.42    6.83   1
  -1  10   6   -4.80    8.67   1
  -1  10   7    6.97    9.50   1
  -1  10   7   31.14    8.37   1
  -1  11  -2    0.96    6.17   1
  -1  11  -2  -16.97   10.05   1
  -1  11  -1  -10.96    6.69   1
  -1  11  -1   -6.30    8.84   1
  -1  11   0   46.51   11.05   1
  -1  11   1   -1.72    8.46   1
  -1  11   1   -2.82    5.95   1
  -1  11   1   -2.72   10.30   1
  -1  11   2    0.85    8.80   1
  -1  11   2   -0.17    6.60   1
  -1  11   3    2.16    7.61   1
  -1  11   3   12.39    8.10   1
  -1  11   4   -1.35    8.98   1
  -1  11   4   -5.43    8.25   1
   0 -11  -5   24.30    9.17   1
   0 -11  -5   35.05    7.70   1
   0 -11  -4    0.79    5.59   1
   0 -11  -4    8.12    7.87   1
   0 -11  -3    9.42    5.77   1
   0 -11  -3   12.60    7.60   1
   0 -11  -2    9.86    6.53   1
   0 -11  -2    1.35    6.01   1
   0 -11  -2   -4.28    7.49   1
   0 -11  -1   37.45    7.22   1
   0 -11  -1   36.84    7.28   1
   0 -11  -1   23.72    8.47   1
   0 -11   0   33.52    8.45   1
   0 -11   0   25.20    6.43   1
   0 -11   0   28.09    6.68   1
   0 -11   1   -0.31    6.26   1
   0 -11   1    2.07    4.29   1
   0 -11   1    1.77    5.91   1
   0 -11   2   37.70    7.86   1
   0 -11   2   42.51    8.22   1
   0 -10  -8   -1.64    7.07   1
   0 -10  -8   18.06   10.20   1
   0 -10  -7    7.02    5.62   1
   0 -10  -7   -0.30    6.79   1
   0 -10  -6    2.72    7.59   1
   0 -10  -6    1.39    4.41   1
   0 -10  -6   13.47    8.29   1
   0 -10  -5   63.36   10.51   1
   0 -10  -4    0.32    6.20   1
   0 -10  -4    6.40    7.03   1
   0 -10  -4   -0.62    6.73   1
   0 -10  -3   -3.28    4.02   1
   0 -10  -3    0.71    5.98   1
   0 -10  -3    4.41    5.42   1
   0 -10  -3    0.88    6.96   1
   0 -10  -2   54.32    9.58   1
   0 -10  -2   59.14    8.15   1
   0 -10  -2   67.24    7.05   1
   0 -10  -2   57.00    8.31   1
   0 -10  -1    0.86    4.04   1
   0 -10  -1    3.20    4.62   1
   0 -10  -1    2.59    5.86   1
   0 -10  -1   -1.46    4.89   1
   0 -10   0    3.92    4.20   1
   0 -10   0    7.95    7.05   1
   0 -10   0    9.30    5.73   1
   0 -10   0   -0.67    4.51   1
   0 -10   1   96.43    9.43   1
   0 -10   1   88.36    8.46   1
   0 -10   1   82.99    7.47   1
   0 -10   1   48.72    9.63   1
   0 -10   2   13.76    3.56   1
   0 -10   2    6.97    5.02   1
   0 -10   2   -0.37    6.80   1
   0 -10   2    8.58    5.45   1
   0 -10   3    6.30    5.47   1
   0 -10   3    6.25    5.35   1
   0 -10   4   10.18    4.91   1
   0 -10   4    6.10    6.22   1
   0 -10   5    9.42    7.55   1
   0 -10   5   -3.10    4.58   1
   0  -9  -9   25.81    6.91   1
   0  -9  -9   18.23    8.88   1
   0  -9  -8    0.77    4.91   1
   0  -9  -8    6.55    7.88   1
   0  -9  -8    2.53    8.20   1
   0  -9  -7    6.76    4.78   1
   0  -9  -7    7.02    7.42   1
   0  -9  -7    6.60    6.68   1
   0  -9  -6   10.56    7.15   1
   0  -9  -6    1.35    6.57   1
   0  -9  -6   17.22    4.73   1
   0  -9  -5   -2.16    5.50   1
   0  -9  -5    0.67    5.05   1
   0  -9  -5    1.14    5.71   1
   0  -9  -4   -1.90    5.69   1
   0  -9  -4    3.96    5.73   1
   0  -9  -4   -1.32    4.58   1
   0  -9  -3    8.58    6.27   1
   0  -9  -3    4.37    4.89   1
   0  -9  -3    5.29    5.47   1
   0  -9  -2   12.32    5.26   1
   0  -9  -2    5.15    3.72   1
   0  -9  -2   13.99    5.01   1
   0  -9  -2    3.80    4.84   1
   0  -9  -1   39.19    5.76   1
   0  -9  -1   53.44    7.46   1
   0  -9  -1   46.92    7.67   1
   0  -9  -1   54.61    6.95   1
   0  -9   0   -0.72    3.93   1
   0  -9   0    2.53    3.63   1
   0  -9   0   -8.24    5.63   1
   0  -9   0    2.56    4.00   1
   0  -9   1   54.46    6.49   1
   0  -9   1   43.56    7.92   1
   0  -9   1   53.00    6.99   1
   0  -9   1   39.31    5.14   1
   0  -9   2   20.25    5.13   1
   0  -9   2   24.60    6.94   1
   0  -9   2   23.62    5.35   1
   0  -9   2   21.81    3.74   1
   0  -9   3   43.56    6.60   1
   0  -9   3   29.59    5.33   1
   0  -9   3   39.31    7.27   1
   0  -9   4    4.80    5.26   1
   0  -9   5   -6.81    5.79   1
   0  -9   5    3.50    3.74   1
   0  -9   6   32.83    7.45   1
   0  -9   6   34.46    4.93   1
   0  -8 -11   14.75    7.99   1
   0  -8 -11   28.62   11.45   1
   0  -8 -10   45.70    8.11   1
   0  -8 -10   33.76   10.11   1
   0  -8  -9   -9.92    7.56   1
   0  -8  -9    3.24    5.51   1
   0  -8  -9  -14.21    8.07   1
   0  -8  -8    5.95    4.64   1
   0  -8  -8    7.67    7.53   1
   0  -8  -8   14.82    7.01   1
   0  -8  -7   -1.32    3.82   1
   0  -8  -7    6.45    5.74   1
   0  -8  -7   -7.13    6.62   1
   0  -8  -6   16.65    4.41   1
   0  -8  -6   11.56    5.92   1
   0  -8  -6   13.76    6.60   1
   0  -8  -5  234.70   15.93   1
   0  -8  -5  249.64   16.12   1
   0  -8  -5  212.28   14.57   1
   0  -8  -4   53.58    7.17   1
   0  -8  -4   75.34    7.99   1
   0  -8  -4   62.25    8.21   1
   0  -8  -3   76.56    8.40   1
   0  -8  -3   64.00    7.84   1
   0  -8  -3   49.84    7.62   1
   0  -8  -2   -3.17    4.34   1
   0  -8  -2   -7.78    4.63   1
   0  -8  -2    0.90    3.63   1
   0  -8  -2    2.96    3.27   1
   0  -8  -1    6.30    3.97   1
   0  -8  -1   13.54    4.12   1
   0  -8  -1   11.56    4.15   1
   0  -8   0    8.88    3.70   1
   0  -8   0    1.64    4.04   1
   0  -8   0    8.76    4.03   1
   0  -8   0    6.15    3.47   1
   0  -8   1   74.30    6.90   1
   0  -8   1   70.56    6.05   1
   0  -8   1   76.56    7.35   1
   0  -8   1   66.26    8.14   1
   0  -8   2   -0.90    3.10   1
   0  -8   2   11.49    5.29   1
   0  -8   2   -2.28    2.11   1
   0  -8   2   -6.30    3.87   1
   0  -8   3   61.15    6.73   1
   0  -8   3   49.98    3.68   1
   0  -8   3   45.29    5.52   1
   0  -8   3   44.49    7.87   1
   0  -8   4    1.23    3.11   1
   0  -8   4   -3.80    4.21   1
   0  -8   5   43.69    7.14   1
   0  -8   5   62.09    5.67   1
   0  -8   6   29.16    7.02   1
   0  -8   6   20.61    3.45   1
   0  -8   7    2.43    2.53   1
   0  -8   7  -10.24    6.66   1
   0  -8   8    8.47    7.45   1
   0  -8   8   14.98    7.51   1
   0  -8   9   -1.99    8.21   1
   0  -7 -11   12.11    9.19   1
   0  -7 -11   12.67   10.18   1
   0  -7 -11   27.14    7.61   1
   0  -7 -10   -2.31    7.60   1
   0  -7 -10    1.54    5.31   1
   0  -7 -10    7.62    7.45   1
   0  -7  -9   23.52    5.92   1
   0  -7  -9    9.30    6.53   1
   0  -7  -9   21.72    8.11   1
   0  -7  -8    1.56    6.30   1
   0  -7  -8   -5.34    5.77   1
   0  -7  -8    1.12    4.22   1
   0  -7  -7   34.22    7.60   1
   0  -7  -7   39.31    5.77   1
   0  -7  -7   22.56    6.08   1
   0  -7  -6   88.17    8.64   1
   0  -7  -6   94.09    7.57   1
   0  -7  -6   83.54    9.51   1
   0  -7  -5   -2.89    4.22   1
   0  -7  -5   -0.13    2.86   1
   0  -7  -5   -0.31    4.35   1
   0  -7  -4   16.00    4.80   1
   0  -7  -4   18.32    5.31   1
   0  -7  -4   12.74    5.21   1
   0  -7  -3   29.16    5.29   1
   0  -7  -3   18.58    4.22   1
   0  -7  -3   22.18    4.71   1
   0  -7  -2   59.75    6.80   1
   0  -7  -2   59.75    6.65   1
   0  -7  -2   57.46    6.82   1
   0  -7  -1   19.54    3.89   1
   0  -7  -1    8.53    4.20   1
   0  -7  -1   13.62    4.13   1
   0  -7  -1   10.89    3.89   1
   0  -7   0   31.47    4.82   1
   0  -7   0   29.59    4.35   1
   0  -7   0   34.57    5.76   1
   0  -7   0   27.14    4.17   1
   0  -7   1  365.19   17.58   1
   0  -7   1  358.72   15.91   1
   0  -7   1  381.81   16.41   1
   0  -7   1  345.59   14.87   1
   0  -7   2  114.70    6.43   1
   0  -7   2  113.64    9.38   1
   0  -7   2  116.42    7.98   1
   0  -7   2  119.46    8.31   1
   0  -7   3   45.43    5.66   1
   0  -7   3   38.81    2.99   1
   0  -7   3   49.84    7.06   1
   0  -7   3   42.51    4.82   1
   0  -7   4    6.71    4.14   1
   0  -7   4   10.24    2.82   1
   0  -7   5  148.84    8.30   1
   0  -7   5  115.78    9.90   1
   0  -7   6   16.81    5.58   1
   0  -7   6    7.24    2.53   1
   0  -7   7   38.19    7.54   1
   0  -7   7   45.56    3.91   1
   0  -7   8   -1.72    6.13   1
   0  -7   8    5.57    6.47   1
   0  -7   9   18.75    7.27   1
   0  -7   9   21.25    7.65   1
   0  -7  10   -8.76    7.34   1
   0  -6 -12   31.81   10.49   1
   0  -6 -12    8.88    6.91   1
   0  -6 -11   11.83    5.85   1
   0  -6 -11    8.07    6.93   1
   0  -6 -10   26.42    7.50   1
   0  -6 -10   36.00    7.56   1
   0  -6 -10   51.12    7.29   1
   0  -6  -9    0.20    4.48   1
   0  -6  -9   -6.66    5.42   1
   0  -6  -9   -4.16    4.65   1
   0  -6  -8  144.72   12.03   1
   0  -6  -8  130.64    9.60   1
   0  -6  -8  139.48   11.34   1
   0  -6  -7   24.90    5.69   1
   0  -6  -7   36.60    6.78   1
   0  -6  -7   26.83    4.77   1
   0  -6  -6  144.48    8.89   1
   0  -6  -6  119.03   10.91   1
   0  -6  -6  131.56   10.09   1
   0  -6  -5    6.92    3.73   1
   0  -6  -5   17.47    5.35   1
   0  -6  -5   12.96    4.46   1
   0  -6  -4   49.42    6.47   1
   0  -6  -4   57.30    6.36   1
   0  -6  -4   50.55    5.97   1
   0  -6  -3   54.32    6.63   1
   0  -6  -3   60.53    6.54   1
   0  -6  -3   59.91    6.35   1
   0  -6  -2    1.04    2.98   1
   0  -6  -2   -0.03    2.82   1
   0  -6  -2    0.15    3.28   1
   0  -6  -1   74.30    6.55   1
   0  -6  -1   80.10    6.44   1
   0  -6  -1   91.20    7.45   1
   0  -6   0   26.73    4.55   1
   0  -6   0   21.62    3.91   1
   0  -6   0   23.81    3.61   1
   0  -6   0   32.49    4.22   1
   0  -6   1  319.69   13.95   1
   0  -6   1  290.36   15.00   1
   0  -6   1  291.04   13.31   1
   0  -6   1  287.64   12.55   1
   0  -6   2    0.38    1.81   1
   0  -6   2    0.28    2.07   1
   0  -6   2   -3.20    3.22   1
   0  -6   2   -4.80    3.07   1
   0  -6   3  148.11    9.01   1
   0  -6   3  141.85    8.10   1
   0  -6   3  126.34    9.89   1
   0  -6   4   51.70    6.04   1
   0  -6   4   52.42    4.49   1
   0  -6   5   29.38    3.58   1
   0  -6   5   20.34    4.78   1
   0  -6   6   40.07    3.80   1
   0  -6   6   33.29    5.89   1
   0  -6   7   59.44    8.02   1
   0  -6   7   75.00    4.85   1
   0  -6   8    8.88    5.30   1
   0  -6   8   -3.61    4.07   1
   0  -6   8    0.41    5.27   1
   0  -6   9   26.21    7.88   1
   0  -6   9   23.43    5.81   1
   0  -6   9   29.48    6.52   1
   0  -6  10   48.44    8.91   1
   0  -6  10   49.98    8.34   1
   0  -6  10   36.36    7.24   1
   0  -6  11  -13.32    7.74   1
   0  -6  11   10.11    7.19   1
   0  -5 -13   -7.84    9.97   1
   0  -5 -13   -0.88    8.07   1
   0  -5 -12   -8.01    8.04   1
   0  -5 -12    8.88    6.44   1
   0  -5 -11    0.44    4.62   1
   0  -5 -11    0.18    4.95   1
   0  -5 -10   17.47    5.85   1
   0  -5 -10   16.32    7.03   1
   0  -5  -9    2.13    5.43   1
   0  -5  -9    6.86    4.14   1
   0  -5  -8  186.87   13.67   1
   0  -5  -8  192.10   11.92   1
   0  -5  -7  199.37   13.84   1
   0  -5  -7  208.51   11.55   1
   0  -5  -7  212.28   12.53   1
   0  -5  -6   16.48    3.65   1
   0  -5  -6   16.89    5.43   1
   0  -5  -5   91.58    7.27   1
   0  -5  -5  118.81    9.59   1
   0  -5  -5   93.90    6.59   1
   0  -5  -5   97.22    7.89   1
   0  -5  -4  183.60   10.84   1
   0  -5  -4  181.17   10.50   1
   0  -5  -4  193.49   11.68   1
   0  -5  -3   79.39    6.59   1
   0  -5  -3   83.54    6.95   1
   0  -5  -2  365.19   16.05   1
   0  -5  -2  364.43   15.65   1
   0  -5  -1  195.16   10.62   1
   0  -5  -1  186.32    9.83   1
   0  -5   0   97.42    7.30   1
   0  -5   0  117.72    6.73   1
   0  -5   0  117.51    7.15   1
   0  -5   1   -1.88    1.97   1
   0  -5   1    1.61    2.51   1
   0  -5   1    2.28    1.72   1
   0  -5   1   -1.10    2.33   1
   0  -5   2  175.83   10.08   1
   0  -5   2  158.76    7.06   1
   0  -5   2  152.03    8.63   1
   0  -5   2  168.74    8.31   1
   0  -5   3   52.13    5.20   1
   0  -5   3   58.52    4.44   1
   0  -5   4   10.96    3.51   1
   0  -5   4    9.99    2.09   1
   0  -5   5  108.37    6.87   1
   0  -5   5   99.00    5.57   1
   0  -5   5  103.23    8.13   1
   0  -5   6    5.20    1.87   1
   0  -5   6    6.20    2.89   1
   0  -5   6   -2.13    2.74   1
   0  -5   7    8.64    2.00   1
   0  -5   7    6.20    3.59   1
   0  -5   7    9.86    4.90   1
   0  -5   8   50.41    6.39   1
   0  -5   8   44.49    6.54   1
   0  -5   8   47.47    7.30   1
   0  -5   8   50.41    3.83   1
   0  -5   9    2.62    4.31   1
   0  -5   9   -5.62    4.83   1
   0  -5   9   -0.86    5.23   1
   0  -5  10   11.83    5.71   1
   0  -5  10   19.27    5.88   1
   0  -5  10    6.10    6.87   1
   0  -5  11    3.72    6.37   1
   0  -5  11   10.05    9.51   1
   0  -5  11    5.62    5.64   1
   0  -4 -13    2.43    7.33   1
   0  -4 -13   13.03    8.81   1
   0  -4 -12   11.36    6.67   1
   0  -4 -12   13.99    7.78   1
   0  -4 -11   37.95    7.64   1
   0  -4 -11   16.89    7.32   1
   0  -4 -10   -5.76    4.75   1
   0  -4 -10    4.37    4.93   1
   0  -4  -9  155.25   12.46   1
   0  -4  -9  145.44   10.61   1
   0  -4  -8    4.93    3.77   1
   0  -4  -8   11.09    5.19   1
   0  -4  -7    0.11    2.82   1
   0  -4  -7   -4.49    4.62   1
   0  -4  -6  105.68    9.05   1
   0  -4  -6  102.82    7.10   1
   0  -4  -5    1.61    2.24   1
   0  -4  -5    1.49    3.15   1
   0  -4  -5   -0.25    3.21   1
   0  -4  -4   24.01    4.21   1
   0  -4  -4   16.97    3.46   1
   0  -4  -3    7.84    3.02   1
   0  -4  -3    8.64    2.88   1
   0  -4  -2  849.14   29.14   1
   0  -4  -2  841.58   29.01   1
   0  -4  -1  170.30    8.87   1
   0  -4  -1  184.14    8.96   1
   0  -4   0    0.48    1.84   1
   0  -4   0   -1.72    2.15   1
   0  -4   0    2.19    1.95   1
   0  -4   1   67.40    4.60   1
   0  -4   1   68.89    5.48   1
   0  -4   1   60.22    4.66   1
   0  -4   2   25.30    3.32   1
   0  -4   2   22.28    1.98   1
   0  -4   2   23.72    3.41   1
   0  -4   2   21.44    2.59   1
   0  -4   3   27.77    3.79   1
   0  -4   3   33.76    2.90   1
   0  -4   4   46.10    3.26   1
   0  -4   4   38.19    4.82   1
   0  -4   4   39.44    3.89   1
   0  -4   5   10.37    3.74   1
   0  -4   5    9.49    1.97   1
   0  -4   5    8.01    2.72   1
   0  -4   6   21.72    3.82   1
   0  -4   6   20.61    4.00   1
   0  -4   6   24.30    2.56   1
   0  -4   7  132.71    9.45   1
   0  -4   7  140.66    6.88   1
   0  -4   7  145.93   10.39   1
   0  -4   7  133.63    9.02   1
   0  -4   8   58.52    7.04   1
   0  -4   8   70.06    4.69   1
   0  -4   8   76.91    7.19   1
   0  -4   8   66.59    7.18   1
   0  -4   9   81.36    7.76   1
   0  -4   9   81.72    8.32   1
   0  -4   9   90.06    9.68   1
   0  -4   9   79.39    5.17   1
   0  -4  10   -4.33    2.12   1
   0  -4  10   -8.07    4.26   1
   0  -4  10   -2.43    6.15   1
   0  -4  10   -0.52    2.06   1
   0  -4  10    2.79    4.94   1
   0  -4  11   12.96    2.95   1
   0  -4  11   16.00    5.68   1
   0  -4  11   13.69    6.22   1
   0  -4  11   16.97    2.88   1
   0  -4  11   15.52    5.20   1
   0  -4  12   -1.30    4.31   1
   0  -4  12    3.03    7.17   1
   0  -3 -13   85.38   10.53   1
   0  -3 -13   57.61   10.32   1
   0  -3 -12  -10.37    6.70   1
   0  -3 -12    1.08    6.55   1
   0  -3 -11   -3.96    4.94   1
   0  -3 -11    0.48    5.52   1
   0  -3 -10  125.89   10.77   1
   0  -3 -10  119.03   11.13   1
   0  -3  -9   14.21    5.28   1
   0  -3  -9    5.20    4.29   1
   0  -3  -8   12.53    5.03   1
   0  -3  -8    0.28    3.31   1
   0  -3  -7    0.90    3.00   1
   0  -3  -7    0.86    3.79   1
   0  -3  -6    5.52    2.91   1
   0  -3  -6    2.04    3.75   1
   0  -3  -5   22.94    3.45   1
   0  -3  -5   21.90    4.02   1
   0  -3  -4   80.10    5.37   1
   0  -3  -4   78.50    6.20   1
   0  -3  -3  414.53   15.88   1
   0  -3  -3  421.48   16.42   1
   0  -3  -2    7.51    2.52   1
   0  -3  -2    7.84    2.52   1
   0  -3  -1   17.81    2.87   1
   0  -3  -1   18.66    2.85   1
   0  -3   0   29.81    2.95   1
   0  -3   0   29.16    2.92   1
   0  -3   1    4.97    1.61   1
   0  -3   1    7.78    2.34   1
   0  -3   1    9.24    2.25   1
   0  -3   2  422.71   14.39   1
   0  -3   2  416.16   14.28   1
   0  -3   2  425.18   15.67   1
   0  -3   2  431.39   16.62   1
   0  -3   3  600.25   19.60   1
   0  -3   3  546.16   21.03   1
   0  -3   3  603.68   19.66   1
   0  -3   4    3.92    1.35   1
   0  -3   4    3.35    2.12   1
   0  -3   4    3.84    2.63   1
   0  -3   5   71.40    6.42   1
   0  -3   5   79.74    5.89   1
   0  -3   6   10.30    3.27   1
   0  -3   6   10.76    3.48   1
   0  -3   7   76.04    7.50   1
   0  -3   7   82.63    6.54   1
   0  -3   7   88.36    7.33   1
   0  -3   8   19.45    5.12   1
   0  -3   8    8.58    3.34   1
   0  -3   8   10.96    4.04   1
   0  -3   9   40.58    3.82   1
   0  -3   9   36.24    4.94   1
   0  -3   9   21.90    5.05   1
   0  -3   9   39.94    6.19   1
   0  -3  10   12.39    4.58   1
   0  -3  10    8.47    5.88   1
   0  -3  10   11.22    2.81   1
   0  -3  10   19.98    4.20   1
   0  -3  11   -1.06    4.63   1
   0  -3  11    1.39    5.45   1
   0  -3  11    0.15    2.75   1
   0  -3  11   -2.76    3.52   1
   0  -3  12   16.16    7.24   1
   0  -3  12   20.61    9.99   1
   0  -3  13    5.90    7.58   1
   0  -2 -14   14.14    9.32   1
   0  -2 -14   10.50    9.46   1
   0  -2 -13   11.90    8.42   1
   0  -2 -13  -10.96    7.28   1
   0  -2 -12   -9.86    6.34   1
   0  -2 -12    1.85    5.88   1
   0  -2 -11   -5.43    5.08   1
   0  -2 -11   10.69    6.21   1
   0  -2 -10   -8.58    5.04   1
   0  -2 -10   -1.99    4.68   1
   0  -2  -9    4.49    4.03   1
   0  -2  -9    1.42    4.19   1
   0  -2  -8  158.51   11.08   1
   0  -2  -8  159.26   10.35   1
   0  -2  -7  126.11    9.21   1
   0  -2  -7  121.66    8.60   1
   0  -2  -6  272.25   12.87   1
   0  -2  -6  291.38   14.34   1
   0  -2  -5    2.96    3.20   1
   0  -2  -5    2.43    2.43   1
   0  -2  -4  667.71   22.74   1
   0  -2  -3   27.88    2.85   1
   0  -2  -3   21.34    2.86   1
   0  -2  -2  339.30   12.89   1
   0  -2  -1   20.16    2.60   1
   0  -2  -1   20.07    2.51   1
   0  -2   0    1.59    1.69   1
   0  -2   1   22.28    2.64   1
   0  -2   1   22.09    2.63   1
   0  -2   1   26.42    2.06   1
   0  -2   2   15.60    2.13   1
   0  -2   2   12.18    1.54   1
   0  -2   2   13.10    2.53   1
   0  -2   3  268.96   10.50   1
   0  -2   3  271.92   11.54   1
   0  -2   4   76.91    5.09   1
   0  -2   4   55.95    4.94   1
   0  -2   5   80.28    5.73   1
   0  -2   5   91.20    6.49   1
   0  -2   6   36.12    3.85   1
   0  -2   6   33.99    4.43   1
   0  -2   6   33.29    4.85   1
   0  -2   7    0.83    2.64   1
   0  -2   7   -3.03    3.41   1
   0  -2   7    0.32    2.17   1
   0  -2   8    4.08    2.46   1
   0  -2   8   -2.02    2.75   1
   0  -2   8    8.94    3.83   1
   0  -2   9   73.96    5.68   1
   0  -2   9   65.61    5.67   1
   0  -2   9   70.73    7.06   1
   0  -2   9   75.52    8.34   1
   0  -2  10    0.15    3.60   1
   0  -2  10   -0.76    2.42   1
   0  -2  11   16.32    6.79   1
   0  -2  11   14.67    5.90   1
   0  -2  11   17.39    3.92   1
   0  -2  12    8.70    6.43   1
   0  -2  12    6.50    7.09   1
   0  -2  12   -2.46    3.20   1
   0  -2  13   67.90    9.23   1
   0  -2  13   83.91    7.33   1
   0  -1 -14   10.89    7.72   1
   0  -1 -14    9.12    9.18   1
   0  -1 -13    9.67    6.34   1
   0  -1 -13   17.81    6.50   1
   0  -1 -12   22.37    6.24   1
   0  -1 -12   11.36    7.14   1
   0  -1 -11   31.70    6.31   1
   0  -1 -11   24.90    7.09   1
   0  -1 -10  107.12   10.14   1
   0  -1 -10   96.43    8.84   1
   0  -1  -9    7.62    4.14   1
   0  -1  -9    4.12    3.78   1
   0  -1  -8  192.65   11.94   1
   0  -1  -8  181.98   11.33   1
   0  -1  -7   18.84    4.25   1
   0  -1  -6  487.08   19.42   1
   0  -1  -6  504.00   19.76   1
   0  -1  -5   80.10    6.09   1
   0  -1  -5   84.64    5.89   1
   0  -1  -4   21.62    2.98   1
   0  -1  -4   23.43    3.19   1
   0  -1  -2  606.14   19.70   1
   0  -1  -2  631.52   20.61   1
   0  -1  -1   -0.92    0.60   1
   0  -1   1    0.34    0.35   1
   0  -1   1   -1.25    0.65   1
   0  -1   2   90.44    4.37   1
   0  -1   2   83.36    4.75   1
   0  -1   3   23.81    3.12   1
   0  -1   4  727.92   24.82   1
   0  -1   4  699.60   24.33   1
   0  -1   5  269.29   10.83   1
   0  -1   5  271.59   12.52   1
   0  -1   6    2.19    2.66   1
   0  -1   6    7.84    2.13   1
   0  -1   7   71.06    4.72   1
   0  -1   7   58.37    6.11   1
   0  -1   7   69.06    4.99   1
   0  -1   7   66.59    6.53   1
   0  -1   8    5.95    3.51   1
   0  -1   8    5.48    2.39   1
   0  -1   8    2.46    2.73   1
   0  -1   9   71.40    7.44   1
   0  -1   9   63.84    5.59   1
   0  -1   9   65.29    7.60   1
   0  -1  10   12.82    3.37   1
   0  -1  10    4.33    4.62   1
   0  -1  10   11.97    5.05   1
   0  -1  11   60.53    8.09   1
   0  -1  11   58.06    5.94   1
   0  -1  11   41.60    6.84   1
   0  -1  12   -2.31    5.78   1
   0  -1  12   -9.55    7.05   1
   0  -1  12    2.22    3.78   1
   0  -1  13   13.91    7.46   1
   0  -1  13    3.69    4.07   1
   0   0 -13   53.88   10.57   1
   0   0 -13   48.30    7.78   1
   0   0 -12    0.92    6.97   1
   0   0 -11    0.45    5.51   1
   0   0 -11    1.77    4.15   1
   0   0 -10   51.12    6.29   1
   0   0 -10   50.41    7.67   1
   0   0  -9    2.25    4.11   1
   0   0  -9    2.46    3.05   1
   0   0  -9    2.02    1.48   1
   0   0  -8    6.50    4.13   1
   0   0  -8    0.53    2.95   1
   0   0  -8    4.49    1.70   1
   0   0  -7  156.75    7.01   1
   0   0  -7  141.13    9.74   1
   0   0  -7  163.07    9.45   1
   0   0  -6  206.78   10.07   1
   0   0  -6  206.78   10.93   1
   0   0  -6  213.74    8.48   1
   0   0  -5  115.78    5.38   1
   0   0  -5  122.32    6.86   1
   0   0  -5  109.83    7.13   1
   0   0  -4    0.24    1.26   1
   0   0  -4    1.21    2.22   1
   0   0  -4    0.38    1.87   1
   0   0  -3  145.20    6.03   1
   0   0  -3  154.26    6.96   1
   0   0  -3  155.75    7.24   1
   0   0   3  162.31    7.13   1
   0   0   3  157.75    5.78   1
   0   0   4   -1.77    1.52   1
   0   0   5  110.25    6.93   1
   0   0   5  121.44    6.39   1
   0   0   6  186.32   10.37   1
   0   0   6  194.04    9.47   1
   0   0   7  165.89    8.76   1
   0   0   7  147.87    9.48   1
   0   0   8    5.29    2.58   1
   0   0   8    0.56    2.12   1
   0   0   9    8.70    3.42   1
   0   0  10   53.14    7.00   1
   0   0  10   39.31    5.14   1
   0   0  10   39.44    6.03   1
   0   0  11    0.25    3.70   1
   0   0  11    5.76    4.99   1
   0   0  11    0.59    3.33   1
   0   0  12    9.00    4.56   1
   0   0  12    7.02    4.93   1
   0   0  12    1.19    5.54   1
   0   0  13   31.25    9.84   1
   0   0  13   58.68    9.19   1
   0   0  13   65.61    7.45   1
   0   1 -13   -7.18    5.20   1
   0   1 -13   15.37    8.47   1
   0   1 -12    8.07    4.43   1
   0   1 -12   16.08    7.62   1
   0   1 -12    3.53    2.59   1
   0   1 -11   59.75    8.81   1
   0   1 -11   49.84    6.35   1
   0   1 -11   42.25    4.55   1
   0   1 -10    8.94    4.19   1
   0   1  -9   64.96    5.16   1
   0   1  -9   71.06    8.26   1
   0   1  -9   81.90    6.70   1
   0   1  -8    9.36    2.94   1
   0   1  -8    6.20    4.08   1
   0   1  -8    9.61    2.48   1
   0   1  -7   60.53    6.22   1
   0   1  -7   59.91    4.80   1
   0   1  -7   65.12    5.33   1
   0   1  -6    8.53    2.22   1
   0   1  -6    8.70    2.60   1
   0   1  -5  260.50   11.30   1
   0   1  -5  259.85   10.96   1
   0   1  -5  301.37   13.19   1
   0   1  -4  723.07   23.66   1
   0   1  -4  753.50   25.25   1
   0   1  -4  696.43   24.81   1
   0   1  -3   27.25    2.92   1
   0   1  -3   29.59    2.39   1
   0   1  -3   32.72    3.20   1
   0   1  -2   87.61    4.49   1
   0   1  -2   83.72    3.29   1
   0   1  -1   -1.82    0.84   1
   0   1   1   -1.35    0.79   1
   0   1   2  621.01   20.43   1
   0   1   2  621.01   19.94   1
   0   1   3   -2.56    1.73   1
   0   1   3    1.72    1.91   1
   0   1   4   26.94    3.11   1
   0   1   4   20.43    2.80   1
   0   1   5   79.39    5.52   1
   0   1   5   79.39    5.70   1
   0   1   6  466.13   18.57   1
   0   1   6  465.70   18.99   1
   0   1   7   12.82    3.37   1
   0   1   7   10.24    2.94   1
   0   1   8  177.16   10.38   1
   0   1   8  193.77   11.41   1
   0   1   9   -0.52    3.50   1
   0   1   9    6.76    3.17   1
   0   1  10   89.68    9.09   1
   0   1  10   92.35    7.88   1
   0   1  11   31.02    5.57   1
   0   1  11   30.25    6.60   1
   0   1  11   38.44    7.19   1
   0   1  12   22.47    6.64   1
   0   1  12   18.40    7.12   1
   0   1  12   23.72    5.45   1
   0   1  13   25.10    6.31   1
   0   1  13    6.50    6.32   1
   0   1  13   13.32    7.08   1
   0   1  14   -1.99    7.53   1
   0   1  14   -2.69    6.00   1
   0   2 -13   48.72   11.59   1
   0   2 -12    1.35    3.55   1
   0   2 -12  -15.76    8.02   1
   0   2 -12   -3.69    3.61   1
   0   2 -11    9.42    3.75   1
   0   2 -11   14.06    5.40   1
   0   2 -10    4.84    2.68   1
   0   2 -10    5.66    5.38   1
   0   2 -10    5.43    3.40   1
   0   2  -9   74.13    5.68   1
   0   2  -9   70.73    6.22   1
   0   2  -9   80.64    8.80   1
   0   2  -8   -2.07    2.79   1
   0   2  -8    1.19    1.79   1
   0   2  -8    9.12    4.53   1
   0   2  -7    8.07    3.86   1
   0   2  -7    3.17    2.88   1
   0   2  -7   -0.42    1.70   1
   0   2  -6   32.04    4.87   1
   0   2  -6   33.76    3.02   1
   0   2  -6   33.06    4.26   1
   0   2  -5   83.54    4.20   1
   0   2  -5   86.86    6.71   1
   0   2  -5   75.34    5.90   1
   0   2  -4   86.30    6.13   1
   0   2  -4   73.10    3.42   1
   0   2  -4   63.84    5.27   1
   0   2  -3  260.18   11.94   1
   0   2  -3  283.59   11.79   1
   0   2  -2   10.24    2.43   1
   0   2  -2   12.46    2.97   1
   0   2  -1   21.62    1.77   1
   0   2  -1   27.98    2.86   1
   0   2  -1   22.56    2.66   1
   0   2  -1   21.62    1.95   1
   0   2   0    0.85    1.27   1
   0   2   1   22.00    2.72   1
   0   2   1   19.98    2.50   1
   0   2   2  327.25   12.66   1
   0   2   3   25.70    2.94   1
   0   2   4  656.38   23.57   1
   0   2   5    1.80    2.28   1
   0   2   5    2.59    1.61   1
   0   2   6  275.56   12.95   1
   0   2   6  272.25   12.87   1
   0   2   7  125.66    8.52   1
   0   2   7  119.46    8.31   1
   0   2   8  158.26   10.32   1
   0   2   8  158.51   10.07   1
   0   2   9    5.34    2.91   1
   0   2   9   11.09    4.06   1
   0   2  10   -1.54    3.84   1
   0   2  10    2.92    4.45   1
   0   2  11    1.90    4.33   1
   0   2  12   -5.48    5.85   1
   0   2  12   16.24    5.40   1
   0   2  13    8.64    5.76   1
   0   2  13    0.42    6.27   1
   0   2  14   21.07    7.71   1
   0   2  14    7.56    8.31   1
   0   3 -13   -5.38   10.39   1
   0   3 -12   11.16    3.34   1
   0   3 -12   16.56    5.29   1
   0   3 -12   23.04    9.12   1
   0   3 -11   -1.30    4.40   1
   0   3 -11   -3.46    2.42   1
   0   3 -11   -9.24    7.30   1
   0   3 -10    6.00    2.16   1
   0   3 -10    4.62    3.87   1
   0   3  -9   31.14    3.24   1
   0   3  -9   30.25    5.17   1
   0   3  -9   31.36    6.83   1
   0   3  -8    6.10    1.63   1
   0   3  -8   14.29    4.08   1
   0   3  -8   15.92    5.35   1
   0   3  -7   85.75    7.41   1
   0   3  -7   83.91    8.43   1
   0   3  -6    5.48    3.46   1
   0   3  -6   14.36    4.32   1
   0   3  -5   86.12    7.24   1
   0   3  -5   87.98    7.32   1
   0   3  -5   76.56    6.82   1
   0   3  -4    0.32    2.37   1
   0   3  -4    3.46    2.79   1
   0   3  -4   -0.86    2.55   1
   0   3  -3  610.09   23.71   1
   0   3  -3  618.02   22.37   1
   0   3  -3  623.00   21.96   1
   0   3  -2  433.06   15.82   1
   0   3  -2  419.43   14.34   1
   0   3  -2  432.22   16.63   1
   0   3  -1    5.66    1.67   1
   0   3  -1    6.15    1.29   1
   0   3  -1    6.55    1.95   1
   0   3   0   25.30    2.92   1
   0   3   0   25.60    2.73   1
   0   3   1   21.53    2.88   1
   0   3   1   19.27    3.07   1
   0   3   2   12.18    2.72   1
   0   3   3  413.31   16.26   1
   0   3   4   83.54    6.22   1
   0   3   5   21.81    1.96   1
   0   3   5   20.07    3.67   1
   0   3   6   12.74    3.50   1
   0   3   7   -6.45    3.40   1
   0   3   8    6.66    3.61   1
   0   3   9    5.90    3.84   1
   0   3  10  133.86   10.18   1
   0   3  11   -2.62    4.60   1
   0   3  12    6.81    5.48   1
   0   3  13   64.80    9.82   1
   0   3  13   77.09    9.83   1
   0   4 -12    9.86    8.29   1
   0   4 -12   -3.96    7.84   1
   0   4 -12   -3.76    5.55   1
   0   4 -11    9.55    7.85   1
   0   4 -11   16.97    5.85   1
   0   4 -11   16.48    7.31   1
   0   4 -10   -1.44    5.64   1
   0   4 -10    6.10    4.84   1
   0   4 -10    2.82    6.32   1
   0   4  -9   84.46    8.45   1
   0   4  -9   90.82   10.10   1
   0   4  -9   92.35   10.19   1
   0   4  -8   81.36    8.12   1
   0   4  -8   89.11    9.25   1
   0   4  -8   72.25    8.67   1
   0   4  -7  137.12   10.77   1
   0   4  -7  140.90   10.92   1
   0   4  -7  146.65   10.66   1
   0   4  -6   19.27    4.65   1
   0   4  -6   26.32    5.03   1
   0   4  -6   18.49    5.16   1
   0   4  -5    9.86    4.27   1
   0   4  -5   11.76    4.05   1
   0   4  -5    5.71    3.97   1
   0   4  -4   31.70    4.95   1
   0   4  -4   49.42    5.76   1
   0   4  -4   42.51    5.22   1
   0   4  -3   29.16    4.21   1
   0   4  -3   34.81    4.60   1
   0   4  -3   30.25    4.95   1
   0   4  -2   18.15    2.30   1
   0   4  -2   26.42    3.91   1
   0   4  -2   21.44    2.50   1
   0   4  -2   21.62    3.53   1
   0   4  -1   61.15    3.44   1
   0   4  -1   61.78    4.40   1
   0   4  -1   64.32    5.45   1
   0   4   0    2.10    2.41   1
   0   4   0    2.72    1.82   1
   0   4   1  167.96    8.55   1
   0   4   1  154.75    8.46   1
   0   4   2  815.10   29.12   1
   0   4   2  836.37   28.92   1
   0   4   3    7.73    2.89   1
   0   4   4   20.25    3.42   1
   0   4   5    2.10    2.47   1
   0   4   6  102.21    5.05   1
   0   4   6   92.35    7.88   1
   0   4   7    2.31    3.19   1
   0   4   8   12.67    4.34   1
   0   4   9  151.29   10.82   1
   0   4  10    4.24    4.78   1
   0   4  11   30.80    6.77   1
   0   4  12    5.48    4.91   1
   0   4  13   -9.80    7.51   1
   0   4  13    2.72    6.34   1
   0   5 -11    7.56    7.75   1
   0   5 -11    6.30    6.98   1
   0   5 -11    1.82    5.94   1
   0   5 -10   15.84    5.97   1
   0   5 -10   11.36    5.59   1
   0   5 -10    0.77    5.68   1
   0   5  -9    3.28    5.07   1
   0   5  -9   -3.28    4.52   1
   0   5  -9    0.92    5.72   1
   0   5  -8   42.38    7.42   1
   0   5  -8   56.40    8.26   1
   0   5  -8   57.46    8.03   1
   0   5  -7    4.80    4.34   1
   0   5  -7   11.22    5.36   1
   0   5  -7    8.70    5.19   1
   0   5  -6    4.16    4.49   1
   0   5  -6    5.20    4.42   1
   0   5  -6   -0.18    3.23   1
   0   5  -5   96.24    8.63   1
   0   5  -5   87.98    9.00   1
   0   5  -5  110.46    8.41   1
   0   5  -4   12.96    4.82   1
   0   5  -4   14.14    4.21   1
   0   5  -4    9.12    4.11   1
   0   5  -3   53.44    5.70   1
   0   5  -3   56.55    6.02   1
   0   5  -3   49.56    6.62   1
   0   5  -2  153.76   10.91   1
   0   5  -2  159.52    7.07   1
   0   5  -2  159.52    8.08   1
   0   5  -2  179.29   10.44   1
   0   5  -1   -1.90    2.13   1
   0   5  -1    2.19    1.27   1
   0   5  -1    2.72    1.95   1
   0   5   0  112.78    7.01   1
   0   5   0  109.41    7.53   1
   0   5   1  186.87   10.12   1
   0   5   1  187.96   10.15   1
   0   5   2  362.90   16.00   1
   0   5   2  332.70   15.32   1
   0   5   3   70.73    6.56   1
   0   5   4  189.89   11.30   1
   0   5   4  181.44    9.97   1
   0   5   5   87.98    6.19   1
   0   5   5   96.43    8.05   1
   0   5   6   19.98    3.13   1
   0   5   6   14.75    4.38   1
   0   5   7  211.12   13.37   1
   0   5   7  213.16    9.05   1
   0   5   8  195.72   13.15   1
   0   5   9    1.49    4.66   1
   0   5  10    6.81    4.85   1
   0   5  11    6.86    6.08   1
   0   5  12   -2.50    6.54   1
   0   5  13    8.53    6.37   1
   0   6 -11  -17.14   10.27   1
   0   6 -11   -1.25    7.88   1
   0   6 -11   -6.20    9.31   1
   0   6 -10   51.12   10.30   1
   0   6 -10   44.89    8.98   1
   0   6 -10   58.83    9.51   1
   0   6  -9   26.73    6.82   1
   0   6  -9   15.92    7.90   1
   0   6  -9   31.70    8.22   1
   0   6  -8    3.72    4.52   1
   0   6  -8   -1.32    5.52   1
   0   6  -8    0.53    5.36   1
   0   6  -7   70.22    8.55   1
   0   6  -7   68.06    8.91   1
   0   6  -7   80.46    9.51   1
   0   6  -6   40.58    6.88   1
   0   6  -6   35.76    6.46   1
   0   6  -6   34.11    6.89   1
   0   6  -5   27.98    5.61   1
   0   6  -5   25.91    6.31   1
   0   6  -5   23.72    5.65   1
   0   6  -4   48.86    6.71   1
   0   6  -4   47.47    6.48   1
   0   6  -3  138.77   10.60   1
   0   6  -3  141.85   10.00   1
   0   6  -2    1.00    3.46   1
   0   6  -2    3.53    1.96   1
   0   6  -2    0.37    2.01   1
   0   6  -2    3.28    4.27   1
   0   6  -1  312.58   13.79   1
   0   6  -1  309.06   16.88   1
   0   6  -1  301.72   14.94   1
   0   6  -1  289.68   10.55   1
   0   6   0   27.04    4.68   1
   0   6   0   25.60    3.95   1
   0   6   0   23.91    5.48   1
   0   6   1   94.09    7.76   1
   0   6   1   86.49    7.63   1
   0   6   1   78.50    6.56   1
   0   6   2    2.53    3.53   1
   0   6   2    1.02    3.11   1
   0   6   2    1.88    2.77   1
   0   6   3   61.31    6.58   1
   0   6   3   58.68    6.28   1
   0   6   4   63.04    6.83   1
   0   6   4   58.06    5.94   1
   0   6   5   18.40    3.86   1
   0   6   6  132.48    8.29   1
   0   6   6  124.10   10.25   1
   0   6   7   26.21    3.38   1
   0   6   7   24.80    5.78   1
   0   6   8  134.33   11.59   1
   0   6   8  132.02    6.66   1
   0   6   9   -0.59    5.08   1
   0   6  10   48.72    8.52   1
   0   6  11   10.56    5.66   1
   0   6  12   14.21    8.44   1
   0   7 -10    5.81    8.05   1
   0   7 -10   -7.13    8.33   1
   0   7 -10   15.29   10.01   1
   0   7  -9    2.99    7.78   1
   0   7  -9    4.45    7.47   1
   0   7  -9   14.98    8.51   1
   0   7  -8   10.56    6.82   1
   0   7  -8    1.96    6.64   1
   0   7  -8    0.29    6.61   1
   0   7  -7   26.83    8.08   1
   0   7  -7   44.09    8.50   1
   0   7  -7   33.99    7.81   1
   0   7  -6   13.99    6.36   1
   0   7  -6   -3.80    4.29   1
   0   7  -6    3.72    4.17   1
   0   7  -5  161.80   12.21   1
   0   7  -5  161.04   13.20   1
   0   7  -4    1.35    4.87   1
   0   7  -3   40.20    6.59   1
   0   7  -2  117.07   10.60   1
   0   7  -2  110.88    9.48   1
   0   7  -2  119.25    7.86   1
   0   7  -1  351.56   12.38   1
   0   7  -1  333.43   15.70   1
   0   7  -1  333.43   17.16   1
   0   7  -1  343.73   18.91   1
   0   7   0   23.62    5.15   1
   0   7   0   33.76    6.51   1
   0   7   0   30.25    2.64   1
   0   7   0   33.18    4.61   1
   0   7   1    7.51    3.29   1
   0   7   1    2.92    4.28   1
   0   7   1   12.25    3.64   1
   0   7   2   55.80    6.27   1
   0   7   2   51.41    6.60   1
   0   7   2   45.83    6.63   1
   0   7   3   36.48    5.68   1
   0   7   3   30.03    4.93   1
   0   7   4    9.99    4.30   1
   0   7   4   12.39    4.51   1
   0   7   5    5.62    4.17   1
   0   7   5   -5.34    3.65   1
   0   7   6   78.32    8.85   1
   0   7   6   99.40    7.58   1
   0   7   7   34.57    6.94   1
   0   7   7   34.81    4.60   1
   0   7   8    9.00    5.52   1
   0   7   8    4.33    2.87   1
   0   7   9   11.70    5.34   1
   0   7  10    2.86    6.62   1
   0   7  11   11.90    8.35   1
   0   8  -9    0.26    7.01   1
   0   8  -9    3.39    9.38   1
   0   8  -8    5.34    8.87   1
   0   8  -8   16.65    9.06   1
   0   8  -7   -2.86    7.20   1
   0   8  -7   -2.96    7.36   1
   0   8  -6    7.56    7.32   1
   0   8  -6   12.60    7.81   1
   0   8  -5   45.16    7.66   1
   0   8  -5   53.00    9.76   1
   0   8  -4   -0.25    5.57   1
   0   8  -4   -2.82    6.18   1
   0   8  -3   54.17    8.10   1
   0   8  -3   53.73    7.92   1
   0   8  -2    0.50    3.05   1
   0   8  -2   -4.00    4.64   1
   0   8  -2   -0.58    4.89   1
   0   8  -1   77.62    8.63   1
   0   8  -1   85.75    9.26   1
   0   8  -1   79.03    4.45   1
   0   8  -1   73.96    7.05   1
   0   8   0   -0.04    3.33   1
   0   8   0   21.25    6.18   1
   0   8   0    6.15    1.74   1
   0   8   0   -1.61    3.20   1
   0   8   1   10.96    4.97   1
   0   8   1   20.25    5.85   1
   0   8   1   11.56    4.08   1
   0   8   2    2.31    4.38   1
   0   8   2    6.71    4.09   1
   0   8   2    4.08    4.73   1
   0   8   3   64.00    7.84   1
   0   8   3   54.17    7.07   1
   0   8   4   77.09    8.25   1
   0   8   4   55.80    7.77   1
   0   8   5  252.49   14.30   1
   0   8   5  219.04   15.10   1
   0   8   6   15.44    6.05   1
   0   8   6   16.56    4.80   1
   0   8   7    0.49    5.66   1
   0   8   7    2.59    3.90   1
   0   8   8   13.84    4.02   1
   0   8   8    6.50    6.17   1
   0   8   9    3.03    2.89   1
   0   8   9   -6.05    7.38   1
   0   8  10   45.02    9.93   1
   0   9  -7   33.76    9.64   1
   0   9  -6   24.30   10.16   1
   0   9  -6   24.70    7.36   1
   0   9  -5    2.31    8.03   1
   0   9  -5   -1.30    6.93   1
   0   9  -4    0.76    5.69   1
   0   9  -4    5.38    7.42   1
   0   9  -3   42.51    8.61   1
   0   9  -3   25.40    8.57   1
   0   9  -2   18.32    4.88   1
   0   9  -2   24.40    6.92   1
   0   9  -2   14.21    7.09   1
   0   9  -1   40.20    6.21   1
   0   9  -1   57.76    8.51   1
   0   9  -1   30.14    7.91   1
   0   9   0    8.94    5.80   1
   0   9   0    4.93    4.62   1
   0   9   0   -0.46    4.23   1
   0   9   1   59.44    3.55   1
   0   9   1   59.29    8.47   1
   0   9   1   35.05    6.63   1
   0   9   1   39.56    7.67   1
   0   9   2   -2.02    4.49   1
   0   9   2   13.03    5.85   1
   0   9   2   14.14    6.17   1
   0   9   3    7.40    5.66   1
   0   9   3    7.40    5.00   1
   0   9   4   -2.82    5.11   1
   0   9   4    7.95    5.30   1
   0   9   5    5.52    5.45   1
   0   9   5   -4.49    5.72   1
   0   9   6   12.11    5.50   1
   0   9   6    2.53    6.17   1
   0   9   7   -2.50    4.99   1
   0   9   7    5.52    4.89   1
   0   9   8   -4.24    4.86   1
   0   9   8   -0.66    7.57   1
   0   9   9   24.70    5.17   1
   0  10  -5   -1.59    8.57   1
   0  10  -4    9.55    6.49   1
   0  10  -3   -9.30    8.85   1
   0  10  -3   -4.00    7.32   1
   0  10  -2   -6.71    7.87   1
   0  10  -2    7.45    7.26   1
   0  10  -1   67.73   11.19   1
   0  10  -1   65.29   10.18   1
   0  10  -1   65.93    8.44   1
   0  10   0    4.84    7.13   1
   0  10   0   -0.08    6.50   1
   0  10   0    4.28    5.34   1
   0  10   1   -4.20    6.56   1
   0  10   1   -7.02    7.10   1
   0  10   1    7.34    5.58   1
   0  10   2   41.09    8.33   1
   0  10   2   62.88   10.15   1
   0  10   2   57.15    9.07   1
   0  10   3   -0.77    6.28   1
   0  10   3    3.31    5.90   1
   0  10   4   -4.80    6.35   1
   0  10   4    3.88    6.70   1
   0  10   5   86.49   11.16   1
   0  10   5   82.63   10.36   1
   0  10   6    6.71    7.46   1
   0  10   6   -3.53    6.28   1
   0  10   7    4.71    6.25   1
   0  10   7    9.30    8.66   1
   0  10   8    9.86    6.85   1
   0  11  -2   31.92    8.59   1
   0  11  -1   -0.50    8.79   1
   0  11  -1   -5.86    6.44   1
   0  11   0   23.72    9.64   1
   0  11   0    9.24    6.75   1
   0  11   1   26.83    9.63   1
   0  11   1   16.32    7.43   1
   0  11   1   37.33   10.02   1
   0  11   2   -0.21    8.12   1
   0  11   2    8.29    7.08   1
   0  11   2   -5.76    7.20   1
   0  11   3   12.60    8.09   1
   0  11   3    9.61    8.68   1
   0  11   4    7.40    8.11   1
   0  11   4    2.69    8.04   1
   0  11   5   40.07   10.25   1
   1 -11  -4    2.72    4.06   1
   1 -11  -4    9.36    7.71   1
   1 -11  -3   11.83    7.84   1
   1 -11  -2   -2.02    6.67   1
   1 -11  -1    1.49    4.39   1
   1 -11  -1    5.52    5.69   1
   1 -11   0   52.71    7.55   1
   1 -11   0   65.61    7.45   1
   1 -11   1    0.55    4.43   1
   1 -11   1   -2.25    5.16   1
   1 -11   2   -8.01    6.00   1
   1 -10  -7   30.58   10.51   1
   1 -10  -7   25.81    5.69   1
   1 -10  -6    0.83    4.06   1
   1 -10  -6    7.34    8.46   1
   1 -10  -5   22.47    8.63   1
   1 -10  -5   20.43   10.40   1
   1 -10  -4  131.79    8.72   1
   1 -10  -4  143.04    9.09   1
   1 -10  -4  135.49   13.27   1
   1 -10  -3   40.45    5.09   1
   1 -10  -3   23.81    8.20   1
   1 -10  -3   46.79    8.48   1
   1 -10  -2   -0.96    7.31   1
   1 -10  -2   -7.62    5.52   1
   1 -10  -2    3.72    3.78   1
   1 -10  -1    3.50    3.85   1
   1 -10  -1    4.54    5.24   1
   1 -10  -1   -3.20    7.34   1
   1 -10   0   -1.23    4.11   1
   1 -10   0    0.53    3.69   1
   1 -10   0   -3.72    7.33   1
   1 -10   1   19.18    4.73   1
   1 -10   1   12.04    4.65   1
   1 -10   1    5.71    6.93   1
   1 -10   2   41.99    5.18   1
   1 -10   2   34.46    5.87   1
   1 -10   3   -2.50    4.99   1
   1 -10   3    1.59    6.30   1
   1 -10   4    7.62    5.91   1
   1 -10   5   -0.46    6.43   1
   1  -9  -9   10.96   10.46   1
   1  -9  -9    2.89    5.58   1
   1  -9  -8   14.67    5.21   1
   1  -9  -8   11.76    8.44   1
   1  -9  -7   -4.37    7.61   1
   1  -9  -7    2.59    4.28   1
   1  -9  -7   -8.58    7.50   1
   1  -9  -6    7.84    7.34   1
   1  -9  -6   -0.96    6.64   1
   1  -9  -6    1.21    3.78   1
   1  -9  -5   18.92    7.05   1
   1  -9  -5   22.47    4.17   1
   1  -9  -5   18.58    5.78   1
   1  -9  -4    2.22    5.30   1
   1  -9  -4    4.28    5.80   1
   1  -9  -4    0.42    2.72   1
   1  -9  -3   20.34    3.88   1
   1  -9  -3   11.83    5.16   1
   1  -9  -3   15.52    5.99   1
   1  -9  -2   54.76    5.33   1
   1  -9  -2   47.75    7.32   1
   1  -9  -2   34.11    7.59   1
   1  -9  -1   -8.35    6.42   1
   1  -9  -1   -0.66    4.16   1
   1  -9  -1    0.06    2.70   1
   1  -9   0   75.86    6.45   1
   1  -9   0   76.56    9.80   1
   1  -9   0   71.74    7.62   1
   1  -9   1    3.50    5.01   1
   1  -9   1    1.37    3.09   1
   1  -9   1    5.11    3.34   1
   1  -9   2   34.81    5.19   1
   1  -9   2   33.41    4.62   1
   1  -9   2   27.67    7.36   1
   1  -9   3   -0.32    3.78   1
   1  -9   3    0.79    6.46   1
   1  -9   3    0.45    2.12   1
   1  -9   4   18.32    5.39   1
   1  -9   5    8.47    5.53   1
   1  -9   6    7.08    7.55   1
   1  -9   6    8.47    5.82   1
   1  -9   7   27.46    8.91   1
   1  -9   7   29.27    8.44   1
   1  -8 -10   13.62    6.42   1
   1  -8 -10   11.90   10.07   1
   1  -8  -9   17.14    5.71   1
   1  -8  -9   23.81    9.37   1
   1  -8  -8    1.19    4.32   1
   1  -8  -8   -6.97    7.76   1
   1  -8  -8   -8.35    7.46   1
   1  -8  -7  119.68    8.75   1
   1  -8  -7  117.94   11.08   1
   1  -8  -7   97.22   12.03   1
   1  -8  -6   46.79    5.20   1
   1  -8  -6   47.47    8.82   1
   1  -8  -6   28.09    7.31   1
   1  -8  -5   19.18    6.31   1
   1  -8  -5   30.03    4.16   1
   1  -8  -5   40.58    7.77   1
   1  -8  -4   -3.17    2.67   1
   1  -8  -4   -0.36    5.26   1
   1  -8  -4    2.59    5.09   1
   1  -8  -3   29.38    6.18   1
   1  -8  -3   30.69    6.65   1
   1  -8  -2    6.66    5.16   1
   1  -8  -2   -3.84    3.80   1
   1  -8  -2   -1.54    2.43   1
   1  -8  -1   -2.69    2.85   1
   1  -8  -1   -2.92    3.49   1
   1  -8  -1    0.06    3.33   1
   1  -8   0  175.56   10.86   1
   1  -8   0  176.36   11.69   1
   1  -8   0  171.87    9.44   1
   1  -8   0  165.12   12.34   1
   1  -8   1  172.66    9.99   1
   1  -8   1  178.49    9.89   1
   1  -8   1  179.29   12.85   1
   1  -8   1  174.77   11.10   1
   1  -8   2    9.55    3.52   1
   1  -8   2   11.56    3.60   1
   1  -8   2   12.25    2.94   1
   1  -8   2    6.92    5.26   1
   1  -8   3   19.54    4.33   1
   1  -8   3   19.62    2.84   1
   1  -8   3   19.71    3.82   1
   1  -8   4   93.90    8.14   1
   1  -8   4   87.42    6.55   1
   1  -8   5   15.60    5.13   1
   1  -8   6   15.29    5.55   1
   1  -8   6   12.04    5.34   1
   1  -8   7   -4.33    6.32   1
   1  -8   7    3.96    5.61   1
   1  -8   8    4.58    6.51   1
   1  -8   8   -0.32    4.86   1
   1  -8   9   10.89    7.99   1
   1  -8   9   13.03    8.38   1
   1  -7 -11   25.70    7.61   1
   1  -7 -11   10.69    9.74   1
   1  -7 -10   -4.00    6.16   1
   1  -7 -10   -8.64    7.76   1
   1  -7 -10   -3.61    3.91   1
   1  -7 -10    3.39    5.19   1
   1  -7  -9    4.37    7.23   1
   1  -7  -9    4.84    7.57   1
   1  -7  -9    3.17    4.70   1
   1  -7  -9    4.88    3.18   1
   1  -7  -8   11.70    7.18   1
   1  -7  -8   22.85    4.88   1
   1  -7  -8    7.08    6.22   1
   1  -7  -7   45.43    5.53   1
   1  -7  -7   35.64    8.00   1
   1  -7  -7   27.25    6.37   1
   1  -7  -6   -1.61    5.03   1
   1  -7  -6   15.84    5.97   1
   1  -7  -6   -4.00    2.92   1
   1  -7  -5    4.41    2.65   1
   1  -7  -5   12.74    5.14   1
   1  -7  -5   -0.22    4.43   1
   1  -7  -4   89.87    9.10   1
   1  -7  -4   76.39    5.59   1
   1  -7  -4   86.86    8.57   1
   1  -7  -3   51.41    6.88   1
   1  -7  -2   11.29    3.90   1
   1  -7  -2   10.89    3.83   1
   1  -7  -1  145.93   10.63   1
   1  -7  -1  143.76    7.43   1
   1  -7  -1  140.19    9.71   1
   1  -7  -1  132.25    9.89   1
   1  -7   0   40.96    4.22   1
   1  -7   0   45.29    6.46   1
   1  -7   0   49.00    5.46   1
   1  -7   0   36.72    5.21   1
   1  -7   1   11.09    2.93   1
   1  -7   1   13.18    4.57   1
   1  -7   1   11.16    3.41   1
   1  -7   1    5.48    2.53   1
   1  -7   2   33.64    4.41   1
   1  -7   2   44.89    4.69   1
   1  -7   2   40.45    4.07   1
   1  -7   2   41.99    5.83   1
   1  -7   3   36.72    6.18   1
   1  -7   3   36.36    4.70   1
   1  -7   3   30.69    3.88   1
   1  -7   3   30.58    2.88   1
   1  -7   4   -1.69    1.87   1
   1  -7   4   -1.99    3.41   1
   1  -7   5   14.36    2.50   1
   1  -7   5   15.44    4.72   1
   1  -7   6   43.30    6.58   1
   1  -7   7    7.45    5.19   1
   1  -7   7   18.84    6.34   1
   1  -7   8   -3.20    5.87   1
   1  -7   8   -2.16    5.00   1
   1  -7   9   35.28    8.32   1
   1  -7   9   33.52    7.64   1
   1  -7  10   -4.54    6.09   1
   1  -7  10   -1.21    6.53   1
   1  -6 -12   35.52   11.68   1
   1  -6 -12   25.10    8.42   1
   1  -6 -11   -6.55    8.45   1
   1  -6 -11    6.10    6.27   1
   1  -6 -10    2.13    5.02   1
   1  -6 -10    9.36    7.22   1
   1  -6  -9   28.30    7.55   1
   1  -6  -9   36.36    6.15   1
   1  -6  -9   33.64    3.71   1
   1  -6  -9   27.77    7.17   1
   1  -6  -8   23.62    4.86   1
   1  -6  -8   20.98    6.32   1
   1  -6  -8   16.32    6.87   1
   1  -6  -7   58.52    6.12   1
   1  -6  -7   66.91    8.34   1
   1  -6  -7   61.94    8.97   1
   1  -6  -6   24.50    5.74   1
   1  -6  -6   33.64    4.52   1
   1  -6  -6   20.52    5.89   1
   1  -6  -5  179.29   13.12   1
   1  -6  -5  203.92   10.00   1
   1  -6  -5  192.93   12.50   1
   1  -6  -4    3.53    2.07   1
   1  -6  -4    4.24    4.37   1
   1  -6  -4   -5.66    3.86   1
   1  -6  -3   29.59    5.22   1
   1  -6  -3   26.63    5.37   1
   1  -6  -2   91.78    8.05   1
   1  -6  -2   89.87    7.58   1
   1  -6  -1  109.62    8.17   1
   1  -6  -1  112.78    8.28   1
   1  -6  -1  103.84    5.91   1
   1  -6  -1  115.78    8.18   1
   1  -6   0   10.18    3.25   1
   1  -6   0    6.20    2.84   1
   1  -6   0    4.41    3.44   1
   1  -6   0    6.60    2.11   1
   1  -6   1   74.82    6.05   1
   1  -6   1   72.76    5.29   1
   1  -6   1   82.45    7.26   1
   1  -6   1   80.82    5.93   1
   1  -6   2   24.30    3.45   1
   1  -6   2   18.06    2.72   1
   1  -6   2   14.59    4.13   1
   1  -6   2   16.81    2.95   1
   1  -6   3   -6.45    3.56   1
   1  -6   3    2.34    1.84   1
   1  -6   3    0.61    2.46   1
   1  -6   3    0.66    1.36   1
   1  -6   4  111.09    6.11   1
   1  -6   4  117.51    8.24   1
   1  -6   5  129.96    6.38   1
   1  -6   5  133.63    9.48   1
   1  -6   6   48.44    7.10   1
   1  -6   6   52.13    6.35   1
   1  -6   7   21.07    5.78   1
   1  -6   8   66.10    8.62   1
   1  -6   8   69.72    8.52   1
   1  -6   9   -6.20    5.73   1
   1  -6   9   -0.48    5.48   1
   1  -6  10    9.49    6.41   1
   1  -6  10   22.66    7.81   1
   1  -6  11   41.86    8.80   1
   1  -5 -12    5.81    6.46   1
   1  -5 -12   10.11    6.61   1
   1  -5 -11   24.60    7.14   1
   1  -5 -10    1.12    4.47   1
   1  -5 -10    5.76    5.23   1
   1  -5  -9   56.85    6.94   1
   1  -5  -9   49.14    8.27   1
   1  -5  -8    1.17    1.86   1
   1  -5  -8    3.92    3.76   1
   1  -5  -8    0.83    5.13   1
   1  -5  -7  165.89   13.14   1
   1  -5  -7  200.22   11.04   1
   1  -5  -6   -1.42    2.57   1
   1  -5  -6    4.28    3.93   1
   1  -5  -6    4.41    3.40   1
   1  -5  -5    4.12    4.30   1
   1  -5  -5    2.25    2.28   1
   1  -5  -5   -0.59    3.36   1
   1  -5  -4   90.44    8.56   1
   1  -5  -4   96.24    7.46   1
   1  -5  -4  101.81    5.85   1
   1  -5  -3   28.20    4.14   1
   1  -5  -3   36.84    5.34   1
   1  -5  -2   54.46    5.61   1
   1  -5  -2   62.88    6.19   1
   1  -5  -1   -1.35    2.44   1
   1  -5  -1   -0.40    2.72   1
   1  -5  -1    4.84    2.95   1
   1  -5   0  264.71   12.69   1
   1  -5   0  248.06   10.08   1
   1  -5   0  256.00   11.84   1
   1  -5   0  254.40   11.80   1
   1  -5   1   16.81    2.79   1
   1  -5   1   18.40    3.09   1
   1  -5   1   18.58    2.59   1
   1  -5   1   19.89    3.75   1
   1  -5   2  154.01    7.20   1
   1  -5   2  148.11    7.79   1
   1  -5   2  146.17    9.19   1
   1  -5   2  143.28    7.66   1
   1  -5   3  202.49    9.96   1
   1  -5   3  189.61   10.74   1
   1  -5   3  191.55    7.47   1
   1  -5   3  185.23    8.44   1
   1  -5   4  179.56    7.77   1
   1  -5   4  181.17    9.96   1
   1  -5   5   -0.61    2.79   1
   1  -5   6   96.04    8.62   1
   1  -5   6   93.12    7.91   1
   1  -5   7    7.08    4.10   1
   1  -5   7   13.47    4.62   1
   1  -5   8    8.29    4.95   1
   1  -5   8    2.69    4.33   1
   1  -5   8    7.84    3.98   1
   1  -5   9   99.20    9.56   1
   1  -5   9   87.24    8.41   1
   1  -5   9   79.21    9.26   1
   1  -5  10   70.56    8.74   1
   1  -5  10   53.88    7.63   1
   1  -5  10   63.20    9.06   1
   1  -5  11   32.38    8.76   1
   1  -5  11   23.91    7.24   1
   1  -5  12   -1.30    6.82   1
   1  -5  12   -3.13    7.82   1
   1  -4 -13    4.45    8.19   1
   1  -4 -13   -4.88    9.37   1
   1  -4 -12   -9.36    7.89   1
   1  -4 -12    0.50    5.40   1
   1  -4 -11   13.25    6.48   1
   1  -4 -11   -3.20    6.37   1
   1  -4 -10  -16.24    6.93   1
   1  -4 -10    1.25    4.66   1
   1  -4  -9   34.93    7.45   1
   1  -4  -9   48.44    6.68   1
   1  -4  -8   62.73    8.24   1
   1  -4  -8   53.88    6.31   1
   1  -4  -7   15.21    3.74   1
   1  -4  -7   22.37    5.58   1
   1  -4  -6   13.18    5.08   1
   1  -4  -6    9.73    3.12   1
   1  -4  -5  119.03    7.20   1
   1  -4  -5  128.37    9.74   1
   1  -4  -4   20.70    2.82   1
   1  -4  -4   21.62    4.74   1
   1  -4  -4   22.94    4.12   1
   1  -4  -3   80.10    6.80   1
   1  -4  -3   72.93    4.44   1
   1  -4  -3   67.40    5.58   1
   1  -4  -2    2.43    1.90   1
   1  -4  -2   -1.80    2.92   1
   1  -4  -1  321.13   14.34   1
   1  -4  -1  354.95   14.70   1
   1  -4   0   18.66    3.37   1
   1  -4   0   21.72    2.14   1
   1  -4   0   16.40    2.84   1
   1  -4   0   22.56    3.14   1
   1  -4   1   19.71    2.66   1
   1  -4   1   24.21    2.46   1
   1  -4   1   25.70    2.84   1
   1  -4   1   18.40    3.26   1
   1  -4   2  176.62    9.30   1
   1  -4   2  171.35    7.59   1
   1  -4   2  158.51    7.05   1
   1  -4   2  156.75    7.76   1
   1  -4   3  130.87    8.24   1
   1  -4   3  144.96    6.26   1
   1  -4   3  141.61    7.62   1
   1  -4   4   55.95    2.99   1
   1  -4   4   57.46    5.15   1
   1  -4   5    0.76    3.01   1
   1  -4   5    1.77    2.53   1
   1  -4   6   16.97    3.96   1
   1  -4   6   24.01    4.41   1
   1  -4   6   17.64    3.61   1
   1  -4   7    8.88    3.52   1
   1  -4   7   14.21    4.22   1
   1  -4   7   12.67    4.20   1
   1  -4   8    7.24    3.93   1
   1  -4   8    1.69    3.64   1
   1  -4   8    5.11    3.98   1
   1  -4   9   -1.77    4.89   1
   1  -4   9    0.58    4.03   1
   1  -4   9    5.38    3.99   1
   1  -4  10    3.53    4.93   1
   1  -4  10    6.55    5.79   1
   1  -4  10   -2.28    4.38   1
   1  -4  11    1.32    4.81   1
   1  -4  11    0.46    4.31   1
   1  -4  11   -1.56    5.98   1
   1  -4  12   57.46   11.52   1
   1  -4  12   60.37    9.32   1
   1  -3 -13    0.85    7.40   1
   1  -3 -13    2.79    7.95   1
   1  -3 -12   59.75    9.59   1
   1  -3 -12   69.56   10.51   1
   1  -3 -11    5.29    6.16   1
   1  -3 -11   10.18    5.55   1
   1  -3 -10   35.52    7.27   1
   1  -3 -10   33.87    6.75   1
   1  -3  -9  192.38   13.59   1
   1  -3  -9  189.61   12.67   1
   1  -3  -8    4.24    3.54   1
   1  -3  -8    1.12    4.58   1
   1  -3  -7   82.26    7.07   1
   1  -3  -7   82.08    8.52   1
   1  -3  -6   58.52    6.88   1
   1  -3  -6   58.06    5.33   1
   1  -3  -5  298.60   15.21   1
   1  -3  -5  286.62   12.53   1
   1  -3  -4   -4.58    3.34   1
   1  -3  -4    4.28    1.99   1
   1  -3  -3    2.13    1.40   1
   1  -3  -3   -1.74    2.77   1
   1  -3  -2   14.67    3.37   1
   1  -3  -2   20.79    3.28   1
   1  -3  -2   21.16    1.93   1
   1  -3  -1    9.24    2.86   1
   1  -3  -1    8.12    2.39   1
   1  -3   0   65.12    4.52   1
   1  -3   0   59.91    3.10   1
   1  -3   0   63.04    4.76   1
   1  -3   1    2.22    1.37   1
   1  -3   1    5.57    2.22   1
   1  -3   1    3.88    1.26   1
   1  -3   1    3.72    1.62   1
   1  -3   2   66.26    4.88   1
   1  -3   2   57.61    4.10   1
   1  -3   2   74.13    3.62   1
   1  -3   2   75.00    3.81   1
   1  -3   3   48.58    2.51   1
   1  -3   3   49.98    4.10   1
   1  -3   4    9.55    2.60   1
   1  -3   4   10.24    3.26   1
   1  -3   4   10.56    2.60   1
   1  -3   5  298.60   13.13   1
   1  -3   5  313.29   14.16   1
   1  -3   5  293.44   14.05   1
   1  -3   6   36.72    4.61   1
   1  -3   6   35.28    4.75   1
   1  -3   6   32.38    4.67   1
   1  -3   7  141.37    9.27   1
   1  -3   7  144.96    9.39   1
   1  -3   7  138.30    9.41   1
   1  -3   8  646.18   26.44   1
   1  -3   8  657.92   25.65   1
   1  -3   8  588.55   25.72   1
   1  -3   9   58.98    7.53   1
   1  -3   9   60.22    6.52   1
   1  -3   9   54.02    6.76   1
   1  -3  10    6.05    4.43   1
   1  -3  10    6.55    4.25   1
   1  -3  11   58.22    9.00   1
   1  -3  11   85.19    9.23   1
   1  -3  12    4.93    4.57   1
   1  -3  13   -0.72    7.58   1
   1  -2 -13    2.28    7.13   1
   1  -2 -13   20.61    8.72   1
   1  -2 -12   47.06    8.51   1
   1  -2 -12   53.14    9.19   1
   1  -2 -11    2.66    5.64   1
   1  -2 -11    6.35    6.05   1
   1  -2 -10   38.07    7.16   1
   1  -2 -10   35.28    6.89   1
   1  -2  -9  230.74   14.58   1
   1  -2  -9  222.61   13.73   1
   1  -2  -8    1.32    3.93   1
   1  -2  -7   19.89    4.28   1
   1  -2  -7   10.18    4.40   1
   1  -2  -6   71.23    6.08   1
   1  -2  -6   83.72    7.50   1
   1  -2  -5  103.02    6.70   1
   1  -2  -5  103.43    7.93   1
   1  -2  -4   45.83    2.57   1
   1  -2  -4   48.30    4.03   1
   1  -2  -4   51.84    5.18   1
   1  -2  -3   93.90    6.59   1
   1  -2  -3   93.51    5.03   1
   1  -2  -2   32.26    3.64   1
   1  -2  -2   39.06    2.62   1
   1  -2  -1  251.86    7.93   1
   1  -2  -1  237.47   10.48   1
   1  -2  -1  244.61    9.70   1
   1  -2   0   73.96    2.92   1
   1  -2   0   76.21    4.54   1
   1  -2   0   88.74    5.09   1
   1  -2   1 2907.37   87.35   1
   1  -2   1 3056.98   90.68   1
   1  -2   1 3062.52   89.65   1
   1  -2   2    8.01    1.70   1
   1  -2   2    8.53    1.40   1
   1  -2   2    5.95    2.68   1
   1  -2   2    7.95    2.09   1
   1  -2   3    3.80    1.91   1
   1  -2   3    1.25    1.81   1
   1  -2   3    0.71    2.27   1
   1  -2   4   18.66    3.28   1
   1  -2   4   11.02    2.72   1
   1  -2   4   15.52    2.84   1
   1  -2   5   26.11    3.68   1
   1  -2   5   29.27    3.79   1
   1  -2   5   36.97    4.26   1
   1  -2   6  384.94   12.95   1
   1  -2   6  390.46   16.60   1
   1  -2   6  411.68   16.64   1
   1  -2   6  369.02   16.52   1
   1  -2   7   20.43    4.07   1
   1  -2   7   14.75    3.99   1
   1  -2   7   20.16    1.98   1
   1  -2   7   20.70    3.82   1
   1  -2   8  108.78    7.51   1
   1  -2   8  104.86    8.19   1
   1  -2   8  133.17    9.46   1
   1  -2   8  106.71    5.37   1
   1  -2   9   58.06    7.16   1
   1  -2   9   47.61    5.38   1
   1  -2   9   51.27    3.72   1
   1  -2   9   49.70    6.06   1
   1  -2  10   31.25    3.35   1
   1  -2  10   31.36    6.50   1
   1  -2  10   33.41    6.13   1
   1  -2  11    4.84    2.38   1
   1  -2  11    4.49    5.77   1
   1  -2  11   -0.31    4.87   1
   1  -2  12   10.63    6.85   1
   1  -2  12    9.73    4.74   1
   1  -2  12    8.64    2.76   1
   1  -2  13   29.70    8.28   1
   1  -2  13   36.60    4.36   1
   1  -1 -13    6.20    7.47   1
   1  -1 -13   26.73    9.51   1
   1  -1 -12   -2.10    6.50   1
   1  -1 -12   -3.50    5.72   1
   1  -1 -11    9.06    6.02   1
   1  -1 -11   11.16    5.28   1
   1  -1 -10   88.74    9.42   1
   1  -1 -10   79.74    8.39   1
   1  -1  -9   19.71    5.42   1
   1  -1  -9   18.66    4.58   1
   1  -1  -8  209.09   12.72   1
   1  -1  -8  207.36   12.96   1
   1  -1  -7    2.46    3.27   1
   1  -1  -7    3.06    1.16   1
   1  -1  -7    0.02    3.18   1
   1  -1  -6    0.03    0.99   1
   1  -1  -6    1.46    2.78   1
   1  -1  -6    2.62    3.18   1
   1  -1  -5  644.65   22.34   1
   1  -1  -5  671.85   24.36   1
   1  -1  -5  670.81   25.38   1
   1  -1  -4   13.25    2.77   1
   1  -1  -4   12.11    3.34   1
   1  -1  -4   12.18    1.61   1
   1  -1  -3   47.33    3.72   1
   1  -1  -3   50.41    3.12   1
   1  -1  -3   55.20    4.90   1
   1  -1  -2   94.09    4.66   1
   1  -1  -2   93.12    3.86   1
   1  -1  -2   94.48    5.83   1
   1  -1  -1   98.21    5.35   1
   1  -1  -1   98.80    3.78   1
   1  -1  -1   96.43    4.52   1
   1  -1   0   -2.62    1.17   1
   1  -1   0   -1.17    0.89   1
   1  -1   0   -2.31    1.00   1
   1  -1   1   -3.13    1.38   1
   1  -1   1    0.40    0.63   1
   1  -1   1    0.40    0.81   1
   1  -1   2  855.56   26.91   1
   1  -1   2  873.20   28.96   1
   1  -1   3   -0.10    2.11   1
   1  -1   3    1.00    1.74   1
   1  -1   3   -1.28    1.97   1
   1  -1   4   32.83    1.83   1
   1  -1   4   30.91    3.67   1
   1  -1   4   36.97    3.65   1
   1  -1   4   26.73    3.31   1
   1  -1   5   41.34    4.37   1
   1  -1   5   40.96    2.56   1
   1  -1   5   39.19    4.26   1
   1  -1   5   40.07    3.80   1
   1  -1   6   15.21    3.04   1
   1  -1   6    5.43    2.28   1
   1  -1   6    8.47    1.46   1
   1  -1   6    5.29    2.25   1
   1  -1   7   94.28    5.24   1
   1  -1   7   92.74    7.51   1
   1  -1   7   95.06    7.60   1
   1  -1   8   70.06    7.03   1
   1  -1   8   95.65    5.48   1
   1  -1   8   87.80    7.50   1
   1  -1   9    2.07    3.34   1
   1  -1   9   -0.11    1.90   1
   1  -1   9    3.03    4.00   1
   1  -1  10   -0.90    1.99   1
   1  -1  10   -5.52    4.51   1
   1  -1  10    3.35    4.17   1
   1  -1  11    8.41    5.63   1
   1  -1  11   13.10    5.50   1
   1  -1  12   71.57    9.81   1
   1  -1  12   94.67    7.01   1
   1  -1  12   73.10    9.41   1
   1  -1  13   30.25    4.95   1
   1  -1  13   11.36    8.42   1
   1  -1  13   15.52    5.67   1
   1  -1  14   10.50    8.62   1
   1   0 -13   -6.60    8.33   1
   1   0 -13   -1.08    5.93   1
   1   0 -12   81.36    9.02   1
   1   0 -12   86.86   11.37   1
   1   0 -11    7.62    4.80   1
   1   0 -11   -2.16    4.20   1
   1   0 -10    1.69    1.92   1
   1   0 -10   15.68    5.78   1
   1   0  -9    8.01    2.38   1
   1   0  -9    6.00    4.56   1
   1   0  -9   10.37    3.99   1
   1   0  -8  119.25    6.77   1
   1   0  -8  133.63    9.02   1
   1   0  -8  118.16    9.57   1
   1   0  -7   22.47    4.08   1
   1   0  -7   26.94    4.88   1
   1   0  -7   22.94    2.68   1
   1   0  -6   24.11    2.85   1
   1   0  -6   32.26    4.20   1
   1   0  -6   33.99    4.66   1
   1   0  -5   41.60    3.48   1
   1   0  -5   52.56    4.79   1
   1   0  -5   38.32    4.21   1
   1   0  -4   41.73    3.36   1
   1   0  -4   41.22    3.98   1
   1   0  -4   40.45    4.20   1
   1   0  -3   -1.80    2.17   1
   1   0  -3    4.08    1.58   1
   1   0  -3    2.53    2.26   1
   1   0  -2  525.33   17.88   1
   1   0  -2  499.08   17.43   1
   1   0  -2  528.08   18.38   1
   1   0  -1   98.80    4.97   1
   1   0  -1  118.59    5.01   1
   1   0   0   -1.74    0.69   1
   1   0   1    1.69    0.83   1
   1   0   2   57.30    2.57   1
   1   0   3    4.54    1.96   1
   1   0   3    1.37    1.01   1
   1   0   3   -1.04    2.24   1
   1   0   4   82.99    4.37   1
   1   0   4   81.36    5.41   1
   1   0   4   85.56    5.36   1
   1   0   5  627.00   22.04   1
   1   0   5  672.36   23.34   1
   1   0   5  676.52   23.93   1
   1   0   6  165.12    9.25   1
   1   0   6  157.50    9.04   1
   1   0   6  152.52    7.41   1
   1   0   7   16.65    2.53   1
   1   0   7   13.10    3.62   1
   1   0   7   19.27    3.51   1
   1   0   8  253.76   13.38   1
   1   0   8  275.23   14.27   1
   1   0   8  269.94   11.83   1
   1   0   9   43.43    4.35   1
   1   0   9   48.16    6.11   1
   1   0   9   46.38    6.13   1
   1   0  10   80.46    8.07   1
   1   0  10   61.31    7.52   1
   1   0  10   65.29    5.66   1
   1   0  11   23.23    5.11   1
   1   0  11   18.92    3.83   1
   1   0  11   22.56    6.46   1
   1   0  12   11.63    5.80   1
   1   0  12    8.76    4.97   1
   1   0  12    8.24    3.50   1
   1   0  13   -7.67    6.81   1
   1   0  13    3.88    4.10   1
   1   0  13    4.62    6.54   1
   1   0  14   65.12   10.65   1
   1   0  14   62.25    7.10   1
   1   1 -13   36.48   10.99   1
   1   1 -13   35.88    7.67   1
   1   1 -12   -0.94    2.95   1
   1   1 -12    2.02    4.52   1
   1   1 -12   -0.53    7.17   1
   1   1 -11    2.56    2.98   1
   1   1 -11   -1.82    6.05   1
   1   1 -11   -5.06    4.41   1
   1   1 -10   27.25    5.22   1
   1   1 -10   24.50    6.93   1
   1   1 -10   18.06    3.65   1
   1   1  -9   31.81    6.20   1
   1   1  -9   22.85    3.63   1
   1   1  -8   68.06    7.59   1
   1   1  -8   79.57    6.60   1
   1   1  -8   65.77    5.68   1
   1   1  -7   -1.23    2.11   1
   1   1  -7   -0.45    3.39   1
   1   1  -7   -2.02    2.47   1
   1   1  -6  333.06   14.23   1
   1   1  -6  328.70   14.14   1
   1   1  -6  331.97   15.67   1
   1   1  -5  138.30    7.53   1
   1   1  -5  144.24    7.69   1
   1   1  -5  130.19    8.44   1
   1   1  -4    2.66    1.76   1
   1   1  -4    2.22    2.06   1
   1   1  -4   -1.02    2.79   1
   1   1  -3   19.62    2.48   1
   1   1  -3   23.23    3.57   1
   1   1  -3   16.48    2.84   1
   1   1  -2   73.79    4.98   1
   1   1  -2   78.85    4.26   1
   1   1  -2   72.25    4.93   1
   1   1  -1 2755.20   88.18   1
   1   1  -1 2935.47   84.52   1
   1   1  -1 2832.37   81.96   1
   1   1   1  746.38   21.31   1
   1   1   1  676.52   21.85   1
   1   1   2    9.61    1.36   1
   1   1   2    6.66    1.70   1
   1   1   2   10.89    1.65   1
   1   1   3   18.32    1.63   1
   1   1   3   25.70    2.94   1
   1   1   3   21.81    2.43   1
   1   1   4  335.99   12.83   1
   1   1   4  345.59   13.01   1
   1   1   5  196.56    8.97   1
   1   1   5  193.49    9.74   1
   1   1   5  192.93    9.45   1
   1   1   6   38.19    4.20   1
   1   1   6   40.96    3.84   1
   1   1   6   39.19    4.26   1
   1   1   7   -4.08    3.23   1
   1   1   7    1.25    2.55   1
   1   1   7    2.76    1.96   1
   1   1   8   40.45    5.34   1
   1   1   8   58.22    5.19   1
   1   1   8   59.14    6.31   1
   1   1   9  149.33   10.51   1
   1   1   9  131.79    8.50   1
   1   1   9  121.22    9.47   1
   1   1  10  122.10    9.72   1
   1   1  10  127.69    8.81   1
   1   1  10  129.73   10.25   1
   1   1  11   -4.62    5.03   1
   1   1  11    4.75    3.27   1
   1   1  11   -2.43    4.27   1
   1   1  12   32.26    5.34   1
   1   1  12   17.39    6.34   1
   1   1  13   -0.19    4.06   1
   1   1  13    5.76    6.29   1
   1   1  14   73.79   10.82   1
   1   1  14  103.43    9.36   1
   1   2 -13   14.75    8.83   1
   1   2 -12   -2.13    4.70   1
   1   2 -12   -4.04    3.98   1
   1   2 -12    6.05    7.77   1
   1   2 -11   24.30    4.73   1
   1   2 -11   23.72    4.97   1
   1   2 -11   35.52    8.22   1
   1   2 -10   42.25    5.46   1
   1   2 -10   30.03    4.93   1
   1   2 -10   27.88    7.50   1
   1   2  -9    6.81    3.29   1
   1   2  -9   22.47    6.16   1
   1   2  -8  499.52   20.11   1
   1   2  -8  515.29   23.61   1
   1   2  -8  502.21   21.51   1
   1   2  -7  352.69   16.53   1
   1   2  -7  374.04   18.57   1
   1   2  -7  384.94   15.70   1
   1   2  -6    6.40    4.00   1
   1   2  -6    0.76    2.52   1
   1   2  -6   -0.40    1.71   1
   1   2  -5  289.68   11.57   1
   1   2  -5  303.46   14.28   1
   1   2  -5  286.29   13.54   1
   1   2  -4    0.62    2.88   1
   1   2  -4   -0.19    1.77   1
   1   2  -4    0.49    1.23   1
   1   2  -3    2.59    1.84   1
   1   2  -3    0.69    1.15   1
   1   2  -3   -1.28    2.78   1
   1   2  -2  228.01    8.46   1
   1   2  -2  218.15   10.04   1
   1   2  -2  219.63   10.37   1
   1   2  -1    9.12    2.96   1
   1   2  -1    8.76    2.19   1
   1   2   0   67.24    4.26   1
   1   2   0   81.00    5.22   1
   1   2   0   69.72    4.18   1
   1   2   1  104.86    5.73   1
   1   2   1  105.06    4.92   1
   1   2   1   96.83    3.54   1
   1   2   1   97.42    5.13   1
   1   2   2    1.96    1.37   1
   1   2   2    4.41    1.93   1
   1   2   3   25.81    2.84   1
   1   2   3   26.32    2.36   1
   1   2   4   20.98    1.65   1
   1   2   4   23.14    3.27   1
   1   2   5  368.64   15.36   1
   1   2   6  110.67    7.36   1
   1   2   7   99.40    7.18   1
   1   2   8   11.09    4.00   1
   1   2   8    6.55    2.82   1
   1   2   9  215.21   12.32   1
   1   2   9  205.64   12.62   1
   1   2  10  131.10    9.39   1
   1   2  10  124.55   10.04   1
   1   2  11   -1.00    4.52   1
   1   2  11    1.74    3.48   1
   1   2  12   84.46    9.37   1
   1   2  12  100.40    9.02   1
   1   2  13   12.60    5.18   1
   1   2  13    7.29    6.64   1
   1   2  14    9.42    7.92   1
   1   2  14   12.39    6.05   1
   1   3 -12   69.56   12.18   1
   1   3 -11    5.11    4.47   1
   1   3 -11    8.47    5.99   1
   1   3 -11    9.06    3.55   1
   1   3 -10    5.06    6.48   1
   1   3 -10    1.56    4.00   1
   1   3 -10   -1.99    2.40   1
   1   3  -9   -1.28    5.13   1
   1   3  -9    4.62    3.70   1
   1   3  -9    2.13    2.42   1
   1   3  -8   -1.10    3.09   1
   1   3  -8    6.50    5.41   1
   1   3  -7   26.01    6.02   1
   1   3  -7   21.34    4.53   1
   1   3  -7   19.98    2.77   1
   1   3  -6   15.05    4.97   1
   1   3  -6    8.82    3.50   1
   1   3  -6   11.56    2.11   1
   1   3  -5    1.66    2.99   1
   1   3  -5    1.69    3.56   1
   1   3  -4   69.06    3.99   1
   1   3  -4   72.08    6.45   1
   1   3  -4   76.04    6.63   1
   1   3  -3  180.10    9.39   1
   1   3  -3  177.69    9.60   1
   1   3  -3  177.96   10.41   1
   1   3  -2  214.33   10.25   1
   1   3  -2  226.80   10.54   1
   1   3  -2  210.83   11.04   1
   1   3  -1  140.90    7.36   1
   1   3  -1  124.32    7.80   1
   1   3   0   -1.88    2.00   1
   1   3   0    0.55    2.09   1
   1   3   0    2.16    1.91   1
   1   3   1  592.44   20.93   1
   1   3   1  585.64   22.26   1
   1   3   1  637.56   21.72   1
   1   3   2   24.80    3.29   1
   1   3   2   21.44    3.15   1
   1   3   2   23.81    3.03   1
   1   3   3   35.88    3.95   1
   1   3   3   43.96    3.58   1
   1   3   4    6.60    1.85   1
   1   3   5  258.89    9.98   1
   1   3   5  288.32   13.24   1
   1   3   6   -1.37    2.43   1
   1   3   7   20.88    4.02   1
   1   3   8   46.92    5.62   1
   1   3   9  101.81    8.48   1
   1   3  10    3.65    3.93   1
   1   3  10    2.25    3.69   1
   1   3  11    9.55    5.13   1
   1   3  11    8.18    3.89   1
   1   3  12    0.48    4.40   1
   1   3  12    2.50    5.31   1
   1   3  13   -0.44    6.11   1
   1   3  13    1.30    5.24   1
   1   3  14   22.94    8.72   1
   1   4 -12    1.72    9.46   1
   1   4 -12   30.03   11.18   1
   1   4 -12    3.65    6.57   1
   1   4 -11   13.40    6.51   1
   1   4 -11    7.84    5.77   1
   1   4 -11    0.32    7.19   1
   1   4 -10   78.68   10.11   1
   1   4 -10   59.60    8.03   1
   1   4 -10   84.09   10.82   1
   1   4  -9   40.58    6.88   1
   1   4  -9   50.84    7.84   1
   1   4  -9   47.33    8.26   1
   1   4  -8   53.00    8.15   1
   1   4  -8   48.44    6.82   1
   1   4  -8   46.51    7.23   1
   1   4  -7    0.36    4.30   1
   1   4  -7   -2.25    4.68   1
   1   4  -7   -2.82    3.39   1
   1   4  -6  171.35   11.78   1
   1   4  -6  132.94   10.15   1
   1   4  -6  142.56   10.75   1
   1   4  -5    2.99    3.91   1
   1   4  -5    0.56    3.46   1
   1   4  -5    7.13    4.01   1
   1   4  -4   91.58    8.04   1
   1   4  -4  106.30    8.04   1
   1   4  -4  101.00    8.04   1
   1   4  -3  449.44   18.66   1
   1   4  -3  460.53   18.88   1
   1   4  -3  446.05   19.85   1
   1   4  -2  139.24    9.20   1
   1   4  -2  124.99    8.05   1
   1   4  -1   34.93    4.96   1
   1   4  -1   29.27    3.46   1
   1   4  -1   34.22    3.74   1
   1   4   0  576.48   21.61   1
   1   4   0  593.90   21.93   1
   1   4   0  577.44   24.03   1
   1   4   1   -0.44    2.60   1
   1   4   1    2.31    1.79   1
   1   4   1   -0.81    2.03   1
   1   4   2   15.52    2.99   1
   1   4   2   11.76    2.95   1
   1   4   2   11.90    3.04   1
   1   4   3   73.79    5.84   1
   1   4   3   71.06    5.56   1
   1   4   4   75.34    5.21   1
   1   4   4   73.44    6.34   1
   1   4   5   83.17    5.11   1
   1   4   5   99.40    7.58   1
   1   4   6   11.02    1.79   1
   1   4   6   11.09    3.60   1
   1   4   7  282.58   14.79   1
   1   4   8   35.28    5.58   1
   1   4   9   24.80    5.28   1
   1   4  10   38.94    6.12   1
   1   4  10   37.33    6.48   1
   1   4  11   25.60    5.77   1
   1   4  11   35.28    5.70   1
   1   4  12    3.57    4.12   1
   1   4  12   10.56    5.78   1
   1   4  13    1.99    5.95   1
   1   4  13    2.66    4.43   1
   1   5 -11    1.49    6.42   1
   1   5 -11   -6.92    6.84   1
   1   5 -11    4.97    8.79   1
   1   5 -10   73.44    9.94   1
   1   5 -10   50.84    8.41   1
   1   5 -10   82.81   11.10   1
   1   5  -9    0.48    6.20   1
   1   5  -9    0.16    4.89   1
   1   5  -9   -2.86    6.19   1
   1   5  -8   51.55    7.90   1
   1   5  -8   55.80    8.67   1
   1   5  -8   57.00    8.76   1
   1   5  -7   -2.46    3.30   1
   1   5  -7   -9.80    5.51   1
   1   5  -7    0.79    4.57   1
   1   5  -6   95.45    9.57   1
   1   5  -6  124.55   10.04   1
   1   5  -6  132.25   10.81   1
   1   5  -5   67.57    7.56   1
   1   5  -5   71.91    8.31   1
   1   5  -5   85.56    8.51   1
   1   5  -4  220.52   12.47   1
   1   5  -4  243.36   14.04   1
   1   5  -4  176.62   11.96   1
   1   5  -3   -4.49    3.39   1
   1   5  -3   -1.06    3.81   1
   1   5  -2   10.89    3.56   1
   1   5  -2    3.10    3.77   1
   1   5  -1   65.61    6.97   1
   1   5  -1   66.75    5.88   1
   1   5  -1   64.48    5.30   1
   1   5   0  114.06    8.33   1
   1   5   0  120.12    7.89   1
   1   5   0  129.73    7.75   1
   1   5   1  208.80   12.14   1
   1   5   1  208.80   10.98   1
   1   5   1  209.38   11.00   1
   1   5   2   36.72    4.97   1
   1   5   2   43.82    4.90   1
   1   5   2   34.93    4.49   1
   1   5   3  203.63   10.56   1
   1   5   3  176.09   10.35   1
   1   5   3  177.16   10.12   1
   1   5   4   -1.12    2.37   1
   1   5   4   -1.46    2.83   1
   1   5   5  213.74   12.57   1
   1   5   5  224.40   10.79   1
   1   5   6   -1.10    3.21   1
   1   5   6   -0.25    2.19   1
   1   5   7  308.00   16.15   1
   1   5   7  298.25   11.74   1
   1   5   8   21.72    5.13   1
   1   5   9   20.25    5.49   1
   1   5  10   31.14    6.58   1
   1   5  11    4.88    4.99   1
   1   5  11    7.84    4.87   1
   1   5  12   31.92    7.68   1
   1   5  12   32.72    7.32   1
   1   5  13   69.89   10.03   1
   1   5  13  109.62   11.52   1
   1   6 -10    3.31    6.66   1
   1   6 -10   -3.88    8.47   1
   1   6 -10   -3.35    6.44   1
   1   6  -9   37.95    9.49   1
   1   6  -8    7.56    5.28   1
   1   6  -8    0.86    5.06   1
   1   6  -8    1.69    6.29   1
   1   6  -7    1.19    5.67   1
   1   6  -7    7.45    6.01   1
   1   6  -7    4.16    5.43   1
   1   6  -6   69.72    8.85   1
   1   6  -6   62.09    8.67   1
   1   6  -6   66.10    8.62   1
   1   6  -5    5.34    4.80   1
   1   6  -5    7.34    4.44   1
   1   6  -5    3.10    3.52   1
   1   6  -4   29.48    5.65   1
   1   6  -4   22.18    6.03   1
   1   6  -3   57.30    6.81   1
   1   6  -3   54.61    7.39   1
   1   6  -2   47.47    7.03   1
   1   6  -2   55.06    6.68   1
   1   6  -1   -0.14    2.35   1
   1   6  -1    0.38    3.98   1
   1   6  -1    4.12    3.53   1
   1   6   0   13.62    3.25   1
   1   6   0   20.52    4.89   1
   1   6   0   11.70    3.97   1
   1   6   1  267.00   14.71   1
   1   6   1  255.68   13.43   1
   1   6   1  261.15   13.25   1
   1   6   2   11.97    3.88   1
   1   6   2    7.29    3.24   1
   1   6   2   11.76    4.32   1
   1   6   3   38.94    5.24   1
   1   6   3   33.52    5.33   1
   1   6   3   30.47    4.53   1
   1   6   4  162.56    9.94   1
   1   6   4  165.89   10.82   1
   1   6   5    1.82    3.48   1
   1   6   5   10.82    3.42   1
   1   6   6    7.24    2.80   1
   1   6   6    5.62    3.98   1
   1   6   7   48.16    4.30   1
   1   6   7   45.16    6.72   1
   1   6   8   16.81    5.41   1
   1   6   8   17.98    2.54   1
   1   6   9   18.15    4.86   1
   1   6  10   -2.86    3.89   1
   1   6  11   59.29    9.09   1
   1   6  11   60.06    8.06   1
   1   6  12    5.62    6.21   1
   1   6  12    4.93    6.84   1
   1   6  13   -0.19    6.84   1
   1   6  13   -0.94    7.22   1
   1   7  -9   -2.16    7.73   1
   1   7  -9    6.20    6.72   1
   1   7  -9    8.58    8.03   1
   1   7  -8    2.66    7.27   1
   1   7  -8   12.74    7.71   1
   1   7  -8   -1.88    7.56   1
   1   7  -7   15.60    7.11   1
   1   7  -7    7.73    6.51   1
   1   7  -6   11.22    6.77   1
   1   7  -6    0.28    5.62   1
   1   7  -5   20.16    6.65   1
   1   7  -5   32.04    7.02   1
   1   7  -4   84.82    9.76   1
   1   7  -4  102.01    9.90   1
   1   7  -3   75.34    8.51   1
   1   7  -3   63.20    8.43   1
   1   7  -2    0.11    4.17   1
   1   7  -2   13.18    4.86   1
   1   7  -1  186.87   13.67   1
   1   7  -1  158.51   10.32   1
   1   7  -1  189.06   12.10   1
   1   7   0  239.32   15.47   1
   1   7   0  257.60   13.48   1
   1   7   0  278.89   14.70   1
   1   7   1    8.94    4.60   1
   1   7   1    3.80    3.16   1
   1   7   1    5.76    3.98   1
   1   7   2   18.49    4.04   1
   1   7   2   15.29    4.54   1
   1   7   2   24.11    5.50   1
   1   7   3   23.23    4.82   1
   1   7   3   34.11    5.61   1
   1   7   3   35.76    5.74   1
   1   7   4   -5.43    3.63   1
   1   7   4   -4.88    3.89   1
   1   7   5   13.10    4.56   1
   1   7   5   20.98    4.67   1
   1   7   6    7.40    4.52   1
   1   7   6   14.90    3.78   1
   1   7   7  226.80   15.06   1
   1   7   7  202.49   11.10   1
   1   7   8    7.84    5.49   1
   1   7   8   15.60    3.40   1
   1   7   9   -5.11    5.92   1
   1   7   9    7.29    2.27   1
   1   7  10   48.30    9.03   1
   1   7  11    9.42    7.61   1
   1   7  11   11.90    5.87   1
   1   7  12   16.97    7.17   1
   1   7  12   13.40    8.42   1
   1   8  -8  -11.42    9.33   1
   1   8  -8   -6.86    9.27   1
   1   8  -7   70.90   11.28   1
   1   8  -7   51.12   10.73   1
   1   8  -6  -14.21    7.92   1
   1   8  -6    7.62    7.29   1
   1   8  -5  -13.69    7.10   1
   1   8  -5    5.34    6.93   1
   1   8  -4   33.76    6.62   1
   1   8  -4   32.49    7.98   1
   1   8  -3    2.31    5.14   1
   1   8  -3    2.56    5.79   1
   1   8  -2    7.62    4.64   1
   1   8  -2    7.40    5.44   1
   1   8  -1   38.19    6.92   1
   1   8  -1   26.94    6.44   1
   1   8   0  114.28    9.19   1
   1   8   0  134.10   10.42   1
   1   8   0  144.48   12.02   1
   1   8   1   13.69    5.18   1
   1   8   1    6.97    3.96   1
   1   8   1    6.55    4.81   1
   1   8   2   12.11    4.59   1
   1   8   2   12.89    5.24   1
   1   8   2   23.52    5.92   1
   1   8   3   89.11    8.68   1
   1   8   3  102.62    9.32   1
   1   8   3   92.35    8.65   1
   1   8   4   -3.88    4.57   1
   1   8   4   -1.99    4.09   1
   1   8   5   26.11    6.13   1
   1   8   5   20.16    5.21   1
   1   8   6   10.76    4.20   1
   1   8   6    3.76    4.93   1
   1   8   7   -0.98    3.82   1
   1   8   7   -0.45    5.59   1
   1   8   8   19.36    4.14   1
   1   8   8    6.60    6.07   1
   1   8   9   17.39    3.84   1
   1   8   9    9.86    6.91   1
   1   8  10   -4.12    7.35   1
   1   8  10    2.46    4.77   1
   1   8  11    6.40    8.40   1
   1   8  11   14.90    6.64   1
   1   9  -7   -5.90    9.72   1
   1   9  -6    3.13    8.99   1
   1   9  -5   -0.55    7.83   1
   1   9  -5   -4.08    6.63   1
   1   9  -4    4.84    7.66   1
   1   9  -4   -9.92    6.99   1
   1   9  -3   23.33    6.18   1
   1   9  -3    0.00    1.00   1
   1   9  -2   43.30    7.37   1
   1   9  -2   40.45    8.78   1
   1   9  -1   43.96    6.90   1
   1   9  -1   69.06    9.31   1
   1   9  -1   47.20    7.69   1
   1   9   0   -1.85    4.62   1
   1   9   0    0.85    4.95   1
   1   9   0   -9.24    5.96   1
   1   9   1    7.84    5.38   1
   1   9   1   10.37    5.22   1
   1   9   1    3.39    4.60   1
   1   9   2    8.41    5.80   1
   1   9   2    9.73    5.99   1
   1   9   2    7.62    4.86   1
   1   9   3   14.44    6.16   1
   1   9   3   26.01    7.04   1
   1   9   4  241.18   15.53   1
   1   9   4  225.30    8.71   1
   1   9   4  206.50   14.94   1
   1   9   5   34.69    7.19   1
   1   9   5   50.27    7.66   1
   1   9   6    4.24    4.57   1
   1   9   6    1.00    4.60   1
   1   9   7   34.11    6.42   1
   1   9   7   10.96    7.08   1
   1   9   8   -0.85    6.75   1
   1   9   8    0.50    3.65   1
   1   9   8   -1.96    4.12   1
   1   9   9   29.59    5.11   1
   1   9   9   28.41    9.06   1
   1   9   9   25.91    6.11   1
   1   9  10   10.76    9.64   1
   1   9  10    3.96    5.41   1
   1  10  -5    7.62    9.22   1
   1  10  -4   -4.16    8.53   1
   1  10  -3   64.64   13.02   1
   1  10  -3   58.98    9.98   1
   1  10  -2   18.75    8.05   1
   1  10  -2   -6.20    8.12   1
   1  10  -1   -3.31    6.92   1
   1  10  -1    1.35    6.06   1
   1  10   0   41.86    7.63   1
   1  10   0   61.94    9.60   1
   1  10   0   50.84    9.98   1
   1  10   1    3.84    6.59   1
   1  10   1    1.10    5.48   1
   1  10   1    8.70    6.37   1
   1  10   2    9.06    6.44   1
   1  10   2   -5.29    6.76   1
   1  10   2   -3.80    4.88   1
   1  10   3   27.25    7.52   1
   1  10   3   35.52    6.91   1
   1  10   3   27.88    8.13   1
   1  10   4   -2.89    6.66   1
   1  10   4    0.77    6.02   1
   1  10   5   18.75    7.19   1
   1  10   5   -4.28    6.83   1
   1  10   6    1.04    2.71   1
   1  10   6    4.58    6.03   1
   1  10   6    1.74    7.00   1
   1  10   7   11.90    6.62   1
   1  10   7    8.24    7.98   1
   1  10   7   16.08    4.09   1
   1  10   8    1.82    5.67   1
   1  10   8   -4.08    9.01   1
   1  10   8   -1.93    4.09   1
   1  11  -2   -0.81    9.04   1
   1  11  -1    8.29    8.99   1
   1  11   0   -9.12    6.46   1
   1  11   0   -7.40    8.38   1
   1  11   1    4.20    8.65   1
   1  11   1   -3.69    6.99   1
   1  11   1   -3.13    8.04   1
   1  11   2   -4.80    8.32   1
   1  11   2   -2.40    7.50   1
   1  11   2   -6.00    7.45   1
   1  11   3   11.63    8.46   1
   1  11   3   12.46    7.98   1
   1  11   4   -3.57    8.01   1
   1  11   4    7.67    8.31   1
   1  11   5    8.53    7.71   1
   1  11   5    3.31    8.15   1
   1  11   6   67.73   11.03   1
   2 -11  -2   26.52    8.45   1
   2 -11  -1   -2.62    6.38   1
   2 -11   0   -5.71    8.08   1
   2 -11   0    6.30    5.62   1
   2 -11   1   29.27   10.71   1
   2 -11   1   47.20    7.01   1
   2 -10  -6   -0.12    6.68   1
   2 -10  -6    5.29    8.23   1
   2 -10  -5   -6.15    7.29   1
   2 -10  -5    2.19    2.87   1
   2 -10  -5   -0.76    7.29   1
   2 -10  -4   -0.36    2.46   1
   2 -10  -4    4.58    2.74   1
   2 -10  -4    4.04    6.83   1
   2 -10  -3    2.22    7.69   1
   2 -10  -3    6.71    5.85   1
   2 -10  -3    1.06    2.33   1
   2 -10  -3    4.80    2.41   1
   2 -10  -2    8.07    7.16   1
   2 -10  -2   11.49    6.10   1
   2 -10  -2   13.54    2.80   1
   2 -10  -2   15.44    2.91   1
   2 -10  -1    9.30    5.55   1
   2 -10  -1   16.16    3.30   1
   2 -10  -1    8.88    7.63   1
   2 -10   0   -1.06    2.90   1
   2 -10   0   -2.43    4.96   1
   2 -10   0   -6.71    7.82   1
   2 -10   1   51.55    6.46   1
   2 -10   1   38.56    9.44   1
   2 -10   1   62.57    5.70   1
   2 -10   2   13.25    4.30   1
   2 -10   2   -6.76    8.01   1
   2 -10   2   20.79    8.03   1
   2 -10   3   33.87    5.59   1
   2 -10   3   16.56    8.22   1
   2 -10   3   13.76    9.87   1
   2 -10   4    5.76    7.82   1
   2 -10   4   10.56    5.46   1
   2 -10   5    2.92    6.33   1
   2 -10   5   -2.10    8.58   1
   2  -9  -8   -5.11    9.49   1
   2  -9  -8   11.36    4.52   1
   2  -9  -7   -9.12    8.40   1
   2  -9  -7   -3.42    3.48   1
   2  -9  -7   -1.19    5.30   1
   2  -9  -6    8.88    7.99   1
   2  -9  -6   -6.92    3.16   1
   2  -9  -6    0.79    4.91   1
   2  -9  -6    0.72    6.15   1
   2  -9  -5   77.26   10.72   1
   2  -9  -5  107.12   12.21   1
   2  -9  -5   97.02    6.11   1
   2  -9  -4   70.56    9.58   1
   2  -9  -4   83.91    5.31   1
   2  -9  -4   85.01   10.51   1
   2  -9  -4   88.74    5.46   1
   2  -9  -3   24.50    3.17   1
   2  -9  -3   19.36    6.86   1
   2  -9  -3   25.70    6.19   1
   2  -9  -3   23.81    3.12   1
   2  -9  -2    7.24    2.42   1
   2  -9  -2    1.56    5.80   1
   2  -9  -2   -0.94    4.75   1
   2  -9  -1    9.42    4.91   1
   2  -9  -1    4.84    6.60   1
   2  -9  -1    5.66    2.33   1
   2  -9   0   -2.76    3.95   1
   2  -9   0    4.45    2.66   1
   2  -9   0   -2.34    5.57   1
   2  -9   1    8.76    6.75   1
   2  -9   1   27.25    4.80   1
   2  -9   1   22.85    3.73   1
   2  -9   2    6.10    3.80   1
   2  -9   2   10.69    6.54   1
   2  -9   2   15.29    3.60   1
   2  -9   3   30.69    4.10   1
   2  -9   3   30.80    4.88   1
   2  -9   3   23.91    7.82   1
   2  -9   3   22.00    7.69   1
   2  -9   4   -7.56    7.20   1
   2  -9   4   -6.71    5.34   1
   2  -9   4    2.59    3.61   1
   2  -9   5   15.84    5.09   1
   2  -9   5    5.38    5.20   1
   2  -9   6   35.40    6.90   1
   2  -9   6   23.91    6.94   1
   2  -9   7    1.74    8.00   1
   2  -9   7    1.54    5.85   1
   2  -8  -9    8.94    5.68   1
   2  -8  -9  -16.65    9.96   1
   2  -8  -8    6.10    7.31   1
   2  -8  -8   16.56    9.85   1
   2  -8  -8    5.71    4.21   1
   2  -8  -8   -4.58    4.71   1
   2  -8  -7   28.09    4.56   1
   2  -8  -7   20.79    5.20   1
   2  -8  -7    8.24    7.58   1
   2  -8  -7   14.75    7.83   1
   2  -8  -6    9.36    6.79   1
   2  -8  -6   10.69    5.10   1
   2  -8  -6   17.72    6.99   1
   2  -8  -6   20.07    3.67   1
   2  -8  -5    6.86    6.13   1
   2  -8  -5   10.76    2.69   1
   2  -8  -5    9.67    6.34   1
   2  -8  -4   23.52    6.98   1
   2  -8  -4   41.34    7.84   1
   2  -8  -4   45.02    3.89   1
   2  -8  -3   17.56    2.51   1
   2  -8  -3   12.67    5.98   1
   2  -8  -3   18.15    2.64   1
   2  -8  -3   12.25    5.81   1
   2  -8  -2    6.92    2.00   1
   2  -8  -2   14.75    4.76   1
   2  -8  -2   10.43    4.46   1
   2  -8  -1   24.70    5.27   1
   2  -8  -1   20.34    6.22   1
   2  -8  -1   24.11    2.85   1
   2  -8   0   10.18    4.02   1
   2  -8   0    4.58    2.10   1
   2  -8   0    1.02    4.79   1
   2  -8   1  164.61   10.26   1
   2  -8   1  182.52   12.97   1
   2  -8   1  178.76    8.82   1
   2  -8   2  126.34    7.64   1
   2  -8   2  126.79    8.33   1
   2  -8   2  117.29   10.61   1
   2  -8   3   11.70    3.35   1
   2  -8   3    8.82    2.61   1
   2  -8   3   11.22    4.82   1
   2  -8   3   16.48    5.36   1
   2  -8   4   13.54    6.18   1
   2  -8   4   22.94    4.41   1
   2  -8   4   16.81    5.08   1
   2  -8   5   78.85    7.64   1
   2  -8   5   77.97   10.24   1
   2  -8   6   38.32    7.92   1
   2  -8   6   49.28    6.88   1
   2  -8   7   16.81    5.90   1
   2  -8   7   40.07    8.61   1
   2  -8   8    0.67    7.22   1
   2  -8   8   -2.25    5.85   1
   2  -8   9   20.16    7.63   1
   2  -8   9   18.15    7.92   1
   2  -7 -10   28.52   10.57   1
   2  -7 -10   26.94    6.64   1
   2  -7  -9   -6.55    8.14   1
   2  -7  -9   -0.56    3.07   1
   2  -7  -9    0.71    4.42   1
   2  -7  -9   -4.71    6.64   1
   2  -7  -8   23.81    8.30   1
   2  -7  -8   10.69    7.39   1
   2  -7  -8   28.84    5.26   1
   2  -7  -8   15.84    3.74   1
   2  -7  -7  102.01    7.47   1
   2  -7  -7   79.03   10.85   1
   2  -7  -7   72.59   10.22   1
   2  -7  -7   79.92    7.33   1
   2  -7  -6   82.26    6.17   1
   2  -7  -6   72.25    7.14   1
   2  -7  -6   71.06    8.43   1
   2  -7  -6   76.39    9.26   1
   2  -7  -5   -1.90    4.91   1
   2  -7  -5    1.21    1.87   1
   2  -7  -5   -1.93    3.84   1
   2  -7  -4    0.94    4.48   1
   2  -7  -4    2.22    1.82   1
   2  -7  -4    5.90    4.91   1
   2  -7  -3   69.39    8.50   1
   2  -7  -3   76.91    7.72   1
   2  -7  -3   91.39    4.97   1
   2  -7  -2    1.88    3.81   1
   2  -7  -2    3.80    4.21   1
   2  -7  -2    0.66    1.34   1
   2  -7  -2   -0.22    1.37   1
   2  -7  -1   14.75    4.38   1
   2  -7  -1   17.39    5.17   1
   2  -7  -1   18.84    2.26   1
   2  -7   0   48.44    3.62   1
   2  -7   0   36.48    6.04   1
   2  -7   0   47.75    5.80   1
   2  -7   1  121.88    9.72   1
   2  -7   1  124.55    6.70   1
   2  -7   1  115.13    7.94   1
   2  -7   2   24.11    5.50   1
   2  -7   2   23.23    3.76   1
   2  -7   2   30.47    3.64   1
   2  -7   3  100.20    6.01   1
   2  -7   3   99.00    8.95   1
   2  -7   3   97.42    6.71   1
   2  -7   3   84.27    9.00   1
   2  -7   4   11.76    5.28   1
   2  -7   4   17.47    5.68   1
   2  -7   4   18.75    3.90   1
   2  -7   5   31.81    6.77   1
   2  -7   5   44.09    5.58   1
   2  -7   6    7.56    4.07   1
   2  -7   6    7.18    5.20   1
   2  -7   7   64.16    7.69   1
   2  -7   7   73.44    9.77   1
   2  -7   8    3.69    5.07   1
   2  -7   8    1.61    6.22   1
   2  -7   9    8.88    7.03   1
   2  -7   9   16.24    6.93   1
   2  -7  10   52.42    9.56   1
   2  -7  10   66.91   10.31   1
   2  -6 -11    0.79    5.87   1
   2  -6 -11    4.67    9.20   1
   2  -6 -10   18.23    5.89   1
   2  -6 -10    7.95    7.90   1
   2  -6  -9   -4.93    5.24   1
   2  -6  -9    2.37    4.40   1
   2  -6  -9    3.84    7.17   1
   2  -6  -8  101.20   10.86   1
   2  -6  -8   75.00    5.72   1
   2  -6  -8   67.08   10.32   1
   2  -6  -8   94.87    7.99   1
   2  -6  -7  145.68   13.28   1
   2  -6  -7  191.82   13.85   1
   2  -6  -7  171.61    9.69   1
   2  -6  -7  191.82   10.53   1
   2  -6  -6    8.88    5.36   1
   2  -6  -6   18.40    3.60   1
   2  -6  -6   16.08    5.93   1
   2  -6  -6   12.25    3.36   1
   2  -6  -5   24.70    5.67   1
   2  -6  -5   39.19    4.01   1
   2  -6  -5   33.99    4.78   1
   2  -6  -5   29.59    6.64   1
   2  -6  -4   76.74    8.06   1
   2  -6  -4   99.40    9.37   1
   2  -6  -4   98.21    5.55   1
   2  -6  -3   49.84    5.93   1
   2  -6  -3   57.91    7.15   1
   2  -6  -3   53.58    3.51   1
   2  -6  -2   88.74    4.33   1
   2  -6  -2  111.94    8.25   1
   2  -6  -2   88.74    8.29   1
   2  -6  -2   88.55    4.33   1
   2  -6  -1  125.22    8.95   1
   2  -6  -1  124.55    5.36   1
   2  -6  -1  134.10    9.50   1
   2  -6   0   45.83    5.42   1
   2  -6   0   47.89    3.18   1
   2  -6   0   52.56    6.24   1
   2  -6   1    2.89    2.62   1
   2  -6   1   -1.49    1.51   1
   2  -6   1    1.42    3.26   1
   2  -6   2   44.36    5.86   1
   2  -6   2   53.00    4.22   1
   2  -6   2   44.36    4.53   1
   2  -6   3   83.54    8.77   1
   2  -6   3   98.80    6.36   1
   2  -6   3   86.12    5.57   1
   2  -6   3   93.51    7.93   1
   2  -6   4    3.10    1.41   1
   2  -6   4    3.06    3.82   1
   2  -6   4    4.41    4.07   1
   2  -6   5   48.02    7.07   1
   2  -6   5   52.71    5.66   1
   2  -6   6   10.24    3.65   1
   2  -6   6   10.96    5.16   1
   2  -6   7   11.70    4.45   1
   2  -6   7   13.10    4.63   1
   2  -6   8   17.06    5.95   1
   2  -6   8   17.81    5.49   1
   2  -6   9    6.05    5.95   1
   2  -6   9    6.66    5.31   1
   2  -6  10   17.56    6.79   1
   2  -6  10   17.22    6.56   1
   2  -6  11   -1.51    6.77   1
   2  -6  11   -2.66    7.82   1
   2  -5 -11    9.06    8.37   1
   2  -5 -11   27.14    7.09   1
   2  -5 -10   -4.84    4.93   1
   2  -5 -10   -1.61    5.64   1
   2  -5  -9   37.82    8.61   1
   2  -5  -8   25.91    7.23   1
   2  -5  -8   42.77    5.76   1
   2  -5  -7    3.88    3.11   1
   2  -5  -7    0.86    5.02   1
   2  -5  -7    2.25    2.22   1
   2  -5  -6   23.81    5.37   1
   2  -5  -6   25.20    5.52   1
   2  -5  -6   28.52    3.63   1
   2  -5  -6   21.34    3.60   1
   2  -5  -5   -2.53    4.26   1
   2  -5  -5    5.20    2.37   1
   2  -5  -5    3.72    2.39   1
   2  -5  -5    4.93    4.00   1
   2  -5  -4   55.65    5.37   1
   2  -5  -4   49.70    5.64   1
   2  -5  -4   53.44    3.95   1
   2  -5  -4   56.10    6.74   1
   2  -5  -3    4.28    1.32   1
   2  -5  -3   -0.27    3.91   1
   2  -5  -3    6.81    3.50   1
   2  -5  -2  185.50    6.81   1
   2  -5  -2  181.71   11.32   1
   2  -5  -2  180.63   10.48   1
   2  -5  -1  279.56   14.04   1
   2  -5  -1  279.22   14.04   1
   2  -5   0   -0.90    0.91   1
   2  -5   0   -2.96    2.86   1
   2  -5   0    1.59    2.85   1
   2  -5   1   37.33    2.81   1
   2  -5   1   31.92    4.52   1
   2  -5   1   35.05    4.14   1
   2  -5   2   -2.62    3.47   1
   2  -5   2   -0.24    2.86   1
   2  -5   2   -1.06    1.54   1
   2  -5   2    1.88    1.97   1
   2  -5   3   17.14    2.65   1
   2  -5   3   12.04    2.29   1
   2  -5   3    8.88    3.34   1
   2  -5   3   10.89    3.17   1
   2  -5   4    3.17    3.17   1
   2  -5   4    2.72    1.22   1
   2  -5   4    3.76    2.37   1
   2  -5   4    6.76    3.54   1
   2  -5   5   -1.61    2.54   1
   2  -5   5    1.99    3.86   1
   2  -5   6   59.44    7.40   1
   2  -5   6   60.84    6.24   1
   2  -5   7   61.62    6.75   1
   2  -5   7   45.97    6.64   1
   2  -5   8    0.59    4.17   1
   2  -5   8    3.96    4.70   1
   2  -5   9  130.64   11.20   1
   2  -5   9  147.62   12.15   1
   2  -5  10    7.56    5.89   1
   2  -5  10    1.04    5.39   1
   2  -5  11    6.10    6.87   1
   2  -5  11    5.66    6.19   1
   2  -5  12   -7.40    6.69   1
   2  -4 -12    4.67    8.94   1
   2  -4 -12    8.18    7.21   1
   2  -4 -11   -2.07    5.13   1
   2  -4 -11   -7.24    7.42   1
   2  -4 -10   87.24   11.02   1
   2  -4 -10   85.01    8.85   1
   2  -4  -9    3.92    5.90   1
   2  -4  -9   -4.93    4.31   1
   2  -4  -8   24.30    4.93   1
   2  -4  -8   13.10    5.79   1
   2  -4  -7   -3.84    4.74   1
   2  -4  -7   -2.96    3.16   1
   2  -4  -6   10.37    2.96   1
   2  -4  -6    6.71    1.81   1
   2  -4  -6    3.88    4.73   1
   2  -4  -5   22.66    2.86   1
   2  -4  -5   23.04    3.26   1
   2  -4  -5   13.03    4.84   1
   2  -4  -4   13.47    4.99   1
   2  -4  -4   15.68    2.93   1
   2  -4  -4   13.10    2.24   1
   2  -4  -3  251.54   11.74   1
   2  -4  -3  252.17   13.66   1
   2  -4  -3  242.11   12.45   1
   2  -4  -3  244.61    9.38   1
   2  -4  -2    7.29    1.08   1
   2  -4  -2    9.12    3.14   1
   2  -4  -2    5.29    2.53   1
   2  -4  -2   10.56    3.58   1
   2  -4  -1    3.84    2.67   1
   2  -4  -1    4.71    2.60   1
   2  -4  -1    4.54    2.81   1
   2  -4   0   45.56    4.72   1
   2  -4   0   41.99    4.54   1
   2  -4   0   58.22    5.65   1
   2  -4   1    0.76    2.33   1
   2  -4   1    4.04    2.33   1
   2  -4   1    5.81    2.51   1
   2  -4   1    7.84    1.29   1
   2  -4   2   47.47    4.69   1
   2  -4   2   49.42    5.62   1
   2  -4   2   45.83    3.93   1
   2  -4   2   48.02    3.46   1
   2  -4   3  344.47   16.70   1
   2  -4   3  374.04   13.54   1
   2  -4   3  337.46   13.59   1
   2  -4   3  357.21   15.50   1
   2  -4   4    1.88    2.03   1
   2  -4   4    2.10    3.60   1
   2  -4   5    1.56    3.52   1
   2  -4   5    0.03    2.21   1
   2  -4   6    9.55    4.08   1
   2  -4   6    5.02    3.05   1
   2  -4   7  120.34    9.00   1
   2  -4   7  130.42   10.05   1
   2  -4   8   -5.02    4.12   1
   2  -4   8   11.29    4.77   1
   2  -4   9    3.61    4.64   1
   2  -4   9    6.00    4.66   1
   2  -4  10   38.69    6.84   1
   2  -4  10   27.67    6.84   1
   2  -4  10   31.36    6.50   1
   2  -4  11    1.28    4.81   1
   2  -4  11    2.31    6.14   1
   2  -4  11   -7.02    5.67   1
   2  -4  12    4.33    6.66   1
   2  -4  12    6.15    7.39   1
   2  -4  13   13.03    8.52   1
   2  -3 -12    3.61    8.13   1
   2  -3 -12    7.02    7.26   1
   2  -3 -11   18.75    6.67   1
   2  -3 -11    2.92    6.74   1
   2  -3 -10   -1.80    4.98   1
   2  -3 -10   -4.54    5.84   1
   2  -3  -9    8.35    5.61   1
   2  -3  -9    1.28    4.07   1
   2  -3  -8   71.23    8.27   1
   2  -3  -8   65.93    7.15   1
   2  -3  -7  146.41    9.44   1
   2  -3  -7  139.48   11.34   1
   2  -3  -6   58.52    5.66   1
   2  -3  -6   52.85    7.27   1
   2  -3  -5   57.15    4.84   1
   2  -3  -5   52.27    6.80   1
   2  -3  -5   52.13    3.47   1
   2  -3  -4  334.16   13.16   1
   2  -3  -4  322.56   16.16   1
   2  -3  -4  335.99   13.20   1
   2  -3  -3   24.01    4.02   1
   2  -3  -3   21.81    2.80   1
   2  -3  -3   23.72    2.43   1
   2  -3  -2   70.73    5.55   1
   2  -3  -2   79.92    6.44   1
   2  -3  -2   65.77    5.03   1
   2  -3  -2   73.44    3.43   1
   2  -3  -1   49.28    4.49   1
   2  -3  -1   45.56    4.32   1
   2  -3  -1   48.72    4.89   1
   2  -3   0   43.56    4.22   1
   2  -3   0   57.15    4.84   1
   2  -3   0   48.72    4.89   1
   2  -3   1    6.55    0.92   1
   2  -3   1   10.63    2.41   1
   2  -3   1    6.00    2.84   1
   2  -3   2   23.62    4.08   1
   2  -3   2   22.00    3.10   1
   2  -3   2   27.04    2.29   1
   2  -3   2   22.47    2.75   1
   2  -3   3  194.60    8.65   1
   2  -3   3  209.38    9.55   1
   2  -3   3  200.51    8.50   1
   2  -3   3  205.92   10.91   1
   2  -3   4   74.65    6.39   1
   2  -3   4   80.46    5.56   1
   2  -3   5   55.35    4.91   1
   2  -3   5   51.41    5.88   1
   2  -3   6   39.44    5.53   1
   2  -3   6   35.28    4.63   1
   2  -3   7   10.24    4.03   1
   2  -3   7    3.65    3.06   1
   2  -3   7    0.38    2.96   1
   2  -3   8   -5.24    3.80   1
   2  -3   8    2.62    3.47   1
   2  -3   8   -6.05    3.74   1
   2  -3   9   33.99    5.83   1
   2  -3   9   43.82    6.36   1
   2  -3   9   31.02    5.24   1
   2  -3  10   -1.82    4.37   1
   2  -3  11    2.50    5.59   1
   2  -3  11   -0.59    3.67   1
   2  -3  12   -3.65    6.53   1
   2  -3  12    4.80    4.51   1
   2  -3  13   66.91   10.47   1
   2  -2 -12   14.44    7.45   1
   2  -2 -12    9.86    7.66   1
   2  -2 -11   47.47    8.41   1
   2  -2 -11   54.46    9.00   1
   2  -2 -10   20.70    6.55   1
   2  -2 -10   21.25    6.18   1
   2  -2  -9    2.16    4.20   1
   2  -2  -9    2.99    4.12   1
   2  -2  -8  157.50   10.54   1
   2  -2  -8  135.02   10.92   1
   2  -2  -7   -1.74    2.93   1
   2  -2  -7    0.72    3.03   1
   2  -2  -6  160.53   11.15   1
   2  -2  -6  173.71   10.02   1
   2  -2  -5  130.87    7.78   1
   2  -2  -5  136.42    9.58   1
   2  -2  -4    1.56    1.92   1
   2  -2  -4    7.67    3.55   1
   2  -2  -3    1.77    1.30   1
   2  -2  -3   -0.35    1.51   1
   2  -2  -3    3.50    2.39   1
   2  -2  -2  104.45    7.15   1
   2  -2  -2  101.81    4.64   1
   2  -2  -2  101.81    5.65   1
   2  -2  -1   60.68    5.14   1
   2  -2  -1   61.47    4.55   1
   2  -2  -1   60.37    4.35   1
   2  -2  -1   63.84    2.72   1
   2  -2   0   17.56    3.10   1
   2  -2   0   25.20    2.81   1
   2  -2   0   22.66    3.43   1
   2  -2   1  117.29    7.15   1
   2  -2   1  118.16    6.52   1
   2  -2   1  117.94    5.86   1
   2  -2   2   39.69    3.28   1
   2  -2   2   45.83    4.60   1
   2  -2   2   42.77    3.53   1
   2  -2   2   41.99    2.85   1
   2  -2   3   20.79    2.37   1
   2  -2   3   18.66    2.68   1
   2  -2   3   24.70    2.68   1
   2  -2   3   29.05    3.88   1
   2  -2   4  322.56   14.37   1
   2  -2   4  292.07   12.30   1
   2  -2   5  377.52   16.71   1
   2  -2   5  357.59   15.13   1
   2  -2   6    7.34    3.14   1
   2  -2   6   13.10    3.19   1
   2  -2   6   13.03    3.54   1
   2  -2   7    4.84    2.95   1
   2  -2   7    2.96    3.27   1
   2  -2   7   11.29    3.49   1
   2  -2   8    5.02    3.45   1
   2  -2   8    9.12    3.62   1
   2  -2   8    7.62    3.86   1
   2  -2   9  140.19   10.66   1
   2  -2   9  127.24    9.93   1
   2  -2  10   -1.39    3.04   1
   2  -2  10   -5.76    4.75   1
   2  -2  11    7.13    5.39   1
   2  -2  11   21.62    5.12   1
   2  -2  12   32.72    7.09   1
   2  -2  12   19.36    6.78   1
   2  -2  13    3.17    5.77   1
   2  -2  13   -6.81    6.58   1
   2  -2  14    2.22    7.87   1
   2  -1 -12   19.89    7.49   1
   2  -1 -12   27.35    8.89   1
   2  -1 -11    2.37    5.61   1
   2  -1 -11    2.96    5.37   1
   2  -1 -10   23.14    6.16   1
   2  -1 -10   31.02    7.13   1
   2  -1  -9   -2.34    4.07   1
   2  -1  -9   -2.02    4.52   1
   2  -1  -8    0.88    1.73   1
   2  -1  -8    7.13    4.11   1
   2  -1  -8   -2.07    3.80   1
   2  -1  -7  106.50    8.46   1
   2  -1  -7  117.07    6.92   1
   2  -1  -7  113.21    9.15   1
   2  -1  -6   45.70    5.27   1
   2  -1  -6   36.72    5.21   1
   2  -1  -6   33.18    3.57   1
   2  -1  -5  219.04   11.84   1
   2  -1  -5  202.49    9.68   1
   2  -1  -5  186.05   10.09   1
   2  -1  -4    4.97    3.26   1
   2  -1  -4    1.37    1.59   1
   2  -1  -4    2.59    2.22   1
   2  -1  -3   20.52    2.81   1
   2  -1  -3   21.62    2.88   1
   2  -1  -3   13.10    3.33   1
   2  -1  -2   32.60    4.23   1
   2  -1  -2   33.99    3.38   1
   2  -1  -2   35.40    3.09   1
   2  -1  -1   32.15    5.56   1
   2  -1  -1   26.52   21.53   1
   2  -1   0 9816.85  285.35   1
   2  -1   1 3199.03   92.76   1
   2  -1   1 3165.19   97.89   1
   2  -1   2  169.00    8.58   1
   2  -1   2  175.56    7.68   1
   2  -1   2  165.12    6.43   1
   2  -1   3  136.19    7.70   1
   2  -1   4   -0.81    1.67   1
   2  -1   4    3.61    2.43   1
   2  -1   5    6.40    2.02   1
   2  -1   6  248.69   11.99   1
   2  -1   6  261.79   12.30   1
   2  -1   6  247.75    9.13   1
   2  -1   7   75.52    4.17   1
   2  -1   7   77.09    6.67   1
   2  -1   7   79.57    6.78   1
   2  -1   8   49.70    5.92   1
   2  -1   8   52.27    3.62   1
   2  -1   8   53.88    6.17   1
   2  -1   9   15.13    2.18   1
   2  -1   9   11.90    4.07   1
   2  -1   9   13.62    4.13   1
   2  -1  10   36.36    6.03   1
   2  -1  10   46.65    6.97   1
   2  -1  10   31.70    3.38   1
   2  -1  11    7.67    2.22   1
   2  -1  11    6.55    4.04   1
   2  -1  11    6.35    4.89   1
   2  -1  12    1.93    5.92   1
   2  -1  12  -10.18    5.74   1
   2  -1  12   -0.32    2.12   1
   2  -1  13   52.71    8.71   1
   2  -1  13   35.16    9.01   1
   2  -1  13   55.35    4.76   1
   2  -1  14   -6.81    7.99   1
   2   0 -12    7.84    6.22   1
   2   0 -12    2.43    6.68   1
   2   0 -11   31.47    4.26   1
   2   0 -11   38.44    7.19   1
   2   0 -11   35.16    8.42   1
   2   0 -10   12.46    5.72   1
   2   0 -10    0.49    2.34   1
   2   0 -10   -4.20    4.51   1
   2   0  -9   20.98    6.14   1
   2   0  -8   36.12    4.09   1
   2   0  -8   35.88    6.35   1
   2   0  -8   42.64    5.88   1
   2   0  -7   63.36    5.41   1
   2   0  -7   81.90    7.24   1
   2   0  -7   68.56    7.29   1
   2   0  -6    2.79    2.17   1
   2   0  -6   11.63    4.09   1
   2   0  -6    2.28    2.72   1
   2   0  -5   32.72    3.78   1
   2   0  -5   35.64    4.66   1
   2   0  -5   40.58    4.59   1
   2   0  -4  696.43   25.33   1
   2   0  -4  691.69   24.72   1
   2   0  -4  673.40   25.43   1
   2   0  -3   -0.49    2.31   1
   2   0  -3   -0.62    1.85   1
   2   0  -3    6.50    2.81   1
   2   0  -2   -5.20    2.78   1
   2   0  -2    2.99    2.01   1
   2   0  -2   -2.02    2.13   1
   2   0  -1   35.88    3.59   1
   2   0  -1   34.57    3.88   1
   2   0   0  538.24   19.49   1
   2   0   0  561.22   19.90   1
   2   0   1   12.11    2.44   1
   2   0   1    7.51    0.82   1
   2   0   1   10.82    2.70   1
   2   0   4   16.16    1.93   1
   2   0   4   16.65    2.53   1
   2   0   5   13.54    1.99   1
   2   0   5    9.18    2.61   1
   2   0   6  579.85   19.75   1
   2   0   6  577.44   21.63   1
   2   0   7   27.04    2.91   1
   2   0   7   27.25    4.59   1
   2   0   7   19.80    4.00   1
   2   0   8  117.94    8.69   1
   2   0   8  113.21    6.60   1
   2   0   8  109.62    8.59   1
   2   0   9   56.25    6.75   1
   2   0   9   49.00    6.30   1
   2   0   9   52.85    4.51   1
   2   0  10  114.70   10.07   1
   2   0  10  117.07    7.36   1
   2   0  10  133.40   10.39   1
   2   0  11   -3.20    4.40   1
   2   0  11    4.33    4.33   1
   2   0  11    3.13    2.62   1
   2   0  12   61.00    7.81   1
   2   0  12   59.60    5.56   1
   2   0  13   21.53    7.33   1
   2   0  13   22.09    4.04   1
   2   0  14   -5.57    6.09   1
   2   0  14   -2.40    4.31   1
   2   1 -12    8.24    8.04   1
   2   1 -12    8.94    6.16   1
   2   1 -11   33.29    8.19   1
   2   1 -11   22.75    4.77   1
   2   1 -11   20.52    5.71   1
   2   1 -10    0.56    3.88   1
   2   1 -10   -0.74    3.11   1
   2   1 -10    1.42    5.59   1
   2   1  -9   50.27    5.53   1
   2   1  -9   45.83    7.58   1
   2   1  -9   59.14    6.77   1
   2   1  -8   15.13    3.50   1
   2   1  -8   16.40    4.05   1
   2   1  -7    0.66    3.89   1
   2   1  -7    1.88    2.77   1
   2   1  -7    3.24    2.77   1
   2   1  -6   27.46    4.30   1
   2   1  -6   22.75    3.82   1
   2   1  -6   27.35    5.02   1
   2   1  -5   63.20    5.56   1
   2   1  -5   70.06    6.70   1
   2   1  -5   57.61    5.46   1
   2   1  -4   15.52    3.15   1
   2   1  -4   15.37    3.14   1
   2   1  -4   19.01    3.92   1
   2   1  -3  188.79    9.62   1
   2   1  -3  187.96    9.87   1
   2   1  -3  191.82    9.14   1
   2   1  -2    0.61    2.20   1
   2   1  -2   -0.76    2.38   1
   2   1  -2   -2.99    2.11   1
   2   1  -1   26.42    3.50   1
   2   1  -1   29.81    3.28   1
   2   1   0    7.40    2.45   1
   2   1   0    6.86    2.67   1
   2   1   1    9.67    2.61   1
   2   1   1    8.47    1.16   1
   2   1   2  329.06   12.70   1
   2   1   3   61.15    4.07   1
   2   1   3   62.57    4.11   1
   2   1   4  390.85   15.03   1
   2   1   4  387.70   14.96   1
   2   1   5   63.04    5.08   1
   2   1   5   64.32    4.49   1
   2   1   6  402.40   16.45   1
   2   1   6  402.80   15.65   1
   2   1   7   32.04    3.62   1
   2   1   7   37.70    4.91   1
   2   1   8  178.49   10.69   1
   2   1   8  194.04    9.75   1
   2   1   9   19.54    4.42   1
   2   1   9   20.79    3.47   1
   2   1  10    8.35    3.47   1
   2   1  10    2.76    2.56   1
   2   1  11    7.78    4.97   1
   2   1  11    8.88    3.46   1
   2   1  12    8.70    3.48   1
   2   1  12   13.32    5.62   1
   2   1  13   -3.13    3.68   1
   2   1  13   -0.96    5.82   1
   2   1  14   10.37    5.92   1
   2   1  14    7.45    4.42   1
   2   2 -12   23.52    9.89   1
   2   2 -11   -3.31    4.04   1
   2   2 -11   -2.79    7.15   1
   2   2 -11    2.72    4.29   1
   2   2 -10   -0.83    3.71   1
   2   2 -10    0.88    3.78   1
   2   2 -10    4.54    6.26   1
   2   2  -9   62.57    8.86   1
   2   2  -9   50.13    6.23   1
   2   2  -9   55.65    6.27   1
   2   2  -8    1.23    3.15   1
   2   2  -8    4.67    5.05   1
   2   2  -8    4.28    3.02   1
   2   2  -7    1.56    4.28   1
   2   2  -7   -1.54    3.17   1
   2   2  -6   48.02    4.99   1
   2   2  -6   45.16    5.51   1
   2   2  -6   47.20    6.46   1
   2   2  -5  107.12    8.49   1
   2   2  -5   99.20    7.57   1
   2   2  -5   97.81    6.53   1
   2   2  -4   -3.80    3.39   1
   2   2  -4   -3.03    2.26   1
   2   2  -4   -0.52    2.43   1
   2   2  -3  304.15   13.25   1
   2   2  -3  270.27   11.84   1
   2   2  -3  270.27   13.15   1
   2   2  -2  786.24   28.60   1
   2   2  -2  760.10   27.02   1
   2   2  -2  796.37   26.53   1
   2   2  -1   25.40    3.33   1
   2   2  -1   21.90    3.00   1
   2   2   0    3.42    2.22   1
   2   2   0    3.88    1.77   1
   2   2   1   82.45    4.36   1
   2   2   1   83.17    6.02   1
   2   2   2   27.25    2.30   1
   2   2   2   29.48    3.48   1
   2   2   3  265.36   10.10   1
   2   2   3  287.98   11.20   1
   2   2   3  259.21   11.27   1
   2   2   4  158.26    7.55   1
   2   2   4  165.64    7.72   1
   2   2   4  165.38    8.23   1
   2   2   5   22.18    2.26   1
   2   2   5   16.08    2.89   1
   2   2   5   18.49    2.84   1
   2   2   6    3.84    2.23   1
   2   2   6    3.72    2.66   1
   2   2   7    4.28    2.94   1
   2   2   7    5.43    2.47   1
   2   2   8    2.31    3.16   1
   2   2   8    2.86    2.40   1
   2   2   9   13.99    4.26   1
   2   2   9   13.03    3.47   1
   2   2  10   82.81    8.19   1
   2   2  10   77.79    7.06   1
   2   2  11   44.76    5.89   1
   2   2  11   50.84    7.27   1
   2   2  12    7.34    5.31   1
   2   2  12   12.82    4.37   1
   2   2  13   61.94    9.13   1
   2   2  13   78.32    7.97   1
   2   2  14   -2.59    5.44   1
   2   2  14    8.94    5.26   1
   2   3 -12   -9.30    7.75   1
   2   3 -11    2.07    5.04   1
   2   3 -11    6.60    4.06   1
   2   3 -11   11.49    8.27   1
   2   3 -10    2.46    6.88   1
   2   3 -10    6.55    4.92   1
   2   3 -10   -1.39    3.56   1
   2   3  -9   14.59    6.72   1
   2   3  -9    6.97    4.75   1
   2   3  -9    7.40    3.59   1
   2   3  -8  151.04   12.54   1
   2   3  -8  134.56    8.58   1
   2   3  -8  147.62   10.69   1
   2   3  -7   98.80    8.55   1
   2   3  -7   94.28    6.80   1
   2   3  -7   74.65    8.12   1
   2   3  -6    5.76    2.30   1
   2   3  -6    6.60    4.63   1
   2   3  -6    1.44    3.48   1
   2   3  -5   50.55    6.26   1
   2   3  -5   52.85    4.51   1
   2   3  -5   60.68    6.86   1
   2   3  -4   61.94    6.77   1
   2   3  -4   68.23    6.77   1
   2   3  -4   82.99    5.28   1
   2   3  -3    5.52    2.02   1
   2   3  -3    2.66    2.35   1
   2   3  -3    6.10    3.70   1
   2   3  -2   66.59    5.39   1
   2   3  -2   50.41    5.68   1
   2   3  -1   33.06    4.60   1
   2   3  -1   42.51    4.17   1
   2   3   0    8.70    2.24   1
   2   3   0    9.99    3.29   1
   2   3   1   -1.10    1.55   1
   2   3   1   -0.86    1.82   1
   2   3   1   -4.37    2.63   1
   2   3   2 1251.74   41.75   1
   2   3   2 1206.87   43.08   1
   2   3   2 1278.06   40.04   1
   2   3   3    5.20    2.37   1
   2   3   3    5.62    2.56   1
   2   3   3    7.84    1.68   1
   2   3   4    7.73    2.22   1
   2   3   4    5.66    2.52   1
   2   3   4    2.40    1.67   1
   2   3   5   20.52    3.44   1
   2   3   5   15.68    2.93   1
   2   3   5   18.66    2.51   1
   2   3   6   94.28    5.05   1
   2   3   6   99.20    7.17   1
   2   3   6  102.01    6.87   1
   2   3   7   19.36    3.96   1
   2   3   7   21.07    3.58   1
   2   3   8    2.16    3.09   1
   2   3   8   11.09    3.40   1
   2   3   9  210.54   12.48   1
   2   3   9  227.10   12.96   1
   2   3  10    0.25    3.21   1
   2   3  10   -1.51    2.68   1
   2   3  11   10.63    4.30   1
   2   3  11    7.95    4.91   1
   2   3  12   31.02    6.02   1
   2   3  12   25.50    5.56   1
   2   3  13    3.03    4.77   1
   2   3  13    6.10    6.22   1
   2   3  14    3.31    7.06   1
   2   3  14    8.07    5.68   1
   2   4 -11    0.59    8.42   1
   2   4 -11    1.72    6.21   1
   2   4 -10    6.55    7.48   1
   2   4 -10   -5.52    5.69   1
   2   4  -9    0.67    6.26   1
   2   4  -9    1.90    2.40   1
   2   4  -9    0.94    4.79   1
   2   4  -8   64.32    8.02   1
   2   4  -8   71.74    5.42   1
   2   4  -8   78.15    9.55   1
   2   4  -7    3.46    3.98   1
   2   4  -7    3.61    2.32   1
   2   4  -7    4.04    4.90   1
   2   4  -6    0.96    4.12   1
   2   4  -6   -5.20    4.51   1
   2   4  -6    1.74    3.96   1
   2   4  -5   96.04    8.62   1
   2   4  -5  118.37    9.36   1
   2   4  -5   86.49    8.74   1
   2   4  -4   22.37    5.11   1
   2   4  -4   17.31    4.58   1
   2   4  -4   14.44    4.10   1
   2   4  -3    9.49    4.13   1
   2   4  -3    9.92    3.65   1
   2   4  -2  201.92   12.50   1
   2   4  -2  200.79   11.05   1
   2   4  -1    2.02    3.24   1
   2   4  -1    0.62    1.99   1
   2   4   0   91.97    6.33   1
   2   4   0   91.39    7.46   1
   2   4   1   64.96    5.48   1
   2   4   1   60.53    4.98   1
   2   4   1   62.88    6.03   1
   2   4   2  776.18   29.53   1
   2   4   2  835.21   28.90   1
   2   4   2  783.44   27.43   1
   2   4   3   81.18    5.77   1
   2   4   3   80.28    6.09   1
   2   4   3   86.49    6.70   1
   2   4   3   78.68    4.08   1
   2   4   4  232.26    9.45   1
   2   4   4  246.80   12.25   1
   2   4   4  229.22   11.20   1
   2   4   5  199.37    9.88   1
   2   4   5  192.65   11.10   1
   2   4   5  212.87    9.63   1
   2   4   6   19.45    2.65   1
   2   4   6   19.98    3.40   1
   2   4   7  150.31    9.32   1
   2   4   7  180.36   11.01   1
   2   4   7  168.74    7.53   1
   2   4   8  285.95   15.56   1
   2   4   8  290.02   14.31   1
   2   4   9   10.43    3.49   1
   2   4   9   10.89    4.29   1
   2   4  10    9.61    4.40   1
   2   4  10    2.19    3.76   1
   2   4  11   -3.42    4.48   1
   2   4  11   -4.04    4.30   1
   2   4  12    5.71    4.88   1
   2   4  12    4.58    5.35   1
   2   4  13   10.50    6.22   1
   2   4  13    7.24    5.54   1
   2   4  14    9.24    7.36   1
   2   4  14   -1.02    6.30   1
   2   5 -10    4.24    6.84   1
   2   5 -10   14.67    8.73   1
   2   5 -10   22.00    8.82   1
   2   5  -9   48.86    9.79   1
   2   5  -9   43.43    8.30   1
   2   5  -9   64.32   10.27   1
   2   5  -8   -1.74    4.83   1
   2   5  -8    3.88    5.79   1
   2   5  -8    9.86    5.71   1
   2   5  -7   37.70    7.25   1
   2   5  -7   32.49    6.38   1
   2   5  -7   41.86    8.15   1
   2   5  -6   52.13    7.36   1
   2   5  -6   68.89    7.97   1
   2   5  -6   72.08    8.83   1
   2   5  -5   22.28    5.48   1
   2   5  -5   23.81    5.76   1
   2   5  -5   24.80    6.08   1
   2   5  -4   55.65    6.86   1
   2   5  -4   40.96    6.14   1
   2   5  -3   86.49    7.81   1
   2   5  -3   75.52    8.34   1
   2   5  -2   75.86    8.01   1
   2   5  -2   71.74    6.78   1
   2   5  -1  331.97   16.03   1
   2   5  -1  381.42   18.75   1
   2   5   0    0.98    2.65   1
   2   5   0   -2.82    3.60   1
   2   5   1  135.02    8.83   1
   2   5   1  141.13    9.50   1
   2   5   1  141.85    8.34   1
   2   5   2    6.10    3.36   1
   2   5   2   10.56    3.32   1
   2   5   2   11.02    3.12   1
   2   5   3    9.00    3.48   1
   2   5   3   18.92    1.74   1
   2   5   3   19.10    3.58   1
   2   5   3   17.39    3.84   1
   2   5   4  127.69    8.14   1
   2   5   4  124.10    8.91   1
   2   5   4  126.79    6.08   1
   2   5   5   23.33    3.09   1
   2   5   5   20.98    4.49   1
   2   5   5   29.48    3.91   1
   2   5   6   87.61    6.18   1
   2   5   6   81.18    7.57   1
   2   5   6   80.10    5.91   1
   2   5   7    0.66    3.26   1
   2   5   7    1.82    1.75   1
   2   5   7    1.74    2.56   1
   2   5   8  277.22   15.65   1
   2   5   8  257.92   13.17   1
   2   5   8  262.44   10.69   1
   2   5   9    8.29    4.44   1
   2   5   9   14.52    4.19   1
   2   5  10   31.25    5.48   1
   2   5  10   30.91    5.89   1
   2   5  11   41.99    6.87   1
   2   5  11   26.73    5.58   1
   2   5  12    2.25    5.19   1
   2   5  12    9.00    5.82   1
   2   5  13   19.27    6.85   1
   2   5  13   17.56    7.29   1
   2   6 -10    6.97    9.50   1
   2   6 -10    5.66    9.85   1
   2   6 -10   -5.20    8.39   1
   2   6  -9    4.45    6.92   1
   2   6  -9    5.11    8.72   1
   2   6  -9    1.85    7.86   1
   2   6  -8    6.05    6.25   1
   2   6  -8   12.11    6.96   1
   2   6  -8    9.00    6.90   1
   2   6  -7   21.16    7.27   1
   2   6  -7   23.14    7.02   1
   2   6  -7   38.56    8.57   1
   2   6  -6    1.99    5.39   1
   2   6  -6    5.43    4.80   1
   2   6  -5  152.28   12.34   1
   2   6  -5  152.77   12.61   1
   2   6  -4   -1.74    4.51   1
   2   6  -4    0.00    1.00   1
   2   6  -3   79.21    7.65   1
   2   6  -3   88.92    9.43   1
   2   6  -2   90.06    8.16   1
   2   6  -2   99.20    9.36   1
   2   6  -1  386.12   20.44   1
   2   6  -1  414.53   19.14   1
   2   6   0  125.22    8.95   1
   2   6   0  136.89   10.53   1
   2   6   0  122.99    8.87   1
   2   6   1    0.21    2.88   1
   2   6   1    1.54    2.93   1
   2   6   1    2.99    3.11   1
   2   6   2   62.41    6.16   1
   2   6   2   51.84    6.05   1
   2   6   3    8.07    2.90   1
   2   6   3   10.63    3.98   1
   2   6   3   11.49    3.73   1
   2   6   4    4.41    1.55   1
   2   6   4    0.64    3.14   1
   2   6   4   -2.19    3.26   1
   2   6   5   23.43    4.07   1
   2   6   5   16.08    4.41   1
   2   6   5   12.46    2.54   1
   2   6   6  170.56    9.40   1
   2   6   6  160.53    8.62   1
   2   6   6  154.50   11.19   1
   2   6   7    7.51    4.22   1
   2   6   7   10.63    3.13   1
   2   6   7   13.40    3.29   1
   2   6   8    7.45    4.42   1
   2   6   8    6.00    2.45   1
   2   6   9   39.82    6.31   1
   2   6   9   35.05    5.33   1
   2   6  10   -6.81    5.43   1
   2   6  10    8.53    4.15   1
   2   6  11   -4.80    5.78   1
   2   6  11    2.82    4.64   1
   2   6  12  120.56   11.86   1
   2   6  12  124.77   11.39   1
   2   6  13    5.76    7.39   1
   2   6  13   -3.65    6.30   1
   2   7  -9    4.71    8.64   1
   2   7  -9   -0.62    9.35   1
   2   7  -8   -3.28    7.38   1
   2   7  -8   18.15    9.03   1
   2   7  -7    4.58    7.19   1
   2   7  -7    2.53    6.71   1
   2   7  -6    0.71    6.17   1
   2   7  -6  -11.56    6.53   1
   2   7  -5  113.21   11.07   1
   2   7  -5  103.84   11.62   1
   2   7  -4   -0.61    3.73   1
   2   7  -4   -4.93    4.44   1
   2   7  -3   29.27    6.06   1
   2   7  -3   22.66    6.28   1
   2   7  -2   17.14    5.38   1
   2   7  -2   24.21    5.71   1
   2   7  -1  119.25   10.70   1
   2   7  -1  129.96   10.03   1
   2   7   0   44.49    6.40   1
   2   7   0   53.14    7.29   1
   2   7   0   49.14    6.17   1
   2   7   1    9.06    4.51   1
   2   7   1   16.40    4.62   1
   2   7   2    9.42    4.24   1
   2   7   2    9.42    3.25   1
   2   7   2   12.04    4.30   1
   2   7   3   85.01    8.30   1
   2   7   3   91.78    8.05   1
   2   7   3   76.74    7.71   1
   2   7   4   25.60    2.13   1
   2   7   4   17.47    4.43   1
   2   7   4   24.50    4.95   1
   2   7   5  428.49   19.46   1
   2   7   5  408.04   14.95   1
   2   7   5  418.61   20.46   1
   2   7   6   63.68    4.95   1
   2   7   6   75.69    6.79   1
   2   7   6   68.56    8.11   1
   2   7   7   -0.79    2.99   1
   2   7   7   -1.74    4.22   1
   2   7   7   -3.13    2.73   1
   2   7   8    7.90    3.20   1
   2   7   8   10.56    3.64   1
   2   7   8    1.69    4.65   1
   2   7   9   11.70    4.24   1
   2   7   9    7.67    5.37   1
   2   7   9   15.29    3.05   1
   2   7  10   33.52    6.14   1
   2   7  10   37.21    7.93   1
   2   7  11   19.27    7.64   1
   2   7  12   10.30    7.45   1
   2   7  12    9.36    6.49   1
   2   8  -7   23.81    9.56   1
   2   8  -7    5.86    8.91   1
   2   8  -6   36.00    9.84   1
   2   8  -6   48.02    9.70   1
   2   8  -5   -3.53    6.66   1
   2   8  -5   -5.86    7.26   1
   2   8  -4    9.73    6.68   1
   2   8  -4    7.78    5.13   1
   2   8  -3   41.47    7.99   1
   2   8  -3   18.23    7.26   1
   2   8  -2   38.07    7.16   1
   2   8  -2   18.23    5.47   1
   2   8  -1   26.32    6.46   1
   2   8  -1   22.37    6.05   1
   2   8   0   12.25    4.48   1
   2   8   0    5.20    5.11   1
   2   8   0   11.42    5.27   1
   2   8   1   88.55    8.66   1
   2   8   1   77.62    8.99   1
   2   8   1   72.93    7.86   1
   2   8   2   -4.58    4.67   1
   2   8   2    0.38    3.88   1
   2   8   2   -4.93    3.95   1
   2   8   3   11.90    5.18   1
   2   8   3   26.11    5.93   1
   2   8   3   12.11    4.87   1
   2   8   4    4.16    4.24   1
   2   8   4    3.65    4.32   1
   2   8   5    3.53    4.02   1
   2   8   5   -0.48    4.64   1
   2   8   5    0.81    1.55   1
   2   8   6    4.08    2.34   1
   2   8   6    9.49    4.37   1
   2   8   6    3.65    5.16   1
   2   8   7   -9.80    6.13   1
   2   8   7    7.56    3.30   1
   2   8   7   13.10    4.42   1
   2   8   8    2.22    5.96   1
   2   8   8   -2.86    3.95   1
   2   8   8   -2.89    3.37   1
   2   8   9   33.64    4.52   1
   2   8   9   31.25    5.25   1
   2   8   9   24.90    7.88   1
   2   8  10   -0.58    2.54   1
   2   8  10   -3.72    6.29   1
   2   8  10   -0.66    4.16   1
   2   8  11    2.50    7.71   1
   2   8  11   12.18    5.93   1
   2   9  -6    2.99    9.24   1
   2   9  -5    6.00    7.74   1
   2   9  -5   -2.59    9.24   1
   2   9  -4   -0.56    7.55   1
   2   9  -4   16.73    8.02   1
   2   9  -3   21.16    8.37   1
   2   9  -3   27.67    8.21   1
   2   9  -2   10.37    6.96   1
   2   9  -2   16.48    7.15   1
   2   9  -1   51.12    8.15   1
   2   9  -1   59.91    8.98   1
   2   9   0   45.16    6.99   1
   2   9   0   55.35    8.63   1
   2   9   1   -6.20    5.98   1
   2   9   1    1.23    3.91   1
   2   9   1   -5.71    4.97   1
   2   9   2   61.78    8.17   1
   2   9   2   76.74    9.46   1
   2   9   2   68.56    8.94   1
   2   9   3    4.24    4.99   1
   2   9   3   16.32    6.14   1
   2   9   3   -4.33    5.16   1
   2   9   4    3.50    5.20   1
   2   9   4   -1.85    3.78   1
   2   9   5   63.84    9.27   1
   2   9   6    3.57    2.04   1
   2   9   6   -2.31    6.05   1
   2   9   6    5.62    4.69   1
   2   9   7   17.14    7.45   1
   2   9   8   -0.13    4.42   1
   2   9   8    2.22    6.47   1
   2   9   8   -3.88    3.70   1
   2   9   9   35.64    9.31   1
   2   9   9   59.14    6.61   1
   2   9   9   67.08    6.88   1
   2   9  10   29.92    6.13   1
   2   9  10   13.47    8.51   1
   2  10  -4   -6.45    8.74   1
   2  10  -3   -2.69    6.30   1
   2  10  -2   44.22    9.58   1
   2  10  -2   53.44   11.99   1
   2  10  -1    7.45    7.32   1
   2  10  -1   -4.12    7.75   1
   2  10   0   22.37    8.42   1
   2  10   0   22.66    7.90   1
   2  10   1   48.02    8.87   1
   2  10   1   44.36    8.13   1
   2  10   1   42.38    9.24   1
   2  10   2    3.31    6.44   1
   2  10   2    2.22    6.53   1
   2  10   2   -1.49    6.12   1
   2  10   3    4.80    6.35   1
   2  10   3  -14.98    7.12   1
   2  10   3   -1.77    6.25   1
   2  10   4   -2.07    6.51   1
   2  10   4    7.29    5.83   1
   2  10   5   59.14    8.77   1
   2  10   5   44.36    8.79   1
   2  10   6   -1.30    5.95   1
   2  10   6    4.97    7.40   1
   2  10   7   -3.72    5.94   1
   2  10   7   -1.96    2.66   1
   2  10   7   -2.53    7.47   1
   2  10   8  125.89   10.77   1
   2  10   8  110.04    7.34   1
   2  10   8   68.72   12.10   1
   2  11  -1   15.21    9.13   1
   2  11   0   -2.96    8.15   1
   2  11   1   32.95    9.18   1
   2  11   2   13.99    8.23   1
   2  11   2    8.01    7.58   1
   2  11   2   -3.50    8.12   1
   2  11   3    4.37    6.77   1
   2  11   3   26.32    9.03   1
   2  11   3   16.65    8.32   1
   2  11   4   36.00    9.96   1
   2  11   5   -0.07    7.53   1
   2  11   5    7.62    8.61   1
   3 -10  -4   -0.22    7.38   1
   3 -10  -4    1.66    6.55   1
   3 -10  -3    7.24    7.42   1
   3 -10  -3    1.82    7.05   1
   3 -10  -2   27.98    8.04   1
   3 -10  -2   26.21    8.60   1
   3 -10  -1    4.54    9.67   1
   3 -10  -1    3.80    5.69   1
   3 -10   0   22.18    7.16   1
   3 -10   0   12.60    5.82   1
   3 -10   0    0.08    8.71   1
   3 -10   1   -3.84    8.47   1
   3 -10   1    0.34    6.53   1
   3 -10   1   12.11    5.36   1
   3 -10   2   31.58    9.55   1
   3 -10   2   37.21   11.10   1
   3 -10   2   43.82    6.22   1
   3 -10   3    3.84    7.96   1
   3 -10   3   -1.37    3.98   1
   3 -10   4    8.35    9.48   1
   3  -9  -7   20.61   10.26   1
   3  -9  -7   23.43    7.55   1
   3  -9  -6   46.79    8.21   1
   3  -9  -6   49.00   11.06   1
   3  -9  -5    5.66    5.85   1
   3  -9  -5   16.81    8.12   1
   3  -9  -5    8.88    9.77   1
   3  -9  -4    0.52    6.84   1
   3  -9  -4    4.33    5.82   1
   3  -9  -4   -1.42    7.54   1
   3  -9  -3    7.84    7.45   1
   3  -9  -3    4.41    5.75   1
   3  -9  -3    1.46    5.81   1
   3  -9  -2    9.00    5.46   1
   3  -9  -2    7.08    7.13   1
   3  -9  -2   12.74    5.93   1
   3  -9  -1    2.99    5.57   1
   3  -9  -1   -3.17    6.69   1
   3  -9  -1    8.82    5.46   1
   3  -9   0   52.42    7.53   1
   3  -9   0   58.98    9.22   1
   3  -9   0   61.15    8.91   1
   3  -9   1  119.25   12.45   1
   3  -9   1  127.46    9.94   1
   3  -9   1  125.44   12.10   1
   3  -9   2   17.64    4.62   1
   3  -9   2   10.76    6.30   1
   3  -9   2   19.10    2.88   1
   3  -9   2   15.84    7.48   1
   3  -9   3    2.07    6.80   1
   3  -9   3    9.24    2.92   1
   3  -9   3    9.30    7.08   1
   3  -9   3    1.59    3.63   1
   3  -9   4   51.41   10.04   1
   3  -9   4   50.69    5.55   1
   3  -9   4   52.56    4.79   1
   3  -9   5   12.89    6.53   1
   3  -9   5   17.39    4.50   1
   3  -9   6   12.67    5.41   1
   3  -9   6   -0.62    7.99   1
   3  -9   7    3.17    5.98   1
   3  -9   7   15.44    9.20   1
   3  -8  -8   -9.30    9.27   1
   3  -8  -7   24.90    9.58   1
   3  -8  -7   32.60    4.11   1
   3  -8  -6   -4.71    7.20   1
   3  -8  -6   17.56    5.36   1
   3  -8  -6   10.37    7.47   1
   3  -8  -5   -4.28    6.62   1
   3  -8  -5    3.20    5.48   1
   3  -8  -5    5.20    4.88   1
   3  -8  -4   31.70    7.88   1
   3  -8  -4   27.14    7.82   1
   3  -8  -3   26.52    7.00   1
   3  -8  -3   24.80    6.18   1
   3  -8  -3   20.79    6.66   1
   3  -8  -2    5.90    4.57   1
   3  -8  -2    8.35    5.26   1
   3  -8  -2    5.76    5.23   1
   3  -8  -1   45.83    7.04   1
   3  -8  -1   45.83    7.85   1
   3  -8  -1   48.44    8.21   1
   3  -8   0   37.58    7.36   1
   3  -8   0   53.29    8.03   1
   3  -8   0   60.06    7.13   1
   3  -8   1    5.57    4.01   1
   3  -8   1    6.15    5.31   1
   3  -8   2   -0.98    5.17   1
   3  -8   2    8.47    5.47   1
   3  -8   2   11.42    2.30   1
   3  -8   2    5.52    4.18   1
   3  -8   3   -3.46    5.65   1
   3  -8   3    6.40    3.14   1
   3  -8   3   -6.30    5.82   1
   3  -8   3    4.37    2.30   1
   3  -8   4    8.82    6.65   1
   3  -8   4   16.16    3.38   1
   3  -8   4   18.32    3.60   1
   3  -8   5   15.37    5.80   1
   3  -8   6   14.29    4.69   1
   3  -8   7   24.60    7.54   1
   3  -8   7   19.89    5.62   1
   3  -8   8   -4.97    6.07   1
   3  -8   8   -5.24    7.19   1
   3  -8   9   16.24    7.50   1
   3  -7  -9    6.92    9.52   1
   3  -7  -9   19.27    5.09   1
   3  -7  -8   -3.13    8.18   1
   3  -7  -8    0.59    3.36   1
   3  -7  -8    1.64    3.56   1
   3  -7  -8    9.55    7.91   1
   3  -7  -7    6.20    2.99   1
   3  -7  -7    0.52    5.85   1
   3  -7  -7    3.50    6.88   1
   3  -7  -7    6.76    3.80   1
   3  -7  -6   41.22    6.03   1
   3  -7  -6   41.73    4.01   1
   3  -7  -6   46.79    8.07   1
   3  -7  -6   31.02    7.91   1
   3  -7  -5   59.91    7.12   1
   3  -7  -5   74.48    9.15   1
   3  -7  -5   65.93    9.58   1
   3  -7  -4   15.44    4.95   1
   3  -7  -4   19.10    6.55   1
   3  -7  -4   13.54    5.37   1
   3  -7  -3    3.61    4.75   1
   3  -7  -3    4.67    5.10   1
   3  -7  -3   -0.22    3.73   1
   3  -7  -2   65.93    8.12   1
   3  -7  -2   60.53    7.16   1
   3  -7  -2   51.12    7.15   1
   3  -7  -1   13.84    4.84   1
   3  -7  -1   20.34    5.68   1
   3  -7  -1   20.98    5.22   1
   3  -7   0   12.82    4.15   1
   3  -7   0   17.39    5.34   1
   3  -7   0   17.39    4.59   1
   3  -7   1   42.90    6.94   1
   3  -7   1   40.45    6.74   1
   3  -7   1   49.00    5.88   1
   3  -7   2    6.71    3.57   1
   3  -7   2    4.37    5.10   1
   3  -7   2    7.90    1.80   1
   3  -7   2   12.89    5.17   1
   3  -7   3   -7.13    4.65   1
   3  -7   3    0.98    2.04   1
   3  -7   3    4.84    4.40   1
   3  -7   3    1.19    2.53   1
   3  -7   4   34.11    6.54   1
   3  -7   4   32.95    4.25   1
   3  -7   4   24.70    6.86   1
   3  -7   5  121.66    8.16   1
   3  -7   5  136.66   12.39   1
   3  -7   6    2.76    3.69   1
   3  -7   6    5.06    5.94   1
   3  -7   7   51.98    9.08   1
   3  -7   7   53.14    6.56   1
   3  -7   8   21.44    5.93   1
   3  -7   8   14.75    7.76   1
   3  -7   9    0.21    6.73   1
   3  -7   9   -7.62    5.85   1
   3  -7  10   -9.99    8.53   1
   3  -7  10   -5.62    7.06   1
   3  -6 -10    1.49    5.20   1
   3  -6 -10  -22.37   10.22   1
   3  -6  -9   51.12    6.72   1
   3  -6  -9   45.56   10.66   1
   3  -6  -9   56.40   10.81   1
   3  -6  -8   -6.40    7.54   1
   3  -6  -8   -9.00    7.08   1
   3  -6  -8    2.53    3.50   1
   3  -6  -7   66.42    9.62   1
   3  -6  -7   50.13    5.24   1
   3  -6  -7   59.14    9.54   1
   3  -6  -7   61.94    5.67   1
   3  -6  -6   14.44    4.26   1
   3  -6  -6   23.33    3.38   1
   3  -6  -6   19.27    5.71   1
   3  -6  -6   22.28    6.70   1
   3  -6  -5   -4.93    5.15   1
   3  -6  -5    2.56    4.93   1
   3  -6  -5    1.59    3.15   1
   3  -6  -5   -0.18    1.72   1
   3  -6  -4   33.99    5.13   1
   3  -6  -4   32.15    6.92   1
   3  -6  -4   26.63    5.26   1
   3  -6  -3   -0.98    3.96   1
   3  -6  -3   -2.07    4.15   1
   3  -6  -3    6.20    3.83   1
   3  -6  -2   74.48    7.59   1
   3  -6  -2   69.89    7.36   1
   3  -6  -2   74.48    7.08   1
   3  -6  -1    2.53    2.93   1
   3  -6  -1    4.93    3.77   1
   3  -6  -1   -3.80    2.93   1
   3  -6   0   45.97    6.64   1
   3  -6   0   53.29    6.57   1
   3  -6   0   69.22    6.82   1
   3  -6   1   72.59    6.65   1
   3  -6   1   61.62    7.54   1
   3  -6   1   67.90    6.26   1
   3  -6   2   58.83    7.52   1
   3  -6   2   57.61    6.53   1
   3  -6   2   61.15    3.75   1
   3  -6   2   57.46    5.61   1
   3  -6   3   26.11    2.96   1
   3  -6   3   17.56    5.45   1
   3  -6   3   24.70    5.17   1
   3  -6   3   26.32    3.80   1
   3  -6   4  159.52    8.34   1
   3  -6   4  155.00    8.47   1
   3  -6   4  182.52   11.35   1
   3  -6   4  126.79   11.49   1
   3  -6   5    1.02    4.08   1
   3  -6   5    1.59    2.49   1
   3  -6   6   18.06    3.99   1
   3  -6   6   13.47    5.06   1
   3  -6   7   32.15    5.56   1
   3  -6   7   25.00    7.00   1
   3  -6   8   -6.60    6.48   1
   3  -6   8    3.65    3.97   1
   3  -6   9   65.29    8.24   1
   3  -6   9   65.12   10.01   1
   3  -6  10   10.76    7.68   1
   3  -6  10    5.38    6.17   1
   3  -6  11   61.78   10.22   1
   3  -6  11   54.61    9.61   1
   3  -5 -11   -0.35    9.94   1
   3  -5 -11    0.96    6.25   1
   3  -5 -10   -2.66    5.28   1
   3  -5 -10   -6.05    8.41   1
   3  -5  -9   10.18    7.27   1
   3  -5  -9   13.47    4.84   1
   3  -5  -8   41.73    5.68   1
   3  -5  -8   47.75    9.12   1
   3  -5  -7    4.20    5.70   1
   3  -5  -7    6.50    3.52   1
   3  -5  -6   24.30    3.75   1
   3  -5  -6   22.66    3.81   1
   3  -5  -6   18.84    5.73   1
   3  -5  -6   25.81    6.91   1
   3  -5  -5   14.90    5.17   1
   3  -5  -5   25.30    3.92   1
   3  -5  -5   24.01    3.04   1
   3  -5  -5   15.76    5.56   1
   3  -5  -4   26.52    2.58   1
   3  -5  -4   31.02    6.24   1
   3  -5  -4   25.50    5.35   1
   3  -5  -4   20.07    4.03   1
   3  -5  -3   41.34    5.14   1
   3  -5  -3   32.38    6.26   1
   3  -5  -3   53.58    5.86   1
   3  -5  -2   -0.90    3.97   1
   3  -5  -2    4.93    3.24   1
   3  -5  -2   -0.86    2.98   1
   3  -5  -1  106.92    8.48   1
   3  -5  -1   90.25    7.98   1
   3  -5  -1   99.40    7.78   1
   3  -5   0   46.10    5.57   1
   3  -5   0   48.86    5.45   1
   3  -5   0   43.16    5.91   1
   3  -5   1    3.88    3.23   1
   3  -5   1    0.62    2.89   1
   3  -5   1    2.50    3.41   1
   3  -5   2   83.17    8.21   1
   3  -5   2   80.64    6.47   1
   3  -5   2   87.24    4.30   1
   3  -5   2   84.64    6.99   1
   3  -5   3   79.92    6.97   1
   3  -5   3   83.91    6.05   1
   3  -5   3   85.01    4.98   1
   3  -5   3   83.17    8.39   1
   3  -5   4   25.00    3.20   1
   3  -5   4   17.98    4.16   1
   3  -5   4   22.94    5.27   1
   3  -5   4   26.21    3.38   1
   3  -5   5    2.16    2.38   1
   3  -5   5    5.81    4.53   1
   3  -5   6   12.74    3.50   1
   3  -5   6   20.34    5.86   1
   3  -5   7   -2.56    4.96   1
   3  -5   7    3.20    3.37   1
   3  -5   8    6.50    4.39   1
   3  -5   8   12.04    5.97   1
   3  -5   9   -5.57    5.38   1
   3  -5   9    0.74    4.42   1
   3  -5  10  -12.18    6.70   1
   3  -5  10    4.71    5.29   1
   3  -5  11    2.53    5.22   1
   3  -5  11    3.20    6.69   1
   3  -5  12   13.91    8.58   1
   3  -4 -11    2.46    7.50   1
   3  -4 -11   15.13    7.16   1
   3  -4 -10    7.67    7.81   1
   3  -4 -10    5.15    5.22   1
   3  -4  -9   66.91   10.31   1
   3  -4  -9   94.09    8.92   1
   3  -4  -8   10.43    4.26   1
   3  -4  -8   25.60    7.39   1
   3  -4  -7   51.55    8.33   1
   3  -4  -7   53.58    6.00   1
   3  -4  -6   19.71    3.91   1
   3  -4  -6   13.62    4.80   1
   3  -4  -5  128.37   11.10   1
   3  -4  -5  142.09    7.87   1
   3  -4  -4   32.38    6.15   1
   3  -4  -4   24.11    2.85   1
   3  -4  -4   24.21    3.64   1
   3  -4  -3    1.46    4.07   1
   3  -4  -3   -1.17    2.61   1
   3  -4  -3    1.51    3.05   1
   3  -4  -2   26.73    5.27   1
   3  -4  -2   26.21    4.30   1
   3  -4  -2   24.30    4.04   1
   3  -4  -1   -0.67    2.48   1
   3  -4  -1    4.41    2.69   1
   3  -4  -1   -1.14    2.16   1
   3  -4   0   10.05    3.68   1
   3  -4   0    9.67    3.05   1
   3  -4   0   16.16    3.94   1
   3  -4   1   -2.31    2.98   1
   3  -4   1    1.51    2.41   1
   3  -4   1    2.22    3.01   1
   3  -4   2    5.43    2.70   1
   3  -4   2    9.92    2.84   1
   3  -4   2    6.81    3.50   1
   3  -4   3   83.17    4.74   1
   3  -4   3   77.97    6.00   1
   3  -4   3   85.56    7.95   1
   3  -4   3   76.04    5.76   1
   3  -4   4    6.30    2.81   1
   3  -4   4    9.30    2.20   1
   3  -4   4    7.24    4.25   1
   3  -4   4    5.29    2.16   1
   3  -4   5  135.02   10.46   1
   3  -4   5  141.13    8.08   1
   3  -4   6   94.87    8.96   1
   3  -4   6   87.98    6.94   1
   3  -4   7   33.64    6.26   1
   3  -4   7   32.38    5.12   1
   3  -4   8  384.16   18.42   1
   3  -4   8  362.14   19.79   1
   3  -4   9  146.41   10.89   1
   3  -4   9  119.03   10.69   1
   3  -4  10    0.77    5.02   1
   3  -4  10   -0.02    4.72   1
   3  -4  11   59.60    8.96   1
   3  -4  12    4.04    7.16   1
   3  -3 -11    7.02    6.57   1
   3  -3 -11    6.50    7.60   1
   3  -3 -10   16.89    5.92   1
   3  -3 -10    3.28    6.77   1
   3  -3  -9  179.56   12.33   1
   3  -3  -9  159.52   13.64   1
   3  -3  -8    9.67    6.03   1
   3  -3  -7   23.43    6.20   1
   3  -3  -7   28.41    4.69   1
   3  -3  -6   32.26    6.36   1
   3  -3  -6   48.16    5.27   1
   3  -3  -5   19.45    5.29   1
   3  -3  -4   -1.49    3.83   1
   3  -3  -4   -3.20    2.00   1
   3  -3  -3   56.40    4.81   1
   3  -3  -3   56.85    3.77   1
   3  -3  -3   63.04    6.99   1
   3  -3  -2   10.18    3.06   1
   3  -3  -2   11.09    2.86   1
   3  -3  -2   10.37    3.93   1
   3  -3  -1   16.24    3.14   1
   3  -3  -1   12.18    3.07   1
   3  -3  -1   15.76    4.05   1
   3  -3   0  117.94    6.95   1
   3  -3   0  114.92    7.93   1
   3  -3   0  119.03    8.07   1
   3  -3   1  992.25   32.76   1
   3  -3   1  971.57   34.29   1
   3  -3   1  960.38   35.95   1
   3  -3   2  193.21   10.01   1
   3  -3   2  202.21   11.66   1
   3  -3   2  195.72    9.23   1
   3  -3   3   35.64    3.70   1
   3  -3   3   37.95    3.94   1
   3  -3   3   24.60    4.86   1
   3  -3   4   62.57    4.75   1
   3  -3   4   64.00    6.40   1
   3  -3   4   62.41    4.58   1
   3  -3   5    8.82    4.10   1
   3  -3   5    0.44    1.94   1
   3  -3   6  184.14   11.94   1
   3  -3   6  179.29    9.91   1
   3  -3   7   87.42    7.29   1
   3  -3   7   78.50    7.97   1
   3  -3   8   59.14    6.61   1
   3  -3   8   61.15    7.35   1
   3  -3   9   78.32    7.97   1
   3  -3  10   16.97    5.60   1
   3  -3  11   24.21    5.90   1
   3  -3  12    3.84    6.86   1
   3  -2 -12    0.31    9.21   1
   3  -2 -12   -2.50    7.99   1
   3  -2 -11    3.39    6.66   1
   3  -2 -11   -9.92    7.81   1
   3  -2 -10   46.38    8.58   1
   3  -2 -10   47.33    7.84   1
   3  -2  -9   15.68    5.70   1
   3  -2  -9    3.39    5.41   1
   3  -2  -8   77.26    8.26   1
   3  -2  -8   90.44    9.51   1
   3  -2  -7   33.41    5.43   1
   3  -2  -7   30.69    6.20   1
   3  -2  -6    6.45    4.62   1
   3  -2  -5  213.74   12.87   1
   3  -2  -5  207.94   10.67   1
   3  -2  -4   14.29    4.46   1
   3  -2  -4   13.91    2.98   1
   3  -2  -3  107.54    8.50   1
   3  -2  -3  100.80    5.82   1
   3  -2  -2   25.50    2.42   1
   3  -2  -2   23.62    4.08   1
   3  -2  -1   26.21    4.40   1
   3  -2   0   35.52    4.17   1
   3  -2   0   35.16    3.32   1
   3  -2   1   45.56    4.86   1
   3  -2   1   41.73    3.49   1
   3  -2   1   49.28    4.91   1
   3  -2   2  400.40   17.61   1
   3  -2   2  414.53   16.29   1
   3  -2   2  390.85   14.23   1
   3  -2   3   14.90    2.93   1
   3  -2   3   18.15    2.47   1
   3  -2   3   14.14    3.61   1
   3  -2   4    4.00    3.20   1
   3  -2   5   44.36    5.59   1
   3  -2   6    1.02    2.26   1
   3  -2   7  103.63    7.74   1
   3  -2   8   25.50    4.65   1
   3  -2   9    2.02    3.69   1
   3  -2   9    4.00    4.00   1
   3  -2  10   15.52    4.49   1
   3  -2  10   17.06    4.96   1
   3  -2  11   30.36    6.83   1
   3  -2  11   27.25    6.79   1
   3  -2  12   34.34    7.74   1
   3  -2  12   31.81    7.56   1
   3  -2  13   44.22    9.04   1
   3  -2  14    5.71    8.27   1
   3  -1 -12   47.47   10.75   1
   3  -1 -12   56.10   10.94   1
   3  -1 -11  -10.37    7.08   1
   3  -1 -11    0.27    6.36   1
   3  -1 -10   26.11    7.05   1
   3  -1 -10   14.75    6.60   1
   3  -1  -9    2.79    5.18   1
   3  -1  -9    7.13    4.97   1
   3  -1  -8   58.98    7.99   1
   3  -1  -8   75.86    7.84   1
   3  -1  -7   -8.88    4.59   1
   3  -1  -7   -0.34    2.47   1
   3  -1  -7    1.82    3.78   1
   3  -1  -6   29.05    4.10   1
   3  -1  -6   42.12    6.23   1
   3  -1  -6   38.56    5.59   1
   3  -1  -5   38.07    5.06   1
   3  -1  -5   17.39    3.34   1
   3  -1  -5   24.30    5.23   1
   3  -1  -4   45.83    4.87   1
   3  -1  -4   38.56    5.59   1
   3  -1  -4   39.82    4.42   1
   3  -1  -3   -3.46    2.46   1
   3  -1  -3   -5.20    2.37   1
   3  -1  -3   -1.72    3.20   1
   3  -1  -2  187.14   10.40   1
   3  -1  -2  176.36    7.97   1
   3  -1  -2  180.90    9.95   1
   3  -1  -1  115.56    7.74   1
   3  -1   0   10.24    3.20   1
   3  -1   1   -0.76    2.63   1
   3  -1   1    2.82    1.18   1
   3  -1   2   17.64    3.19   1
   3  -1   2   10.11    1.34   1
   3  -1   8  136.19    9.80   1
   3  -1   9   77.62    7.93   1
   3  -1  10   34.34    6.21   1
   3  -1  10   36.60    3.15   1
   3  -1  11   32.83    5.73   1
   3  -1  11   32.72    3.20   1
   3  -1  12    0.83    4.88   1
   3  -1  12    3.35    2.12   1
   3  -1  13   -0.05    4.15   1
   3  -1  14   42.64    9.66   1
   3   0 -12    2.50    7.65   1
   3   0 -12    3.84    8.90   1
   3   0 -11    2.99    6.40   1
   3   0 -11    1.28    4.99   1
   3   0 -10   13.40    6.22   1
   3   0 -10    9.42    6.39   1
   3   0  -9    5.76    3.41   1
   3   0  -9   13.32    5.40   1
   3   0  -9   13.62    6.05   1
   3   0  -8   33.64    4.87   1
   3   0  -8   42.38    6.51   1
   3   0  -8   23.33    6.18   1
   3   0  -7    9.30    4.64   1
   3   0  -7    0.66    3.74   1
   3   0  -7    2.50    2.65   1
   3   0  -6  126.79    9.23   1
   3   0  -6  107.33    8.91   1
   3   0  -6  106.30    7.84   1
   3   0  -5  141.85   10.00   1
   3   0  -5  152.28    9.13   1
   3   0  -5  145.93    9.66   1
   3   0  -4   -2.25    2.31   1
   3   0  -4   -1.80    3.54   1
   3   0  -4    2.59    2.96   1
   3   0  -3   21.16    3.59   1
   3   0  -3   17.81    3.88   1
   3   0  -3   12.89    3.09   1
   3   0  -2   34.81    4.01   1
   3   0  -2   40.07    4.43   1
   3   0  -1  451.99   18.71   1
   3   0  -1  463.97   18.96   1
   3   0   0  402.40   16.85   1
   3   0   0  402.80   16.86   1
   3   0   1  456.68   18.38   1
   3   0   1  456.25   17.94   1
   3   0   2   25.10    3.71   1
   3   0   2   19.01    3.23   1
   3   0   7   31.25    4.92   1
   3   0   7   22.75    2.86   1
   3   0   8   69.39    6.50   1
   3   0   8   64.32    4.81   1
   3   0   9   41.99    6.09   1
   3   0   9   34.22    3.63   1
   3   0  10  154.26   11.43   1
   3   0  10  149.57    8.07   1
   3   0  11   10.69    5.04   1
   3   0  12    5.52    2.96   1
   3   0  12    5.43    5.31   1
   3   0  13    3.50    6.25   1
   3   0  14  104.65    7.37   1
   3   0  14   79.57   10.17   1
   3   1 -11    2.69    4.20   1
   3   1 -11    9.55    6.30   1
   3   1 -11   20.88    8.41   1
   3   1 -10   22.85    6.31   1
   3   1 -10   30.47    5.41   1
   3   1  -9   -0.10    4.38   1
   3   1  -9    3.17    3.56   1
   3   1  -9    4.41    5.12   1
   3   1  -8  213.45   14.32   1
   3   1  -8  196.84   12.63   1
   3   1  -8  198.81   12.13   1
   3   1  -7  502.21   21.96   1
   3   1  -7  522.12   23.31   1
   3   1  -7  490.18   21.70   1
   3   1  -6    2.86    4.29   1
   3   1  -6   -1.44    3.12   1
   3   1  -6   -3.31    3.06   1
   3   1  -5   87.24    7.66   1
   3   1  -5   75.00    6.93   1
   3   1  -5   86.30    7.43   1
   3   1  -4   36.60    4.96   1
   3   1  -4   35.76    4.78   1
   3   1  -4   36.12    4.69   1
   3   1  -3   43.96    5.04   1
   3   1  -3   50.27    5.39   1
   3   1  -3   41.86    4.92   1
   3   1  -2  138.77    8.48   1
   3   1  -2  131.56    8.49   1
   3   1  -1    1.32    2.51   1
   3   1  -1    2.13    2.54   1
   3   1   0   84.09    6.42   1
   3   1   0   73.44    5.83   1
   3   1   1   73.44    3.43   1
   3   1   1   75.86    5.92   1
   3   1   1   72.76    5.80   1
   3   1   2   -1.44    2.04   1
   3   1   3   57.15    4.84   1
   3   1   4   21.07    3.21   1
   3   1   5  137.12    7.26   1
   3   1   6  151.29    8.86   1
   3   1   6  146.89    8.00   1
   3   1   7   72.42    5.28   1
   3   1   7   54.61    5.91   1
   3   1   8   12.11    3.83   1
   3   1   8   17.72    3.12   1
   3   1   9  115.13    7.73   1
   3   1   9  128.82    9.53   1
   3   1  10  263.74   14.94   1
   3   1  10  260.18   12.90   1
   3   1  11    3.03    3.10   1
   3   1  11    7.67    4.82   1
   3   1  12   71.23    6.75   1
   3   1  12   92.16    9.79   1
   3   1  13   35.52    7.75   1
   3   1  13   42.12    5.84   1
   3   1  14    1.06    3.98   1
   3   1  14   -1.00    4.56   1
   3   2 -11   17.64    8.40   1
   3   2 -11   12.67    6.62   1
   3   2 -10    0.28    4.58   1
   3   2 -10    1.59    6.88   1
   3   2 -10    4.88    4.91   1
   3   2  -9   -0.26    4.30   1
   3   2  -9   -0.34    6.03   1
   3   2  -9    9.92    5.10   1
   3   2  -8    2.13    3.85   1
   3   2  -8   -3.13    3.93   1
   3   2  -8   -4.28    4.80   1
   3   2  -7   36.72    5.58   1
   3   2  -7   32.15    5.33   1
   3   2  -7   49.84    7.20   1
   3   2  -6    2.25    4.17   1
   3   2  -6    5.29    3.63   1
   3   2  -6   -0.69    2.87   1
   3   2  -5   -2.07    4.23   1
   3   2  -5    0.83    2.57   1
   3   2  -5    1.23    3.17   1
   3   2  -4   37.70    4.79   1
   3   2  -4   48.72    6.00   1
   3   2  -4   36.24    5.18   1
   3   2  -3  114.06    8.76   1
   3   2  -3  127.46    8.13   1
   3   2  -2  118.59    8.28   1
   3   2  -2  111.94    7.41   1
   3   2  -1  134.33    8.81   1
   3   2  -1  130.42    7.99   1
   3   2   0   -1.14    1.39   1
   3   2   0    3.28    2.97   1
   3   2   1  285.95   13.87   1
   3   2   1  291.04   10.58   1
   3   2   2   91.58    6.51   1
   3   2   2   84.64    4.05   1
   3   2   3   -3.92    2.38   1
   3   2   4   12.46    2.75   1
   3   2   4   12.96    2.81   1
   3   2   5  278.22   12.68   1
   3   2   5  299.98   13.16   1
   3   2   6   26.83    3.94   1
   3   2   6   22.47    3.51   1
   3   2   7   20.43    3.62   1
   3   2   7   22.18    4.14   1
   3   2   8   32.15    4.54   1
   3   2   8   25.00    4.60   1
   3   2   9  137.83    9.86   1
   3   2   9  146.89    9.45   1
   3   2  10    3.03    3.06   1
   3   2  10    1.23    3.86   1
   3   2  11    0.21    4.27   1
   3   2  11   -0.62    3.40   1
   3   2  12   -7.18    5.36   1
   3   2  12   -2.46    3.58   1
   3   2  13    5.71    4.30   1
   3   2  13    6.15    6.05   1
   3   2  14    0.37    6.11   1
   3   2  14   14.44    5.32   1
   3   3 -11  -10.43    9.30   1
   3   3 -11   -4.97    6.15   1
   3   3 -10   67.90   10.71   1
   3   3 -10   47.61    6.90   1
   3   3  -9    3.24    5.22   1
   3   3  -9    3.84    3.88   1
   3   3  -9    2.99    6.68   1
   3   3  -8   89.87    7.96   1
   3   3  -8   93.12    9.46   1
   3   3  -8  101.00   10.85   1
   3   3  -7    1.51    5.24   1
   3   3  -7   -4.67    3.15   1
   3   3  -7    2.79    3.97   1
   3   3  -6   78.15    6.72   1
   3   3  -6   80.28    8.24   1
   3   3  -6   68.89    7.64   1
   3   3  -5   26.32    5.23   1
   3   3  -5   23.91    4.21   1
   3   3  -5   27.35    5.96   1
   3   3  -4   19.71    4.97   1
   3   3  -4   16.00    3.36   1
   3   3  -4   19.80    5.25   1
   3   3  -3  416.98   19.19   1
   3   3  -3  377.52   16.32   1
   3   3  -2    8.07    2.90   1
   3   3  -2    7.62    3.09   1
   3   3  -1  213.74   11.99   1
   3   3  -1  192.65    9.44   1
   3   3   0  416.16   18.77   1
   3   3   0  393.23   15.47   1
   3   3   1   20.25    4.05   1
   3   3   1   16.00    2.48   1
   3   3   2    7.67    3.10   1
   3   3   2    0.59    1.56   1
   3   3   3   37.70    4.54   1
   3   3   3   35.52    4.29   1
   3   3   3   41.09    3.20   1
   3   3   4   20.25    3.24   1
   3   3   4   19.36    3.26   1
   3   3   5  176.09    9.29   1
   3   3   5  168.48    9.86   1
   3   3   5  186.05    8.73   1
   3   3   6    4.84    2.02   1
   3   3   6    6.10    2.87   1
   3   3   6    7.67    3.10   1
   3   3   7  143.52    9.34   1
   3   3   7  147.14    7.52   1
   3   3   7  139.95    8.75   1
   3   3   8  153.26    9.90   1
   3   3   8  145.68    9.66   1
   3   3   9    6.25    3.20   1
   3   3   9    2.86    2.87   1
   3   3  10   43.16    6.44   1
   3   3  10   50.13    6.23   1
   3   3  11   20.16    4.85   1
   3   3  11   30.47    6.07   1
   3   3  12    3.65    4.16   1
   3   3  12    4.54    5.07   1
   3   3  13    0.41    4.74   1
   3   3  13    9.92    4.91   1
   3   3  14    3.17    6.91   1
   3   3  14   23.43    6.49   1
   3   4 -10   72.25   10.54   1
   3   4  -9    5.71    5.74   1
   3   4  -9   -4.00    3.76   1
   3   4  -9    1.19    7.26   1
   3   4  -8    9.61    3.78   1
   3   4  -8   18.49    6.45   1
   3   4  -8   13.47    7.34   1
   3   4  -7    1.77    4.89   1
   3   4  -7   13.99    5.91   1
   3   4  -6  106.50    7.64   1
   3   4  -6  113.00   10.20   1
   3   4  -6  117.72   10.42   1
   3   4  -5   -3.31    4.40   1
   3   4  -5    6.25    4.30   1
   3   4  -4  226.50   13.55   1
   3   4  -4  238.70   14.52   1
   3   4  -3    1.69    3.30   1
   3   4  -3    2.72    4.03   1
   3   4  -2   -2.37    3.94   1
   3   4  -2   -3.42    3.11   1
   3   4  -1   13.25    2.98   1
   3   4  -1    6.71    4.04   1
   3   4   0  252.17   13.97   1
   3   4   0  264.71   12.04   1
   3   4   1   70.73    5.21   1
   3   4   1   75.52    7.13   1
   3   4   2   -0.24    1.95   1
   3   4   2   -1.04    2.94   1
   3   4   3  304.85   12.57   1
   3   4   3  336.36   15.04   1
   3   4   3  301.02   14.57   1
   3   4   4    6.25    2.95   1
   3   4   4    7.02    3.23   1
   3   4   5   63.84    6.39   1
   3   4   5   71.23    5.06   1
   3   4   5   75.52    5.91   1
   3   4   6   72.76    5.80   1
   3   4   6   94.09    6.40   1
   3   4   6   86.12    7.42   1
   3   4   7  432.22   17.46   1
   3   4   7  430.15   19.91   1
   3   4   7  404.81   16.90   1
   3   4   8    1.23    1.93   1
   3   4   8    7.24    3.17   1
   3   4   8    0.17    3.23   1
   3   4   9    7.13    4.06   1
   3   4   9    3.80    3.63   1
   3   4  10  104.45    9.40   1
   3   4  10   92.16    8.64   1
   3   4  11   -3.31    4.26   1
   3   4  11   -1.99    4.26   1
   3   4  12   -4.45    5.06   1
   3   4  12   12.04    5.27   1
   3   4  13  119.46   11.59   1
   3   4  13  135.96   11.66   1
   3   4  14   -2.62    5.80   1
   3   4  14    2.28    5.38   1
   3   5 -10   17.81   10.38   1
   3   5 -10    0.11    7.83   1
   3   5 -10   12.11   10.09   1
   3   5  -9   20.16    7.27   1
   3   5  -9   24.80    8.96   1
   3   5  -8   17.72    8.25   1
   3   5  -8    1.17    5.96   1
   3   5  -8   -0.86    6.36   1
   3   5  -7   -3.69    5.80   1
   3   5  -7   -2.50    4.71   1
   3   5  -7    5.81    5.88   1
   3   5  -6   60.68    8.57   1
   3   5  -6   38.81    7.48   1
   3   5  -5   -0.05    4.17   1
   3   5  -5   -5.34    4.85   1
   3   5  -4   87.98    8.63   1
   3   5  -4   91.97    9.40   1
   3   5  -3   30.58    6.19   1
   3   5  -3   22.66    5.14   1
   3   5  -2    9.42    4.48   1
   3   5  -2   11.90    3.93   1
   3   5  -1   23.33    5.31   1
   3   5  -1   16.48    3.82   1
   3   5   0    4.28    3.11   1
   3   5   0    1.02    3.80   1
   3   5   1  261.79   12.62   1
   3   5   1  264.39   14.63   1
   3   5   2   39.82    5.68   1
   3   5   2   26.11    4.60   1
   3   5   2   37.82    4.30   1
   3   5   3    8.88    3.22   1
   3   5   3    7.95    3.67   1
   3   5   3    7.29    2.86   1
   3   5   4  207.65   11.82   1
   3   5   4  199.66   11.87   1
   3   5   5    0.69    3.17   1
   3   5   5    0.44    2.51   1
   3   5   6   54.46    5.17   1
   3   5   6   50.98    4.57   1
   3   5   6   43.82    5.96   1
   3   5   7   43.82    4.77   1
   3   5   7   33.41    3.93   1
   3   5   7   21.25    5.16   1
   3   5   8   23.33    4.25   1
   3   5   8   15.84    4.78   1
   3   5   8   12.89    2.87   1
   3   5   9   26.52    5.36   1
   3   5   9   24.70    4.87   1
   3   5   9   27.56    3.04   1
   3   5  10    3.06    3.57   1
   3   5  10   -1.93    4.64   1
   3   5  11   29.38    5.53   1
   3   5  11   34.46    7.04   1
   3   5  12   26.11    6.95   1
   3   5  12   32.38    6.60   1
   3   5  13    1.23    5.95   1
   3   5  13    7.78    6.08   1
   3   6  -9   -5.43    8.99   1
   3   6  -9   -1.77    7.05   1
   3   6  -8    3.28    7.20   1
   3   6  -8    5.11    7.96   1
   3   6  -7   -0.35    6.22   1
   3   6  -7    3.42    5.00   1
   3   6  -6   -2.62    5.96   1
   3   6  -6  -13.40    6.73   1
   3   6  -5   41.47    7.86   1
   3   6  -5   42.38    7.81   1
   3   6  -4   72.25    8.50   1
   3   6  -4   78.68    8.87   1
   3   6  -3  137.36   10.31   1
   3   6  -3  111.09   10.75   1
   3   6  -2    5.95    4.34   1
   3   6  -2   -2.56    3.55   1
   3   6  -1  126.79    9.46   1
   3   6  -1  140.66   11.15   1
   3   6   0  243.36   13.10   1
   3   6   0  255.68   15.35   1
   3   6   1   59.14    6.15   1
   3   6   1   53.14    7.14   1
   3   6   2   34.93    5.56   1
   3   6   2   35.40    4.76   1
   3   6   2   40.32    5.59   1
   3   6   3    7.78    3.46   1
   3   6   3    6.45    3.15   1
   3   6   4   -1.64    3.58   1
   3   6   4   -5.57    3.96   1
   3   6   5    3.42    3.33   1
   3   6   5    7.62    3.92   1
   3   6   6    2.37    3.14   1
   3   6   6   -2.72    2.05   1
   3   6   6   -0.21    3.30   1
   3   6   7  225.30   10.81   1
   3   6   7  234.40   14.39   1
   3   6   7  236.85   12.00   1
   3   6   8   75.69    6.44   1
   3   6   8   70.06    5.69   1
   3   6   8   55.65    7.16   1
   3   6   9   -4.58    5.26   1
   3   6   9    2.19    3.37   1
   3   6   9    2.07    2.30   1
   3   6  10   58.98    8.14   1
   3   6  10   58.37    7.03   1
   3   6  11    7.56    6.11   1
   3   6  11   -0.66    4.24   1
   3   6  12   -5.02    5.56   1
   3   6  12   -1.56    6.03   1
   3   6  13   22.28    7.46   1
   3   6  13   26.21    8.29   1
   3   7  -8   -6.55    9.47   1
   3   7  -8    2.28    8.91   1
   3   7  -7   68.39   10.09   1
   3   7  -7   48.58   10.73   1
   3   7  -6   18.58    7.76   1
   3   7  -6  -12.82    7.37   1
   3   7  -5   -1.66    5.86   1
   3   7  -5    4.93    5.02   1
   3   7  -4   24.11    7.66   1
   3   7  -4   46.10    8.01   1
   3   7  -3   -2.02    4.97   1
   3   7  -3    8.70    5.78   1
   3   7  -2   -0.23    4.68   1
   3   7  -2    4.58    4.67   1
   3   7  -1   65.12    8.55   1
   3   7  -1   56.55    7.37   1
   3   7   0   87.24    8.22   1
   3   7   0   70.56    8.57   1
   3   7   1  101.61    8.67   1
   3   7   1   94.48    9.53   1
   3   7   2    2.99    3.25   1
   3   7   2    0.08    3.32   1
   3   7   2   -3.13    4.07   1
   3   7   3  148.11   11.44   1
   3   7   3  159.01   11.60   1
   3   7   3  157.75   10.55   1
   3   7   4    0.86    3.50   1
   3   7   4    6.86    4.40   1
   3   7   4   10.18    4.21   1
   3   7   5    1.35    3.80   1
   3   7   5   11.70    3.97   1
   3   7   6   21.44    3.06   1
   3   7   6   16.56    4.64   1
   3   7   7   11.22    5.29   1
   3   7   7   -1.30    3.83   1
   3   7   7    1.77    2.77   1
   3   7   8    4.33    3.29   1
   3   7   8   12.39    5.98   1
   3   7   8    3.69    2.96   1
   3   7   9   29.05    4.96   1
   3   7   9   32.95    4.59   1
   3   7   9   23.23    5.78   1
   3   7  10   -0.19    2.34   1
   3   7  10    8.01    4.47   1
   3   7  10    4.58    6.25   1
   3   7  11    0.45    6.69   1
   3   7  12   -5.81    5.93   1
   3   7  12    0.66    7.34   1
   3   8  -7   10.30    9.50   1
   3   8  -6    0.90    7.89   1
   3   8  -6   17.89   10.66   1
   3   8  -5    5.95    7.66   1
   3   8  -5   -0.25    7.38   1
   3   8  -4   -0.66    5.04   1
   3   8  -4    2.16    5.79   1
   3   8  -3   15.44    7.07   1
   3   8  -3   -4.33    6.24   1
   3   8  -2   -3.50    5.16   1
   3   8  -2   11.42    6.35   1
   3   8  -1  149.08   11.97   1
   3   8  -1  136.19   12.60   1
   3   8   0  -10.11    5.15   1
   3   8   0   -3.50    4.82   1
   3   8   1   17.14    5.13   1
   3   8   1   24.30    5.62   1
   3   8   2    5.52    3.62   1
   3   8   2   -4.84    3.52   1
   3   8   2    6.30    4.97   1
   3   8   3   -5.20    4.83   1
   3   8   3   -2.79    4.14   1
   3   8   3   -2.82    4.37   1
   3   8   4  241.80   14.62   1
   3   8   4  202.78   14.24   1
   3   8   4  195.72   12.87   1
   3   8   5  135.96   10.73   1
   3   8   5  142.32   11.93   1
   3   8   6   -7.90    5.79   1
   3   8   6   11.76    4.73   1
   3   8   7   12.32    4.77   1
   3   8   7    1.12    5.53   1
   3   8   7   11.02    2.99   1
   3   8   8    3.53    6.02   1
   3   8   8    5.57    4.39   1
   3   8   8   14.75    3.76   1
   3   8   9   67.24    6.56   1
   3   8   9   69.89   10.20   1
   3   8   9   72.25    6.80   1
   3   8  10    1.30    4.17   1
   3   8  10    6.45    3.66   1
   3   8  10    5.34    7.35   1
   3   8  11   41.09    6.79   1
   3   8  11   25.40    8.77   1
   3   9  -5   -1.64    8.65   1
   3   9  -4   -6.25    8.15   1
   3   9  -3   38.19   10.01   1
   3   9  -3   52.27    9.25   1
   3   9  -2   50.84    9.13   1
   3   9  -1   -0.90    5.61   1
   3   9  -1    0.77    5.97   1
   3   9   0   51.84    7.92   1
   3   9   0   54.46    9.15   1
   3   9   1   14.52    5.94   1
   3   9   1   18.49    6.36   1
   3   9   2   -7.73    5.78   1
   3   9   2    3.50    5.27   1
   3   9   2    1.19    5.49   1
   3   9   3   15.92    6.14   1
   3   9   3   24.40    5.93   1
   3   9   3   11.42    6.02   1
   3   9   4    5.95    5.76   1
   3   9   4    0.38    5.25   1
   3   9   5   30.14    7.80   1
   3   9   5   41.09    7.44   1
   3   9   6    2.96    5.13   1
   3   9   6    4.58    6.08   1
   3   9   7   19.89    5.89   1
   3   9   7    9.86    6.66   1
   3   9   8    2.66    4.96   1
   3   9   8   -1.39    2.76   1
   3   9   8   -4.16    7.14   1
   3   9   9   -2.72    3.60   1
   3   9   9    0.37    5.15   1
   3   9   9    8.82    7.90   1
   3   9  10    7.45    4.75   1
   3   9  10    8.12   10.20   1
   3  10  -3    2.07    8.06   1
   3  10  -2   -5.81    8.19   1
   3  10  -1    7.90    7.59   1
   3  10  -1    5.90    7.87   1
   3  10   0    0.83    6.77   1
   3  10   0   -0.66    5.05   1
   3  10   1   10.30    6.87   1
   3  10   1    2.56    6.53   1
   3  10   2    0.79    6.71   1
   3  10   2  -10.24    7.10   1
   3  10   3   26.83    7.67   1
   3  10   3   18.40    7.64   1
   3  10   3   29.81    7.64   1
   3  10   4    4.62    6.66   1
   3  10   4    3.69    6.95   1
   3  10   5    2.34    6.98   1
   3  10   5    4.62    6.49   1
   3  10   6   97.81   10.88   1
   3  10   6   76.91   11.40   1
   3  10   7    3.53    7.86   1
   3  10   7   10.82    6.91   1
   3  10   8   13.47    7.41   1
   3  10   8    2.10    9.66   1
   3  11   2  104.65   13.09   1
   3  11   3    3.88    9.93   1
   3  11   3   -2.19    7.64   1
   3  11   3    4.62    8.08   1
   3  11   4    9.49    8.13   1
   3  11   4    5.15    8.35   1
   3  11   5   54.32   10.47   1
   4 -10  -2   -7.18    8.20   1
   4 -10  -2   23.14    9.24   1
   4 -10  -1    5.81    7.18   1
   4 -10  -1   16.89    9.54   1
   4 -10   0   -4.80    7.18   1
   4 -10   0    1.44    8.23   1
   4 -10   1    5.86    6.24   1
   4 -10   1    2.50    7.90   1
   4 -10   2   15.76    5.95   1
   4 -10   2    3.61    9.04   1
   4 -10   3    4.62    6.92   1
   4 -10   3    8.35    5.38   1
   4  -9  -5   -0.48    7.07   1
   4  -9  -5   16.89    9.45   1
   4  -9  -4   11.22    7.37   1
   4  -9  -3    0.71    7.24   1
   4  -9  -3  -16.40    7.94   1
   4  -9  -3   -3.92    6.10   1
   4  -9  -2    3.39    6.66   1
   4  -9  -2   -8.58    7.44   1
   4  -9  -2    1.74    6.42   1
   4  -9  -1   17.31    6.74   1
   4  -9  -1   29.81    7.32   1
   4  -9  -1    5.43    6.48   1
   4  -9   0   -0.64    6.67   1
   4  -9   0   -5.15    7.17   1
   4  -9   0   -3.20    5.69   1
   4  -9   1   24.50    8.32   1
   4  -9   1   38.32    8.67   1
   4  -9   2   68.06   11.06   1
   4  -9   2   94.48   11.28   1
   4  -9   2  102.01    9.09   1
   4  -9   3   -5.06    5.40   1
   4  -9   3    8.01    5.77   1
   4  -9   3    7.34    4.61   1
   4  -9   4    6.25    7.45   1
   4  -9   4    7.29    7.99   1
   4  -9   4   18.32    4.54   1
   4  -9   5   21.53    7.52   1
   4  -9   5   26.11    4.60   1
   4  -9   6   38.81   11.59   1
   4  -8  -7   67.24   12.96   1
   4  -8  -6    2.34    5.42   1
   4  -8  -6    8.35    8.27   1
   4  -8  -5    1.12    5.81   1
   4  -8  -5   12.46    7.06   1
   4  -8  -5   18.15    6.22   1
   4  -8  -4   -3.20    7.20   1
   4  -8  -4   -3.50    5.91   1
   4  -8  -4  -13.32    7.66   1
   4  -8  -3   48.02    8.18   1
   4  -8  -3   62.73    9.50   1
   4  -8  -3   45.56    8.91   1
   4  -8  -2   -8.88    6.44   1
   4  -8  -2   -6.20    6.03   1
   4  -8  -2    3.53    5.26   1
   4  -8  -1   -3.17    4.56   1
   4  -8  -1   -0.77    5.16   1
   4  -8  -1  -11.02    5.98   1
   4  -8   0   15.37    6.35   1
   4  -8   0   22.00    6.10   1
   4  -8   0   34.57    6.70   1
   4  -8   1   16.40    6.56   1
   4  -8   1   21.72    5.78   1
   4  -8   1   27.77    7.06   1
   4  -8   2   60.84    8.42   1
   4  -8   2   42.64    6.14   1
   4  -8   2   44.76    7.89   1
   4  -8   3   32.26    5.68   1
   4  -8   3   16.81    5.99   1
   4  -8   3   17.47    7.27   1
   4  -8   4   14.82    7.31   1
   4  -8   4   -3.46    3.57   1
   4  -8   4    3.72    4.90   1
   4  -8   5   32.15    7.71   1
   4  -8   5   38.94    4.62   1
   4  -8   5   17.72    8.34   1
   4  -8   5   42.90    4.85   1
   4  -8   6    3.84    3.65   1
   4  -8   6    2.19    6.69   1
   4  -8   7   29.38    9.86   1
   4  -8   8   18.49    6.28   1
   4  -8   8   15.76   10.16   1
   4  -7  -8   20.16   10.15   1
   4  -7  -7  109.41   14.02   1
   4  -7  -7   94.48   13.41   1
   4  -7  -6    3.42    7.40   1
   4  -7  -6    1.14    4.15   1
   4  -7  -6    0.00    1.00   1
   4  -7  -5   12.39    5.63   1
   4  -7  -5    7.95    4.74   1
   4  -7  -4   30.58    6.41   1
   4  -7  -4   27.04    6.24   1
   4  -7  -4   29.05    7.76   1
   4  -7  -3   25.00    5.60   1
   4  -7  -3   13.25    5.39   1
   4  -7  -3   32.83    7.11   1
   4  -7  -2   16.81    6.07   1
   4  -7  -2   27.46    6.50   1
   4  -7  -2    9.30    5.12   1
   4  -7  -1   62.88    7.93   1
   4  -7  -1   55.35    7.89   1
   4  -7  -1   57.91    7.91   1
   4  -7   0    8.70    5.31   1
   4  -7   0    7.40    5.11   1
   4  -7   0   10.18    4.85   1
   4  -7   1   -4.58    5.18   1
   4  -7   1    1.44    4.75   1
   4  -7   1   -0.14    3.93   1
   4  -7   2   -3.20    5.23   1
   4  -7   2    2.28    3.65   1
   4  -7   2    1.21    4.33   1
   4  -7   3   84.09    7.52   1
   4  -7   3   54.61    8.87   1
   4  -7   3   88.55    8.85   1
   4  -7   4    3.92    3.41   1
   4  -7   4    6.92    5.15   1
   4  -7   4    8.07    5.96   1
   4  -7   5   15.92    3.75   1
   4  -7   5   17.47    7.11   1
   4  -7   5   13.32    6.06   1
   4  -7   5   12.25    3.36   1
   4  -7   6    0.17    6.08   1
   4  -7   6   10.69    3.86   1
   4  -7   7   13.10    7.82   1
   4  -7   7    9.99    4.23   1
   4  -7   8    4.54    4.73   1
   4  -7   8   -0.53    7.53   1
   4  -7   9    9.00    8.28   1
   4  -7   9   -1.37    5.83   1
   4  -6  -9   18.15   10.22   1
   4  -6  -9   12.39    5.21   1
   4  -6  -8   16.89    6.99   1
   4  -6  -8    8.64    8.88   1
   4  -6  -7   -0.88    3.20   1
   4  -6  -7    6.50    7.45   1
   4  -6  -7    5.81    6.51   1
   4  -6  -6   -3.06    6.55   1
   4  -6  -6    0.16    5.44   1
   4  -6  -6    3.24    2.34   1
   4  -6  -5    1.69    3.85   1
   4  -6  -5   -1.96    5.80   1
   4  -6  -5    6.10    6.27   1
   4  -6  -4   19.36    6.69   1
   4  -6  -4   26.63    5.88   1
   4  -6  -4   20.79    5.02   1
   4  -6  -3    0.94    3.72   1
   4  -6  -3    3.96    4.66   1
   4  -6  -3    1.54    4.89   1
   4  -6  -2   12.18    4.68   1
   4  -6  -2   19.71    6.13   1
   4  -6  -2   13.76    5.19   1
   4  -6  -1  206.78   13.80   1
   4  -6  -1  187.69   13.15   1
   4  -6  -1  212.58   12.83   1
   4  -6   0    3.88    4.33   1
   4  -6   0   -0.50    4.16   1
   4  -6   0    3.65    4.20   1
   4  -6   1   -0.59    4.20   1
   4  -6   1    5.15    3.59   1
   4  -6   2   -0.88    4.32   1
   4  -6   2    2.50    3.48   1
   4  -6   2   -2.34    3.73   1
   4  -6   3    1.61    3.89   1
   4  -6   3    8.58    5.22   1
   4  -6   3   12.60    3.76   1
   4  -6   4   -0.96    3.80   1
   4  -6   4    4.24    3.01   1
   4  -6   4    1.21    4.69   1
   4  -6   5    8.07    5.91   1
   4  -6   5   -1.90    4.66   1
   4  -6   5    5.76    3.02   1
   4  -6   6   34.93    4.73   1
   4  -6   6   26.73    7.44   1
   4  -6   7    0.76    3.51   1
   4  -6   7    2.89    6.39   1
   4  -6   8    1.85    6.64   1
   4  -6   8   -0.90    3.95   1
   4  -6   9  121.66   10.15   1
   4  -6   9   92.93   11.95   1
   4  -6  10    2.19    7.93   1
   4  -6  10   17.14    6.71   1
   4  -6  11    1.00    6.42   1
   4  -5  -9    4.28    4.80   1
   4  -5  -9   10.82    8.62   1
   4  -5  -8   22.47    4.93   1
   4  -5  -8   28.52    8.97   1
   4  -5  -7    4.00    6.44   1
   4  -5  -7    1.37    3.46   1
   4  -5  -6   -6.20    6.42   1
   4  -5  -6    7.02    6.04   1
   4  -5  -6    4.33    2.50   1
   4  -5  -5   26.01    7.14   1
   4  -5  -5   27.56    3.04   1
   4  -5  -5   19.45    4.94   1
   4  -5  -4   -6.81    4.70   1
   4  -5  -4    5.29    3.27   1
   4  -5  -4    0.10    4.65   1
   4  -5  -3   65.77    8.60   1
   4  -5  -3   76.91    7.54   1
   4  -5  -3   74.65    7.26   1
   4  -5  -2   28.41    5.22   1
   4  -5  -2   21.07    5.78   1
   4  -5  -2   31.36    5.26   1
   4  -5  -1    6.66    3.87   1
   4  -5  -1    2.43    4.15   1
   4  -5  -1    4.45    3.67   1
   4  -5   0   13.84    4.61   1
   4  -5   0   14.59    4.58   1
   4  -5   0   12.82    3.94   1
   4  -5   1   10.37    3.99   1
   4  -5   1    7.56    4.07   1
   4  -5   2   -3.10    3.45   1
   4  -5   2    2.76    3.29   1
   4  -5   2   -5.29    3.54   1
   4  -5   3  107.12    9.94   1
   4  -5   3  106.92    8.07   1
   4  -5   3  109.62    7.96   1
   4  -5   4   18.06    3.74   1
   4  -5   4   19.10    4.37   1
   4  -5   4    9.86    4.90   1
   4  -5   5    5.06    3.91   1
   4  -5   6   15.52    5.91   1
   4  -5   7   83.91    7.14   1
   4  -5   7   67.57    9.21   1
   4  -5   8    6.81    6.11   1
   4  -5   8    3.53    3.76   1
   4  -5   9   -6.45    6.65   1
   4  -5   9   -4.20    4.35   1
   4  -5  10   11.83    5.99   1
   4  -5  11   -2.59    6.67   1
   4  -4 -10   -1.44    5.86   1
   4  -4 -10  -16.00    8.16   1
   4  -4  -9   -5.52    7.90   1
   4  -4  -9    0.62    4.57   1
   4  -4  -8   26.21    5.43   1
   4  -4  -8   24.90    8.08   1
   4  -4  -7   94.87   11.10   1
   4  -4  -7   89.30    7.56   1
   4  -4  -6   -8.12    5.87   1
   4  -4  -6   -4.58    3.17   1
   4  -4  -5   68.06    9.07   1
   4  -4  -5   70.22    5.36   1
   4  -4  -4   98.60    9.93   1
   4  -4  -4  130.64    9.60   1
   4  -4  -4  111.09    5.90   1
   4  -4  -3   34.22    6.32   1
   4  -4  -3   24.01    5.00   1
   4  -4  -2   -0.29    2.52   1
   4  -4  -2    1.42    2.95   1
   4  -4  -2    5.66    4.43   1
   4  -4  -1   34.22    5.03   1
   4  -4  -1   41.47    5.02   1
   4  -4  -1   37.58    6.01   1
   4  -4   0   20.61    4.36   1
   4  -4   0   19.80    4.72   1
   4  -4   0   17.72    3.70   1
   4  -4   1    5.20    3.42   1
   4  -4   1    4.33    3.58   1
   4  -4   1    2.31    2.68   1
   4  -4   2   23.14    4.43   1
   4  -4   2   34.69    5.65   1
   4  -4   2   24.01    3.82   1
   4  -4   3   86.49    8.56   1
   4  -4   3   84.09    6.79   1
   4  -4   3   85.19    6.46   1
   4  -4   4   59.75    7.58   1
   4  -4   4   64.16    5.77   1
   4  -4   4   53.44    5.41   1
   4  -4   5   14.67    4.06   1
   4  -4   6   35.64    6.57   1
   4  -4   7   -9.80    5.57   1
   4  -4   8    1.90    5.22   1
   4  -3 -10   -0.76    7.34   1
   4  -3 -10   -3.57    5.93   1
   4  -3  -9   -5.62    7.54   1
   4  -3  -9   13.18    5.59   1
   4  -3  -8   59.60    9.88   1
   4  -3  -8   61.47    7.37   1
   4  -3  -7    5.38    3.80   1
   4  -3  -7   -3.88    6.15   1
   4  -3  -6   25.00    7.00   1
   4  -3  -6   32.95    4.82   1
   4  -3  -5  123.65    7.56   1
   4  -3  -5  112.78   10.83   1
   4  -3  -4    7.08    2.61   1
   4  -3  -4   -1.08    4.20   1
   4  -3  -3    6.81    3.45   1
   4  -3  -2   14.82    3.54   1
   4  -3  -2    8.53    4.38   1
   4  -3  -1   10.37    3.09   1
   4  -3  -1   15.60    4.35   1
   4  -3   0    0.64    2.22   1
   4  -3   0   12.96    4.03   1
   4  -3   1   31.14    5.02   1
   4  -3   1   25.60    3.44   1
   4  -3   1   26.11    4.70   1
   4  -3   2    4.41    2.23   1
   4  -3   2    1.85    3.21   1
   4  -3   2    2.16    3.23   1
   4  -3   3    3.80    2.22   1
   4  -3   3    5.62    3.51   1
   4  -3   3    3.24    2.95   1
   4  -3   4   53.73    6.89   1
   4  -3   4   54.46    4.58   1
   4  -3   4   55.50    5.36   1
   4  -3   5  209.67   13.61   1
   4  -2 -10   -3.84    7.60   1
   4  -2 -10   12.11    6.61   1
   4  -2  -9    3.20    5.41   1
   4  -2  -9    3.80    6.43   1
   4  -2  -8    5.81    5.88   1
   4  -2  -8    8.58    5.04   1
   4  -2  -7   41.34    7.84   1
   4  -2  -7   36.00    6.00   1
   4  -2  -6    0.42    3.18   1
   4  -2  -6    3.13    4.67   1
   4  -2  -5  122.99   10.65   1
   4  -2  -5  127.24    8.12   1
   4  -2  -4   16.81    4.84   1
   4  -2  -4   12.82    3.29   1
   4  -2  -3   -0.96    3.72   1
   4  -2  -2   62.73    7.13   1
   4  -2  -1   -3.61    3.27   1
   4  -2   0 2076.62   67.44   1
   4  -2   0 1951.87   61.85   1
   4  -2   1 2251.50   73.07   1
   4  -2   1 2123.37   67.28   1
   4  -2   2   27.14    4.48   1
   4  -2   2   36.36    3.26   1
   4  -2   3   16.08    2.25   1
   4  -2   3   15.37    3.45   1
   4  -1 -11   26.94    9.45   1
   4  -1 -11   -6.81    8.40   1
   4  -1 -10   -8.58    7.79   1
   4  -1 -10   -2.79    6.51   1
   4  -1  -9    1.32    5.50   1
   4  -1  -9   -0.66    5.26   1
   4  -1  -8   42.12    7.14   1
   4  -1  -8   38.94    7.86   1
   4  -1  -7   29.92    7.00   1
   4  -1  -7   28.30    5.53   1
   4  -1  -6   21.53    4.64   1
   4  -1  -6   26.01    5.00   1
   4  -1  -6   20.52    5.44   1
   4  -1  -5    0.88    2.95   1
   4  -1  -5    0.85    3.26   1
   4  -1  -5    1.99    4.68   1
   4  -1  -4  285.95   15.90   1
   4  -1  -4  258.57   12.86   1
   4  -1  -4  269.94   14.46   1
   4  -1  -3   33.52    5.67   1
   4  -1  -2   23.62    4.86   1
   4  -1  -1   81.18    7.39   1
   4  -1   0  150.31    9.81   1
   4  -1   1   61.94    6.30   1
   4  -1   1   54.76    3.55   1
   4  -1   2  107.33    4.77   1
   4  -1   2  102.01    7.47   1
   4  -1   3   84.27    6.43   1
   4  -1   3   80.64    3.77   1
   4   0 -11   19.98    9.39   1
   4   0 -11   20.88    8.96   1
   4   0 -10   -0.67    6.48   1
   4   0 -10   -2.16    5.12   1
   4   0 -10   10.43    7.24   1
   4   0  -9    4.58    6.08   1
   4   0  -9    6.10    4.45   1
   4   0  -9   19.10    6.73   1
   4   0  -8   35.52    7.03   1
   4   0  -8   20.52    5.16   1
   4   0  -8   18.66    6.22   1
   4   0  -7    7.73    5.00   1
   4   0  -7    2.22    3.67   1
   4   0  -6    7.62    4.25   1
   4   0  -6    3.72    4.48   1
   4   0  -5   38.19    6.30   1
   4   0  -5   49.98    5.94   1
   4   0  -5   54.46    6.35   1
   4   0  -4   -0.12    3.44   1
   4   0  -4    5.34    3.42   1
   4   0  -3   57.15    6.35   1
   4   0  -3   74.30    7.24   1
   4   0  -2    4.93    2.71   1
   4   0  -2    8.94    3.35   1
   4   0  -1   24.30    4.63   1
   4   0  -1   19.71    4.00   1
   4   0   0    3.88    3.35   1
   4   0   0   12.60    3.48   1
   4   0   1    5.38    3.16   1
   4   0   1    1.82    2.94   1
   4   0   2  122.32    8.41   1
   4   0   2  107.54    8.09   1
   4   0  11    6.97    5.07   1
   4   0  12    6.50    5.97   1
   4   0  13    7.95    6.20   1
   4   0  14    1.85    6.99   1
   4   1 -10    2.62    5.38   1
   4   1 -10   -2.92    6.84   1
   4   1 -10    2.40    6.45   1
   4   1  -9   31.36    7.73   1
   4   1  -9   14.59    5.35   1
   4   1  -9   19.01    6.63   1
   4   1  -8   -0.56    4.11   1
   4   1  -8    1.21    5.08   1
   4   1  -8   -4.37    4.64   1
   4   1  -7   -1.17    4.58   1
   4   1  -7    1.19    5.01   1
   4   1  -7    2.25    3.96   1
   4   1  -6   38.19    6.55   1
   4   1  -6   43.69    6.74   1
   4   1  -6   35.64    5.85   1
   4   1  -5   33.29    5.77   1
   4   1  -5   28.62    5.46   1
   4   1  -5   32.04    5.21   1
   4   1  -4   14.67    4.29   1
   4   1  -4   13.32    4.16   1
   4   1  -3   67.73    7.08   1
   4   1  -3   60.84    6.55   1
   4   1  -2  427.25   19.02   1
   4   1  -2  418.61   19.23   1
   4   1  -1   67.90    6.26   1
   4   1  -1   58.83    6.29   1
   4   1   0   -2.99    3.11   1
   4   1   0    1.99    2.93   1
   4   1   1   73.62    6.35   1
   4   1   1   67.90    6.43   1
   4   1   2   11.22    3.42   1
   4   1   3   57.30    5.45   1
   4   1   4  144.96    8.91   1
   4   1   8    1.46    2.37   1
   4   1   9    2.66    2.64   1
   4   1   9   -4.97    3.61   1
   4   1  10   15.05    3.65   1
   4   1  10    6.10    4.00   1
   4   1  11   79.03    8.89   1
   4   1  11   89.30    7.18   1
   4   1  12    8.29    3.74   1
   4   1  13   27.56    5.04   1
   4   1  13   20.34    6.67   1
   4   1  14   14.90    4.86   1
   4   1  14    9.92    7.12   1
   4   2 -10   -7.34    6.67   1
   4   2 -10    4.04    5.91   1
   4   2 -10    0.34    7.40   1
   4   2  -9   -2.62    5.05   1
   4   2  -9    2.86    5.17   1
   4   2  -9   -0.61    5.04   1
   4   2  -8   99.20   10.96   1
   4   2  -8   89.87    9.67   1
   4   2  -8   98.01    9.50   1
   4   2  -7   22.00    6.38   1
   4   2  -7    5.34    4.71   1
   4   2  -7    9.99    5.31   1
   4   2  -6   54.46    7.08   1
   4   2  -6   64.48    8.19   1
   4   2  -6   52.27    7.09   1
   4   2  -5   41.86    6.08   1
   4   2  -5   55.50    6.70   1
   4   2  -5   61.47    7.21   1
   4   2  -4   21.90    4.96   1
   4   2  -4   29.81    5.13   1
   4   2  -3    8.47    3.78   1
   4   2  -3    9.18    3.94   1
   4   2  -2   43.69    5.95   1
   4   2  -2   42.25    5.46   1
   4   2  -1    5.76    3.41   1
   4   2  -1    8.88    3.04   1
   4   2   0   12.74    2.28   1
   4   2   0   21.25    4.43   1
   4   2   1    8.47    1.75   1
   4   2   1    9.06    3.43   1
   4   2   2  477.42   20.54   1
   4   2   2  462.25   15.05   1
   4   2   3   80.82    6.83   1
   4   2   4   45.97    5.02   1
   4   2   5    8.24    3.04   1
   4   2   6   36.24    4.45   1
   4   2   7   97.42    7.11   1
   4   2   8   24.30    4.24   1
   4   2   9  147.87    9.48   1
   4   2   9  155.50   10.23   1
   4   2  10   22.28    4.53   1
   4   2  10   27.14    5.63   1
   4   2  11   -3.28    3.69   1
   4   2  11    2.02    4.74   1
   4   2  12   31.81    7.11   1
   4   2  12   46.92    6.16   1
   4   2  13    0.03    3.90   1
   4   2  13   16.40    6.80   1
   4   2  14   11.76    7.34   1
   4   2  14   19.36    5.81   1
   4   3 -10   -1.99    6.18   1
   4   3 -10   -3.39    8.57   1
   4   3 -10   -2.69    7.15   1
   4   3  -9    4.41    7.69   1
   4   3  -9   -5.86    6.29   1
   4   3  -9   -2.99    5.19   1
   4   3  -8   55.20    7.43   1
   4   3  -8   36.12    7.81   1
   4   3  -8   60.22    9.62   1
   4   3  -7    1.04    5.00   1
   4   3  -7   -3.24    4.28   1
   4   3  -7    4.49    6.15   1
   4   3  -6    1.77    4.52   1
   4   3  -6    2.22    3.72   1
   4   3  -5   38.69    5.47   1
   4   3  -5   32.15    6.35   1
   4   3  -4   33.52    5.10   1
   4   3  -4   21.16    5.34   1
   4   3  -3   -1.82    2.86   1
   4   3  -3    4.62    3.05   1
   4   3  -2  125.44    8.74   1
   4   3  -2  112.15    9.32   1
   4   3  -2  124.10    8.24   1
   4   3  -1    4.88    4.02   1
   4   3  -1    0.96    2.12   1
   4   3   0    9.12    4.05   1
   4   3   0    6.76    2.34   1
   4   3   1   -1.96    3.44   1
   4   3   1    2.56    1.73   1
   4   3   2  668.74   26.38   1
   4   3   2  620.01   21.41   1
   4   3   3  108.58    5.42   1
   4   3   3  113.64    8.31   1
   4   3   4  134.79    9.06   1
   4   3   5  245.24   12.84   1
   4   3   6   15.05    3.41   1
   4   3   6   12.60    3.76   1
   4   3   7   64.00    6.56   1
   4   3   7   76.74    6.13   1
   4   3   8  301.02   15.27   1
   4   3   8  307.65   15.08   1
   4   3   9    7.95    3.61   1
   4   3   9   13.54    4.42   1
   4   3  10    4.75    4.01   1
   4   3  10    8.88    4.53   1
   4   3  11   -0.01    3.43   1
   4   3  11   -1.82    3.92   1
   4   3  12    7.78    4.58   1
   4   3  12    7.67    5.37   1
   4   3  13   -4.08    6.14   1
   4   3  13   -3.06    4.72   1
   4   3  14    2.76    7.04   1
   4   3  14    6.45    5.54   1
   4   4  -9   41.60   10.19   1
   4   4  -9   12.25    7.70   1
   4   4  -9   24.30    6.01   1
   4   4  -8    0.56    4.50   1
   4   4  -8   -1.19    5.73   1
   4   4  -7   13.69    4.59   1
   4   4  -7    5.48    5.90   1
   4   4  -6   38.56    7.45   1
   4   4  -6   53.73    6.45   1
   4   4  -5    8.35    5.26   1
   4   4  -5   17.64    5.71   1
   4   4  -4   16.97    5.60   1
   4   4  -4   24.30    5.42   1
   4   4  -3    9.30    3.54   1
   4   4  -3    5.43    4.80   1
   4   4  -2  193.49   10.85   1
   4   4  -2  186.87   13.40   1
   4   4  -1  180.10   12.61   1
   4   4  -1  166.15    9.80   1
   4   4   0   17.64    3.36   1
   4   4   0   13.99    4.71   1
   4   4   1  128.14   10.19   1
   4   4   1  135.26    7.68   1
   4   4   2   32.60    3.54   1
   4   4   2   28.73    5.15   1
   4   4   3    5.81    3.62   1
   4   4   3    0.77    2.06   1
   4   4   4   90.06    7.59   1
   4   4   5   12.46    3.60   1
   4   4   5    5.57    3.49   1
   4   4   6   10.05    3.42   1
   4   4   6    0.92    3.36   1
   4   4   7   23.43    3.87   1
   4   4   7   19.10    4.63   1
   4   4   8  252.17   14.29   1
   4   4   8  230.13   12.14   1
   4   4   8  218.15   11.23   1
   4   4   9   65.77    6.81   1
   4   4   9   49.56    6.76   1
   4   4  10    6.05    4.53   1
   4   4  10   11.70    4.58   1
   4   4  11   58.98    7.83   1
   4   4  11   66.42    7.99   1
   4   4  12    1.77    5.27   1
   4   4  12   13.03    5.13   1
   4   4  13    6.97    6.28   1
   4   4  13    5.90    5.39   1
   4   4  14   43.16    8.28   1
   4   4  14   28.73    8.47   1
   4   5  -9  -12.18    9.00   1
   4   5  -9    2.89    9.21   1
   4   5  -8   10.30    7.06   1
   4   5  -8   13.76    8.09   1
   4   5  -7    1.61    5.64   1
   4   5  -7    3.92    6.81   1
   4   5  -6   26.83    7.36   1
   4   5  -6   14.44    6.16   1
   4   5  -5   53.73    7.77   1
   4   5  -5   37.21    8.30   1
   4   5  -4   12.82    5.51   1
   4   5  -3   66.75    7.35   1
   4   5  -3   63.20    8.74   1
   4   5  -2   75.69    7.31   1
   4   5  -2   66.91    8.34   1
   4   5  -1  283.59   16.84   1
   4   5  -1  257.28   13.47   1
   4   5   0  196.84   13.75   1
   4   5   0  211.41   11.34   1
   4   5   1    2.31    4.20   1
   4   5   1    2.10    2.64   1
   4   5   2   13.40    4.76   1
   4   5   2   24.60    3.67   1
   4   5   3    4.54    2.51   1
   4   5   3   -1.23    3.55   1
   4   5   4   62.88    6.82   1
   4   5   4   49.14    6.45   1
   4   5   5   21.34    4.90   1
   4   5   5   20.98    4.49   1
   4   5   6  110.46    8.20   1
   4   5   6  110.25    9.24   1
   4   5   7   -1.56    2.95   1
   4   5   7    4.24    4.33   1
   4   5   8   25.30    4.43   1
   4   5   8   31.70    6.08   1
   4   5   8   25.81    3.96   1
   4   5   9   42.90    5.89   1
   4   5   9   52.71    5.08   1
   4   5   9   41.22    6.93   1
   4   5  10   10.69    5.36   1
   4   5  10    6.81    4.33   1
   4   5  11   -7.34    4.88   1
   4   5  11    2.59    4.99   1
   4   5  12   97.42   10.07   1
   4   5  12  100.00   10.60   1
   4   5  13    9.92    6.55   1
   4   5  13   13.25    6.48   1
   4   6  -8   -4.20    9.06   1
   4   6  -8    0.94    9.41   1
   4   6  -7    2.56    8.22   1
   4   6  -7    3.84    7.06   1
   4   6  -6   -8.53    7.07   1
   4   6  -6   -5.71    7.65   1
   4   6  -5   72.59   10.56   1
   4   6  -5   86.86   10.44   1
   4   6  -4    4.75    6.10   1
   4   6  -3   -5.24    5.22   1
   4   6  -3   -1.10    4.56   1
   4   6  -2   32.04    5.89   1
   4   6  -2   39.56    7.42   1
   4   6  -1   62.57    8.54   1
   4   6  -1   73.79    7.39   1
   4   6   0  142.80    9.80   1
   4   6   0  124.10   11.36   1
   4   6   1    8.47    4.48   1
   4   6   1   10.24    4.03   1
   4   6   2   35.28    6.42   1
   4   6   2   40.96    5.25   1
   4   6   3   22.75    5.63   1
   4   6   3   34.81    4.84   1
   4   6   4    4.37    3.89   1
   4   6   4   10.18    3.45   1
   4   6   4   -3.31    3.89   1
   4   6   5  435.56   20.87   1
   4   6   5  466.13   22.02   1
   4   6   6  137.12   11.01   1
   4   6   6  150.31   10.30   1
   4   6   7   -1.19    4.43   1
   4   6   7    0.96    3.23   1
   4   6   8    0.01    4.77   1
   4   6   8    1.46    3.19   1
   4   6   9   22.75    4.29   1
   4   6   9    6.00    5.34   1
   4   6   9   26.94    4.77   1
   4   6  10   11.29    5.98   1
   4   6  10    4.54    4.26   1
   4   6  10   20.25    3.87   1
   4   6  11   58.83    7.36   1
   4   6  11   61.31    9.08   1
   4   6  12   13.03    7.08   1
   4   6  12    8.88    5.90   1
   4   6  13   -9.61    6.88   1
   4   6  13   -4.16    7.38   1
   4   7  -7   10.56    9.43   1
   4   7  -6   38.56    9.44   1
   4   7  -6   33.87   10.48   1
   4   7  -5   -2.13    6.63   1
   4   7  -5    6.35    6.00   1
   4   7  -4    4.97    6.33   1
   4   7  -4   -2.34    6.76   1
   4   7  -3    8.58    5.98   1
   4   7  -3   15.84    6.29   1
   4   7  -2   18.92    6.00   1
   4   7  -1   12.53    6.23   1
   4   7  -1    7.95    5.13   1
   4   7   0   15.92    5.91   1
   4   7   0   20.61    5.36   1
   4   7   1   38.07    6.05   1
   4   7   1   47.47    7.58   1
   4   7   2    1.10    3.42   1
   4   7   2    4.20    5.00   1
   4   7   3   23.91    4.89   1
   4   7   3   19.10    5.77   1
   4   7   4   -6.15    4.81   1
   4   7   4   -1.69    3.43   1
   4   7   4   -2.28    3.50   1
   4   7   5    1.44    4.54   1
   4   7   5   -3.31    4.70   1
   4   7   6    4.04    3.58   1
   4   7   6   -1.54    4.32   1
   4   7   7   14.44    5.93   1
   4   7   7    0.88    3.80   1
   4   7   8    5.15    5.77   1
   4   7   8   -1.14    3.53   1
   4   7   9    8.82    4.81   1
   4   7  10   -6.97    4.28   1
   4   7  10    2.43    3.28   1
   4   7  10    5.81    6.36   1
   4   7  11   22.00    7.22   1
   4   7  11   19.36    5.81   1
   4   7  12   -0.32    5.21   1
   4   7  12    1.28    6.92   1
   4   8  -5    1.42    7.90   1
   4   8  -4  -12.04    8.33   1
   4   8  -4    0.18    6.90   1
   4   8  -3   36.97    7.78   1
   4   8  -2   -6.45    5.28   1
   4   8  -2   13.10    6.73   1
   4   8  -1   11.09    6.59   1
   4   8  -1    8.29    5.47   1
   4   8   0  142.80   13.38   1
   4   8   0  140.66   11.39   1
   4   8   1    2.34    5.60   1
   4   8   1   17.72    5.64   1
   4   8   2   32.72    6.41   1
   4   8   2   26.21    7.17   1
   4   8   3   33.18    7.26   1
   4   8   3   33.99    6.30   1
   4   8   4    0.64    5.10   1
   4   8   4    9.67    4.85   1
   4   8   4    2.92    5.37   1
   4   8   5   41.99    7.52   1
   4   8   5   25.40    7.26   1
   4   8   6   36.00    7.92   1
   4   8   7   48.72    8.79   1
   4   8   7   46.79    7.11   1
   4   8   8    4.08    4.65   1
   4   8   8   -4.41    6.59   1
   4   8   9   41.73    9.30   1
   4   8   9   39.94    6.07   1
   4   8  10   85.19    7.57   1
   4   8  10   70.22   10.56   1
   4   8  11    0.50    5.13   1
   4   8  11    6.30    8.23   1
   4   9  -4   19.80    7.65   1
   4   9  -3    7.84    8.23   1
   4   9  -2   51.27    9.31   1
   4   9  -1    0.48    7.41   1
   4   9  -1    1.93    5.84   1
   4   9   0   10.18    7.53   1
   4   9   0    4.00    6.00   1
   4   9   1   64.80    9.18   1
   4   9   1   51.55    9.76   1
   4   9   2   -8.58    6.04   1
   4   9   2   -3.61    5.93   1
   4   9   3    2.10    5.54   1
   4   9   3   -6.10    6.27   1
   4   9   4    0.42    6.59   1
   4   9   4    6.35    6.10   1
   4   9   4   14.75    6.07   1
   4   9   5   45.70    8.38   1
   4   9   5   16.56    7.16   1
   4   9   6    6.71    7.20   1
   4   9   6   15.76    6.59   1
   4   9   7    3.06    7.42   1
   4   9   7    4.28    5.92   1
   4   9   8  125.66   10.76   1
   4   9   8  112.36   13.14   1
   4   9   9   24.70    6.86   1
   4   9   9    1.17    7.13   1
   4  10  -1    4.33    7.90   1
   4  10   0    5.76    6.91   1
   4  10   1   25.10   10.72   1
   4  10   2   33.99    8.51   1
   4  10   2   18.75    7.36   1
   4  10   3    2.28    7.16   1
   4  10   3    5.06    7.61   1
   4  10   4   54.61    9.90   1
   4  10   5   17.72    8.08   1
   4  10   5   -6.92    8.00   1
   4  10   6   17.22    8.05   1
   4  10   6    0.29    8.15   1
   4  10   7   17.72   10.36   1
   5  -9  -2    0.31    7.69   1
   5  -9  -1    3.88    7.21   1
   5  -9  -1    4.49    7.42   1
   5  -9  -1   18.23    7.94   1
   5  -9   0    7.45    8.19   1
   5  -9   0   27.25    9.19   1
   5  -9   1    1.49    6.15   1
   5  -9   1    3.53    7.75   1
   5  -9   1   -9.92    8.76   1
   5  -9   2    4.58    5.91   1
   5  -9   2  -11.90    8.76   1
   5  -9   3    6.15    5.80   1
   5  -9   3   -4.97    8.12   1
   5  -9   3   -2.40    9.42   1
   5  -9   4   23.52    9.12   1
   5  -9   4    0.32    9.63   1
   5  -8  -5   -7.08    9.04   1
   5  -8  -4   16.08    8.02   1
   5  -8  -4   14.36    6.97   1
   5  -8  -3    2.99    6.54   1
   5  -8  -3   -5.71    7.50   1
   5  -8  -3   -5.15    7.85   1
   5  -8  -2   32.04    8.49   1
   5  -8  -2   27.98    8.78   1
   5  -8  -2   15.84    7.16   1
   5  -8  -1    2.89    6.43   1
   5  -8  -1   -3.61    6.19   1
   5  -8  -1   -3.31    6.52   1
   5  -8   0   18.58    7.59   1
   5  -8   0   36.24    7.83   1
   5  -8   0   20.98    7.14   1
   5  -8   1   14.06    6.22   1
   5  -8   1   12.60    5.75   1
   5  -8   1    0.44    6.59   1
   5  -8   2   -8.41    7.66   1
   5  -8   2    3.28    5.00   1
   5  -8   2   -5.90    6.66   1
   5  -8   3   11.56    5.64   1
   5  -8   3   10.56    6.82   1
   5  -8   3    0.83    7.21   1
   5  -8   4    6.50    5.86   1
   5  -8   4   13.25    6.77   1
   5  -8   4    6.45    4.83   1
   5  -8   5   58.68    6.59   1
   5  -8   5   57.76   11.25   1
   5  -8   5   45.43    9.17   1
   5  -8   6   -2.46    8.07   1
   5  -7  -6   17.22    9.46   1
   5  -7  -5   -1.61    7.26   1
   5  -7  -5    6.55    8.14   1
   5  -7  -4    5.20    6.11   1
   5  -7  -4    9.00    7.26   1
   5  -7  -3   -3.72    5.94   1
   5  -7  -3    1.12    5.91   1
   5  -7  -3    6.92    6.94   1
   5  -7  -2   49.98    8.20   1
   5  -7  -2   43.82    8.34   1
   5  -7  -2   27.46    7.13   1
   5  -7  -1   -4.41    5.54   1
   5  -7  -1    3.72    5.98   1
   5  -7  -1   -1.80    5.31   1
   5  -7   0   18.49    6.45   1
   5  -7   0    8.24    5.91   1
   5  -7   1   62.25    7.89   1
   5  -7   1   64.48    8.19   1
   5  -7   1   51.70    8.92   1
   5  -7   2    8.94    5.20   1
   5  -7   2    6.15    5.51   1
   5  -7   2    4.93    6.22   1
   5  -7   3   -1.14    5.16   1
   5  -7   3    3.46    4.69   1
   5  -7   4   66.91   10.31   1
   5  -7   4   85.01    8.85   1
   5  -7   4   78.68    7.81   1
   5  -7   5   12.74    6.35   1
   5  -7   5    0.50    5.34   1
   5  -7   5    4.93    4.00   1
   5  -7   6   -1.54    7.24   1
   5  -7   7   23.14    8.85   1
   5  -7   8   -2.59    6.09   1
   5  -7   9   10.50    9.01   1
   5  -6  -7   16.56   10.91   1
   5  -6  -7   -1.51    9.15   1
   5  -6  -6    7.84    8.40   1
   5  -6  -6   25.30    8.65   1
   5  -6  -5   -7.24    7.53   1
   5  -6  -5    0.26    6.04   1
   5  -6  -4   15.44    6.76   1
   5  -6  -4   27.56    8.09   1
   5  -6  -3   21.90    6.46   1
   5  -6  -3   20.52    6.61   1
   5  -6  -2    3.69    4.80   1
   5  -6  -2   10.82    5.40   1
   5  -6  -2   -0.14    5.19   1
   5  -6  -1   20.16    5.75   1
   5  -6  -1   16.08    5.69   1
   5  -6  -1   34.11    7.12   1
   5  -6   0   35.28    6.77   1
   5  -6   0   23.72    6.43   1
   5  -6   0   43.96    6.63   1
   5  -6   1   -1.61    4.37   1
   5  -6   1   -0.66    4.26   1
   5  -6   1   -4.28    4.97   1
   5  -6   2   20.88    5.12   1
   5  -6   2   25.00    5.80   1
   5  -6   3   47.75    6.63   1
   5  -6   3   54.76    6.81   1
   5  -6   3   37.21    7.69   1
   5  -6   4   12.74    4.50   1
   5  -6   4    4.33    4.37   1
   5  -6   4   -1.30    5.36   1
   5  -6   5   13.99    6.28   1
   5  -6   5    2.72    4.72   1
   5  -6   5    1.59    3.68   1
   5  -6   6    5.66    6.81   1
   5  -6   7    2.53    6.93   1
   5  -6   8    9.73    5.80   1
   5  -6   9    6.66    7.12   1
   5  -5  -8   11.09    8.39   1
   5  -5  -8   24.01    5.39   1
   5  -5  -7   23.43    8.91   1
   5  -5  -7   11.22    8.04   1
   5  -5  -6   -1.64    5.02   1
   5  -5  -6   -6.35    6.70   1
   5  -5  -5   26.94    8.41   1
   5  -5  -4   43.96    8.75   1
   5  -5  -4   41.09    7.44   1
   5  -5  -3    6.45    4.78   1
   5  -5  -3   -6.30    6.02   1
   5  -5  -2    7.67    4.60   1
   5  -5  -2    2.34    5.60   1
   5  -5  -1   -1.88    4.88   1
   5  -5  -1   -0.77    3.89   1
   5  -5   0   -2.16    4.26   1
   5  -5   0    2.46    3.52   1
   5  -5   0    1.77    4.47   1
   5  -5   1   -7.08    4.52   1
   5  -5   1   -7.45    5.02   1
   5  -5   1   -1.04    3.51   1
   5  -5   2    1.80    3.32   1
   5  -5   2   -6.45    4.42   1
   5  -5   2    0.96    4.51   1
   5  -5   3   24.21    6.40   1
   5  -5   3   39.69    5.42   1
   5  -5   4   -2.92    3.80   1
   5  -5   4   -3.72    5.21   1
   5  -5   4    2.56    3.49   1
   5  -5   5   36.00    7.56   1
   5  -5   5   37.95    5.67   1
   5  -5   5   39.44    5.40   1
   5  -5   6   84.46    9.74   1
   5  -5   7    9.55    6.49   1
   5  -4  -9   50.69   10.68   1
   5  -4  -9   64.32    8.34   1
   5  -4  -8   36.72    6.42   1
   5  -4  -8   21.25    9.59   1
   5  -4  -7   18.23    4.87   1
   5  -4  -7    5.71    7.70   1
   5  -4  -6    7.78    7.03   1
   5  -4  -5    7.08    6.01   1
   5  -4  -4   22.37    6.91   1
   5  -4  -4    6.97    4.22   1
   5  -4  -3   10.69    6.02   1
   5  -4  -3   23.14    5.29   1
   5  -4  -2   -9.30    5.55   1
   5  -4  -2    0.64    3.78   1
   5  -4  -1    0.58    3.30   1
   5  -4  -1   -1.17    4.34   1
   5  -4   0   59.75    5.87   1
   5  -4   0   56.10    7.34   1
   5  -4   1  182.79   12.17   1
   5  -4   1  183.87   10.03   1
   5  -4   2  270.27   12.82   1
   5  -4   2  275.23   15.26   1
   5  -4   3   30.36    4.30   1
   5  -4   3   18.06    4.68   1
   5  -4   4   29.48    4.34   1
   5  -4   4   27.25    4.91   1
   5  -3  -9   14.98    7.04   1
   5  -3  -9    7.67    8.42   1
   5  -3  -8   16.00    5.44   1
   5  -3  -7   45.02    6.17   1
   5  -3  -7   36.48    9.06   1
   5  -3  -6   12.89    5.60   1
   5  -3  -5   31.02    7.80   1
   5  -3  -4   26.21    6.76   1
   5  -3  -3   53.00    8.01   1
   5  -3  -2    2.02    3.29   1
   5  -3  -2    5.86    4.65   1
   5  -3  -1    4.24    4.53   1
   5  -3  -1   -3.96    2.95   1
   5  -3   0   93.32    8.89   1
   5  -3   0  106.50    7.02   1
   5  -3   1   17.64    4.96   1
   5  -3   1   23.04    3.46   1
   5  -3   2   62.88    5.08   1
   5  -3   2   69.22    7.16   1
   5  -3   3   40.07    5.95   1
   5  -3   3   47.33    4.40   1
   5  -3   4    6.92    2.42   1
   5  -3   4    5.57    3.59   1
   5  -2  -9   -4.24    6.14   1
   5  -2  -9  -10.56    8.90   1
   5  -2  -8   11.70    8.07   1
   5  -2  -8   19.10    6.03   1
   5  -2  -7   26.42    5.65   1
   5  -2  -6   29.05    5.17   1
   5  -2  -6   13.62    6.94   1
   5  -2  -5    4.54    5.58   1
   5  -2  -4   32.49    6.84   1
   5  -2  -3   -2.10    4.35   1
   5  -2  -2   46.92    6.99   1
   5  -2  -1   62.41    5.37   1
   5  -2  -1   60.84    7.49   1
   5  -2   0    1.82    2.13   1
   5  -2   0   -1.35    3.36   1
   5  -2   1    2.19    2.07   1
   5  -2   1    2.62    3.89   1
   5  -2   2    6.86    3.83   1
   5  -2   2    9.18    2.06   1
   5  -2   3    5.20    1.69   1
   5  -2   3    2.34    3.37   1
   5  -2   4    1.32    3.31   1
   5  -1  -9   13.10    7.02   1
   5  -1  -9    4.04    7.64   1
   5  -1  -8   13.76    5.79   1
   5  -1  -8   14.36    7.35   1
   5  -1  -7    1.06    4.70   1
   5  -1  -7   -9.73    6.30   1
   5  -1  -6   29.48    7.28   1
   5  -1  -5  106.50   10.53   1
   5  -1  -4    7.73    5.00   1
   5  -1  -3    2.99    4.50   1
   5  -1  -2    8.24    4.65   1
   5  -1  -1   17.31    5.08   1
   5  -1   0  209.96   13.04   1
   5  -1   1   70.73    4.37   1
   5  -1   1   75.52    7.65   1
   5  -1   2   86.49    4.28   1
   5  -1   2   95.06    8.19   1
   5  -1   3    7.78    3.85   1
   5  -1   3    9.18    1.27   1
   5   0  -9   -0.23    7.68   1
   5   0  -9    7.18    6.22   1
   5   0  -9    8.76    6.99   1
   5   0  -8   38.94    7.99   1
   5   0  -8   23.52    6.98   1
   5   0  -8   35.88    8.39   1
   5   0  -7  331.97   18.58   1
   5   0  -7  332.70   18.24   1
   5   0  -7  322.56   19.76   1
   5   0  -6   26.94    6.85   1
   5   0  -6    7.40    5.39   1
   5   0  -5    1.72    4.19   1
   5   0  -5   -0.79    5.07   1
   5   0  -4   49.56    6.76   1
   5   0  -4   55.50    7.15   1
   5   0  -3   25.10    5.31   1
   5   0  -3   23.14    5.58   1
   5   0  -2   25.30    5.63   1
   5   0  -2   12.67    4.56   1
   5   0  -1    8.29    4.38   1
   5   0  -1    9.42    3.93   1
   5   0   0   52.71    6.82   1
   5   0   0   58.68    7.05   1
   5   0   1   24.11    5.01   1
   5   0   1   28.84    5.16   1
   5   0   2    3.39    3.79   1
   5   1  -9    3.42    6.25   1
   5   1  -9    1.56    7.62   1
   5   1  -9    7.34    7.80   1
   5   1  -8   -3.46    5.65   1
   5   1  -8  -10.82    6.45   1
   5   1  -8   -3.69    6.72   1
   5   1  -7   19.01    6.71   1
   5   1  -6   -6.71    5.54   1
   5   1  -6    3.20    4.83   1
   5   1  -5   -8.18    5.03   1
   5   1  -5    4.80    4.47   1
   5   1  -4   19.62    5.32   1
   5   1  -4   27.35    5.23   1
   5   1  -3   45.43    6.87   1
   5   1  -3   62.41    7.27   1
   5   1  -2   47.06    6.17   1
   5   1  -2   45.43    6.74   1
   5   1  -1   76.91    7.89   1
   5   1  -1   69.06    7.48   1
   5   1   0    2.86    3.55   1
   5   1   1   87.42    8.23   1
   5   1   1   71.40    7.44   1
   5   1   2  103.43    8.75   1
   5   1   3   14.21    4.30   1
   5   1   4    8.29    3.74   1
   5   2  -9    4.88    6.85   1
   5   2  -9   -2.22    7.09   1
   5   2  -8   84.64   10.49   1
   5   2  -7   14.90    6.48   1
   5   2  -7    2.37    5.24   1
   5   2  -6   26.21    6.45   1
   5   2  -6   11.56    5.78   1
   5   2  -5   43.82    7.15   1
   5   2  -5   49.42    7.73   1
   5   2  -4   -4.71    4.82   1
   5   2  -4    9.24    4.92   1
   5   2  -3  140.42   10.66   1
   5   2  -3  132.02   11.26   1
   5   2  -2   24.40    5.73   1
   5   2  -2    9.61    4.22   1
   5   2  -1  181.17   12.65   1
   5   2  -1  169.52   11.72   1
   5   2   0  100.00    9.00   1
   5   2   0  117.72    9.11   1
   5   2   0  102.41    6.07   1
   5   2   1   37.33    5.25   1
   5   2   1   39.94    3.16   1
   5   2   2    6.71    1.24   1
   5   2   2    4.37    3.55   1
   5   2   3    0.18    3.18   1
   5   2   4    5.48    3.51   1
   5   2   5  101.20    8.25   1
   5   2   6    1.51    3.15   1
   5   3  -9   -9.06    6.92   1
   5   3  -9   -0.38    7.45   1
   5   3  -8   -1.06    5.52   1
   5   3  -8    0.86    6.19   1
   5   3  -7    6.40    5.41   1
   5   3  -7    9.92    6.11   1
   5   3  -6   34.11    7.83   1
   5   3  -6   31.25    6.48   1
   5   3  -5    2.43    5.46   1
   5   3  -5    6.20    4.73   1
   5   3  -4  134.10   11.81   1
   5   3  -4  144.00   11.04   1
   5   3  -3    3.61    4.07   1
   5   3  -3    6.00    4.02   1
   5   3  -2   -1.23    3.26   1
   5   3  -2    1.74    3.14   1
   5   3  -2   -2.22    3.43   1
   5   3  -1    5.38    2.64   1
   5   3  -1    2.56    4.16   1
   5   3   0  151.54   11.57   1
   5   3   0  160.53    8.36   1
   5   3   1    3.24    1.87   1
   5   3   1   -1.44    3.74   1
   5   3   2   23.43    2.52   1
   5   3   2   29.59    5.66   1
   5   3   3  146.41    6.29   1
   5   3   3  165.38   11.32   1
   5   3   4   32.26    5.34   1
   5   3   5   -5.34    3.51   1
   5   3   6  149.82    9.79   1
   5   3   7  207.36   12.38   1
   5   3   9    3.61    4.10   1
   5   3  10  142.80   10.52   1
   5   3  11    1.08    4.66   1
   5   3  12    3.39    5.12   1
   5   3  13  114.70   10.28   1
   5   3  14   18.66    6.83   1
   5   4  -8    6.60    6.32   1
   5   4  -8    6.76    8.11   1
   5   4  -7    1.74    5.25   1
   5   4  -7    4.12    6.98   1
   5   4  -7   -2.04    5.75   1
   5   4  -6    8.41    6.44   1
   5   4  -6    9.06    6.62   1
   5   4  -5   26.83    6.63   1
   5   4  -5   -0.36    5.82   1
   5   4  -4   64.80    7.89   1
   5   4  -3    1.82    5.18   1
   5   4  -3   -1.77    3.51   1
   5   4  -2    2.53    4.71   1
   5   4  -2    1.96    3.25   1
   5   4  -1   36.24    6.74   1
   5   4  -1   50.69    5.55   1
   5   4   0    6.97    4.38   1
   5   4   0    2.22    2.59   1
   5   4   1   95.26    9.17   1
   5   4   1   92.16    6.34   1
   5   4   2   69.72    5.01   1
   5   4   2   81.90    8.33   1
   5   4   3    6.76    4.37   1
   5   4   4  110.04    9.02   1
   5   4   5    8.94    3.95   1
   5   4   6   82.08    7.61   1
   5   4   7   10.56    4.09   1
   5   4   8   18.15    4.35   1
   5   4   8   13.10    5.00   1
   5   4   9   28.20    6.05   1
   5   4  10    5.43    5.08   1
   5   4  11   19.89    5.89   1
   5   4  12   53.29    8.18   1
   5   4  13    2.72    6.34   1
   5   5  -7    3.65    7.41   1
   5   5  -7   -7.40    8.65   1
   5   5  -6   12.60    7.10   1
   5   5  -6   -6.76    6.71   1
   5   5  -5   19.45    6.79   1
   5   5  -5   14.21    7.54   1
   5   5  -4   44.76    7.49   1
   5   5  -4   24.80    7.87   1
   5   5  -3  128.14   10.19   1
   5   5  -3  111.72   11.84   1
   5   5  -2   10.05    5.90   1
   5   5  -2    5.76    4.37   1
   5   5  -1   49.28    8.14   1
   5   5  -1   52.85    6.25   1
   5   5   0  179.83   10.46   1
   5   5   0  159.26   13.12   1
   5   5   1   54.32    5.45   1
   5   5   1   69.06    7.81   1
   5   5   2   13.62    5.31   1
   5   5   2   15.92    3.35   1
   5   5   3   -0.25    4.03   1
   5   5   4    2.53    3.72   1
   5   5   5   -1.90    3.86   1
   5   5   6    0.94    3.71   1
   5   5   7  133.63    9.71   1
   5   5   7  130.87   10.98   1
   5   5   8  124.10   10.69   1
   5   5   8  114.70    8.78   1
   5   5   9    5.24    4.03   1
   5   5   9   -0.86    5.02   1
   5   5  10   30.80    7.10   1
   5   5  11    3.65    5.77   1
   5   5  12   -1.23    5.39   1
   5   5  13   36.48    7.97   1
   5   6  -7   49.42   10.97   1
   5   6  -6    5.95    8.93   1
   5   6  -6   13.84    8.33   1
   5   6  -5    2.13    6.69   1
   5   6  -5   -2.13    7.74   1
   5   6  -4    0.16    7.22   1
   5   6  -4    2.34    5.97   1
   5   6  -3   -7.95    6.54   1
   5   6  -3   13.03    5.78   1
   5   6  -2   -2.79    6.45   1
   5   6  -2    1.80    4.34   1
   5   6  -1   10.30    6.61   1
   5   6  -1   23.14    5.39   1
   5   6   0    1.99    5.39   1
   5   6   0   10.96    4.44   1
   5   6   1  180.36   14.24   1
   5   6   1  186.60   10.93   1
   5   6   2    0.66    4.91   1
   5   6   2   -2.16    3.09   1
   5   6   3   89.11    9.63   1
   5   6   3  104.45    7.56   1
   5   6   4   45.29    4.98   1
   5   6   5    1.44    4.22   1
   5   6   6   22.85    5.26   1
   5   6   7    2.31    4.23   1
   5   6   7    6.60    4.88   1
   5   6   8    0.45    3.55   1
   5   6   8   -1.08    3.83   1
   5   6   9   19.98    4.83   1
   5   6   9   21.90    6.74   1
   5   6  10   -0.07    5.99   1
   5   6  10   -0.81    3.89   1
   5   6  11    8.01    6.06   1
   5   6  12    4.16    7.02   1
   5   7  -5    8.35    7.98   1
   5   7  -4    4.16    6.77   1
   5   7  -4   -0.24    7.90   1
   5   7  -3   -1.19    7.46   1
   5   7  -3   -1.25    5.98   1
   5   7  -2   -5.76    5.23   1
   5   7  -2    1.54    6.94   1
   5   7  -1  160.53   12.16   1
   5   7  -1  154.75   15.18   1
   5   7   0    6.66    5.06   1
   5   7   0    0.77    6.14   1
   5   7   1    1.12    5.68   1
   5   7   1    5.24    4.44   1
   5   7   2    4.20    5.86   1
   5   7   3    8.29    4.09   1
   5   7   3    6.05    5.36   1
   5   7   4  127.46   11.52   1
   5   7   4  105.68    8.43   1
   5   7   5  197.96   14.07   1
   5   7   6    2.28    4.29   1
   5   7   7    3.06    4.59   1
   5   7   7   -3.06    5.64   1
   5   7   8   27.67    7.47   1
   5   7   8   33.99    6.18   1
   5   7   9   72.25    9.35   1
   5   7   9   78.85    7.81   1
   5   7  10   12.39    7.60   1
   5   7  11   23.72    5.36   1
   5   7  11   15.76    7.86   1
   5   8  -4   -8.94    8.37   1
   5   8  -3   29.48    8.47   1
   5   8  -2   78.68   10.29   1
   5   8  -2   63.36   11.94   1
   5   8  -1   -1.64    5.96   1
   5   8  -1    2.92    7.70   1
   5   8   0   -1.32    7.08   1
   5   8   0   20.43    6.06   1
   5   8   1   21.72    7.92   1
   5   8   1   33.52    6.60   1
   5   8   2   -2.72    6.73   1
   5   8   2   -1.82    4.70   1
   5   8   3   -1.39    4.77   1
   5   8   3   -3.10    4.68   1
   5   8   4    3.61    5.93   1
   5   8   4   10.56    4.94   1
   5   8   5   38.69    7.46   1
   5   8   6    3.76    5.59   1
   5   8   7    7.24    5.22   1
   5   8   8   10.69    6.02   1
   5   8   8   -1.37    5.24   1
   5   8   9   -0.26    7.21   1
   5   8   9   12.25    5.81   1
   5   8  10   13.32    8.61   1
   5   8  10    5.29    5.43   1
   5   9  -2    2.28    6.86   1
   5   9  -1   10.18    7.34   1
   5   9   0    4.33    5.70   1
   5   9   0   -0.40    9.39   1
   5   9   1    5.52    8.22   1
   5   9   1    6.97    6.55   1
   5   9   2    3.31    6.08   1
   5   9   2    1.61    7.75   1
   5   9   3   13.76    8.16   1
   5   9   3   26.52    7.00   1
   5   9   4    7.78    6.03   1
   5   9   4   10.24    6.78   1
   5   9   5    1.35    6.01   1
   5   9   7    3.72    7.57   1
   5   9   7   27.98    7.41   1
   5   9   8   -4.37    8.40   1
   5   9   9   59.75    9.59   1
   5  10   1   16.81    8.28   1
   5  10   2  111.51   12.04   1
   5  10   4   -8.64   10.23   1
   5  10   5   53.00   11.21   1
   5  10   6    6.10    8.89   1
   6  -8  -2   28.94    9.90   1
   6  -8  -2    6.15    7.79   1
   6  -8  -1   10.30    8.41   1
   6  -8  -1    9.00    8.22   1
   6  -8  -1   29.59    8.49   1
   6  -8   0   -3.57    7.82   1
   6  -8   0   -5.81    7.62   1
   6  -8   0    9.12    7.67   1
   6  -8   1    6.50    7.14   1
   6  -8   1    3.39    7.73   1
   6  -8   1    6.30    7.13   1
   6  -8   2    4.41    6.89   1
   6  -8   2  -10.69    7.00   1
   6  -8   2   -1.10    8.30   1
   6  -8   3   38.69    8.09   1
   6  -8   3   12.53    9.35   1
   6  -8   3   37.70    8.60   1
   6  -8   4    6.25    9.25   1
   6  -8   4    5.86    7.07   1
   6  -8   4    6.15    5.85   1
   6  -8   5  -15.52   10.24   1
   6  -8   5    0.29    5.94   1
   6  -8   5    9.24    8.57   1
   6  -7  -4   10.18    9.31   1
   6  -7  -4    4.84    7.08   1
   6  -7  -3    8.24    7.58   1
   6  -7  -3    7.34    7.80   1
   6  -7  -2   -4.37    7.06   1
   6  -7  -2    5.24    7.47   1
   6  -7  -1   62.88    9.52   1
   6  -7  -1   77.62    9.51   1
   6  -7   0    6.55    6.91   1
   6  -7   0    5.29    6.35   1
   6  -7   1   -1.42    6.35   1
   6  -7   1   -2.16    6.70   1
   6  -7   1   -1.12    5.83   1
   6  -7   2   -3.31    7.10   1
   6  -7   2    0.71    5.75   1
   6  -7   2    1.32    5.34   1
   6  -7   3    5.43    5.82   1
   6  -7   3    4.20    5.49   1
   6  -7   3   10.69    7.00   1
   6  -7   4   -2.82    5.64   1
   6  -7   4    3.84    6.59   1
   6  -7   4    4.45    5.40   1
   6  -7   5   -0.79    7.80   1
   6  -7   5    1.82    5.18   1
   6  -7   5    0.48    5.85   1
   6  -6  -5   17.81    7.76   1
   6  -6  -5   31.14    9.49   1
   6  -6  -4   -0.28    6.86   1
   6  -6  -4  -10.37    8.44   1
   6  -6  -3   18.23    6.83   1
   6  -6  -3   27.46    8.59   1
   6  -6  -1   -2.76    5.05   1
   6  -6  -1   13.62    7.16   1
   6  -6   0   -0.44    6.03   1
   6  -6   0    6.66    5.31   1
   6  -6   1   13.99    5.46   1
   6  -6   1    2.46    5.81   1
   6  -6   2   -5.71    5.74   1
   6  -6   2   -6.50    4.90   1
   6  -6   3   11.22    5.83   1
   6  -6   3   22.75    5.53   1
   6  -6   4   24.70    6.26   1
   6  -6   4   24.60    5.65   1
   6  -6   5   13.40    5.27   1
   6  -6   5   -4.58    4.79   1
   6  -5  -6  -14.06    9.90   1
   6  -5  -6    8.88    8.58   1
   6  -5  -5   38.07   10.12   1
   6  -5  -5   33.64    8.35   1
   6  -5  -4   13.99    7.03   1
   6  -5  -4   11.56    6.73   1
   6  -5  -3   25.10    6.61   1
   6  -5  -2   -1.42    4.88   1
   6  -5  -2   -0.55    6.08   1
   6  -5  -1   18.06    5.18   1
   6  -5  -1   14.52    6.25   1
   6  -5   0   -4.16    4.37   1
   6  -5   1   13.76    6.01   1
   6  -5   1   20.16    5.03   1
   6  -5   2   10.56    5.66   1
   6  -5   3   19.36    4.58   1
   6  -5   3   19.18    5.61   1
   6  -5   4   51.41    7.03   1
   6  -5   4   38.56    5.46   1
   6  -5   5    6.81    5.06   1
   6  -5   5    9.67    4.35   1
   6  -4  -7    2.62    7.26   1
   6  -4  -6   -4.80    7.53   1
   6  -4  -5   79.92    9.83   1
   6  -4  -5   63.20   10.81   1
   6  -4  -4   -7.29    5.67   1
   6  -4  -4   -7.51    6.47   1
   6  -4  -3  -18.32    7.36   1
   6  -4  -3   -3.24    4.64   1
   6  -4  -2    9.49    6.34   1
   6  -4  -2   -2.62    4.18   1
   6  -4  -1    7.02    5.62   1
   6  -4  -1   -0.32    3.55   1
   6  -4   0    2.89    3.47   1
   6  -4   0    4.24    5.52   1
   6  -4   1    9.30    3.90   1
   6  -4   1    6.60    5.40   1
   6  -4   2    1.64    4.97   1
   6  -4   2    2.53    3.02   1
   6  -4   3   -1.59    2.85   1
   6  -4   3    0.98    3.72   1
   6  -4   4    6.20    4.38   1
   6  -4   4    9.92    3.47   1
   6  -3  -8    6.35    8.62   1
   6  -3  -7   12.89    8.04   1
   6  -3  -6   -1.82    7.80   1
   6  -3  -5   42.25    9.36   1
   6  -3  -4   17.31    6.91   1
   6  -3  -3    8.94    6.22   1
   6  -3  -3    2.28    4.32   1
   6  -3  -2   31.02    5.12   1
   6  -3  -2   25.60    7.08   1
   6  -3  -1   -1.51    3.32   1
   6  -3  -1   -5.38    5.52   1
   6  -3   0  327.25   14.47   1
   6  -3   0  317.55   18.53   1
   6  -3   1 1061.46   42.35   1
   6  -3   1 1051.70   36.32   1
   6  -3   2    1.96    2.46   1
   6  -3   2   -0.77    4.68   1
   6  -3   3    0.07    4.15   1
   6  -3   3    1.39    2.27   1
   6  -3   4   14.21    2.87   1
   6  -3   4   17.31    5.41   1
   6  -2  -8    7.08   10.00   1
   6  -2  -7    2.79    7.68   1
   6  -2  -6   19.01    8.37   1
   6  -2  -5   -1.10    4.64   1
   6  -2  -4   45.70    8.92   1
   6  -2  -3   59.75    9.12   1
   6  -2  -2   17.06    6.53   1
   6  -2  -1   29.48    6.95   1
   6  -2  -1   28.94    4.41   1
   6  -2   0   23.62    6.32   1
   6  -2   0   18.66    3.63   1
   6  -2   1   79.03    8.89   1
   6  -2   1   64.16    4.97   1
   6  -2   2   12.82    2.65   1
   6  -2   2   16.81    5.41   1
   6  -2   3   58.22    3.97   1
   6  -2   3   49.00    6.72   1
   6  -2   4   -0.59    3.73   1
   6  -1  -8   15.05    9.86   1
   6  -1  -7   12.18    8.24   1
   6  -1  -6    0.06    6.75   1
   6  -1  -4   -5.57    6.23   1
   6  -1  -3    6.86    5.82   1
   6  -1  -2    9.49    5.73   1
   6  -1  -1   20.70    6.01   1
   6  -1   0    6.40    5.06   1
   6  -1   0    6.97    2.38   1
   6  -1   1    4.41    4.62   1
   6  -1   1    3.50    1.80   1
   6  -1   2   25.81    5.79   1
   6  -1   2   31.36    2.69   1
   6  -1   3   48.44    6.40   1
   6   0  -8    0.21    8.60   1
   6   0  -7   17.39    7.67   1
   6   0  -7   12.82    7.95   1
   6   0  -6    9.00    7.44   1
   6   0  -5    8.35    5.49   1
   6   0  -5   -5.11    5.92   1
   6   0  -4   15.68    6.65   1
   6   0  -4   19.71    6.48   1
   6   0  -3    4.54    4.73   1
   6   0  -3   12.39    6.05   1
   6   0  -2  140.66   12.10   1
   6   0  -2  156.50   12.51   1
   6   0  -1   42.90    7.34   1
   6   0  -1   59.44    7.40   1
   6   0   0    0.06    4.42   1
   6   0   0   -0.29    4.33   1
   6   0   1   41.34    6.82   1
   6   0   1   39.94    3.16   1
   6   0   2   -1.72    4.38   1
   6   1  -8    0.23    8.77   1
   6   1  -8   -1.77    7.50   1
   6   1  -7    0.25    6.57   1
   6   1  -7    1.49    7.59   1
   6   1  -6   53.58    9.66   1
   6   1  -6   88.92   10.37   1
   6   1  -5   13.47    6.83   1
   6   1  -5    7.73    5.56   1
   6   1  -4    3.28    5.32   1
   6   1  -4    0.48    5.13   1
   6   1  -3   22.85    6.50   1
   6   1  -3   19.36    6.34   1
   6   1  -2   21.62    6.14   1
   6   1  -2   12.04    5.48   1
   6   1  -1   -2.69    4.66   1
   6   1   0   15.21    5.30   1
   6   1   0   17.31    5.57   1
   6   1   1    7.34    4.77   1
   6   1   1   20.52    5.62   1
   6   1   2   94.28    9.32   1
   6   1   3   98.60    9.53   1
   6   2  -8    2.02    7.95   1
   6   2  -8   -8.12    9.23   1
   6   2  -7    0.13    6.77   1
   6   2  -7    7.78    8.09   1
   6   2  -6    7.56    6.16   1
   6   2  -6   -0.21    6.33   1
   6   2  -5    8.70    6.43   1
   6   2  -5   15.76    6.75   1
   6   2  -4    6.05    5.95   1
   6   2  -4   13.03    5.85   1
   6   2  -3    1.96    4.40   1
   6   2  -3    0.90    5.24   1
   6   2  -2   16.40    5.91   1
   6   2  -1    5.57    4.96   1
   6   2  -1    2.69    4.76   1
   6   2   0   -0.77    2.02   1
   6   2   0    2.16    3.03   1
   6   2   1    7.45    4.80   1
   6   2   1    8.47    2.15   1
   6   2   2  244.61   15.64   1
   6   2   3  156.00   11.74   1
   6   2   4   39.06    6.62   1
   6   2   5  203.63   13.41   1
   6   3  -7    5.90    8.31   1
   6   3  -7  -10.50    7.13   1
   6   3  -6   11.56    6.80   1
   6   3  -6   11.42    7.84   1
   6   3  -5    6.86    6.24   1
   6   3  -5    3.13    4.78   1
   6   3  -4    0.94    5.55   1
   6   3  -4   14.29    7.11   1
   6   3  -3   -5.29    6.21   1
   6   3  -3   -6.50    5.66   1
   6   3  -2  158.51   10.32   1
   6   3  -2  150.31   13.24   1
   6   3  -1   22.00    4.03   1
   6   3   0   22.18    5.84   1
   6   3   0   28.41    3.94   1
   6   3   1   63.20    8.27   1
   6   3   1   72.59    4.94   1
   6   3   2   31.81    2.93   1
   6   3   2   41.34    6.94   1
   6   3   3    0.53    4.20   1
   6   3   4   21.25    5.26   1
   6   3   5   -1.82    4.24   1
   6   3   6   -3.88    4.26   1
   6   3   7   28.20    5.73   1
   6   4  -7  -12.89    8.04   1
   6   4  -7   -4.45    8.61   1
   6   4  -6   14.98    7.51   1
   6   4  -6    2.82    8.74   1
   6   4  -5    5.38    6.22   1
   6   4  -5   12.18    8.03   1
   6   4  -4   10.30    7.70   1
   6   4  -4   29.48    6.84   1
   6   4  -3   31.81    6.20   1
   6   4  -2   34.46    7.87   1
   6   4  -2   62.41    6.95   1
   6   4  -1  119.90    8.54   1
   6   4  -1  101.40   10.67   1
   6   4   0  194.88   14.80   1
   6   4   0  186.87   10.12   1
   6   4   1   15.76    3.57   1
   6   4   1   18.75    6.06   1
   6   4   2    6.50    5.15   1
   6   4   2    0.06    1.84   1
   6   4   3    9.12    5.32   1
   6   4   4   54.61    7.69   1
   6   4   5   -2.10    4.29   1
   6   4   6   28.73    6.00   1
   6   4   7   30.58    6.19   1
   6   4   8   21.44    5.74   1
   6   5  -6   -0.79    7.62   1
   6   5  -5   33.52    7.76   1
   6   5  -4   18.49    8.60   1
   6   5  -4   31.02    6.80   1
   6   5  -3    6.10    6.03   1
   6   5  -3    0.72    5.12   1
   6   5  -2    8.35    6.07   1
   6   5  -2   19.54    5.30   1
   6   5  -1   14.29    5.67   1
   6   5  -1   10.89    4.55   1
   6   5   0  143.28   13.17   1
   6   5   0  156.00    9.74   1
   6   5   1    7.62    5.74   1
   6   5   1    7.62    3.37   1
   6   5   2   33.87    4.31   1
   6   5   3    1.46    4.84   1
   6   5   3    0.38    2.18   1
   6   5   4   14.06    6.00   1
   6   5   5  260.18   16.13   1
   6   5   6  186.32   13.38   1
   6   5   7   -1.82    4.48   1
   6   5   8   -7.51    4.99   1
   6   5   9   20.07    6.00   1
   6   6  -5   11.16    7.68   1
   6   6  -4    3.84    9.21   1
   6   6  -4   -7.78    6.92   1
   6   6  -3   13.76    6.46   1
   6   6  -3   -3.80    7.96   1
   6   6  -2    0.90    7.03   1
   6   6  -2    5.15    5.36   1
   6   6  -1    2.92    4.48   1
   6   6  -1    3.84    7.25   1
   6   6   0   13.40    7.47   1
   6   6   0   22.85    5.26   1
   6   6   1   14.29    4.23   1
   6   6   1    8.24    6.26   1
   6   6   2   11.63    6.62   1
   6   6   2   16.56    4.07   1
   6   6   3    4.00    5.52   1
   6   6   3    8.29    3.34   1
   6   6   4   -2.72    5.35   1
   6   6   5    5.71    5.40   1
   6   6   6    2.92    4.72   1
   6   6   7   -1.00    4.64   1
   6   6   8    3.57    4.88   1
   6   6   9    2.25    4.77   1
   6   6  10   24.60    6.15   1
   6   7  -4   -4.12    7.43   1
   6   7  -3   19.62    7.80   1
   6   7  -2   -4.54    8.09   1
   6   7  -2    7.18    6.16   1
   6   7  -1    6.25    5.95   1
   6   7  -1    1.49    5.90   1
   6   7   0  127.69   10.40   1
   6   7   0  105.06   12.91   1
   6   7   1    2.37    6.99   1
   6   7   1    6.97    4.54   1
   6   7   2    3.17    4.13   1
   6   7   2   -5.02    6.27   1
   6   7   3   38.32    8.54   1
   6   7   3   59.44    6.48   1
   6   7   4    1.49    3.66   1
   6   7   4   -1.23    5.95   1
   6   7   5    0.16    5.60   1
   6   7   6   53.14    8.31   1
   6   7   7   26.94    7.06   1
   6   7   8    9.61    5.83   1
   6   7   9    9.80    5.70   1
   6   7  10   83.17    9.30   1
   6   7  11    3.39    8.76   1
   6   8  -2    9.80    7.76   1
   6   8  -1   11.16    6.68   1
   6   8   0   -4.71    6.21   1
   6   8   1   31.92    9.94   1
   6   8   1   63.20    8.43   1
   6   8   2    7.08    5.21   1
   6   8   2   -6.97    7.60   1
   6   8   3    6.25    7.75   1
   6   8   3    3.39    4.97   1
   6   8   4    7.56    5.01   1
   6   8   4    7.02    7.26   1
   6   8   5   28.30    7.87   1
   6   8   6   56.40    9.31   1
   6   8   7   -2.34    6.55   1
   6   8   8   60.37    9.17   1
   6   8   9   52.13    8.95   1
   6   9   0   22.18    8.01   1
   6   9   1   10.63    7.17   1
   6   9   2   41.86    8.54   1
   6   9   3    5.15    6.36   1
   6   9   4   42.64   10.97   1
   6   9   4   69.56    8.67   1
   6   9   5   -6.76    7.80   1
   6   9   6   10.24    8.83   1
   6   9   7   66.26   10.58   1
   7  -7  -1    8.47    9.78   1
   7  -7  -1    7.84    7.39   1
   7  -7   0   24.60    8.53   1
   7  -7   0   25.70    8.21   1
   7  -7   1   -1.35    6.96   1
   7  -7   1    3.50    8.12   1
   7  -7   2   -7.02    8.32   1
   7  -7   2   11.83    6.88   1
   7  -7   3   17.39    8.09   1
   7  -7   3   27.67    7.78   1
   7  -7   4   11.36    6.74   1
   7  -7   4    4.33    7.49   1
   7  -7   5   -3.10    6.90   1
   7  -6  -3   -0.01    7.47   1
   7  -6  -3   -8.47    9.25   1
   7  -6  -2   -2.07    6.57   1
   7  -6  -2    8.76    7.28   1
   7  -6  -1    1.25    7.41   1
   7  -6  -1   -1.25    6.14   1
   7  -6   0    2.22    5.78   1
   7  -6   0    3.31    7.64   1
   7  -6   1    2.53    5.15   1
   7  -6   1   -1.64    5.86   1
   7  -6   2   12.60    7.03   1
   7  -6   2    7.90    5.23   1
   7  -6   3    3.50    5.35   1
   7  -6   3   18.92    6.96   1
   7  -6   4    2.13    6.28   1
   7  -6   4    5.57    5.14   1
   7  -6   5    8.88    6.97   1
   7  -5  -4   14.36    8.87   1
   7  -5  -4    8.24    8.04   1
   7  -5  -3    9.24    6.75   1
   7  -5  -3   -6.81    8.77   1
   7  -5  -2    2.43    5.62   1
   7  -5  -2  -14.21    8.60   1
   7  -5  -1    2.62    5.05   1
   7  -5  -1    2.99    7.54   1
   7  -5   0   11.29    4.97   1
   7  -5   0   11.70    5.88   1
   7  -5   1   17.22    5.48   1
   7  -5   1   13.25    7.35   1
   7  -5   2  199.09   11.57   1
   7  -5   2  164.35   14.10   1
   7  -5   3    2.56    4.10   1
   7  -5   3    8.76    6.39   1
   7  -5   4   -7.56    4.02   1
   7  -5   4    1.61    5.82   1
   7  -4  -5   -5.06    8.19   1
   7  -4  -5    6.60    9.82   1
   7  -4  -4   30.91    9.45   1
   7  -4  -4   26.94    7.78   1
   7  -4  -3   10.56    8.39   1
   7  -4  -3    6.20    5.78   1
   7  -4  -2   -6.86    7.60   1
   7  -4  -2    1.21    4.75   1
   7  -4  -1    0.98    4.18   1
   7  -4  -1    0.27    6.44   1
   7  -4   0   62.25    6.94   1
   7  -4   0   53.29    9.20   1
   7  -4   1    1.54    3.79   1
   7  -4   1   -5.71    6.45   1
   7  -4   2    1.14    3.38   1
   7  -4   2   -6.60    6.27   1
   7  -4   3   38.81    7.73   1
   7  -4   4    0.50    4.63   1
   7  -3  -6    1.23   10.23   1
   7  -3  -5   -6.45    9.25   1
   7  -3  -4   23.23    6.94   1
   7  -3  -4   11.09    6.66   1
   7  -3  -3   -0.23    7.00   1
   7  -3  -3    2.69    4.85   1
   7  -3  -2    2.59    6.83   1
   7  -3  -2   17.06    5.04   1
   7  -3  -1   42.51    8.87   1
   7  -3  -1   29.81    5.24   1
   7  -3   0    3.92    4.59   1
   7  -3   0    2.28    3.41   1
   7  -3   1   -0.23    3.71   1
   7  -3   1   -4.88    6.41   1
   7  -3   2    5.95    6.20   1
   7  -3   2   12.04    3.12   1
   7  -3   3    5.24    2.70   1
   7  -3   3    1.69    5.72   1
   7  -3   4    2.92    2.36   1
   7  -3   4    4.97    5.13   1
   7  -2  -6   -3.35   10.03   1
   7  -2  -5   23.33    9.56   1
   7  -2  -4    8.82    8.14   1
   7  -2  -3    0.26    5.49   1
   7  -2  -2   -0.77    4.03   1
   7  -2  -2    9.30    5.37   1
   7  -2  -1   -2.79    6.21   1
   7  -2  -1   -0.22    3.65   1
   7  -2   0   64.32    5.77   1
   7  -2   0   67.24    9.68   1
   7  -2   1   -4.54    5.45   1
   7  -2   1    2.96    2.65   1
   7  -2   2   65.45    4.85   1
   7  -2   2   50.84    7.70   1
   7  -2   3   -0.11    1.64   1
   7  -2   3    1.02    4.61   1
   7  -1  -6   33.18   10.71   1
   7  -1  -5    0.37    8.17   1
   7  -1  -4   29.92    7.33   1
   7  -1  -3   -6.45    7.01   1
   7  -1  -2   10.24    7.17   1
   7  -1   0   21.16    3.59   1
   7  -1   0   15.60    6.64   1
   7  -1   1   17.39    6.51   1
   7  -1   1   27.14    3.23   1
   7  -1   2   -1.12    5.51   1
   7  -1   2    1.30    1.57   1
   7  -1   3   19.98    6.44   1
   7   0  -6  -13.25    8.88   1
   7   0  -5    2.59    8.15   1
   7   0  -4   22.37    7.00   1
   7   0  -3   11.63    6.07   1
   7   0  -3   21.90    7.86   1
   7   0  -2   18.84    7.46   1
   7   0  -1   28.73    7.18   1
   7   0   0    9.36    6.00   1
   7   0   1   -1.23    5.48   1
   7   0   1   10.56    2.27   1
   7   0   2   68.56    9.11   1
   7   1  -6    4.12    8.81   1
   7   1  -6   -8.76    8.35   1
   7   1  -5   15.68    8.32   1
   7   1  -4    6.60    5.65   1
   7   1  -4    6.92    7.21   1
   7   1  -3   39.56    9.06   1
   7   1  -3   24.01    6.37   1
   7   1  -2   21.16    6.44   1
   7   1  -2   23.62    7.68   1
   7   1  -1   73.10    9.75   1
   7   1  -1   80.82    9.89   1
   7   1   0    7.34    5.85   1
   7   1   0   -8.07    6.25   1
   7   1   1   43.69    3.57   1
   7   1   1   36.84    7.77   1
   7   1   1   41.99    6.87   1
   7   1   2   -0.92    4.72   1
   7   1   3   -2.66    3.98   1
   7   2  -6    2.19    8.08   1
   7   2  -6    3.10    7.99   1
   7   2  -5    8.82    8.55   1
   7   2  -5   18.92    8.00   1
   7   2  -4   22.18    8.29   1
   7   2  -4   30.58    8.52   1
   7   2  -3    8.41    6.50   1
   7   2  -3   17.22    7.55   1
   7   2  -2    0.26    5.25   1
   7   2  -2   12.25    6.72   1
   7   2  -1    5.43    6.10   1
   7   2  -1    4.62    6.11   1
   7   2   0   57.76    9.27   1
   7   2   0   53.73    4.84   1
   7   2   1   13.99    2.54   1
   7   2   2    2.31    5.32   1
   7   2   3   24.40    6.82   1
   7   2   4   42.38    7.03   1
   7   2   5    0.03    4.86   1
   7   3  -5    7.56    7.43   1
   7   3  -5    4.93    7.50   1
   7   3  -4   -1.30    7.66   1
   7   3  -4   14.36    7.66   1
   7   3  -4   16.56    6.11   1
   7   3  -3    0.28    4.49   1
   7   3  -3    3.84    7.37   1
   7   3  -2    5.38    7.19   1
   7   3  -2    6.81    4.33   1
   7   3  -1   36.24    5.30   1
   7   3  -1   20.43    7.86   1
   7   3   0  -12.18    6.77   1
   7   3   0    1.30    2.74   1
   7   3   1   11.22    2.75   1
   7   3   1    9.42    6.32   1
   7   3   2   65.61    8.42   1
   7   3   3   -2.82    5.24   1
   7   3   4   20.61    6.17   1
   7   3   5   21.07    6.79   1
   7   3   6   68.06    8.91   1
   7   4  -5   17.47    7.86   1
   7   4  -4   16.40    6.80   1
   7   4  -4   -6.60    9.20   1
   7   4  -3   79.92    8.76   1
   7   4  -2    4.24    4.70   1
   7   4  -2   12.32    7.23   1
   7   4  -1    3.20    6.87   1
   7   4  -1   13.91    4.92   1
   7   4   0   95.06    7.22   1
   7   4   1   38.19    4.57   1
   7   4   1   25.70    7.71   1
   7   4   2    8.47    2.39   1
   7   4   2    8.94    6.40   1
   7   4   3    5.38    5.80   1
   7   4   4    6.50    5.71   1
   7   4   5    3.20    5.69   1
   7   4   6    7.29    6.26   1
   7   4   7   34.69    7.42   1
   7   4   8   99.00   10.35   1
   7   5  -4    1.00    6.56   1
   7   5  -3   -2.46   11.18   1
   7   5  -3    6.15    6.20   1
   7   5  -2    7.02    5.19   1
   7   5  -2   -7.78    8.87   1
   7   5  -1   -1.61    4.44   1
   7   5  -1   -1.37    7.79   1
   7   5   0    0.05    3.75   1
   7   5   0    1.99    7.61   1
   7   5   1  145.20    8.92   1
   7   5   1  127.46   13.77   1
   7   5   2    3.92    2.85   1
   7   5   2   -1.99    6.68   1
   7   5   3   21.07    3.12   1
   7   5   3   20.79    7.11   1
   7   5   4   65.77    9.41   1
   7   5   5   -3.24    5.90   1
   7   5   6   -6.05    6.15   1
   7   5   7   -2.72    5.91   1
   7   5   8   -5.43    6.20   1
   7   5   9    5.81    5.88   1
   7   6  -3    3.28    6.77   1
   7   6  -2    1.39    6.04   1
   7   6  -1   61.00   13.59   1
   7   6  -1   77.09    8.78   1
   7   6   0   13.03    9.17   1
   7   6   1    3.17    5.70   1
   7   6   1    4.00    4.40   1
   7   6   2   11.02    3.98   1
   7   6   2   -2.25    7.44   1
   7   6   3   -0.56    3.12   1
   7   6   3   -6.15    7.39   1
   7   6   4   33.18    8.41   1
   7   6   5  136.89   13.34   1
   7   6   6    7.56    6.77   1
   7   6   7    1.12    6.19   1
   7   6   8    8.29    6.57   1
   7   6   9   47.47    8.82   1
   7   6  10   36.60    8.59   1
   7   7  -1    0.94    6.34   1
   7   7   0    9.67    5.85   1
   7   7   1   13.76   10.76   1
   7   7   1   16.81    5.58   1
   7   7   2    7.90    7.76   1
   7   7   2    5.20    4.47   1
   7   7   3    2.53    4.58   1
   7   7   3    0.32    7.88   1
   7   7   4    8.94    8.31   1
   7   7   5   21.07    8.81   1
   7   7   6   10.63    7.04   1
   7   7   7    7.78    7.03   1
   7   7   8   14.21    7.39   1
   7   7   9    9.61    7.69   1
   7   8   1    8.94    6.28   1
   7   8   2    9.06    6.56   1
   7   8   3    6.86    5.45   1
   7   8   5   -6.97    8.66   1
   7   8   6   61.00   11.40   1
   7   8   7   27.04    9.15   1
   8  -5  -1   -6.92    6.63   1
   8  -5  -1    5.81    9.40   1
   8  -5   0   -4.71    6.16   1
   8  -5   0    5.81    9.21   1
   8  -5   1   -1.59    8.42   1
   8  -5   1    7.84    5.60   1
   8  -5   2    8.88    8.64   1
   8  -5   2   -1.44    5.09   1
   8  -5   3    0.66    4.71   1
   8  -5   3    4.37    7.77   1
   8  -5   4    5.24    4.63   1
   8  -5   4   -4.00    7.68   1
   8  -4  -2    1.17    6.74   1
   8  -4  -2    9.92    6.49   1
   8  -4  -1   -2.46    5.15   1
   8  -4  -1    8.70    6.78   1
   8  -4   1  401.20   18.43   1
   8  -4   1  438.90   25.14   1
   8  -4   2   25.20    8.63   1
   8  -4   3    7.08    6.70   1
   8  -4   3    4.28    3.56   1
   8  -4   4    8.58    7.68   1
   8  -4   4   10.82    3.82   1
   8  -3  -3   41.86    8.02   1
   8  -3  -3   12.67   10.32   1
   8  -3  -2   -6.35    6.70   1
   8  -3  -2   -5.11    5.11   1
   8  -3  -1    1.59    4.36   1
   8  -3  -1    0.17    5.76   1
   8  -3   0   -7.40    4.08   1
   8  -3   0  -10.11    8.20   1
   8  -3   1   61.47   10.51   1
   8  -3   1   55.35    5.80   1
   8  -3   2    9.06    3.07   1
   8  -3   2   12.96    7.56   1
   8  -3   3   11.29    5.91   1
   8  -3   3   18.40    3.52   1
   8  -2  -4   16.81   10.74   1
   8  -2  -3   -0.94    5.90   1
   8  -2  -3   -5.15    8.81   1
   8  -2  -2    7.73    5.12   1
   8  -2  -2   -0.03    8.03   1
   8  -2  -1    1.90    3.84   1
   8  -2  -1    0.94    7.74   1
   8  -2   0    9.55    3.58   1
   8  -2   0    2.69    7.22   1
   8  -2   1    1.49    2.71   1
   8  -2   2    6.45    7.21   1
   8  -2   2   11.49    2.78   1
   8  -2   3   23.33    8.11   1
   8  -1  -4    4.67   10.15   1
   8  -1  -3   12.18    7.26   1
   8  -1  -2   39.19   10.02   1
   8  -1  -1   33.52    9.26   1
   8  -1  -1   51.84    6.05   1
   8  -1   0   -4.33    5.16   1
   8  -1   0    2.46    3.23   1
   8  -1   1    7.62    2.59   1
   8  -1   1   19.62    8.15   1
   8  -1   2   -3.53    6.24   1
   8   0  -4   -5.20    9.76   1
   8   0  -3    9.36    9.00   1
   8   0  -2   -1.99    7.53   1
   8   0  -1   -2.31    7.57   1
   8   0   0   15.68    3.56   1
   8   0   0   22.18    8.29   1
   8   0   1    9.55    2.29   1
   8   0   1   10.89    6.60   1
   8   1  -4    6.15    9.52   1
   8   1  -3   -5.29    8.19   1
   8   1  -3    7.13    8.17   1
   8   1  -2    3.65    6.26   1
   8   1  -2   -4.75    8.33   1
   8   1  -1    0.76    7.19   1
   8   1  -1   -1.46    7.50   1
   8   1   0    3.24    8.21   1
   8   1   0   -1.69    7.31   1
   8   1   1    0.46    6.42   1
   8   2  -4    6.40    9.87   1
   8   2  -3    1.44   10.61   1
   8   2  -3   -5.43    8.53   1
   8   2  -2   62.41    7.27   1
   8   2  -2   57.91   10.81   1
   8   2  -1    3.39    3.64   1
   8   2   0   18.32    8.73   1
   8   2   0   33.87    4.42   1
   8   2   1    6.60    8.17   1
   8   2   2   12.89    7.90   1
   8   2   3   -1.99    6.88   1
   8   2   4    6.20    6.92   1
   8   3  -3   10.76    6.23   1
   8   3  -2    3.10    8.41   1
   8   3  -2   26.21    5.73   1
   8   3  -1   49.14    6.31   1
   8   3  -1   32.95    9.41   1
   8   3   0   49.00   10.78   1
   8   3   0   83.72    6.22   1
   8   3   1   31.70    3.49   1
   8   3   2   17.14    8.36   1
   8   3   3    1.23    6.30   1
   8   3   4   16.73    7.03   1
   8   3   5    6.25    7.40   1
   8   3   6   -3.28    7.06   1
   8   4  -2    5.43    5.73   1
   8   4  -1   -3.88    4.69   1
   8   4   0  111.09    7.59   1
   8   4   0   80.46   12.92   1
   8   4   1    5.86    7.89   1
   8   4   2   -0.37    6.78   1
   8   4   3   11.42    7.98   1
   8   4   4    9.73    7.74   1
   8   4   5   67.90   10.71   1
   8   4   6  154.01   14.40   1
   8   4   7    4.04    7.40   1
   8   5  -1    2.82    5.31   1
   8   5   0    8.07    4.49   1
   8   5   1   -5.06    9.99   1
   8   5   1   -0.64    3.63   1
   8   5   2    8.58    3.28   1
   8   5   2    0.50    7.47   1
   8   5   3   -4.75    7.98   1
   8   5   4    4.62    7.74   1
   8   5   5   -2.89    7.68   1
   8   5   6    2.16    5.97   1
   8   5   7   -4.93    7.81   1
   8   5   8   16.00    8.40   1
   8   6   0   42.77    7.19   1
   8   6   1    2.22    4.50   1
   8   6   2   -2.25    3.66   1
   8   6   3   17.22    3.73   1
   8   6   4   -7.02    9.17   1
   8   6   5    4.20    7.79   1
   8   6   6   29.81    8.63   1
   8   6   7   -2.86    8.35   1
   8   6   8   20.79    9.85   1
   9  -3   1    5.02    9.09   1
   9  -3   2   13.99    9.13   1
   9  -3   3    6.10    9.29   1
   9  -2   0    2.19    9.26   1
   9  -2   1    1.17    8.88   1
   9  -2   2   -3.46    7.14   1
   9  -1  -1   17.56   11.31   1
   9  -1   0   10.63   10.24   1
   9  -1   1    4.04    8.08   1
   9   0  -1  -12.74   10.71   1
   9   0   0   -9.49    9.18   1
   9   1  -1   -0.21    4.11   1
   9   1   0   10.11    3.56   1
   9   3   5   -2.62    6.97   1
   0   0   0    0.00    0.00   0
;
_shelx_hkl_checksum              45378
_shelx_res_file
;
TITL eac31w
CELL  0.71073   7.4999   8.8965  11.2806   83.338   73.354   86.406
ZERR     2.00   0.0004   0.0005   0.0009    0.006    0.005    0.006
LATT   1
SFAC  C    H    N    S    O
UNIT  30   24   8    4    2
MERG   2
OMIT    -2.00 60.0
FMAP   2
PLAN   20
SIZE     0.11   0.21   0.39
ACTA
BOND   $H
CONF
HTAB
LIST   4
OMIT 1 0 0
OMIT 0 -1 1
OMIT 0 1 1
OMIT 1 0 1
OMIT 1 1 0
L.S.   20
EXYZ C42 C52
EADP S41 C53
EADP C42 C52
EADP C43 S51
EADP C44 C55
EADP C45 C54
MPLA  9 N1 C2 N3 C4 N5 N6 C7 C8 C8A S21 C22 C23
MPLA S41 C42 C43 C44 C45
MPLA S51 C52 C53 C54 C55
TEMP  -153.00
WGHT    0.061300    0.857200
FVAR       0.50102   0.93442
N1    3    0.356663    0.662199    0.325107    11.00000    0.02629    0.01960 =
         0.02054   -0.00107   -0.00645   -0.00382
C2    1    0.293098    0.536275    0.304341    11.00000    0.01889    0.02247 =
         0.02289   -0.00166   -0.00369   -0.00004
N3    3    0.220722    0.417542    0.390705    11.00000    0.02264    0.01989 =
         0.02216   -0.00241   -0.00658   -0.00074
C4    1    0.214197    0.428137    0.507542    11.00000    0.01594    0.02024 =
         0.02353   -0.00285   -0.00563    0.00011
N5    3    0.274287    0.555993    0.538615    11.00000    0.02333    0.01860 =
         0.01907   -0.00222   -0.00525   -0.00285
N6    3    0.273853    0.588819    0.654531    11.00000    0.02653    0.02403 =
         0.01924   -0.00111   -0.00583   -0.00304
C7    1    0.345883    0.727066    0.632292    11.00000    0.02009    0.01844 =
         0.02686   -0.00225   -0.00511   -0.00184
C8    1    0.394070    0.784476    0.505602    11.00000    0.02386    0.01901 =
         0.02317   -0.00005   -0.00509   -0.00017
AFIX  43
H8    2    0.447595    0.879010    0.469731    11.00000   -1.20000
AFIX   0
C8A   1    0.346798    0.673996    0.445288    11.00000    0.02398    0.02205 =
         0.02147    0.00002   -0.00411   -0.00055
S21   4    0.305451    0.519700    0.149696    11.00000    0.03469    0.02501 =
         0.02003   -0.00245   -0.00574   -0.00454
C21   1    0.200187    0.339357    0.159785    11.00000    0.02789    0.02935 =
         0.02454   -0.00413   -0.00493   -0.00474
AFIX  23
H21A  2    0.271947    0.257732    0.194882    11.00000   -1.20000
H21B  2    0.071176    0.341532    0.215051    11.00000   -1.20000
AFIX   0
C22   1    0.199386    0.309413    0.029739    11.00000    0.04038    0.04064 =
         0.02627   -0.00854   -0.00577   -0.00610
AFIX 137
H22A  2    0.123909    0.388409   -0.002999    11.00000   -1.50000
H22B  2    0.146539    0.210402    0.033463    11.00000   -1.50000
H22C  2    0.327193    0.310159   -0.024937    11.00000   -1.50000
AFIX   0
PART -1
S41   4    0.080767    0.145636    0.546665    21.00000    0.03209    0.02079 =
         0.02311   -0.00306   -0.00745   -0.00588
C42   1    0.143124    0.302287    0.599744    21.00000    0.02037    0.02207 =
         0.02255   -0.00244   -0.00450   -0.00323
C43   1    0.118295    0.281441    0.725260    21.00000    0.02903    0.02103 =
         0.01784   -0.00534   -0.00757   -0.00442
AFIX  43
H43   2    0.148737    0.354582    0.770778    21.00000   -1.20000
AFIX   0
C44   1    0.042472    0.139557    0.780725    21.00000    0.03017    0.02456 =
         0.02179    0.00222   -0.00563   -0.00253
AFIX  43
H44   2    0.013698    0.107286    0.867187    21.00000   -1.20000
AFIX   0
C45   1    0.016208    0.055355    0.693628    21.00000    0.03092    0.02129 =
         0.03295    0.00216   -0.00810   -0.00221
AFIX  43
H45   2   -0.032903   -0.043227    0.712910    21.00000   -1.20000
AFIX   0
PART 0
PART -2
SAME 0.005 0.01 S41 > C45
S51   4    0.128370    0.297361    0.754679   -21.00000    0.02903    0.02103 =
         0.01784   -0.00534   -0.00757   -0.00442
C52   1    0.143124    0.302287    0.599744   -21.00000    0.02037    0.02207 =
         0.02255   -0.00244   -0.00450   -0.00323
C53   1    0.063512    0.179300    0.576001   -21.00000    0.03209    0.02079 =
         0.02311   -0.00306   -0.00745   -0.00588
AFIX  43
H53   2    0.048600    0.166849    0.496907   -21.00000   -1.20000
AFIX   0
C54   1    0.005444    0.072140    0.681769   -21.00000    0.03092    0.02129 =
         0.03295    0.00216   -0.00810   -0.00221
AFIX  43
H54   2   -0.045785   -0.022647    0.681109   -21.00000   -1.20000
AFIX   0
C55   1    0.032843    0.123104    0.784705   -21.00000    0.03017    0.02456 =
         0.02179    0.00222   -0.00563   -0.00253
AFIX  43
H55   2    0.001951    0.067371    0.864577   -21.00000   -1.20000
AFIX   0
PART 0
O71   5    0.451836    0.936682    0.704659    11.00000    0.03277    0.02253 =
         0.02699   -0.00363   -0.00758   -0.00809
C72   1    0.363808    0.800219    0.735849    11.00000    0.02441    0.01611 =
         0.02463   -0.00036   -0.00692   -0.00117
C73   1    0.312410    0.767692    0.860838    11.00000    0.02655    0.02481 =
         0.02489    0.00141   -0.00895   -0.00580
AFIX  43
H73   2    0.250205    0.680080    0.906075    11.00000   -1.20000
AFIX   0
C74   1    0.368981    0.889322    0.911905    11.00000    0.03008    0.03199 =
         0.02057   -0.00331   -0.00570   -0.00146
AFIX  43
H74   2    0.351725    0.898972    0.997492    11.00000   -1.20000
AFIX   0
C75   1    0.452099    0.988316    0.814451    11.00000    0.03712    0.02176 =
         0.03212   -0.00936   -0.01373   -0.00598
AFIX  43
H75   2    0.503560    1.080822    0.821082    11.00000   -1.20000
AFIX   0
HKLF 4
REM  eac31w
REM R1 =  0.0546 for    2068 Fo > 4sig(Fo)  and  0.1110 for all    3289 data
REM    213 parameters refined using     10 restraints
END
WGHT      0.0613      0.8572
REM Instructions for potential hydrogen bonds
EQIV $1 -x+1, -y+2, -z+1
HTAB C8 O71_$1
EQIV $2 -x, -y+1, -z+1
HTAB C21 N6_$2
HTAB C43 N6
REM Highest difference peak  0.397,  deepest hole -0.445,  1-sigma level  0.100
Q1    1   0.1709  0.2694  0.2053  11.00000  0.05    0.40
Q2    1   0.2597  0.3808 -0.0223  11.00000  0.05    0.39
Q3    1  -0.0246 -0.0058  0.6216  11.00000  0.05    0.38
Q4    1   0.3036  0.8125  1.1586  11.00000  0.05    0.37
Q5    1   0.1154  0.5673  0.9447  11.00000  0.05    0.37
Q6    1   0.5240  1.1937  0.7552  11.00000  0.05    0.37
Q7    1  -0.0721  0.1627  0.5099  11.00000  0.05    0.36
Q8    1  -0.0426  0.0476  0.9231  11.00000  0.05    0.36
Q9    1   0.3319  0.5017  0.9359  11.00000  0.05    0.36
Q10   1   0.1507  0.2650  0.3222  11.00000  0.05    0.35
Q11   1  -0.0484  0.2770  0.5029  11.00000  0.05    0.35
Q12   1   0.1721  0.8550  0.5400  11.00000  0.05    0.34
Q13   1   0.2045  0.3045  0.0977  11.00000  0.05    0.34
Q14   1   0.3630  0.8263  0.8849  11.00000  0.05    0.33
Q15   1  -0.0821  0.4479  0.1434  11.00000  0.05    0.33
Q16   1   0.4457  0.4814  0.2088  11.00000  0.05    0.32
Q17   1   0.1487  0.3819  0.5991  11.00000  0.05    0.31
Q18   1   0.3031  0.2642  0.1543  11.00000  0.05    0.31
Q19   1   0.3970  0.2384  0.0071  11.00000  0.05    0.31
Q20   1   0.1180  0.3753  0.0442  11.00000  0.05    0.31
;
_shelx_res_checksum              7664
_shelxl_version_number           2.014
loop_
_space_group_symop_operation_xyz
'x, y, z'
'-x, -y, -z'
loop_
_atom_site_type_symbol
_atom_site_label
_atom_site_fract_x
_atom_site_fract_y
_atom_site_fract_z
_atom_site_U_iso_or_equiv
_atom_site_adp_type
_atom_site_calc_flag
_atom_site_occupancy
_atom_site_disorder_assembly
_atom_site_disorder_group
N N1 0.3567(4) 0.6622(3) 0.3251(2) 0.0221(6) Uani d 1 . .
C C2 0.2931(4) 0.5363(4) 0.3043(3) 0.0220(7) Uani d 1 . .
N N3 0.2207(4) 0.4175(3) 0.3907(2) 0.0215(6) Uani d 1 . .
C C4 0.2142(4) 0.4281(3) 0.5075(3) 0.0199(6) Uani d 1 . .
N N5 0.2743(4) 0.5560(3) 0.5386(2) 0.0204(6) Uani d 1 . .
N N6 0.2739(4) 0.5888(3) 0.6545(2) 0.0234(6) Uani d 1 . .
C C7 0.3459(4) 0.7271(3) 0.6323(3) 0.0221(7) Uani d 1 . .
C C8 0.3941(4) 0.7845(3) 0.5056(3) 0.0225(7) Uani d 1 . .
H H8 0.4476 0.8790 0.4697 0.027 Uiso calc 1 . .
C C8A 0.3468(5) 0.6740(4) 0.4453(3) 0.0232(7) Uani d 1 . .
S S21 0.30545(13) 0.51970(9) 0.14970(8) 0.0268(2) Uani d 1 . .
C C21 0.2002(5) 0.3394(4) 0.1598(3) 0.0275(8) Uani d 1 . .
H H21A 0.2719 0.2577 0.1949 0.033 Uiso calc 1 . .
H H21B 0.0712 0.3415 0.2151 0.033 Uiso calc 1 . .
C C22 0.1994(6) 0.3094(4) 0.0297(3) 0.0359(9) Uani d 1 . .
H H22A 0.1239 0.3884 -0.0030 0.054 Uiso calc 1 . .
H H22B 0.1465 0.2104 0.0335 0.054 Uiso calc 1 . .
H H22C 0.3272 0.3102 -0.0249 0.054 Uiso calc 1 . .
S S41 0.08077(15) 0.14564(10) 0.54666(8) 0.0251(3) Uani d 0.934(4) A -1
C C42 0.1431(4) 0.3023(3) 0.5997(3) 0.0219(7) Uani d 0.934(4) A -1
C C43 0.1183(9) 0.2814(6) 0.7253(5) 0.0220(9) Uani d 0.934(4) A -1
H H43 0.1487 0.3546 0.7708 0.026 Uiso calc 0.934(4) A -1
C C44 0.0425(17) 0.1396(8) 0.7807(4) 0.0262(8) Uani d 0.934(4) A -1
H H44 0.0137 0.1073 0.8672 0.031 Uiso calc 0.934(4) A -1
C C45 0.0162(14) 0.0554(6) 0.6936(5) 0.0289(12) Uani d 0.934(4) A -1
H H45 -0.0329 -0.0432 0.7129 0.035 Uiso calc 0.934(4) A -1
S S51 0.128(4) 0.297(3) 0.7547(9) 0.0220(9) Uani d 0.066(4) A -2
C C52 0.1431(4) 0.3023(3) 0.5997(3) 0.0219(7) Uani d 0.066(4) A -2
C C53 0.064(9) 0.179(4) 0.576(3) 0.0251(3) Uani d 0.066(4) A -2
H H53 0.0486 0.1668 0.4969 0.030 Uiso calc 0.066(4) A -2
C C54 0.01(2) 0.072(9) 0.682(4) 0.0289(12) Uani d 0.066(4) A -2
H H54 -0.0458 -0.0226 0.6811 0.035 Uiso calc 0.066(4) A -2
C C55 0.03(3) 0.123(10) 0.785(4) 0.0262(8) Uani d 0.066(4) A -2
H H55 0.0020 0.0674 0.8646 0.031 Uiso calc 0.066(4) A -2
O O71 0.4518(3) 0.9367(2) 0.7047(2) 0.0272(5) Uani d 1 . .
C C72 0.3638(5) 0.8002(3) 0.7358(3) 0.0218(7) Uani d 1 . .
C C73 0.3124(5) 0.7677(4) 0.8608(3) 0.0252(7) Uani d 1 . .
H H73 0.2502 0.6801 0.9061 0.030 Uiso calc 1 . .
C C74 0.3690(5) 0.8893(4) 0.9119(3) 0.0278(8) Uani d 1 . .
H H74 0.3517 0.8990 0.9975 0.033 Uiso calc 1 . .
C C75 0.4521(5) 0.9883(4) 0.8145(3) 0.0287(8) Uani d 1 . .
H H75 0.5036 1.0808 0.8211 0.034 Uiso calc 1 . .
loop_
_atom_site_aniso_label
_atom_site_aniso_U_11
_atom_site_aniso_U_22
_atom_site_aniso_U_33
_atom_site_aniso_U_12
_atom_site_aniso_U_13
_atom_site_aniso_U_23
N1 0.0263(15) 0.0196(13) 0.0205(14) -0.0038(11) -0.0065(11) -0.0011(11)
C2 0.0189(16) 0.0225(16) 0.0229(16) 0.0000(13) -0.0037(13) -0.0017(12)
N3 0.0226(15) 0.0199(13) 0.0222(14) -0.0007(11) -0.0066(11) -0.0024(11)
C4 0.0159(15) 0.0202(15) 0.0235(16) 0.0001(12) -0.0056(12) -0.0028(12)
N5 0.0233(15) 0.0186(13) 0.0191(13) -0.0028(11) -0.0052(11) -0.0022(10)
N6 0.0265(15) 0.0240(14) 0.0192(14) -0.0030(12) -0.0058(11) -0.0011(11)
C7 0.0201(17) 0.0184(15) 0.0269(17) -0.0018(13) -0.0051(13) -0.0023(13)
C8 0.0239(17) 0.0190(15) 0.0232(16) -0.0002(13) -0.0051(13) -0.0001(12)
C8A 0.0240(18) 0.0220(16) 0.0215(16) -0.0005(13) -0.0041(13) 0.0000(13)
S21 0.0347(5) 0.0250(4) 0.0200(4) -0.0045(4) -0.0057(3) -0.0025(3)
C21 0.0279(19) 0.0293(18) 0.0245(17) -0.0047(15) -0.0049(14) -0.0041(14)
C22 0.040(2) 0.041(2) 0.0263(19) -0.0061(17) -0.0058(16) -0.0085(16)
S41 0.0321(6) 0.0208(5) 0.0231(5) -0.0059(4) -0.0074(4) -0.0031(3)
C42 0.0204(17) 0.0221(16) 0.0225(16) -0.0032(13) -0.0045(13) -0.0024(13)
C43 0.029(2) 0.021(2) 0.018(2) -0.0044(15) -0.008(2) -0.0053(19)
C44 0.030(2) 0.025(2) 0.0218(17) -0.0025(19) -0.0056(15) 0.0022(13)
C45 0.031(2) 0.021(2) 0.033(2) -0.002(2) -0.0081(18) 0.0022(14)
S51 0.029(2) 0.021(2) 0.018(2) -0.0044(15) -0.008(2) -0.0053(19)
C52 0.0204(17) 0.0221(16) 0.0225(16) -0.0032(13) -0.0045(13) -0.0024(13)
C53 0.0321(6) 0.0208(5) 0.0231(5) -0.0059(4) -0.0074(4) -0.0031(3)
C54 0.031(2) 0.021(2) 0.033(2) -0.002(2) -0.0081(18) 0.0022(14)
C55 0.030(2) 0.025(2) 0.0218(17) -0.0025(19) -0.0056(15) 0.0022(13)
O71 0.0328(14) 0.0225(12) 0.0270(12) -0.0081(10) -0.0076(10) -0.0036(9)
C72 0.0244(17) 0.0161(15) 0.0246(16) -0.0012(13) -0.0069(13) -0.0004(12)
C73 0.0266(18) 0.0248(17) 0.0249(17) -0.0058(14) -0.0089(14) 0.0014(13)
C74 0.0301(19) 0.0320(18) 0.0206(16) -0.0015(15) -0.0057(14) -0.0033(14)
C75 0.037(2) 0.0218(17) 0.0321(19) -0.0060(15) -0.0137(16) -0.0094(14)
loop_
_atom_type_symbol
_atom_type_description
_atom_type_scat_dispersion_real
_atom_type_scat_dispersion_imag
_atom_type_scat_source
C C 0.0033 0.0016 'International Tables Vol C Tables 4.2.6.8 and 6.1.1.4'
H H 0.0000 0.0000 'International Tables Vol C Tables 4.2.6.8 and 6.1.1.4'
N N 0.0061 0.0033 'International Tables Vol C Tables 4.2.6.8 and 6.1.1.4'
S S 0.1246 0.1234 'International Tables Vol C Tables 4.2.6.8 and 6.1.1.4'
O O 0.0106 0.0060 'International Tables Vol C Tables 4.2.6.8 and 6.1.1.4'
loop_
_geom_angle_atom_site_label_1
_geom_angle_atom_site_label_2
_geom_angle_atom_site_label_3
_geom_angle
C2 N1 C8A 115.2(3)
N1 C2 N3 127.1(3)
N1 C2 S21 115.6(2)
N3 C2 S21 117.3(2)
C4 N3 C2 117.7(3)
N3 C4 N5 119.6(3)
N3 C4 C42 118.6(3)
N5 C4 C42 121.8(3)
C4 N5 N6 127.9(3)
C4 N5 C8A 119.9(3)
N6 N5 C8A 112.3(3)
C7 N6 N5 103.2(2)
N6 C7 C8 113.7(3)
N6 C7 C72 118.7(3)
C8 C7 C72 127.6(3)
C8A C8 C7 105.1(3)
C8A C8 H8 127.4
C7 C8 H8 127.4
N1 C8A C8 133.6(3)
N1 C8A N5 120.6(3)
C8 C8A N5 105.7(3)
C2 S21 C21 102.51(15)
C22 C21 S21 108.6(2)
C22 C21 H21A 110.0
S21 C21 H21A 110.0
C22 C21 H21B 110.0
S21 C21 H21B 110.0
H21A C21 H21B 108.3
C21 C22 H22A 109.5
C21 C22 H22B 109.5
H22A C22 H22B 109.5
C21 C22 H22C 109.5
H22A C22 H22C 109.5
H22B C22 H22C 109.5
C45 S41 C42 91.32(18)
C43 C42 C4 131.8(3)
C43 C42 S41 111.3(3)
C4 C42 S41 116.9(2)
C42 C43 C44 113.2(4)
C42 C43 H43 123.4
C44 C43 H43 123.4
C45 C44 C43 111.2(4)
C45 C44 H44 124.4
C43 C44 H44 124.4
C44 C45 S41 113.0(3)
C44 C45 H45 123.5
S41 C45 H45 123.5
C54 C53 H53 123.5
C55 C54 C53 111.1(7)
C55 C54 H54 124.4
C53 C54 H54 124.4
C54 C55 S51 112.9(6)
C54 C55 H55 123.6
S51 C55 H55 123.6
C75 O71 C72 106.4(2)
C73 C72 O71 109.7(3)
C73 C72 C7 135.1(3)
O71 C72 C7 115.3(3)
C72 C73 C74 107.1(3)
C72 C73 H73 126.4
C74 C73 H73 126.4
C75 C74 C73 106.3(3)
C75 C74 H74 126.8
C73 C74 H74 126.8
C74 C75 O71 110.5(3)
C74 C75 H75 124.7
O71 C75 H75 124.7
loop_
_geom_bond_atom_site_label_1
_geom_bond_atom_site_label_2
_geom_bond_distance
_geom_bond_publ_flag
N1 C2 1.315(4) y
C2 N3 1.375(4) y
C2 S21 1.743(3) ?
N3 C4 1.319(4) y
C4 N5 1.366(4) y
C4 C42 1.451(4) ?
N5 N6 1.372(4) y
N6 C7 1.342(4) y
C7 C8 1.411(4) y
C7 C72 1.443(4) ?
C8 C8A 1.375(5) y
C8A N1 1.352(4) y
N5 C8A 1.412(4) y
C8 H8 0.9500 ?
S21 C21 1.810(3) ?
C21 C22 1.523(5) ?
C21 H21A 0.9900 ?
C21 H21B 0.9900 ?
C22 H22A 0.9800 ?
C22 H22B 0.9800 ?
C22 H22C 0.9800 ?
S41 C42 1.719(3) y
C42 C43 1.366(6) y
C43 C44 1.418(6) y
C43 H43 0.9500 ?
C44 C45 1.366(5) y
C45 S41 1.705(4) y
C44 H44 0.9500 ?
C45 H45 0.9500 ?
S51 C55 1.706(7) ?
C53 C54 1.419(7) ?
C53 H53 0.9500 ?
C54 C55 1.366(7) ?
C54 H54 0.9500 ?
C55 H55 0.9500 ?
O71 C72 1.379(4) y
C72 C73 1.352(4) y
C73 C74 1.423(5) y
C73 H73 0.9500 ?
C74 C75 1.351(5) y
C75 O71 1.371(4) y
C74 H74 0.9500 ?
C75 H75 0.9500 ?
loop_
_geom_hbond_atom_site_label_D
_geom_hbond_atom_site_label_H
_geom_hbond_atom_site_label_A
_geom_hbond_site_symmetry_A
_geom_hbond_distance_DH
_geom_hbond_distance_HA
_geom_hbond_distance_DA
_geom_hbond_angle_DHA
_geom_hbond_publ_flag
C8 H8 O71 2_676 0.95 2.38 3.246(4) 151 y
C22 H22A Cg1 2_666 0.99 2.73 3.615(4) 148 y
loop_
_geom_torsion_atom_site_label_1
_geom_torsion_atom_site_label_2
_geom_torsion_atom_site_label_3
_geom_torsion_atom_site_label_4
_geom_torsion
_geom_torsion_publ_flag
C8A N1 C2 N3 -0.6(5) ?
C8A N1 C2 S21 -179.9(2) ?
N1 C2 N3 C4 -0.5(5) ?
S21 C2 N3 C4 178.8(2) ?
C2 N3 C4 N5 1.6(4) ?
C2 N3 C4 C42 -178.3(3) ?
N3 C4 N5 N6 178.2(3) ?
C42 C4 N5 N6 -1.9(5) ?
N3 C4 N5 C8A -1.5(4) ?
C42 C4 N5 C8A 178.4(3) ?
C4 N5 N6 C7 -179.7(3) ?
C8A N5 N6 C7 0.1(3) ?
N5 N6 C7 C8 -0.4(3) ?
N5 N6 C7 C72 178.9(3) ?
N6 C7 C8 C8A 0.5(4) ?
C72 C7 C8 C8A -178.7(3) ?
C2 N1 C8A C8 -178.9(4) ?
C2 N1 C8A N5 0.7(4) ?
C7 C8 C8A N1 179.2(3) ?
C7 C8 C8A N5 -0.4(3) ?
C4 N5 C8A N1 0.3(4) ?
N6 N5 C8A N1 -179.4(3) ?
C4 N5 C8A C8 -180.0(3) ?
N6 N5 C8A C8 0.2(4) ?
N1 C2 S21 C21 -178.1(2) y
N3 C2 S21 C21 2.5(3) ?
C2 S21 C21 C22 179.5(3) y
N3 C4 C42 C43 -179.3(5) ?
N5 C4 C42 C43 0.9(7) ?
N3 C4 C42 S41 2.3(4) y
N5 C4 C42 S41 -177.6(2) ?
C45 S41 C42 C43 1.5(5) ?
C45 S41 C42 C4 -179.8(4) ?
C4 C42 C43 C44 179.6(7) ?
S41 C42 C43 C44 -1.9(8) ?
C42 C43 C44 C45 1.4(12) ?
C43 C44 C45 S41 -0.3(13) ?
C42 S41 C45 C44 -0.7(8) ?
C53 C54 C55 S51 0(19) ?
C75 O71 C72 C73 -0.5(4) ?
C75 O71 C72 C7 179.0(3) ?
N6 C7 C72 C73 -5.4(6) ?
C8 C7 C72 C73 173.8(4) ?
N6 C7 C72 O71 175.3(3) ?
C8 C7 C72 O71 -5.5(5) y
O71 C72 C73 C74 0.4(4) ?
C7 C72 C73 C74 -178.9(4) ?
C72 C73 C74 C75 -0.2(4) ?
C73 C74 C75 O71 -0.1(4) ?
C72 O71 C75 C74 0.3(4) ?
