#------------------------------------------------------------------------------
#$Date: 2019-12-26 21:57:59 +0200 (Thu, 26 Dec 2019) $
#$Revision: 246128 $
#$URL: file:///home/coder/svn-repositories/cod/cif/2/31/18/2311826.cif $
#------------------------------------------------------------------------------
#
# This file is available in the Crystallography Open Database (COD),
# http://www.crystallography.net/. The original data for this entry
# were provided by IUCr Journals, http://journals.iucr.org/.
#
# The file may be used within the scientific community so long as
# proper attribution is given to the journal article from which the
# data were obtained.
#
data_2311826
loop_
_publ_author_name
'Nayak, Prakash S.'
'Jasinski, Jerry P.'
'Golen, James A.'
'Narayana, Badiadka'
'Kaur, Manpreet'
'Yathirajan, Hemmige S.'
'Glidewell, Christopher'
_publ_section_title
;
 Halogenated C,N-diarylacetamides: molecular conformations and
 supramolecular assembly.
;
_journal_coeditor_code           SK3561
_journal_issue                   'Pt 9'
_journal_name_full
'Acta crystallographica. Section C, Structural chemistry'
_journal_page_first              889
_journal_page_last               894
_journal_paper_doi               10.1107/S2053229614018713
_journal_volume                  70
_journal_year                    2014
_chemical_formula_iupac          'C15 H12 Cl3 N O'
_chemical_formula_moiety         'C15 H12 Cl3 N O'
_chemical_formula_sum            'C15 H12 Cl3 N O'
_chemical_formula_weight         328.61
_chemical_name_systematic
;
<i>N</i>-(4-Chloro-3-methylphenyl)-2-(2,4-dichlorophenyl)acetamide
;
_space_group_crystal_system      monoclinic
_space_group_IT_number           4
_space_group_name_Hall           'P 2yb'
_space_group_name_H-M_alt        'P 1 21 1'
_atom_sites_solution_hydrogens   geom
_audit_creation_method           SHELXL-2014
_cell_angle_alpha                90
_cell_angle_beta                 101.310(6)
_cell_angle_gamma                90
_cell_formula_units_Z            2
_cell_length_a                   11.8441(7)
_cell_length_b                   4.7288(3)
_cell_length_c                   13.0981(7)
_cell_measurement_reflns_used    2566
_cell_measurement_temperature    173(2)
_cell_measurement_theta_max      72.177
_cell_measurement_theta_min      3.441
_cell_volume                     719.36(7)
_computing_cell_refinement       'CrysAlis PRO (Agilent, 2012)'
_computing_data_collection       'CrysAlis PRO (Agilent, 2012)'
_computing_data_reduction        'CrysAlis RED (Agilent, 2012)'
_computing_molecular_graphics    'PLATON (Spek, 2009)'
_computing_publication_material
'SHELXL2014 (Sheldrick, 2014) and PLATON (Spek, 2009)'
_computing_structure_refinement  'SHELXL2014 (Sheldrick, 2014)'
_computing_structure_solution    'SUPERFLIP (Palatinus & Chapuis, 2007)'
_diffrn_ambient_temperature      173(2)
_diffrn_measured_fraction_theta_full 1.000
_diffrn_measured_fraction_theta_max 0.990
_diffrn_measurement_device_type  'Agilent Eos Gemini'
_diffrn_measurement_method       '\w scans'
_diffrn_radiation_type           CuK\a
_diffrn_radiation_wavelength     1.54184
_diffrn_reflns_av_R_equivalents  0.0394
_diffrn_reflns_limit_h_max       14
_diffrn_reflns_limit_h_min       -7
_diffrn_reflns_limit_k_max       5
_diffrn_reflns_limit_k_min       -5
_diffrn_reflns_limit_l_max       16
_diffrn_reflns_limit_l_min       -15
_diffrn_reflns_number            4196
_diffrn_reflns_theta_full        67.684
_diffrn_reflns_theta_max         72.177
_diffrn_reflns_theta_min         3.441
_diffrn_standards_decay_%        0
_diffrn_standards_interval_count 0
_diffrn_standards_interval_time  0
_diffrn_standards_number         0
_exptl_absorpt_coefficient_mu    5.714
_exptl_absorpt_correction_T_max  0.710
_exptl_absorpt_correction_T_min  0.256
_exptl_absorpt_correction_type   multi-scan
_exptl_absorpt_process_details   '(CrysAlis PRO; Agilent, 2012)'
_exptl_crystal_colour            colourless
_exptl_crystal_density_diffrn    1.517
_exptl_crystal_description       block
_exptl_crystal_F_000             336
_exptl_crystal_size_max          0.160
_exptl_crystal_size_mid          0.080
_exptl_crystal_size_min          0.060
_refine_diff_density_max         0.554
_refine_diff_density_min         -0.289
_refine_ls_abs_structure_details
;
Flack <i>x</i> determined using 697 quotients [(I+)-(I-)]/[(I+)+(I-)]
(Parsons <i>et al.</i>, 2013)
;
_refine_ls_abs_structure_Flack   -0.02(4)
_refine_ls_extinction_method     none
_refine_ls_goodness_of_fit_ref   1.067
_refine_ls_hydrogen_treatment    constr
_refine_ls_matrix_type           full
_refine_ls_number_parameters     182
_refine_ls_number_reflns         2566
_refine_ls_number_restraints     1
_refine_ls_restrained_S_all      1.066
_refine_ls_R_factor_all          0.0690
_refine_ls_R_factor_gt           0.0581
_refine_ls_shift/su_max          0.000
_refine_ls_shift/su_mean         0.000
_refine_ls_structure_factor_coef Fsqd
_refine_ls_weighting_details
'w=1/[\s^2^(Fo^2^)+(0.0740P)^2^+0.1558P] where P=(Fo^2^+2Fc^2^)/3'
_refine_ls_weighting_scheme      calc
_refine_ls_wR_factor_gt          0.1433
_refine_ls_wR_factor_ref         0.1550
_reflns_number_gt                2214
_reflns_number_total             2566
_reflns_threshold_expression     I>2\s(I)
_cod_data_source_file            sk3561sup1.cif
_cod_data_source_block           III
_cod_original_sg_symbol_H-M      'P 21'
_cod_database_code               2311826
_shelx_space_group_comment
;
The symmetry employed for this shelxl refinement is uniquely defined
by the following loop, which should always be used as a source of
symmetry information in preference to the above space-group names.
They are only intended as comments.
;
_shelx_estimated_absorpt_t_min   0.462
_shelx_estimated_absorpt_t_max   0.726
_shelx_hkl_file
;
   0  -5   0 85.3851 504.760  15
   0  -5  -1 1260.02 743.915  15
   0  -5   1-12.1826 620.255  15
   0  -5  -2 15706.7 2245.42  24
   0  -5   2 13009.5 2019.38  15
   0  -5   3 3248.33 1025.13  15
   0  -5  -3 2639.49 1042.19  24
   0  -5  -4 7279.00 1533.70  24
   0  -5   4 9783.08 1682.36  15
   0  -5   5 6265.55 1368.99  15
   0  -5  -5 4138.90 1125.98  24
   0  -5  -6 3642.48 1052.92  24
   0  -5   6 3608.84 997.231  15
   0  -5   7 5126.34 1054.13  15
   0  -5  -7 4858.85 1048.94  24
   0  -4   0-1098.47 617.525  15
   0  -4  -1 33238.3 2970.95  15
   0  -4   1 43061.9 3362.29  15
   0  -4   2 28520.6 2859.87  10
   0  -4  -2 27734.1 2841.55  15
   0  -4  -3 1272.24 508.352  15
   0  -4   3 1854.88 797.555  10
   0  -4   4 550.516 607.866  10
   0  -4  -4-386.840 525.195  24
   0  -4  -5 4970.01 1380.82  24
   0  -4   5 7421.45 1692.52  13
   0  -4   5 5383.51 1347.08  10
   0  -4   6 7503.36 1634.46  13
   0  -4  -6 7774.51 1834.76  24
   0  -4   6 4910.95 1287.94  10
   0  -4   7 2719.39 1007.64  13
   0  -4  -7 1800.96 788.086  24
   0  -4   8 16022.8 2258.98  13
   0  -4  -8 11212.9 2211.05  24
   0  -4   9 7520.64 1544.11  13
   0  -4  10 15576.8 1817.85  13
   0  -4  11 620.758 293.257  13
   0  -3   7 30939.4 3260.11  13
   0  -3  -7 27656.3 3337.76  24
   0  -3   8 16977.9 2706.49  13
   0  -3  -8 20585.4 3066.94  24
   0  -3  -9 191.775 512.789  24
   0  -3   9-381.606 534.840  13
   0  -3  10 5415.57 1502.42  13
   0  -3  11 1286.75 724.075  13
   0  -3  12 19581.0 2136.23  13
   0  -3  13 2027.32 593.244  13
   0  -2   9 8563.81 1746.87  13
   0  -2  10 24201.1 2906.33  13
   0  -2  11 1211.65 780.557  13
   0  -2  12 4198.42 1142.37  13
   0  -2  13 4349.63 1074.92  13
   0  -2  14 4048.82 849.369  13
   0  -1  10 50416.3 3831.74  13
   0  -1  11 10005.2 1745.21  13
   0  -1  12 823.987 564.110  13
   0  -1  13 4877.42 1165.96  13
   0  -1  14 18809.4 1977.49  13
   0  -1  15 4300.34 793.633  13
   0   0  -1 25516.3 1209.15   2
   0   0  -2 31099.7 1898.85   2
   0   0  -2 28403.8 1327.84   8
   0   0  -2 31721.7 1651.27   5
   0   0  -3 14823.8 1430.67   5
   0   0  -3 14887.9 1117.62   8
   0   0  -3 16159.2 1691.84   2
   0   0  -4 197657. 6632.43   2
   0   0  -4 190016. 5329.59   5
   0   0  -5 394.940 469.539   5
   0   0   5 185.504 256.905   1
   0   0  -5 670.478 601.948   2
   0   0  -5 375.415 351.954   8
   0   0  -6 125139. 3876.80   8
   0   0  -6 139371. 5260.52   5
   0   0  -7 2550.99 845.956   5
   0   0  -7 1545.84 516.489   8
   0   0  -8 17640.6 2108.14   5
   0   0  -9 12024.2 1763.81   5
   0   0 -10 357.213 401.008   5
   0   0  11 19040.4 2309.38  13
   0   0  12 6467.76 1373.03  13
   0   0  13 10612.7 1629.76  13
   0   0  13 10161.6 1564.88  20
   0   0  14 4876.56 993.597  20
   0   0  14 6221.09 1156.91  13
   0   0  15 894.783 346.388  13
   0   0  15 754.190 355.894  20
   0   1   0 202.036 162.136   4
   0   1   0-15.1582 150.589   6
   0   1   1 14314.8 884.249   6
   0   1   1 12672.7 744.390   3
   0   1  -1 14423.5 787.313   4
   0   1  -1 13200.5 854.090   6
   0   1  -2 532930. 5812.94   5
   0   1   2 531151. 5587.16   6
   0   1   2 523647. 5300.59   3
   0   1   3 14976.5 1055.88   3
   0   1  -3 17190.4 1237.66   5
   0   1   3 13915.0 1394.36   2
   0   1   4 253446. 5091.42   3
   0   1   4 264958. 6989.65   2
   0   1  -4 263342. 5068.64   8
   0   1  -4 263964. 5732.60   5
   0   1  -5-70.6151 310.247   8
   0   1   5 234.380 413.056   3
   0   1  -5 167.877 355.221   5
   0   1  -6 35375.1 2792.09   5
   0   1   6 35011.0 2433.05   3
   0   1  -6 32481.2 2261.81   8
   0   1   7 20249.1 2054.11   3
   0   1  -7 20062.9 2237.57   5
   0   1  -8 71784.7 4248.04   5
   0   1   8 78453.7 4142.24   3
   0   1  -9 28360.6 2751.18   5
   0   1   9 28261.3 2625.56   3
   0   1  10 46485.8 3625.92  14
   0   1  10 48950.0 3469.71   3
   0   1 -10 49351.9 3722.22   5
   0   1  11 9470.17 1634.31  13
   0   1  11 8530.09 1619.25  14
   0   1  12 1245.21 682.935  13
   0   1  13 3386.59 928.810  13
   0   1  14 20066.6 2073.11  20
   0   1  14 18823.1 1872.77  13
   0   1  15 3916.34 752.776  20
   0   1  15 4521.13 759.982  13
   0   2   0 81279.4 2972.63   6
   0   2   0 82980.1 2716.79   4
   0   2   1 29509.4 1649.37   4
   0   2  -1 32958.2 1902.08   6
   0   2  -1 30047.0 1637.24   4
   0   2   1 31645.0 1932.51   6
   0   2   2 56836.4 2645.57   6
   0   2  -2 58087.0 2410.73   4
   0   2   3 8795.66 1027.86   3
   0   2   3 8675.85 1116.21   6
   0   2  -3 9574.99 1199.98   5
   0   2  -4 39860.0 2580.11   5
   0   2   4 38036.0 2313.15   3
   0   2   4 37354.7 2327.86   6
   0   2  -5 40506.5 2696.44   8
   0   2   5 44904.5 2817.02   3
   0   2  -5 42396.4 2934.64   5
   0   2   5 41658.6 2652.10   6
   0   2  -6 25616.6 2581.03   5
   0   2   6 24576.4 2335.86   3
   0   2   6 25705.8 2193.10   6
   0   2  -6 27356.9 2391.08   8
   0   2   7 5414.33 1205.74   3
   0   2  -7 5869.02 1370.67   5
   0   2  -8 38726.4 3681.11   5
   0   2   8 35352.7 3209.91   3
   0   2   9 9599.10 1744.25  14
   0   2   9 7149.62 1500.25   3
   0   2  -9 6476.51 1541.85   5
   0   2  10 17213.4 2443.82  14
   0   2  11 2946.64 1118.60  14
   0   2  12 8332.27 1605.36  14
   0   2  12 5124.68 1173.96  13
   0   2  13 1418.24 521.493  13
   0   2  14 4009.80 910.865  20
   0   2  14 4046.27 731.679  13
   0   3   0-339.785 296.070   4
   0   3   0 329.122 361.364   6
   0   3   1 18663.8 1910.42   6
   0   3  -1 22264.1 1791.98   4
   0   3   1 22687.5 1829.08   4
   0   3   2 5832.98 992.412   4
   0   3   2 4229.57 959.085   6
   0   3  -2 4694.56 988.559   5
   0   3  -3 50630.3 3308.58   5
   0   3   3 48882.2 3177.39   6
   0   3   3 48221.0 2956.74   4
   0   3  -4 13496.7 1858.50   5
   0   3   4 13387.6 1758.35   6
   0   3   4 13354.0 1690.57   4
   0   3   5 26535.2 2576.25   4
   0   3   5 21910.4 2281.92   6
   0   3  -5 24456.5 2581.05   5
   0   3  -6 23837.3 2808.16   5
   0   3   6 27737.4 2831.53   4
   0   3  -6 26053.0 2698.17   8
   0   3  -7 36131.3 3197.17  14
   0   3   7 32613.3 3308.43  14
   0   3  -8 25349.3 2825.95  14
   0   3   8 22266.9 2811.96  14
   0   3   9-625.095 637.689  14
   0   3  -9 577.069 552.094  14
   0   3 -10 8085.91 1506.22  14
   0   3  10 6257.92 1561.99  14
   0   3 -11 3592.82 979.732  14
   0   3  11 2867.36 1038.14  14
   0   3  12 16571.5 1896.50  14
   0   3  13 1022.02 455.538  20
   0   4   0 651.067 433.578  14
   0   4   1 33425.7 2824.68  14
   0   4  -1 35005.6 2791.58  14
   0   4   2 33348.4 2882.18  14
   0   4   3 4420.74 1121.55  14
   0   4   4 1028.35 622.960  14
   0   4   5 4610.70 1100.29  14
   0   4   6 5344.94 1325.33  14
   0   4   7 3861.59 1210.05  14
   0   4   8 12900.2 2077.51  14
   0   4   9 8669.69 1496.55  14
   0   4  10 14112.0 1701.01  14
   0   4  11 911.423 437.754  14
   0   5   4 10142.5 1550.19  14
   0   5   5 4464.82 1028.40  14
   0   5   6 3979.68 936.926  14
   0   5   7 4589.01 861.615  14
  -1  -5   7 254.487 377.671  15
   1  -5  -7 712.321 570.422  24
   1  -5  -6-264.461 608.782  24
  -1  -5   6-174.648 378.745  15
   1  -5  -5 3400.79 1125.39  24
  -1  -5   5 6989.11 1319.20  15
  -1  -5   4 841.759 671.044  15
   1  -5  -4 1189.79 884.726  24
  -1  -5   3 21348.3 2478.34  15
   1  -5  -3 23073.2 2734.51  24
  -1  -5   2 7835.05 1469.63  15
   1  -5  -2 10614.9 1892.13  24
  -1  -5   1 7448.87 1414.75  15
   1  -5  -1 6389.07 1424.16  15
   1  -5   0-380.560 437.803  15
  -1  -5   0-1727.72 789.381  15
   1  -5   1 5058.95 1310.96  15
  -1  -5  -2 8243.88 1627.70  24
   1  -5   2 8794.39 1667.37  15
   1  -5   3 2.04130 495.891  15
  -1  -5  -3 141.924 521.730  24
  -1  -5  -4 10370.5 1738.17  24
   1  -5   4 9395.61 1680.49  15
  -1  -5  -5 2148.66 809.855  24
   1  -5   5 1085.60 756.983  15
   1  -5   6 910.999 527.002  15
  -1  -5  -6 1518.49 622.799  24
   1  -5   7 3652.54 950.787  15
  -1  -4  11 385.182 382.652  13
   1  -4 -10 1649.92 603.731  17
  -1  -4  10 3582.77 913.318  13
   1  -4  -9-323.970 669.218  24
  -1  -4   9-288.472 453.087  13
  -1  -4   8 10533.0 1775.52  13
   1  -4  -8 8410.00 1898.02  24
  -1  -4   7 10930.6 1911.01  13
   1  -4  -7 8915.29 1977.64  24
   1  -4  -6 880.024 677.196  24
  -1  -4   6 1379.43 749.454  13
  -1  -4   5 21190.4 2543.17  13
   1  -4  -5 20593.9 2797.73  24
   1  -4  -4 7415.12 1639.67  24
   1  -4  -3 7561.23 1511.75  15
   1  -4  -2 10712.9 1726.68  15
   1  -4  -1 7619.02 1514.59  15
  -1  -4   1 4181.59 1078.32  15
   1  -4   0 16030.0 2077.15  15
  -1  -4   0 14009.6 1910.97  15
  -1  -4  -1 28711.5 2785.98  15
   1  -4   1 26104.6 2715.93  10
   1  -4   2 4772.18 1247.35  10
  -1  -4  -2 4668.30 1177.91  15
   1  -4   3 23430.1 2669.06  10
  -1  -4  -4 28085.4 3099.54  24
   1  -4   4 24004.8 2792.52  10
   1  -4   5 12879.3 2118.37  10
   1  -4   5 13776.3 2183.05  13
  -1  -4  -5 12872.0 2273.83  24
   1  -4   6 3071.08 1081.64  13
   1  -4   6 5972.89 1466.50  10
  -1  -4  -6 3371.49 1117.18  24
   1  -4   7 1856.70 858.556  13
   1  -4   7 733.216 610.013  10
  -1  -4  -7 646.490 652.496  24
   1  -4   8 5716.79 1375.33  10
   1  -4   8 3715.86 1188.30  13
  -1  -4  -8 4927.63 1320.23  24
   1  -4   9 2839.28 1090.34  13
   1  -4  10 2445.96 731.936  13
  -1  -3  13 4906.79 915.368  13
  -1  -3  12 17132.4 2026.92  13
  -1  -3  11 1032.51 810.441  13
  -1  -3  10 6796.15 1657.95  13
   1  -3 -10 7508.65 1582.93  17
  -1  -3   9-225.494 529.869  13
   1  -3  -9 28.3873 682.244  24
   1  -3  -8 11487.1 2332.79  24
  -1  -3   8 12136.8 2177.07  13
   1  -3  -7 39112.7 3959.51  24
  -1  -3   7 45649.2 4031.29  13
   1  -3   6 124240. 6208.37  13
   1  -3   7 1324.37 912.616  13
   1  -3   7 1795.63 834.823  10
  -1  -3  -7 1536.26 874.886  24
   1  -3   8 5652.09 1496.62  13
  -1  -3  -8 3390.47 1259.35  24
   1  -3   8 4833.58 1417.99  10
   1  -3   9 9526.98 1760.49  10
   1  -3   9 8072.91 1777.59  13
   1  -3  10 1251.44 687.767  10
   1  -3  10 1135.17 706.553  13
   1  -3  11 5581.57 1318.38  13
   1  -3  12 4741.26 1030.20  13
   1  -3  13-26.4949 267.780  13
  -1  -2  15 443.028 301.951  13
  -1  -2  14 1840.18 636.016  13
  -1  -2  13 5388.86 1232.78  13
  -1  -2  12 1749.92 764.271  13
  -1  -2  11-836.164 670.823  13
   1  -2 -10 33920.5 3069.10  17
  -1  -2  10 44841.1 3899.58  13
   1  -2  -9 22300.9 3049.00  24
  -1  -2   9 27997.6 3124.18  13
   1  -2   9 127132. 6447.15  13
   1  -2  10 27183.8 3041.12  13
   1  -2  10 28684.3 3097.76  10
   1  -2  11 312.314 519.003  13
   1  -2  11 179.387 625.636  10
   1  -2  12 985.536 672.592  13
   1  -2  13 7731.06 1314.55  13
   1  -2  14 3067.06 691.982  13
  -1  -1  15 5479.15 920.376  13
  -1  -1  14 892.233 508.844  13
  -1  -1  13 170.825 369.655  13
  -1  -1  12 10671.6 1767.48  13
  -1  -1  11 83526.7 4998.34  13
   1  -1  -8 13719.2 1550.57   8
   1  -1  -7 69022.1 3446.28   8
   1  -1  -6 99384.8 3896.78   8
   1  -1  -5 17851.2 1546.33   8
   1  -1  -4 86577.5 3040.71   8
   1  -1  -3 358561. 5476.19   8
   1  -1   0 211337. 2263.81   7
   1  -1  10 22498.2 2561.43  13
   1  -1  11 19920.0 2456.19  13
   1  -1  12 14279.8 1995.77  13
   1  -1  13 15482.1 1919.04  13
   1  -1  14 1884.02 615.343  13
   1  -1  15 4371.66 709.031  13
  -1   0  16 237.200 227.068  13
  -1   0  15 9853.35 1288.26  13
  -1   0  14 3261.98 936.883  13
  -1   0  14 1199.23 533.959  20
  -1   0  13 27896.8 2693.68  13
  -1   0  12 4090.81 1161.83  13
  -1   0  11 106.370 536.377  13
   1   0 -10 8470.33 1534.87   5
   1   0  -9 83819.1 4572.54   5
   1   0  -8 38602.6 2577.86   8
   1   0  -8 36704.8 2915.28   5
   1   0  -7 196660. 5548.00   8
   1   0  -7 183092. 6252.02   5
   1   0  -6 11885.1 1536.26   5
   1   0  -6 11132.6 1304.04   8
   1   0  -5 4454.97 1202.77   2
   1   0  -5 4697.97 935.657   5
   1   0  -5 4336.15 840.866   8
   1   0  -4 663.692 499.702   5
   1   0  -4 55.4918 398.751   2
   1   0  -4 516.684 443.842   8
   1   0  -3 8660.45 1046.95   8
   1   0  -3 7045.18 1120.29   2
   1   0  -3 10124.4 1060.11   5
   1   0  -2 1065.49 455.523   8
   1   0  -2 1345.37 373.159   5
   1   0  -2 895.592 371.080   2
   1   0  -1 1996.83 402.887   8
   1   0   0 17181.0 964.443   1
  -1   0  -1 41319.2 1575.24   5
   1   0   1 36053.8 1660.70   1
   1   0   2 50656.3 2271.55   1
  -1   0  -2 53160.2 2353.22   5
  -1   0  -3 335057. 7525.65   2
  -1   0  -3 328340. 3736.29   8
  -1   0  -4 16182.3 1677.75   5
  -1   0  -4 16428.7 1013.06   8
   1   0   4 15330.6 1571.92   1
  -1   0  -4 17489.9 2013.08   2
  -1   0  -5 293302. 7349.71   5
   1   0   5 304207. 7480.90   1
  -1   0  -5 279966. 4631.95   8
  -1   0  -5 314818. 9311.22   2
  -1   0  -6 90968.9 4373.78   5
  -1   0  -7 467.681 433.044   5
  -1   0  -8 9485.88 1580.35   5
  -1   0  -9 88839.1 4856.05   5
  -1   0 -10 5622.63 1266.98   5
   1   0  11 7719.75 1467.17  13
   1   0  12 534.495 425.298  20
   1   0  12 306.900 390.015  13
   1   0  13 168.938 390.219  20
   1   0  13 231.904 465.213  13
   1   0  14 115.822 319.001  20
   1   0  14-175.932 333.556  13
   1   0  15 3606.26 617.665  20
   1   0  15 4060.69 709.353  13
  -1   1  15 4803.71 900.738  20
  -1   1  15 4374.81 811.946  13
  -1   1  14 1044.52 614.237  13
  -1   1  13 784.826 508.370  13
  -1   1  12 7598.63 1479.06  13
  -1   1  11 83758.8 4922.09  14
  -1   1  10 8154.33 1458.22   3
   1   1 -10 6679.28 1341.33   5
  -1   1   9 56073.1 3648.78   3
   1   1  -9 56080.0 3845.31   5
   1   1  -8 12617.9 1769.58   5
   1   1  -8 13962.5 1660.75   8
   1   1  -7 60570.6 3435.29   8
   1   1  -7 63500.0 3807.84   5
   1   1  -6 96437.6 4504.58   5
   1   1  -6 90130.1 4013.78   8
   1   1  -5 21669.8 1971.74   5
   1   1  -5 18835.9 1713.36   8
   1   1  -4 94961.8 3359.08   5
  -1   1   4 94721.0 4193.55   2
   1   1  -4 99437.0 3402.57   8
   1   1  -3 324903. 5156.50   5
  -1   1   3 302510. 4355.52   3
  -1   1   2 216280. 2976.80   3
   1   1  -2 214889. 3812.14   4
  -1   1   1 92673.0 2284.39   6
   1   1  -1 93607.0 2277.67   4
   1   1   0 204682. 3206.94   6
   1   1   0 202061. 3300.29   4
  -1   1   0 207948. 2428.97   4
  -1   1   0 212002. 3275.77   6
   1   1   1 497887. 4946.69   6
  -1   1  -1 502865. 4072.95   4
  -1   1  -1 502086. 5107.40   6
   1   1   1 507996. 5274.84   3
  -1   1  -2 230416. 4070.55   5
   1   1   2 223712. 3891.64   3
   1   1   2 235472. 3523.06   6
  -1   1  -2 226536. 3516.80   6
   1   1   3 9429.05 786.095   6
   1   1   3 8065.80 883.193   3
  -1   1  -3 8097.57 912.433   5
  -1   1  -4 28701.2 1618.32   1
  -1   1  -4 26695.1 1504.71   8
   1   1   4 25957.6 1414.20   6
   1   1   4 24238.0 1647.59   3
   1   1   4 23637.0 2173.16   2
  -1   1  -4 25212.9 1861.92   5
   1   1   5 46031.5 2579.93   3
   1   1   5 49791.7 2144.01   6
  -1   1  -5 41688.7 2853.53   5
  -1   1  -5 45023.8 2256.18   8
   1   1   6 30654.7 2354.81   3
  -1   1  -6 27773.3 2563.96   5
   1   1   7 244132. 7076.84   3
  -1   1  -7 241094. 7712.56   5
  -1   1  -8 17815.3 2196.13   5
   1   1   8 17897.9 2019.41   3
   1   1   9 4921.17 1116.75   3
  -1   1  -9 6206.73 1311.60   5
   1   1  10 20870.4 2423.31  14
   1   1  11 18215.6 2293.02  14
   1   1  11 16360.1 2090.29  13
   1   1  12 19916.5 2251.98  13
   1   1  13 14336.2 1797.20  13
   1   1  13 15744.7 2037.42  20
   1   1  14 1206.62 492.506  20
   1   1  14 1817.33 579.870  13
   1   1  15 3237.28 701.670  20
  -1   2  15 667.567 325.682  20
  -1   2  14 1002.86 513.808  13
  -1   2  13 4894.10 1094.90  13
  -1   2  12 1597.14 790.253  14
  -1   2  11 121.561 435.873  14
  -1   2  10 46517.5 3905.35  14
  -1   2   9 22730.7 2670.89  14
   1   2  -9 27873.8 2998.45   5
  -1   2   8 86164.3 4850.57   3
   1   2  -8 89613.5 5398.15   5
   1   2  -7 79386.5 4849.49   5
   1   2  -7 63546.1 4081.34   8
  -1   2   7 76540.1 4118.49   6
  -1   2   7 76488.9 4247.14   3
  -1   2   6 22871.8 2179.05   6
   1   2  -6 25561.7 2405.77   8
   1   2  -6 20728.0 2310.51   5
  -1   2   6 22290.8 2116.56   3
  -1   2   5 36032.1 2335.06   3
   1   2  -5 37786.4 2689.88   8
  -1   2   5 33572.0 2495.73   6
   1   2  -5 34300.3 2596.27   5
  -1   2   4 84731.8 3691.51   6
   1   2  -4 79250.0 3538.17   5
  -1   2   4 78378.7 3070.60   3
  -1   2   3 124810. 4258.22   6
   1   2  -3 134163. 4103.28   4
   1   2  -3 132458. 4232.89   5
   1   2  -2 15154.2 1317.31   4
  -1   2   2 16459.6 1472.35   6
  -1   2   2 16893.1 1239.49   4
   1   2  -1 111351. 3546.89   6
   1   2  -1 108425. 3342.13   4
  -1   2   1 113058. 3572.57   6
  -1   2   1 112144. 2931.95   4
   1   2   0 5528.68 837.295   6
  -1   2   0 6128.01 691.380   4
   1   2   0 5584.84 786.436   4
  -1   2   0 5557.98 823.614   6
  -1   2  -1 237421. 4177.10   4
   1   2   1 236472. 5034.03   4
  -1   2  -1 228860. 5095.01   6
   1   2   1 222649. 4925.12   6
   1   2   2 17062.6 1399.69   6
  -1   2  -2 18400.2 1461.82   6
  -1   2  -2 18108.1 1549.83   5
   1   2   2 19542.5 1540.20   4
  -1   2  -3 77787.1 3417.24   5
   1   2   3 77832.3 3112.66   6
   1   2   3 76106.8 3174.87   3
   1   2   4 80859.5 3590.32   3
  -1   2  -4 69770.5 3489.25   5
   1   2   4 72209.9 3091.75   6
   1   2   5 32267.7 2164.68   6
  -1   2  -5 32377.5 2693.09   5
   1   2   5 31660.5 2507.34   3
  -1   2  -5 37606.9 2435.98   8
   1   2   6 1919.19 674.108   3
  -1   2  -6 2648.52 909.383   5
   1   2   7 9725.44 1680.32   3
  -1   2  -7 7239.47 1619.79   5
  -1   2  -8 61131.0 4664.36   5
   1   2   8 68659.4 4555.35   3
   1   2   9 114538. 6107.97  14
   1   2  10 21334.9 2705.58  14
   1   2  11 223.925 444.408  14
   1   2  12-191.990 524.041  14
   1   2  13 6054.16 1197.09  20
   1   2  14 2323.36 650.992  20
  -1   3  13 2674.57 615.582  13
   1   3 -13 6947.48 895.788  14
   1   3 -12 20283.3 1938.17  14
  -1   3  12 15242.5 1843.11  14
   1   3 -11 1342.10 623.155  14
  -1   3  11 1157.47 711.780  14
  -1   3  10 9513.69 1794.97  14
   1   3 -10 9197.86 1687.77  14
   1   3  -9 443.157 500.172  14
  -1   3   9 1392.42 831.988  14
   1   3  -8 15000.5 2217.51  14
  -1   3   8 19508.8 2631.83  14
   1   3  -7 42204.2 3535.50  14
  -1   3   7 46389.0 3873.91  14
   1   3  -7 39506.4 3577.22   8
   1   3  -6 57131.6 4286.27   5
   1   3  -6 60127.7 4247.14   8
  -1   3   6 51896.5 3749.18   6
  -1   3   5 26649.6 2613.70   6
   1   3  -5 27605.9 2714.91   5
   1   3  -5 27325.9 2733.48   8
  -1   3   4 7410.07 1342.73   6
   1   3  -4 7785.20 1414.17   5
   1   3  -3 42151.6 3020.10   5
  -1   3   3 48710.6 3244.49   6
   1   3  -2 1828.80 582.962   4
  -1   3   2 1711.69 645.332   6
   1   3  -2 1278.78 542.944   5
   1   3  -1 151673. 4879.66   4
  -1   3   1 139288. 5124.86   6
  -1   3   0 29232.8 2305.05   6
   1   3   0 27740.8 2122.04   4
   1   3   0 23899.7 2118.31   6
   1   3   1 14371.9 1676.04   6
   1   3   1 18371.1 1759.09   4
  -1   3  -1 17267.3 1774.05   6
   1   3   2 17658.1 1862.50   6
   1   3   2 21032.1 1967.44   4
  -1   3  -2 21493.1 2099.78   5
   1   3   3 25536.8 2279.16   6
   1   3   3 30959.4 2503.76   4
  -1   3  -3 30953.8 2645.46   5
  -1   3  -4 1925.84 751.763   5
   1   3   4 2233.50 742.937   6
   1   3   4 1815.32 751.617   4
  -1   3  -5 23210.5 2555.44   5
   1   3   5 21868.9 2426.69   4
   1   3   6 109392. 5738.80  14
  -1   3  -6 111327. 6037.38   5
   1   3   6 103116. 5599.55   4
   1   3   7 592.600 541.467  14
   1   3   8 1294.16 860.255  14
   1   3   9 7425.76 1677.39  14
   1   3  10 1311.45 816.752  14
   1   3  11 4729.82 1237.00  14
   1   3  12 3746.56 821.742  20
   1   3  12 3741.17 915.367  14
  -1   4  11 868.815 377.796  14
  -1   4  10 4412.93 945.427  14
   1   4 -10 4791.12 950.966  14
  -1   4   9 1311.35 574.437  14
   1   4  -9 1086.23 646.193  14
   1   4  -8 13128.2 1892.40  14
  -1   4   8 12386.9 1885.05  14
   1   4  -7 10452.4 1752.95  14
  -1   4   7 10076.6 1788.54  14
  -1   4   6 2176.10 921.279  14
   1   4  -6 1107.92 656.263  14
   1   4  -5 29051.3 2904.75  14
  -1   4   5 24210.4 2701.01  14
   1   4  -4 10067.1 1653.85  14
   1   4  -3 7055.36 1361.48  14
   1   4  -2 14821.8 1897.86  14
   1   4  -1 6312.27 1238.11  14
   1   4   0 11375.3 1684.99  14
   1   4   1 26275.0 2519.35  14
   1   4   2 6681.64 1338.39  14
   1   4   3 22576.7 2486.39  14
   1   4   4 19233.8 2395.28  14
   1   4   5 12516.9 1998.76  14
   1   4   6 3410.17 1156.39  14
   1   4   7 1062.34 792.287  14
   1   4   8 3821.04 1095.18  14
   1   4   9 2158.33 857.987  14
   1   4  10 1137.95 551.843  14
   1   4  11 9721.99 1118.01  14
   1   5  -4 1349.82 688.560  14
   1   5  -3 20929.2 2243.41  14
   1   5  -2 6040.26 1264.78  14
   1   5  -1 8255.89 1504.60  14
   1   5   0-123.531 389.428  14
   1   5   1 5123.12 1227.96  14
   1   5   2 7995.44 1454.99  14
   1   5   3 1691.06 744.213  14
   1   5   4 9672.35 1537.23  14
   1   5   5 1519.38 633.211  14
   1   5   6 1534.93 643.310  14
   1   5   7 3795.97 820.338  14
   2  -5  -8 5271.22 870.478  17
   2  -5  -7 942.510 577.670  24
   2  -5  -6 1791.02 832.239  24
   2  -5  -5 10926.0 1888.99  24
  -2  -5   5 11445.7 1623.38  15
   2  -5  -4 6840.33 1513.81  24
  -2  -5   4 8893.74 1515.85  15
  -2  -5   3 9336.35 1537.23  15
   2  -5  -3 11739.1 2025.10  24
   2  -5  -2 2612.95 1053.11  24
  -2  -5   2 222.028 431.225  15
   2  -5  -1 3843.40 1226.95  15
  -2  -5   1 3578.21 976.507  15
   2  -5   0 2644.21 960.016  15
   2  -5   1 1515.19 813.220  15
  -2  -5  -1 253.384 388.086  24
  -2  -5  -2 2073.68 791.837  24
   2  -5   2 4029.65 1216.27  15
   2  -5   3 19246.4 2436.98  15
  -2  -5  -3 15163.3 2052.40  24
   2  -5   4-77.5311 495.884  15
   2  -5   5 9640.57 1676.82  15
   2  -5   6 629.378 568.445  15
   2  -5   7 13281.2 1545.47  15
   2  -4 -11-108.002 233.152  17
  -2  -4  10 4881.84 997.518  13
   2  -4 -10 4211.78 1008.76  17
   2  -4  -9 17212.2 2530.14  24
  -2  -4   9 17131.5 2024.43  13
  -2  -4   8 3899.78 1067.19  13
   2  -4  -8 4629.13 1431.95  24
   2  -4  -7 24249.6 3216.61  24
  -2  -4   7 31850.4 2982.98  13
   2  -4  -6 3012.95 1243.62  24
   2  -4  -5 33418.2 3635.63  24
   2  -4  -4 12603.9 2130.57  24
   2  -4  -3 5345.67 1338.56  15
   2  -4  -2 4787.31 1234.38  15
  -2  -4   2 5521.64 1193.40  15
   2  -4  -1 4400.83 1122.02  15
  -2  -4   1 3808.46 1003.03  15
   2  -4   0 2933.11 1001.32  15
  -2  -4   0 2297.74 817.503  15
   2  -4   1 9550.26 1648.55  10
  -2  -4  -1 12028.4 1811.62  15
   2  -4   2 7840.76 1608.12  10
  -2  -4  -2 5258.27 1254.82  15
   2  -4   3 21557.8 2634.52  10
  -2  -4  -3 20678.0 2549.02  24
  -2  -4  -4 13561.1 2169.09  24
   2  -4   4 9596.94 1883.96  10
   2  -4   5 14165.5 2282.55  10
  -2  -4  -5 11127.4 2093.64  24
   2  -4   5 16487.9 2348.77  13
   2  -4   6 14794.8 2309.23  10
   2  -4   6 17440.7 2468.89  13
  -2  -4  -6 13249.8 2209.95  24
   2  -4   7 2455.26 970.471  10
   2  -4   7 3421.33 1214.41  13
   2  -4   8 1815.57 884.606  13
   2  -4   8 946.989 555.158  10
   2  -4   9 5604.71 1126.28  10
   2  -4   9 5512.34 1205.81  13
   2  -4  10 8659.05 1053.34  10
  -2  -3  13 7184.49 1063.93  13
  -2  -3  12 10061.0 1487.61  13
   2  -3 -12 10031.0 1396.76  17
   2  -3 -11 6612.21 1319.74  17
  -2  -3  11 12809.1 1999.05  13
  -2  -3  10 12109.8 2109.25  13
   2  -3 -10 11137.3 1996.17  17
   2  -3  -9 7290.21 1941.35  24
  -2  -3   9 10119.3 1914.12  13
  -2  -3   8 5643.79 1412.31  13
   2  -3  -8 6439.93 1835.67  24
   2  -3  -7 16632.5 2671.26  24
  -2  -3   7 20091.8 2495.06  13
   2  -3   6 42183.0 3846.11  10
   2  -3   6 51223.2 4023.01  13
   2  -3   7 18192.6 2607.31  10
   2  -3   7 19366.3 2593.63  13
   2  -3   8 15935.0 2418.59  10
   2  -3   8 13472.7 2240.15  13
   2  -3   9 2139.51 969.075  10
   2  -3   9 2015.96 880.744  13
   2  -3  10 1946.39 875.417  13
   2  -3  10 2490.01 974.350  10
   2  -3  11 11421.7 1685.93  13
   2  -3  11 12714.5 1620.95  10
   2  -3  12 8207.59 1218.00  13
   2  -3  13 1747.68 458.603  13
  -2  -2  15 8428.18 965.005  13
  -2  -2  14 10848.7 1402.98  13
  -2  -2  13 2549.46 843.117  13
  -2  -2  12 8775.68 1662.04  13
   2  -2 -12 8701.91 1443.33  17
   2  -2 -11 2596.94 881.065  17
  -2  -2  11 3600.63 1127.17  13
   2  -2 -10 12048.4 1917.15  17
  -2  -2  10 15931.7 2364.97  13
   2  -2  -9 5265.29 1426.75  24
  -2  -2   9 3023.71 1120.71  13
   2  -2   9 4644.49 1328.76  13
   2  -2  10 29949.9 3117.14  10
   2  -2  10 27641.5 2963.55  13
   2  -2  11 6350.29 1417.52  13
   2  -2  11 7804.78 1499.32  10
   2  -2  12 5853.35 1241.89  13
   2  -2  12 4691.65 1082.85  10
   2  -2  13 16239.9 1566.14  10
   2  -2  13 14882.0 1654.85  13
   2  -2  14 7048.43 902.525  13
  -2  -1  15 3612.29 792.058  13
  -2  -1  14 8816.50 1406.98  13
  -2  -1  13 12895.3 1858.45  13
  -2  -1  12 3663.26 1122.83  13
   2  -1 -12 2976.96 926.107  17
  -2  -1  11 33430.2 3181.97  13
   2  -1 -11 38732.6 3051.78  17
   2  -1  -9 1472.30 566.941   8
   2  -1  -8 7217.13 1295.86   8
   2  -1  -7 26624.1 2297.12   8
   2  -1  -6 114831. 4642.95   8
   2  -1  -5 26839.6 2114.21   8
   2  -1  -4 59862.3 2888.47   8
   2  -1  -3 423738. 6540.39   8
   2  -1  -2 632178. 6938.79   8
   2  -1  -2 612262. 6921.26   9
   2  -1   0 310744. 3749.85   7
   2  -1   1 297263. 5068.54   9
   2  -1   2 320326. 5222.43   9
   2  -1   3 114825. 3021.85   9
   2  -1  10 42701.8 3472.34  13
   2  -1  11 2962.06 996.135  13
   2  -1  12 13988.5 1887.66  13
   2  -1  13 2812.50 834.432  13
   2  -1  14 512.486 368.474  13
   2  -1  14-368.627 329.106  10
  -2   0  16 1878.57 498.490  13
  -2   0  15 11555.8 1400.57  13
  -2   0  14 3355.62 863.543  13
  -2   0  13 44930.4 3466.62  13
  -2   0  12 44330.0 3515.68  13
  -2   0  11 19219.5 2328.29  13
   2   0 -11 23088.6 2232.82  17
   2   0 -10 7101.70 1343.26   5
   2   0  -9 54258.8 3609.45   5
   2   0  -9 54681.7 3347.05   8
   2   0  -8 26640.0 2272.21   8
   2   0  -8 22729.4 2243.49   5
   2   0  -7 13956.7 1618.81   8
   2   0  -7 14536.5 1716.75   5
   2   0  -6 111021. 4460.21   8
   2   0  -6 109869. 4356.25   5
   2   0  -5 40470.2 2414.82   5
   2   0  -5 40424.7 2644.17   8
   2   0  -4 353801. 7518.28   8
   2   0  -4 342068. 6160.29   5
   2   0  -3 38497.6 2351.39   8
  -2   0   3 33863.5 2395.01   2
   2   0  -3 36308.4 1656.06   5
  -2   0   2 49378.8 2297.99   2
   2   0  -2 55749.0 1406.96   5
   2   0  -2 54086.0 2536.18   8
   2   0  -1 99813.2 2906.83   8
   2   0  -1 113842. 1756.72   4
   2   0   0 3175.50 390.129   7
   2   0   0 2687.06 269.961   3
  -2   0  -1 938970. 8363.35   5
   2   0   1 963539. 11291.9   1
   2   0   2 60340.7 3130.76   1
  -2   0  -2 64110.8 2698.97   5
  -2   0  -3 216223. 5581.43   5
   2   0   3 192411. 6071.33   1
  -2   0  -4 221.322 370.596   5
   2   0   4-124.552 402.277   1
  -2   0  -4 855.167 629.683   2
  -2   0  -5 60222.5 3426.73   5
  -2   0  -5 62397.0 4199.01   2
   2   0   5 59882.6 3902.10   1
  -2   0  -6 96388.5 4596.82   5
  -2   0  -7 38755.6 3068.30   5
  -2   0  -8 40774.2 3239.18   5
  -2   0  -9 3281.50 934.163   5
   2   0  10 55720.8 3743.72  13
   2   0  11 17834.2 2351.89  20
   2   0  11 15056.6 1991.10  13
   2   0  12 76860.8 4597.53  20
   2   0  12 74934.5 4261.48  13
   2   0  13 3986.01 918.910  13
   2   0  13 3929.31 945.937  20
   2   0  14 15549.6 1527.94  13
   2   0  14 11891.5 1435.71  20
  -2   1  15 3754.22 812.291  13
  -2   1  15 3868.13 814.136  20
  -2   1  14 10167.2 1498.28  13
  -2   1  13 15857.3 2072.87  13
   2   1 -10 16326.2 2080.94   5
  -2   1  10 19087.8 2130.68   3
   2   1  -9 1765.71 651.034   8
   2   1  -9 3391.49 1013.06   5
   2   1  -8 8443.26 1401.05   8
   2   1  -8 10871.6 1621.21   5
   2   1  -7 26357.2 2394.27   5
   2   1  -7 23317.7 2274.68   8
   2   1  -6 115011. 4776.25   5
   2   1  -6 100313. 4502.30   8
   2   1  -5 34934.4 2512.83   8
   2   1  -5 34654.1 2471.07   5
   2   1  -4 68680.9 2850.39   5
   2   1  -4 68801.2 3145.33   8
   2   1  -3 394349. 5543.95   5
  -2   1   3 398567. 4503.58   3
   2   1  -3 406743. 6749.30   8
   2   1  -2 642182. 6754.85   4
  -2   1   2 629379. 4120.24   3
   2   1  -1 132784. 2993.61   4
  -2   1   1 124860. 2824.12   6
   2   1   0 273991. 4241.66   4
  -2   1   0 259538. 3819.08   6
   2   1   1 291034. 3720.10   6
   2   1   1 292623. 4533.40   3
   2   1   1 285919. 3422.89   7
  -2   1  -1 291083. 4311.16   5
  -2   1  -1 297159. 3935.31   6
  -2   1  -2 300482. 3928.57   6
   2   1   2 279831. 3921.62   7
   2   1   2 279627. 5156.65   2
  -2   1  -2 275085. 4778.84   5
   2   1   2 293368. 3704.50   6
   2   1   2 284326. 4863.73   3
  -2   1  -3 109293. 3814.89   1
   2   1   3 95371.3 2213.92   6
   2   1   3 105613. 3310.67   3
  -2   1  -3 99091.3 3302.46   5
  -2   1  -4 14243.7 1430.64   1
  -2   1  -4 12838.5 1443.26   5
   2   1   4 15576.6 1424.24   3
  -2   1  -5 21788.8 2145.38   5
   2   1   5 23155.9 1911.42   3
  -2   1  -6 14799.7 1984.38   5
   2   1   6 14254.9 1684.65   3
  -2   1  -7 28232.4 2700.01   5
   2   1   7 25837.2 2396.93   3
  -2   1  -8 24436.6 2548.43   5
   2   1   8 25734.7 2517.89   3
   2   1   9 7051.95 1385.64   3
  -2   1  -9 7187.58 1449.16   5
   2   1  10 50060.9 3688.43  23
   2   1  10 42061.2 3455.01  14
   2   1  11 661.281 515.102  14
   2   1  12 15129.3 2125.15  20
   2   1  13 2025.28 762.832  20
   2   1  14 327.260 382.594  20
   2   1  15 5197.12 750.263  20
  -2   2  15 7980.89 934.747  13
  -2   2  15 8106.61 1009.07  20
  -2   2  14 10689.3 1417.18  13
  -2   2  13 1201.62 534.391  13
  -2   2  11 3674.35 1127.03  14
  -2   2  10 14601.2 2183.78  14
   2   2  -9 2682.40 950.982   5
   2   2  -8 49522.2 3958.67   5
   2   2  -8 41470.3 3538.43   8
  -2   2   8 48827.7 3621.05   6
   2   2  -7 4255.94 1136.27   8
  -2   2   7 3769.06 1012.58   6
   2   2  -7 3474.59 1079.66   5
   2   2  -6 41575.4 3191.94   5
   2   2  -6 37393.4 3058.19   8
  -2   2   6 32399.4 2748.85   6
  -2   2   5 75219.3 3931.89   6
   2   2  -5 78834.2 3870.18   5
   2   2  -5 74044.2 4021.02   8
  -2   2   4 206747. 6018.00   6
   2   2  -4 200175. 5487.36   5
   2   2  -3 2071.97 576.555   5
  -2   2   3 1586.37 549.943   6
   2   2  -3 1420.63 520.341   4
   2   2  -2 11616.2 1234.07   4
  -2   2   2 11417.4 1252.86   6
  -2   2   2 13763.3 1028.85   4
   2   2  -2 12205.5 1210.88   5
  -2   2   1 52838.5 2500.96   6
   2   2  -1 51967.7 2476.15   4
   2   2   0 78128.0 3037.59   4
  -2   2   0 79876.7 2954.04   6
   2   2   0 78520.3 2964.96   6
   2   2   1 92792.5 3181.70   6
   2   2   1 96701.3 3430.20   4
  -2   2  -1 99800.9 3314.74   6
  -2   2  -2 134152. 3861.33   6
  -2   2  -2 142781. 4404.64   5
   2   2   2 145238. 4446.23   4
   2   2   2 135129. 3943.96   6
   2   2   3 94428.4 3331.66   6
  -2   2  -3 95302.5 3927.51   5
   2   2   4 55115.4 3144.90   3
  -2   2  -4 54985.8 3244.84   5
   2   2   5 59.9397 351.022   3
  -2   2  -5 530.597 442.526   5
   2   2   6 25693.9 2558.79   3
  -2   2  -6 26379.0 2731.73   5
  -2   2  -7 2269.77 955.187   5
   2   2   7 4174.58 1152.77   3
   2   2   8 3588.62 1101.80   3
  -2   2  -8 3231.72 1127.69   5
   2   2   9 3407.15 1127.18  14
   2   2  10 21074.8 2657.85  14
   2   2  11 4034.88 1118.56  14
   2   2  12 5926.42 1295.10  14
   2   2  12 4049.60 1003.59  20
   2   2  13 11427.5 1504.92  20
   2   2  14 4072.88 761.505  20
   2   3 -13 9582.69 1166.98  14
  -2   3  13 4287.62 840.167  13
   2   3 -12 9558.86 1437.71  14
  -2   3  11 7540.36 1453.30  14
   2   3 -11 14460.4 2033.25  14
  -2   3  10 14088.8 2102.46  14
   2   3 -10 16374.6 2255.98  14
   2   3  -9 8370.56 1758.77  14
  -2   3   9 8868.27 1730.72  14
  -2   3   8 4988.27 1370.21  14
   2   3  -8 6441.58 1625.46  14
  -2   3   7 14476.0 2097.07  14
   2   3  -7 17869.3 2398.76  14
   2   3  -6 7551.23 1579.24   5
  -2   3   6 5991.91 1341.79   6
   2   3  -6 7673.62 1632.89   8
   2   3  -5 21334.3 2389.36   5
   2   3  -5 20494.4 2450.37   8
  -2   3   5 20238.8 2361.32   6
   2   3  -4 1399.83 605.652   5
  -2   3   4 1349.18 566.139   6
   2   3  -3 30229.1 2469.67   4
  -2   3   3 33683.7 2735.25   6
   2   3  -3 32259.2 2594.65   5
   2   3  -2 19767.5 1918.41   5
  -2   3   2 18785.2 1970.02   6
   2   3  -2 20498.9 1976.50   4
   2   3  -1 74531.3 3613.03   4
  -2   3   1 73395.1 3727.02   6
   2   3   0 20981.8 1958.23   4
  -2   3   0 21385.7 1977.22   6
  -2   3  -1 8700.93 1275.14   6
  -2   3  -1 7641.18 1235.95   5
   2   3   1 7949.74 1274.60   4
   2   3   2 37357.9 2698.78   6
  -2   3  -2 39636.1 2891.56   5
   2   3   2 34107.3 2616.07   4
   2   3   3 23866.8 2136.58   6
  -2   3  -3 27478.2 2558.12   5
   2   3   3 27981.9 2484.17   4
   2   3   4 5688.04 1208.74   4
  -2   3  -4 4586.22 1129.17   5
  -2   3  -5 11764.6 1890.57   5
   2   3   5 9901.51 1692.94   4
   2   3   6 33947.8 3263.50  14
   2   3   7 9961.96 1894.72  14
   2   3   8 12317.7 2133.85  14
   2   3   9 719.296 626.901  14
   2   3  10 2693.49 1027.81  14
   2   3  11 8092.40 1475.32  14
   2   3  12 5938.51 1065.72  14
   2   4 -11 985.063 416.505  14
   2   4 -10 3215.15 833.871  14
   2   4  -9 18548.5 2188.50  14
   2   4  -8 3623.61 1160.97  14
   2   4  -7 27650.3 2941.55  14
   2   4  -6 7247.07 1583.66  14
   2   4  -5 27527.8 2908.22  14
   2   4  -4 13869.0 1990.53  14
   2   4  -3 8875.59 1555.19  14
   2   4  -2 5675.48 1229.06  14
   2   4  -1 6419.70 1282.59  14
   2   4   0 2116.56 755.564  14
   2   4   1 13214.5 1844.12  14
   2   4   2 5867.57 1204.64  18
   2   4   2 5232.16 1226.37  14
   2   4   3 17995.3 2259.75  14
   2   4   4 8352.33 1562.75  14
   2   4   5 13889.3 2124.83  14
   2   4   6 15767.2 2267.31  14
   2   4   7 1952.42 1001.06  14
   2   4   8 1633.11 691.251  14
   2   4   9 4409.41 1088.60  14
   2   4  10 6307.28 1079.73  14
   2   5  -7 859.551 424.546  14
   2   5  -6 1230.51 581.907  14
   2   5  -5 13074.6 1770.01  14
   2   5  -4 7488.27 1393.13  14
   2   5  -3 11287.1 1680.20  14
   2   5  -2 1902.73 737.696  14
   2   5  -1 4469.71 1148.54  14
   2   5   0 3772.14 978.061  14
   2   5   1 1438.70 650.753  14
   2   5   2 4482.63 1125.42  14
   2   5   3 20940.0 2307.40  14
   2   5   4 393.051 499.956  14
   2   5   5 6467.27 1249.18  14
   2   5   6-108.354 344.954  14
   2   5   7 15033.2 1476.58  14
   3  -5  -8 5780.28 923.588  17
   3  -5  -7-103.442 477.784  24
   3  -5  -6 2238.47 707.553  22
   3  -5  -6 3972.47 1189.29  24
   3  -5  -5 1122.55 790.840  24
   3  -5  -4 1986.12 921.399  24
   3  -5  -3 4220.22 1277.46  24
   3  -5  -2 33862.7 3310.61  24
   3  -5  -1 170.583 592.869  15
   3  -5   0 16033.1 2189.41  15
   3  -5   1 10729.0 1776.94  15
   3  -5   2 979.263 642.026  15
   3  -5   3 10535.6 1722.69  15
   3  -5   4 1836.93 767.132  15
   3  -5   5 392.068 375.404  15
   3  -5   6-341.469 424.383  15
   3  -4 -11 1372.30 404.329  17
   3  -4 -10 180.491 406.195  17
   3  -4  -9 1906.37 1103.36  24
   3  -4  -8 7413.94 1887.07  24
   3  -4  -7 3374.21 1349.47  24
   3  -4  -6 7418.12 1803.00  24
   3  -4  -5 18183.7 2791.44  24
   3  -4  -4 40690.4 3921.54  24
   3  -4  -4 38054.0 3565.19  15
   3  -4  -3 2265.91 1077.75  15
   3  -4  -2 19389.2 2379.01  15
   3  -4  -1 954.089 611.339  15
   3  -4   0 1642.16 736.930  15
   3  -4   0 1039.89 664.852  10
   3  -4   1 18236.7 2323.39  10
   3  -4   2 37018.0 3373.15  10
   3  -4   3 8261.42 1722.64  10
   3  -4   4 33884.0 3492.99  10
   3  -4   5 6027.69 1553.35  10
   3  -4   6-105.476 525.291  10
   3  -4   6 151.453 461.943  13
   3  -4   7 496.589 551.305  13
   3  -4   7-1391.43 799.429  10
   3  -4   8 490.547 570.280  10
   3  -4   8 12.0108 429.030  13
   3  -4   9 1642.34 655.484  10
   3  -4  10 7038.53 936.357  10
  -3  -3  13 4858.42 806.856  13
   3  -3 -13 5717.55 845.057  17
   3  -3 -12 17803.3 1926.53  17
  -3  -3  12 15688.0 1807.83  13
  -3  -3  11 6192.64 1329.23  13
   3  -3 -11 3669.70 1064.64  17
   3  -3 -10 16904.1 2425.78  17
  -3  -3  10 21912.0 2612.80  13
   3  -3  -9 2618.55 1277.73  24
  -3  -3   9 4744.08 1224.38  13
   3  -3  -8 6698.20 1804.22  24
   3  -3  -7 70390.4 5466.16  24
   3  -3   5-4.92173 440.782  10
   3  -3   5 364.320 420.773  13
   3  -3   6 43596.1 3701.19  13
   3  -3   6 38062.1 3747.24  10
   3  -3   7 25187.9 2902.64  13
   3  -3   7 17509.8 2675.43  10
   3  -3   8 21896.4 2900.81  10
   3  -3   8 23332.6 2782.95  13
   3  -3   9 4385.73 1245.05  13
   3  -3   9 6442.98 1508.65  10
   3  -3  10 6815.35 1406.03  13
   3  -3  10 7874.32 1535.93  10
   3  -3  11 18795.0 1900.66  10
   3  -3  11 15716.8 1772.73  13
   3  -3  12 10780.2 1122.54  10
   3  -3  12 10247.5 1161.07  13
  -3  -2  15 513.007 267.521  13
  -3  -2  14 5342.79 964.367  13
  -3  -2  13 11474.2 1640.70  13
   3  -2 -13 13209.2 1612.80  17
  -3  -2  12 11073.8 1799.80  13
   3  -2 -12 11844.7 1769.53  17
  -3  -2  11 15409.8 2267.87  13
   3  -2 -11 15679.4 2176.12  17
   3  -2 -10 453.332 568.214  17
  -3  -2  10 1174.09 721.699  13
   3  -2  -9 8958.39 2020.79  24
  -3  -2   9 9878.30 1811.63  13
   3  -2   8 2098.11 977.463  13
   3  -2   9 5816.88 1397.30  13
   3  -2  10 10115.5 1741.15  13
   3  -2  10 10167.8 1917.43  10
   3  -2  11 867.394 614.865  10
   3  -2  11 504.767 693.482  13
   3  -2  12 69.3100 381.419  13
   3  -2  12 747.515 503.451  10
   3  -2  13 8014.14 1072.28  10
   3  -2  13 8865.68 1128.95  13
  -3  -1  15 15884.3 1581.23  13
  -3  -1  14 1042.10 525.411  13
   3  -1 -14 2227.61 622.005  17
  -3  -1  13 400.507 396.852  13
   3  -1 -13-76.8864 282.639  17
   3  -1 -12 13421.2 1817.93  17
  -3  -1  12 10114.0 1664.78  13
   3  -1 -11 42482.2 3334.01  17
  -3  -1  11 46056.3 3689.25  13
   3  -1 -10 66654.2 3897.40   8
   3  -1  -9 30695.9 2718.35   8
   3  -1  -8 85802.2 4532.79   8
   3  -1  -7 7408.23 1366.48   8
   3  -1  -6 38947.7 2905.07   8
   3  -1  -5 231062. 6776.96   8
   3  -1  -4 8371.83 888.380   9
   3  -1  -4 7855.08 1197.90   8
   3  -1  -3 45850.7 2139.87   9
   3  -1  -3 49914.5 2501.01   8
   3  -1  -2 41387.9 1928.19   8
   3  -1  -2 36825.6 2022.04   9
   3  -1  -1 118068. 3797.90   9
   3  -1   0 165291. 3410.55   7
   3  -1   0 161747. 4485.24   9
   3  -1   1 49615.2 2009.51   7
   3  -1   1 51015.0 2546.08   9
   3  -1   2 89834.5 3313.77   9
   3  -1   3 353731. 6356.71   9
   3  -1   9 31436.4 2947.18  20
   3  -1   9 31787.6 2884.28  13
   3  -1  10 9930.51 1689.84  13
   3  -1  10 11751.9 1861.55  20
   3  -1  11 17105.7 2126.99  13
   3  -1  11 15070.2 1979.63  20
   3  -1  12 691.785 509.963  13
   3  -1  12-882.977 532.491  20
   3  -1  13 403.954 334.950  13
   3  -1  14 5172.60 800.665  10
  -3   0  16 1057.87 388.945  13
  -3   0  15 4422.23 911.282  13
  -3   0  14 4285.79 1048.94  13
   3   0 -13 44370.7 3011.35  17
  -3   0  13 39776.7 3233.47  13
  -3   0  12 40456.7 3371.48  13
   3   0 -12 42863.6 3119.84  17
  -3   0  11 5099.33 1278.22  13
   3   0 -11 4978.00 1101.22  17
   3   0 -10 38907.7 2975.89   8
   3   0  -9 60767.0 3704.74   5
   3   0  -9 68625.2 3959.70   8
   3   0  -8 15278.4 1874.04   8
   3   0  -8 17146.1 1891.21   5
   3   0  -7 282767. 7647.40   8
   3   0  -7 265559. 6885.64   5
   3   0  -6 220390. 6679.92   8
   3   0  -6 211216. 5617.44   5
   3   0  -5 105693. 3543.33   5
   3   0  -5 106974. 4613.26   8
   3   0  -4 72923.9 2470.47   5
   3   0  -4 74621.2 3770.34   8
  -3   0   4 64051.6 3878.04   2
   3   0  -3 135834. 2549.15   5
  -3   0   3 132900. 4790.07   2
   3   0  -2 8666.28 1140.40   8
  -3   0   2 8450.86 991.342   2
   3   0  -1 66286.0 2578.39   8
   3   0  -1 69776.9 1610.83   4
   3   0   0 72539.7 1943.35   8
   3   0   0 68492.9 1504.20   4
   3   0   0 68905.0 2121.14   7
   3   0   1 482142. 4802.53   3
   3   0   1 469993. 8291.24   9
  -3   0  -1 465663. 5995.67   5
  -3   0  -2 204706. 4884.38   5
   3   0   2 219095. 5652.45   9
   3   0   2 186746. 6446.75   1
   3   0   3 49186.7 3573.62   1
  -3   0  -3 50804.1 2753.92   5
   3   0   3 56033.2 2764.52   9
   3   0   3 45153.3 1974.79   3
   3   0   4 184056. 4779.25   9
  -3   0  -4 181871. 5675.77   5
  -3   0  -5 255682. 7273.41   5
  -3   0  -6 19140.9 2093.56   5
   3   0   7 8944.41 1346.99   3
  -3   0  -7 7702.21 1395.59   5
  -3   0  -8 5352.71 1230.88   5
   3   0   8 3341.03 825.224   3
   3   0   9 20665.7 2211.39   3
  -3   0  -9 19188.4 2296.43   5
   3   0  10 4388.05 1221.82  20
   3   0  11 35468.4 3225.16  20
   3   0  12 1723.20 803.440  20
   3   0  13-1001.47 553.012  20
   3   0  14 3458.62 754.124  20
  -3   1  15 13616.7 1509.37  13
  -3   1  14 1534.15 670.301  13
  -3   1  13 913.269 505.657  13
   3   1 -10 50575.6 3475.17   8
   3   1 -10 61024.1 3878.91   5
   3   1  -9 34655.5 2860.80   5
   3   1  -9 28042.9 2623.28   8
   3   1  -8 81346.0 4511.00   8
   3   1  -8 90092.9 4419.99   5
   3   1  -7 7709.81 1435.20   8
   3   1  -7 8979.83 1326.16   5
   3   1  -6 42469.4 2819.49   5
   3   1  -6 40028.2 3078.53   8
   3   1  -5 272550. 7444.62   8
   3   1  -5 290005. 6817.52   5
   3   1  -4 12409.3 1247.06   5
   3   1  -4 11646.3 1638.25   2
   3   1  -4 9970.16 1382.65   8
   3   1  -3 58499.5 2389.88   1
   3   1  -3 61141.7 3283.34   2
   3   1  -3 56113.1 2848.37   8
  -3   1   3 53959.0 1393.07   3
   3   1  -3 60347.0 2200.39   5
   3   1  -3 53129.7 2377.62   4
   3   1  -2 39513.3 1880.63   4
   3   1  -2 41354.9 2237.85   2
   3   1  -2 41570.9 2352.23   1
   3   1  -2 38187.3 1379.65   5
   3   1  -2 39632.8 2129.84   8
   3   1  -1 121106. 4378.62   1
   3   1  -1 115474. 2690.93   2
   3   1  -1 116947. 3121.85   4
  -3   1   0 151143. 3022.79   6
   3   1   0 152835. 3539.21   4
   3   1   1 54838.4 1932.39   7
  -3   1  -1 59357.4 1819.10   6
   3   1   1 58515.4 2271.89   4
  -3   1  -1 56677.2 2045.88   5
   3   1   1 56927.2 2234.08   3
   3   1   2 71102.4 2324.14   7
  -3   1  -2 78635.4 3710.59   1
  -3   1  -2 73374.9 1926.66   6
   3   1   2 71263.5 2685.90   3
  -3   1  -2 72964.5 2627.27   5
   3   1   3 312393. 5438.43   7
  -3   1  -3 288375. 6111.41   5
   3   1   3 303933. 6014.37   3
  -3   1  -3 305536. 7515.76   1
  -3   1  -4 45226.2 2833.98   5
   3   1   4 42172.1 2523.15   3
   3   1   5 8551.49 1280.36   3
  -3   1  -5 8652.06 1409.58   5
   3   1   6 4819.15 1025.96   3
  -3   1  -6 4636.44 1130.96   5
  -3   1  -7 29608.2 2816.53   5
   3   1   7 34205.0 2834.86   3
   3   1   8 34701.0 3023.94   3
  -3   1  -8 33118.1 3034.64   5
   3   1   9 34798.6 3180.50  23
   3   1   9 32601.7 2987.69  14
  -3   1  -9 32151.5 2995.24   5
   3   1  10 9348.91 1672.23  23
   3   1  10 8005.81 1522.96  14
   3   1  11 15378.9 2195.08  20
   3   1  12 687.358 635.718  20
   3   1  13 828.168 609.502  20
   3   1  14 5949.83 996.672  20
  -3   2  15 913.209 374.702  13
   3   2 -15 1682.08 459.440  14
  -3   2  14 5741.07 1070.03  13
  -3   2  11 16260.6 2183.00  14
  -3   2  10 884.778 595.281  14
   3   2  -9 9908.29 1834.46   8
  -3   2   9 10609.8 1776.86   6
  -3   2   9 9809.16 1678.51  14
   3   2  -8 7821.03 1607.04   8
  -3   2   8 8370.02 1617.73   6
   3   2  -7 11001.1 1767.75   5
   3   2  -7 7467.41 1565.75   8
  -3   2   7 8430.41 1580.48   6
   3   2  -6 26402.0 2577.27   5
   3   2  -6 25762.3 2690.41   8
  -3   2   6 23707.7 2492.28   6
   3   2  -5 222267. 6519.84   5
  -3   2   5 210039. 6899.45   6
   3   2  -5 217265. 7184.67   8
  -3   2   4 111766. 4640.00   6
   3   2  -4 104391. 4763.28   8
   3   2  -4 119847. 4220.22   5
   3   2  -3 41034.6 2532.77   4
   3   2  -3 41564.0 2261.11   5
  -3   2   3 40674.4 2601.53   6
   3   2  -2 32389.5 2144.35   4
   3   2  -2 30880.1 1865.23   5
  -3   2   2 32999.5 2169.96   6
   3   2  -1 4607.12 829.541   4
  -3   2   1 4801.61 805.934   6
  -3   2   0 5115.73 796.754   6
   3   2   0 5088.54 892.735   4
   3   2   1 29500.7 2086.99   4
  -3   2  -1 31559.1 2045.12   5
  -3   2  -1 30704.6 1877.81   6
  -3   2  -2 88584.2 3162.95   6
   3   2   2 85014.8 3640.56   4
   3   2   3 32666.6 2377.13   4
  -3   2  -3 31300.9 2335.76   5
   3   2   4 198645. 6284.19   3
  -3   2  -4 204815. 6474.42   5
   3   2   5 27479.1 2540.24   3
  -3   2  -5 28588.3 2688.68   5
  -3   2  -6 36161.6 3331.89   5
   3   2   6 39343.4 3243.81   3
  -3   2  -7 1016.86 677.945   5
   3   2   7 3160.47 1023.34   3
   3   2   8 1759.84 787.272  23
   3   2   8 1541.43 787.987  14
   3   2   9 8082.27 1546.47  23
   3   2   9 6653.67 1482.26  14
   3   2  10 8146.83 1610.69  20
   3   2  10 8408.44 1685.91  14
   3   2  11 1012.61 650.078  14
   3   2  11 494.841 517.586  20
   3   2  12 446.660 500.568  20
   3   2  13 6100.23 1051.10  20
   3   3 -13 7751.11 1073.79  14
  -3   3  13 4337.00 873.367  13
   3   3 -12 20748.6 2097.54  14
  -3   3  11 7351.39 1306.02  14
   3   3 -11 8262.71 1573.00  14
   3   3 -10 22313.4 2666.61  14
   3   3  -9 6216.70 1497.81  14
   3   3  -8 6151.86 1466.75  14
   3   3  -7 65074.3 4450.75  14
   3   3  -6 29828.3 3247.18   8
  -3   3   6 26179.1 2896.87   6
  -3   3   5 7377.32 1498.48   6
   3   3  -5 9088.55 1678.22   8
  -3   3   4 7887.59 1476.38   6
   3   3  -4 7207.66 1469.77   8
  -3   3   3 26017.6 2478.22   6
   3   3  -3 22439.2 2201.44   4
   3   3  -2 10075.0 1462.49   4
  -3   3   2 7908.66 1325.59   6
   3   3  -1 27433.5 2312.76   4
  -3   3   1 28157.2 2318.92   6
   3   3   0 26467.7 2314.80   4
  -3   3   0 28421.3 2299.70   6
   3   3   1 2772.73 773.957   4
  -3   3  -1 3140.84 806.608   5
  -3   3  -1 2319.61 689.404   6
  -3   3  -2 47329.0 3285.71   5
   3   3   2 46092.0 3182.03   4
   3   3   3 16044.7 1960.04   4
  -3   3  -3 15781.5 1966.68   5
  -3   3  -4 44381.9 3484.50   5
   3   3   4 42047.3 3349.88   4
   3   3   5-453.763 423.756   4
  -3   3  -5-443.535 466.451   5
   3   3   5 879.229 722.683  14
   3   3   6 35067.6 3383.32  14
   3   3   7 15993.6 2360.88  14
   3   3   8 18766.5 2643.27  14
   3   3   9 2768.81 998.924  14
   3   3  10 5261.66 1303.86  14
   3   3  11 17122.9 1979.57  14
   3   4 -11 2369.01 610.788  14
   3   4 -10 974.933 599.179  14
   3   4  -9 604.162 605.272  14
   3   4  -8 12002.4 1923.63  14
   3   4  -7 4888.51 1237.30  14
   3   4  -6 8339.64 1630.41  14
   3   4  -5 13525.2 2039.74  14
   3   4  -4 41618.7 3437.33  14
   3   4  -3 4076.99 1119.55  14
   3   4  -2 20055.9 2279.56  14
   3   4  -2 19043.3 2210.88  18
   3   4  -1 1083.03 603.493  14
   3   4  -1 1441.77 517.428  18
   3   4   0 1940.24 711.451  18
   3   4   0 1531.62 638.035  14
   3   4   1 18167.7 2127.99  18
   3   4   1 16156.7 2067.94  14
   3   4   2 31750.0 2836.90  18
   3   4   2 31961.6 2932.70  14
   3   4   3 6100.05 1359.11  14
   3   4   4 34144.1 3209.01  14
   3   4   5 6730.19 1439.24  14
   3   4   6-72.5083 411.866  14
   3   4   7 505.402 600.782  14
   3   4   8 598.298 450.586  14
   3   4   9-60.5319 365.117  14
   3   4  10 5407.80 906.510  14
   3   5  -7 298.064 367.269  14
   3   5  -6 3750.98 914.948  14
   3   5  -5 1072.73 594.812  14
   3   5  -4 2373.64 893.938  14
   3   5  -3 6428.09 1355.97  14
   3   5  -2 25125.2 2556.72  14
   3   5  -1-157.671 503.617  14
   3   5   0 14701.5 1951.29  14
   3   5   1 8267.95 1509.49  14
   3   5   2 1861.00 754.709  14
   3   5   3 9546.65 1564.33  14
   3   5   4 339.692 474.669  14
   3   5   5 1251.31 576.482  14
   3   5   6 141.301 303.221  14
   4  -5  -7 1545.45 711.853  24
   4  -5  -6 5742.34 1346.63  24
   4  -5  -6 3074.58 805.530  22
   4  -5  -5 1481.61 904.075  24
   4  -5  -4 8985.27 1733.41  24
   4  -5  -4 4954.76 1094.51  26
   4  -5  -3-533.049 491.318  26
   4  -5  -3 99.9885 583.470  24
   4  -5  -2 1736.72 843.835  26
   4  -5  -2 2247.97 934.565  24
   4  -5  -1-8.35139 588.782  24
   4  -5  -1 18.6162 395.631  15
   4  -5   0 7564.65 1434.09  15
   4  -5   1 11371.3 1762.01  15
   4  -5   2 16648.2 2116.28  15
   4  -5   3 21652.5 2344.30  15
   4  -5   4 4844.20 1079.00  26
   4  -5   4 4514.54 1028.87  15
   4  -5   5 1812.74 672.709  15
   4  -4 -11 13031.0 1372.36  17
   4  -4 -10 592.926 486.208  17
   4  -4  -9 620.922 837.998  24
   4  -4  -8 7238.24 1741.37  24
   4  -4  -7 470.567 620.247  24
   4  -4  -6 31068.8 3572.55  24
   4  -4  -5 669.876 718.071  24
   4  -4  -4-231.127 680.655  24
   4  -4  -3 25866.3 2818.84  15
   4  -4  -2 14380.5 2046.55  15
   4  -4  -1 24178.2 2625.58  15
   4  -4   0 14826.3 2030.54  10
   4  -4   0 12358.8 1892.49  15
   4  -4   1 27720.0 2915.08  10
   4  -4   1 26183.6 2802.60  15
   4  -4   2 2873.28 1012.00  10
   4  -4   3 10380.3 1886.44  10
   4  -4   4 17093.2 2495.87  10
   4  -4   5 19873.1 2729.81  10
   4  -4   6 1064.29 581.945  10
   4  -4   7 6607.65 1420.99  10
   4  -4   8 634.292 542.350  10
   4  -4   9 3427.14 799.375  10
   4  -3 -13 5712.56 893.593  17
   4  -3 -12 16887.4 1905.01  17
   4  -3 -11 83.5492 462.933  17
   4  -3 -10 20998.4 2716.52  17
   4  -3  -9 7796.46 2015.77  24
   4  -3  -8 14259.9 2665.86  24
   4  -3  -7 102692. 6620.14  24
   4  -3  -6 36088.8 3727.37  24
   4  -3   4 20938.0 2590.02  10
   4  -3   4 17777.5 2215.99  13
   4  -3   5 1766.34 918.333  10
   4  -3   5 1841.21 742.713  13
   4  -3   6 2581.09 937.234  13
   4  -3   6 2126.46 1040.01  10
   4  -3   7 14049.9 2377.19  10
   4  -3   7 19116.1 2442.98  13
   4  -3   8 22974.5 2966.62  10
   4  -3   8 25409.2 2745.05  13
   4  -3   9 782.410 582.345  13
   4  -3   9 3774.27 1169.45  10
   4  -3  10 8878.92 1403.41  13
   4  -3  10 7746.04 1462.29  10
   4  -3  11 31254.2 2309.81  10
   4  -3  11 29152.0 2072.27  13
   4  -2 -14 16787.3 1551.27  17
  -4  -2  14 15245.7 1520.11  13
  -4  -2  13 3718.20 881.893  13
   4  -2 -13 5403.78 1114.73  17
  -4  -2  12 10808.0 1724.31  13
   4  -2 -12 12678.5 1900.28  17
   4  -2 -11 1477.04 837.045  17
  -4  -2  11 2943.13 976.984  13
   4  -2 -10 6703.80 1545.35  17
   4  -2  -9 12376.8 2291.03  24
   4  -2  -9 14019.1 2190.79  17
   4  -2   2 80569.3 3250.84   7
   4  -2   3 39086.8 2448.98   7
   4  -2   4 41686.8 2761.57   7
   4  -2   5 5032.76 1052.34   7
   4  -2   7 5122.33 1179.18  13
   4  -2   8 16627.2 2197.89  13
   4  -2   9 12514.0 2141.83  10
   4  -2   9 14388.9 2070.92  13
   4  -2  10 21144.6 2556.15  10
   4  -2  10 17037.5 2106.03  13
   4  -2  11 4.66979 325.190  13
   4  -2  11 1393.64 684.844  10
   4  -2  12 1749.07 627.052  10
   4  -2  12 2584.55 658.346  13
   4  -2  13 3314.80 644.862  10
  -4  -1  15 6291.76 940.338  13
   4  -1 -14 8178.61 1230.68  17
  -4  -1  14 9018.10 1364.33  13
   4  -1 -13 1714.01 642.429  17
  -4  -1  13 1670.13 743.211  13
  -4  -1  12 545.215 450.340  13
   4  -1 -12 1163.96 735.235  17
   4  -1 -11 16862.8 2167.12  17
  -4  -1  11 16050.2 2170.14  13
  -4  -1  10 4793.62 1278.74  13
   4  -1 -10 2839.65 828.160  17
   4  -1 -10 3767.05 971.628   8
   4  -1  -9 6148.53 1295.12   8
   4  -1  -8 2918.28 920.491   8
   4  -1  -7 21308.3 2404.79   8
   4  -1  -6 86790.2 4573.22   8
   4  -1  -5 155438. 4035.79   9
   4  -1  -5 113811. 4976.46   8
   4  -1  -4 29384.1 2322.87   8
   4  -1  -4 33934.4 2024.68   9
   4  -1  -3 85204.9 3461.66   8
   4  -1  -3 79757.6 3303.93   9
   4  -1  -2 179863. 4244.25   8
   4  -1  -2 177706. 5120.75   9
   4  -1  -1 60148.6 3145.89   9
   4  -1   0 106531. 3245.05   7
   4  -1   0 103830. 4244.79   9
   4  -1   1 194912. 4553.10   7
   4  -1   1 192010. 5793.95   9
   4  -1   2 188523. 4824.89   7
   4  -1   2 194028. 5731.69   9
   4  -1   3 49129.9 2771.66   9
   4  -1   4 133176. 4293.50   9
   4  -1   9 4899.94 1255.82  20
   4  -1  10 772.658 579.581  20
   4  -1  11 8378.49 1526.38  20
   4  -1  12 22302.6 2143.86  20
   4  -1  13 12120.9 1447.56  10
   4  -1  14 2152.24 476.926  10
  -4   0  16 24400.1 1575.85  13
  -4   0  15 1780.60 572.693  13
  -4   0  14 1862.89 742.004  13
   4   0 -13 15462.9 1850.12  17
  -4   0  13 16424.6 2078.96  13
  -4   0  12 4134.79 1136.97  13
   4   0 -12 5745.30 1186.69  17
  -4   0  11 1347.85 705.338  13
   4   0 -11 137.038 501.014  17
   4   0 -10 4506.42 1088.31   8
   4   0  -9 13347.7 1819.79   8
   4   0  -8 2217.51 812.901   8
   4   0  -7 5237.53 1193.77   8
   4   0  -6 4791.59 1111.91   8
   4   0  -5 5946.76 1250.61   8
  -4   0   4 196691. 6935.27   2
  -4   0   4 210500. 6632.96   1
   4   0  -4 201017. 4639.41   9
   4   0  -3 117607. 4630.98   8
   4   0  -3 118868. 3938.82   9
  -4   0   3 122788. 5130.20   1
  -4   0   3 115500. 4628.71   2
   4   0  -2 253120. 6126.25   8
  -4   0   2 262409. 5830.40   2
   4   0  -2 272225. 6417.39   9
   4   0  -1 434433. 6652.31   8
   4   0  -1 429062. 8614.62   9
   4   0   0 564326. 5554.59   8
   4   0   0 553052. 4961.43   4
  -4   0  -1 5337.56 618.198   5
   4   0   1 5443.37 602.055   3
  -4   0  -1 4540.39 1065.39   1
   4   0   1 5659.53 778.704   7
   4   0   1 5936.61 577.498   4
   4   0   1 6017.58 1178.53   9
   4   0   2 189502. 4632.35   7
   4   0   2 218666. 6469.56   9
   4   0   2 190047. 3909.13   3
  -4   0  -2 212063. 4790.21   5
   4   0   3 37158.5 2588.69   9
  -4   0  -3 34683.4 2271.93   5
   4   0   3 31866.8 1777.03   3
  -4   0  -4 25470.0 2151.09   5
   4   0   4 23052.2 1669.35   3
   4   0   4 26710.0 2117.68   9
  -4   0  -5 31858.3 2576.80   5
   4   0   5 30769.4 2121.45   3
   4   0   6 1585.41 556.228   3
  -4   0  -6 1677.68 731.887   5
  -4   0  -7 14939.1 1946.27   5
   4   0   7 16862.1 1853.16   3
   4   0   8 506.517 534.063   3
  -4   0  -8-1023.57 570.311   5
   4   0   9-399.815 490.078  20
   4   0   9 1061.34 616.418  23
   4   0  10 17844.5 2392.36  20
   4   0  11 10992.4 1827.72  20
   4   0  12 1098.07 578.672  20
   4   0  13 16113.8 1777.29  20
   4   0  14 6668.19 897.815  20
  -4   1  15 7001.84 1092.43  13
   4   1 -15 5911.71 772.655  12
   4   1 -14 8571.37 1144.01  12
  -4   1  14 8175.40 1405.25  13
  -4   1  13 3727.16 1074.38  13
   4   1 -13 3178.49 798.892  12
   4   1 -10 3305.06 965.799  17
   4   1 -10 3845.34 1009.82   8
   4   1  -9 5839.46 1282.35   8
   4   1  -8 843.377 552.229   8
   4   1  -7 18294.4 2253.71   8
   4   1  -6 74138.9 4347.69   8
   4   1  -5 131155. 5557.41   8
   4   1  -4 38471.3 2865.44   8
   4   1  -3 92955.7 4133.44   8
   4   1  -3 86591.7 3129.41   4
   4   1  -2 185370. 4285.15   4
   4   1  -2 191999. 5839.23   1
   4   1  -2 184781. 5409.72   8
   4   1  -1 60389.1 2757.93   8
   4   1  -1 66179.7 3804.71   1
   4   1  -1 62390.7 2456.44   4
  -4   1   0 95289.4 2532.51   6
   4   1   0 100999. 3181.93   4
  -4   1   0 92597.0 2534.08   5
   4   1   0 92782.6 3118.23   8
  -4   1  -1 189672. 4047.90   5
  -4   1  -1 188522. 3305.89   6
   4   1   1 189206. 4435.58   4
   4   1   2 165419. 4419.66   3
   4   1   2 172236. 4209.30   7
   4   1   2 165094. 4341.98   4
  -4   1  -2 171831. 4424.54   5
  -4   1  -3 37854.5 2433.71   5
   4   1   3 35665.9 2230.68   3
   4   1   3 37420.6 2161.98   7
   4   1   4 111915. 4335.78   3
  -4   1  -4 108820. 4730.29   5
   4   1   4 120090. 4162.88   7
  -4   1  -5 506.918 494.974   5
   4   1   5 1893.55 671.404   7
   4   1   5 1417.87 584.715   3
   4   1   6 2379.55 721.404   7
   4   1   6 2339.31 794.237   3
  -4   1  -6 3034.41 937.191   5
  -4   1  -7 9554.13 1596.48   5
   4   1   7 9315.63 1597.37   3
   4   1   7 9677.66 1479.24   7
  -4   1  -8 43498.3 3425.29   5
   4   1   8 41962.7 3452.70   3
   4   1   9 4645.01 1266.49  23
   4   1   9 3802.09 1100.38  20
   4   1   9 4226.42 1124.29  14
   4   1  10 1271.82 750.774  23
   4   1  10 1870.94 673.507  14
   4   1  10 1372.54 787.067  20
   4   1  11 8409.15 1642.40  20
   4   1  12 20891.8 2331.67  20
   4   1  13 11562.4 1531.07  20
   4   1  14 1576.16 473.615  20
  -4   2  15 6088.71 836.245  13
   4   2 -15 7734.22 899.495  14
  -4   2  14 12595.2 1557.49  13
   4   2 -12 13896.7 1712.89  12
   4   2 -11 3891.23 972.137  12
   4   2 -10 7372.23 1376.95  12
   4   2  -9 13586.0 1885.94  12
   4   2  -8 18019.5 2463.59   8
  -4   2   8 19106.2 2504.38   6
   4   2  -7 5564.01 1417.10   8
  -4   2   7 3767.91 1116.45   6
   4   2  -6 3400.73 1146.56   8
  -4   2   6 4589.36 1245.96   6
   4   2  -5 62898.5 4158.92   8
  -4   2   5 64274.2 3981.76   6
  -4   2   4 78100.2 4025.72   6
   4   2  -4 68012.1 4032.92   8
   4   2  -3 231709. 6319.19   4
  -4   2   3 243272. 6489.38   6
   4   2  -3 233982. 7032.14   8
   4   2  -2 15297.9 1563.57   4
  -4   2   2 19666.6 1736.52   6
   4   2  -1 15821.9 1591.67   4
  -4   2   1 15536.3 1453.73   6
   4   2   0 725.567 456.689   4
  -4   2   0 1697.69 523.865   6
  -4   2  -1 49260.4 2376.88   6
   4   2   1 46952.8 2756.91   4
  -4   2  -1 51854.5 2733.62   5
   4   2   2 67597.1 3414.63   4
  -4   2  -2 77798.4 3592.86   5
   4   2   3 31251.3 2450.64   4
  -4   2  -3 34638.1 2560.36   5
  -4   2  -4 44350.8 3222.58   5
   4   2   4 40346.6 2940.77   4
  -4   2  -5 6169.04 1339.31   5
   4   2   5 5516.30 1209.22   3
  -4   2  -6 45586.8 3866.99   5
   4   2   6 43286.2 3504.67   3
   4   2   7 5410.54 1307.80  23
  -4   2  -7 4444.92 1258.96   5
   4   2   7 5669.09 1322.30  14
   4   2   7 6089.69 1387.12   3
   4   2   8 14259.8 2145.58  23
   4   2   8 11160.7 1815.99  20
   4   2   8 12188.9 1995.33  14
   4   2   9 15929.4 2224.57  23
   4   2   9 14301.7 2107.23  20
   4   2   9 13761.9 2084.71  14
   4   2  10 15913.7 2106.64  23
   4   2  10 12659.4 1922.19  20
   4   2  10 14428.1 2051.14  14
   4   2  11 544.776 359.923  20
   4   2  11 687.724 544.272  14
   4   2  12 2079.84 701.147  20
   4   2  13 1498.49 471.698  20
   4   3 -13 5263.56 935.439  14
   4   3 -12 19947.6 2084.68  14
   4   3 -11 1058.15 672.460  14
   4   3 -10 26397.3 2893.63  14
   4   3  -9 13267.3 2091.28  14
   4   3  -8 17222.3 2424.23  14
   4   3  -7 94542.7 5106.65  12
   4   3  -7 96584.4 5430.12  14
   4   3  -6 34844.9 2998.33  12
   4   3  -6 33159.0 3005.43  14
   4   3  -5 13038.0 2136.15   8
  -4   3   5 12399.9 1941.29   6
   4   3  -4 21352.4 2604.68   8
  -4   3   4 20299.6 2376.10   6
   4   3  -3 13589.5 1810.49   4
  -4   3   3 13372.3 1800.78   6
   4   3  -3 12437.3 1962.57   8
   4   3  -2 3366.21 875.523   4
  -4   3   2 3304.40 837.234   6
   4   3  -1 54623.7 3409.16   4
  -4   3   1 59431.6 3402.64   6
  -4   3   0 1310.37 610.896   5
   4   3   0 1500.54 632.451   4
  -4   3   0 987.645 472.383   6
  -4   3  -1 19166.4 1859.52   6
  -4   3  -1 20490.7 2130.81   5
   4   3   1 20719.3 2189.33   4
   4   3   2 17600.4 2075.24   4
  -4   3  -2 21453.2 2278.79   5
  -4   3  -3 9994.43 1613.31   5
   4   3   3 10842.3 1687.57   4
  -4   3  -4 20666.9 2480.33   5
   4   3   4 19105.1 2292.06  14
   4   3   4 19424.7 2372.20   4
   4   3   5 1535.37 757.058  14
   4   3   5 512.037 552.365  23
   4   3   6 2600.54 917.309  23
   4   3   6 2828.90 1018.74  14
   4   3   7 13227.9 2009.71  23
   4   3   7 13322.7 2183.89  14
   4   3   8 17217.1 2387.88  14
   4   3   9 2438.15 951.945  14
   4   3  10 5247.75 1147.57  14
   4   3  11 25741.2 2088.37  14
   4   4 -11 16588.1 1536.75  14
   4   4 -10 199.506 393.212  14
   4   4  -9 2012.34 839.616  14
   4   4  -8 8524.83 1639.37  14
   4   4  -7 618.932 623.845  14
   4   4  -6 31785.7 3134.66  14
   4   4  -5 960.086 655.697  14
   4   4  -4 364.372 588.864  14
   4   4  -3 28502.4 2781.75  14
   4   4  -2 11544.7 1738.03  18
   4   4  -2 9408.69 1584.48  14
   4   4  -1 25030.8 2533.35  18
   4   4  -1 27010.6 2631.00  14
   4   4   0 15526.3 2053.75  18
   4   4   0 13792.0 1905.09  14
   4   4   1 25581.5 2606.09  18
   4   4   1 23953.3 2540.33  14
   4   4   2 939.017 564.819  18
   4   4   2 626.449 530.712  14
   4   4   3 9532.60 1672.71  14
   4   4   4 17489.1 2298.71  14
   4   4   5 15116.7 2181.01  14
   4   4   6 555.236 558.046  14
   4   4   7 3738.93 1101.29  14
   4   4   8 245.313 446.720  14
   4   4   9 2424.20 699.246  14
   4   5  -7 1413.31 537.317  14
   4   5  -6 8350.98 1326.32  14
   4   5  -5 1694.78 610.834  14
   4   5  -4 9507.54 1514.94  14
   4   5  -3 797.733 484.326  18
   4   5  -3 430.425 591.007  14
   4   5  -2 1044.63 656.853  14
   4   5  -2 2339.95 765.560  18
   4   5  -1-536.684 460.357  18
   4   5  -1 630.688 542.456  14
   4   5   0 9974.44 1592.80  14
   4   5   1 8558.20 1497.94  14
   4   5   2 12372.1 1726.20  14
   4   5   3 17835.6 2059.74  14
   4   5   4 4628.57 1028.30  14
   4   5   5 1892.03 642.266  14
   4   5   6 478.072 335.957  14
   5  -5  -7 5641.94 936.196  17
   5  -5  -6 4918.06 1101.00  24
   5  -5  -6 5517.05 1018.71  22
   5  -5  -5 6747.89 1385.66  24
   5  -5  -5 4107.02 1091.82  22
   5  -5  -4 8947.24 1571.45  24
   5  -5  -4 8343.08 1519.35  22
   5  -5  -4 5323.56 1100.84  26
   5  -5  -3 4855.99 1222.83  24
   5  -5  -3 3967.11 1048.74  26
   5  -5  -2 3170.40 958.054  24
   5  -5  -2 2264.18 893.465  26
   5  -5  -1 5063.29 1237.75  24
   5  -5  -1 4117.10 1233.09  26
   5  -5   0 10093.4 1658.39  24
   5  -5   0 8130.71 1379.96  15
   5  -5   0 7088.01 1552.96  26
   5  -5   1 13100.3 1737.74  15
   5  -5   1 10805.5 1871.76  26
   5  -5   2 7441.17 1287.85  15
   5  -5   2 7269.62 1477.06  26
   5  -5   3 5454.01 1175.41  26
   5  -5   3 4364.95 908.504  15
   5  -5   4 3590.32 817.683  26
   5  -5   4 3050.12 756.560  15
   5  -4 -11 7118.57 981.555  17
   5  -4 -10 18776.6 1931.00  17
   5  -4  -9 6874.23 1391.03  17
   5  -4  -8 6094.97 1522.37  24
   5  -4  -8 6374.63 1309.60  22
   5  -4  -7 2857.83 1051.87  24
   5  -4  -7 784.456 600.560  22
   5  -4  -6 3677.91 1310.96  24
   5  -4  -5 16636.2 2600.23  24
   5  -4  -5 14599.6 2177.25  26
   5  -4  -4 1205.58 638.601  24
   5  -4  -4 889.096 524.705  26
   5  -4  -3 15671.2 2415.51  24
   5  -4  -3 12426.9 1948.81  15
   5  -4  -2 17642.1 2246.42  15
   5  -4  -1 19339.9 2327.44  15
   5  -4   0 22648.7 2527.13  10
   5  -4   0 24996.6 2654.80  15
   5  -4   1 7643.35 1575.20  10
   5  -4   1 8844.42 1582.58  15
   5  -4   2 788.105 717.636  10
   5  -4   3 6241.96 1473.63  10
   5  -4   4 2507.80 1053.07  10
   5  -4   5 6301.18 1505.40  10
   5  -4   6 26184.9 2877.65  10
   5  -4   7 4847.85 1192.29  10
   5  -4   8 4591.40 992.949  10
   5  -4   9 1311.92 438.553  10
   5  -3 -13 517.322 325.944  17
   5  -3 -12 4694.91 1041.61  17
   5  -3 -11 2283.75 898.280  17
   5  -3 -10 15229.4 2257.54  17
   5  -3  -9-809.965 788.219  24
   5  -3  -8 1618.09 1060.09  24
   5  -3  -8 1739.27 832.089  22
   5  -3  -7 51935.6 4746.81  24
   5  -3  -7 39860.1 3717.84  22
   5  -3  -6 20729.3 2905.41  24
   5  -3  -5 12319.6 2129.58  24
   5  -3  -5 8456.13 1626.53  26
   5  -3   3 4363.62 1126.50  10
   5  -3   3 3040.10 913.576  13
   5  -3   4 14000.0 2190.17  10
   5  -3   4 11855.4 1753.51  13
   5  -3   5 15359.5 2371.25  10
   5  -3   5 15137.0 2063.02  13
   5  -3   6 5777.42 1285.19  13
   5  -3   6 3582.94 1325.41  10
   5  -3   7 912.566 635.212  13
   5  -3   7 158.876 658.363  10
   5  -3   8 9000.17 1532.83  13
   5  -3   8 11545.0 2010.69  10
   5  -3   9 318.433 375.298  13
   5  -3   9-292.048 582.556  10
   5  -3  10 119.864 301.260  13
   5  -3  10 359.846 350.631  10
   5  -3  11 12126.7 1287.39  10
   5  -2 -14 4447.38 823.028  17
   5  -2 -13 6434.57 1244.03  17
   5  -2 -12 3537.85 1040.91  17
   5  -2 -11 11671.2 1971.20  17
   5  -2 -10 67425.2 4739.75  17
   5  -2  -9 17665.4 2472.47  17
   5  -2  -2 16936.5 2144.32   9
   5  -2  -1 18191.3 2475.82   9
   5  -2   0 87804.6 4862.92   9
   5  -2   1 94824.4 4948.33   9
   5  -2   2 7402.97 1093.55   7
   5  -2   2 10856.5 1934.04   9
   5  -2   3 27596.9 2229.47   7
   5  -2   4 2362.07 676.665   7
   5  -2   5 18296.3 2044.58   7
   5  -2   6 20097.3 2226.08   7
   5  -2   6 18580.4 2471.65  10
   5  -2   7 38155.6 3690.87  10
   5  -2   8 17039.2 2489.27  10
   5  -2   9 26922.9 2992.22  10
   5  -2  10 7945.53 1561.30  10
   5  -2  11 11010.3 1572.73  10
   5  -2  12 687.051 419.200  10
  -5  -1  15 20247.0 1552.05  13
  -5  -1  14 9658.07 1327.46  13
   5  -1 -14 10376.8 1388.54  17
   5  -1 -13 13731.6 1763.71  17
  -5  -1  13 13750.5 1762.83  13
  -5  -1  12 13799.0 1887.45  13
   5  -1 -12 12908.3 1881.88  17
  -5  -1  11 6592.26 1400.03  13
   5  -1 -11 5840.61 1353.28  17
   5  -1 -10 5365.00 1273.78  17
   5  -1  -9 130556. 6159.06   8
   5  -1  -8 29323.1 2901.31   8
   5  -1  -7 9159.48 1717.51   8
   5  -1  -6 30216.8 2844.57   8
   5  -1  -5 103888. 3714.07   9
   5  -1  -5 79918.1 4332.23   8
   5  -1  -4 1542.85 596.283   8
   5  -1  -4 348.605 413.161   9
   5  -1  -3 50806.5 2760.98   8
   5  -1  -3 45436.5 2822.27   9
   5  -1  -2 33728.9 1930.32   8
   5  -1  -2 34696.7 2612.27   9
   5  -1  -1 61889.0 3628.07   9
   5  -1   0 22606.4 2292.58   9
   5  -1   1 20270.2 1714.02   7
   5  -1   1 18495.6 2113.24   9
   5  -1   2 33915.1 2272.15   7
   5  -1   2 35767.1 2826.08   9
   5  -1   3 190981. 5755.17   7
   5  -1   3 214890. 6511.81   9
   5  -1   4 42933.3 2923.43   7
   5  -1   4 48867.2 2906.38   9
   5  -1   5 27591.5 2478.10   7
   5  -1   6 7740.91 1408.52   7
   5  -1   7 48853.9 3674.96   7
   5  -1   8 9671.65 1702.96  20
   5  -1   9 16693.5 2289.74  20
   5  -1  10 663.223 596.073  20
   5  -1  11 1863.22 770.686  20
   5  -1  12 2856.75 761.119  20
   5  -1  13 9364.87 1153.91  10
  -5   0  15 586.077 288.599  13
   5   0 -15 864.301 392.926  12
  -5   0  14 10947.2 1498.09  13
   5   0 -13 33184.1 2730.38  17
  -5   0  13 35376.4 2926.99  13
  -5   0  12 734.527 558.997  13
   5   0 -12 1082.91 533.932  17
  -5   0  11 91499.6 5049.09  13
   5   0 -11 87264.4 4838.64  17
   5   0 -10 15768.1 2022.15  17
   5   0 -10 13809.2 1917.56   8
   5   0  -9 41107.0 3358.43   8
   5   0  -8 33165.9 3003.98   8
   5   0  -7 122601. 5586.97   8
   5   0  -6 53595.4 3690.66   8
   5   0  -5 18889.6 2134.02   8
   5   0  -4 28137.8 2048.32   9
   5   0  -4 27221.9 2477.83   8
   5   0  -3 9909.02 1424.28   8
  -5   0   3 9936.42 1447.81   2
   5   0  -3 9795.88 1336.26   9
   5   0  -2 20627.1 1759.42   8
  -5   0   2 20261.8 1771.37   2
   5   0  -2 20818.0 2046.84   9
   5   0  -1 3741.20 656.496   8
   5   0  -1 2808.08 427.708   4
   5   0  -1 3215.42 899.155   9
   5   0   0 39565.0 3058.58   9
   5   0   1 44193.2 2421.50   7
   5   0   1 46077.0 3337.71   9
   5   0   2 50851.4 2697.59   7
   5   0   2 53464.2 3580.74   9
   5   0   2 53311.9 2259.74   3
   5   0   3 2060.26 640.309   7
   5   0   3 2829.26 605.700   3
   5   0   3 1924.50 745.104   9
   5   0   4 40322.7 2745.44   7
   5   0   4 41566.4 2909.66   9
   5   0   4 42265.7 2461.03   3
   5   0   5 352378. 8630.59   7
   5   0   5 342065. 7626.68   3
   5   0   6 139.859 419.149   7
   5   0   6 422.190 392.217   3
   5   0   7 23368.5 2494.97   7
   5   0   7 22109.2 2245.98   3
   5   0   8 13997.5 2063.80  20
   5   0   8 12664.7 1917.21  23
   5   0   8 13999.5 1885.56   3
   5   0   9 3355.93 1075.29  23
   5   0   9 3948.89 1222.33  20
   5   0  10 11180.2 1868.95  20
   5   0  11 10207.6 1745.80  20
   5   0  12 596.805 568.461  20
   5   0  13 4051.66 832.903  20
   5   1 -15 24089.2 1556.94  12
  -5   1  15 21998.2 1784.07  13
   5   1 -14 9361.81 1209.13  12
  -5   1  14 8940.81 1359.96  13
  -5   1  13 17642.8 2128.15  13
   5   1 -13 16621.9 1828.17  12
   5   1 -10 9452.40 1688.25  17
   5   1  -9 131240. 6095.78   8
   5   1  -8 20632.2 2456.51   8
   5   1  -7 11218.3 1826.29   8
   5   1  -6 33646.4 3114.87   8
   5   1  -5 83711.0 4721.73   8
   5   1  -4 865.629 624.571   8
   5   1  -3 44767.6 2443.40   4
   5   1  -3 45265.8 3205.25   8
   5   1  -2 32738.3 1945.84   4
   5   1  -2 34439.3 2648.78   8
   5   1  -1 60212.5 3222.12   8
   5   1  -1 59319.3 2600.79   4
  -5   1   1 57334.2 2290.42   6
  -5   1   0 23457.2 1315.10   6
   5   1   0 24501.5 1681.24   4
   5   1   1 15141.9 1364.23   4
  -5   1  -2 34908.7 2265.31   5
   5   1   2 35196.3 2195.02   7
   5   1   2 35583.5 2187.46   4
  -5   1  -3 189916. 6045.63   5
   5   1   3 199314. 5622.91   3
   5   1   3 204364. 5540.00   4
   5   1   4 34528.9 2528.34   3
   5   1   4 39834.3 2634.30   7
  -5   1  -4 39731.5 3025.58   5
   5   1   5 25799.5 2281.47   7
   5   1   5 24521.9 2330.79   3
  -5   1  -5 27409.6 2584.90   5
   5   1   6 8306.44 1357.22   7
  -5   1  -6 9433.65 1565.11   5
   5   1   6 8144.90 1408.93   3
   5   1   7 51790.5 3704.90   3
   5   1   8 9361.45 1660.53  23
   5   1   8 9468.67 1811.55  20
   5   1   9 15961.9 2277.77  23
   5   1   9 15810.5 2310.24  20
   5   1  10 773.345 722.890  23
   5   1  10 1966.67 936.005  20
   5   1  11 1606.38 824.352  20
   5   1  12 2778.94 852.201  20
   5   1  13 9422.58 1209.75  20
  -5   2  14 3348.65 873.262  13
   5   2 -14 6115.63 979.996  14
   5   2 -13 8076.17 1149.29  12
   5   2 -12 3814.08 947.859  12
   5   2 -11 19420.6 2224.84  12
   5   2 -10 69419.9 4343.75  12
   5   2  -9 18137.6 2265.63  12
   5   2  -8 2707.75 898.540  12
   5   2  -8 2989.09 1071.71   8
  -5   2   8 575.821 572.381   6
   5   2  -7 36727.9 3632.58   8
  -5   2   7 24681.0 2850.36   6
   5   2  -6 10160.6 1912.53   8
  -5   2   6 9736.65 1754.10   6
  -5   2   5 14055.2 1931.16   6
   5   2  -5 14273.7 2131.81   8
   5   2  -4 39922.6 3348.79   8
  -5   2   4 44561.5 3131.90   6
   5   2  -3 47885.0 3061.23   4
   5   2  -3 50559.4 3577.94   8
  -5   2   3 53385.0 3137.83   6
   5   2  -2 10056.2 1361.92   4
  -5   2   2 9758.19 1246.96   6
   5   2  -2 8391.22 1472.66   8
  -5   2   1 13080.3 1356.50   6
   5   2  -1 13298.7 1711.50   8
   5   2  -1 14276.0 1584.63   4
  -5   2   0 87219.0 3305.15   6
  -5   2   0 86630.4 3561.68   5
   5   2   0 83970.6 3828.80   4
   5   2   1 81653.3 3860.85   4
  -5   2  -1 90476.1 3861.81   5
   5   2   2 7334.88 1215.94   4
  -5   2  -2 8550.70 1247.57   5
   5   2   3 24990.3 2288.21   4
  -5   2  -3 31559.8 2655.90   5
   5   2   4 2198.74 788.761   4
  -5   2  -4 778.319 366.497   5
  -5   2  -5 20090.5 2522.04   5
   5   2   5 21428.8 2352.72   4
  -5   2  -6 18143.9 2466.86   5
   5   2   6 21203.8 2569.39  23
   5   2   6 21163.1 2443.43   4
   5   2   7 34882.2 3413.33  23
   5   2   7 33604.3 3193.28  14
   5   2   8 14030.8 2037.94  20
   5   2   8 14848.4 2184.63  14
   5   2   8 14526.8 2239.96  23
   5   2   9 27032.2 2895.53  23
   5   2   9 21815.6 2509.09  20
   5   2   9 26594.0 2743.73  14
   5   2  10 5953.33 1282.20  23
   5   2  10 3981.68 1003.57  20
   5   2  10 4224.87 1044.41  14
   5   2  11 9250.18 1397.04  20
   5   2  12-145.367 283.875  20
   5   3 -13 322.929 280.843  14
   5   3 -12 5157.58 1058.89  14
   5   3 -11 1962.31 840.112  14
   5   3 -10 14562.2 1893.89  12
   5   3 -10 10664.3 1815.53  14
   5   3  -9-419.307 528.884  12
   5   3  -9-767.014 601.247  14
   5   3  -8 2474.29 919.121  12
   5   3  -8 1420.24 774.742  14
   5   3  -7 48048.9 3777.52  12
   5   3  -7 53930.3 3968.40  14
   5   3  -6 12602.1 1896.22  12
   5   3  -6 12765.9 1922.74  14
   5   3  -5 10065.6 1584.33  12
   5   3  -5 9880.76 1593.34  14
   5   3  -4 11660.0 2087.02   8
  -5   3   4 12726.8 1875.01   6
   5   3  -3 1192.76 670.868   8
   5   3  -3 1611.62 681.974   4
  -5   3   3-129.372 276.544   6
   5   3  -2 11368.1 1694.44   4
   5   3  -2 11118.0 1926.52   8
  -5   3   2 9960.50 1480.15   6
   5   3  -1 26424.0 2498.12   4
  -5   3   1 26037.2 2284.16   6
  -5   3   1 26483.0 2394.19   5
  -5   3   0 7477.54 1310.49   5
   5   3   0 5760.86 1161.77   4
  -5   3   0 7575.41 1173.04   6
  -5   3  -1 13318.2 1787.96   5
   5   3   1 14193.4 1859.28   4
   5   3   2 23684.1 2470.12   4
  -5   3  -2 25944.9 2618.70   5
   5   3   3 2272.20 725.659  18
  -5   3  -3 1518.23 716.099   5
   5   3   3 3094.71 918.282  14
   5   3   4 11598.2 1892.75  23
   5   3   4 10920.3 1768.89  14
   5   3   5 11973.4 1972.25  23
   5   3   5 12128.7 1946.84  14
   5   3   6 2916.65 1154.53  23
   5   3   6 2604.52 980.034  14
   5   3   7-348.055 474.875  23
   5   3   7-290.462 595.122  14
   5   3   8 6722.69 1355.30  23
   5   3   8 5100.94 1298.52  14
   5   3   9 566.747 437.420  23
   5   3   9 254.612 636.747  14
   5   3  10 416.373 433.117  14
   5   4 -11 9227.37 1093.89  14
   5   4 -10 18739.9 1873.29  14
   5   4  -9 9627.89 1544.76  14
   5   4  -8 10046.7 1690.47  14
   5   4  -7 1940.25 835.874  14
   5   4  -6 2464.78 887.851  14
   5   4  -5 17839.3 2305.58  14
   5   4  -4 1786.10 658.748  14
   5   4  -3 14283.9 1969.71  14
   5   4  -3 12646.9 1923.77  18
   5   4  -2 20329.6 2356.42  18
   5   4  -2 19025.1 2230.77  14
   5   4  -1 13924.6 1950.92  18
   5   4  -1 14245.9 1967.86  14
   5   4   0 23902.2 2532.41  18
   5   4   0 22141.4 2426.00  14
   5   4   1 5941.68 1278.75  18
   5   4   1 6906.18 1435.27  14
   5   4   2 1306.65 734.958  18
   5   4   2 1427.35 754.081  14
   5   4   3 8121.30 1498.15  23
   5   4   3 7725.85 1553.22  14
   5   4   4 1942.63 792.371  23
   5   4   4 1501.88 732.112  14
   5   4   5 2440.93 777.371  23
   5   4   5 3243.61 969.132  14
   5   4   6 22109.6 2459.81  14
   5   4   7 3587.40 954.292  14
   5   4   8 2459.21 736.115  14
   5   5  -7 6532.24 1016.42  14
   5   5  -6 7168.50 1033.40  18
   5   5  -6 8741.04 1301.90  14
   5   5  -5 4369.83 930.741  18
   5   5  -5 4159.27 928.585  14
   5   5  -4 8713.17 1333.98  18
   5   5  -4 10226.3 1530.72  14
   5   5  -3 4234.02 951.105  18
   5   5  -3 5656.33 1197.44  14
   5   5  -2 3768.84 948.966  18
   5   5  -2 4673.45 1114.01  14
   5   5  -1 4517.57 1098.54  14
   5   5   0 7856.40 1392.57  14
   5   5   1 12638.0 1742.91  14
   5   5   2 6404.53 1245.02  14
   5   5   3 3538.96 885.833  14
   5   5   4 3342.66 833.859  14
   5   5   5 1831.05 575.343  14
   6  -5  -6 7603.59 1075.65  22
   6  -5  -5 2175.97 746.116  22
   6  -5  -4 2217.00 815.396  22
   6  -5  -4 2347.87 723.255  26
   6  -5  -3 4079.59 1001.35  24
   6  -5  -3 4523.36 1146.12  22
   6  -5  -3 4635.47 994.820  26
   6  -5  -2 9.91942 446.022  24
   6  -5  -2 537.283 604.817  22
   6  -5  -2-314.238 551.474  26
   6  -5  -1 5526.69 1282.48  22
   6  -5  -1 4845.68 1241.60  26
   6  -5   0 422.741 483.478  22
   6  -5   0 1079.58 809.658  26
   6  -5   1 921.786 412.362  15
   6  -5   1 1536.91 656.327  26
   6  -5   2 3574.43 990.122  26
   6  -5   2 5949.56 967.716  15
   6  -4 -10 30088.8 2226.07  17
   6  -4  -9 13899.5 1792.33  17
   6  -4  -8 1339.95 701.700  24
   6  -4  -8 843.852 541.550  22
   6  -4  -8 1101.64 864.114  17
   6  -4  -7 3541.18 1189.81  24
   6  -4  -7 4053.27 1122.16  22
   6  -4  -6-84.0383 678.649  24
   6  -4  -6 1885.37 905.864  22
   6  -4  -5 3833.08 1360.47  24
   6  -4  -5 2837.56 1177.25  22
   6  -4  -5 3352.69 1169.37  26
   6  -4  -4 2164.24 947.450  24
   6  -4  -4 622.238 613.761  26
   6  -4  -3 4654.12 1335.94  24
   6  -4  -3 3734.18 1286.86  26
   6  -4  -2 9944.88 1834.35  24
   6  -4  -2 9741.70 1621.77  15
   6  -4  -2 8255.07 1809.77  26
   6  -4  -1 7295.01 1410.00  15
   6  -4  -1 8062.46 1886.08  26
   6  -4   0 12626.5 1816.78  15
   6  -4   1 6923.63 1441.39  10
   6  -4   1 8521.44 1454.77  15
   6  -4   2 13021.6 1933.04  10
   6  -4   2 14345.2 1915.92  15
   6  -4   2 12423.3 2216.57  26
   6  -4   3 1940.34 955.185  10
   6  -4   3 3089.04 861.112  15
   6  -4   3 1682.25 876.576  26
   6  -4   4 1843.92 879.994  10
   6  -4   4 164.939 405.572  26
   6  -4   5 346.390 473.912  10
   6  -4   6 19288.7 2231.74  10
   6  -4   7 2021.62 688.863  10
   6  -4   8 9802.93 1184.86  10
   6  -3 -13 8620.65 1018.13  17
   6  -3 -12 2811.60 754.719  17
   6  -3 -11 1598.05 759.095  17
   6  -3 -10 4135.37 1287.37  17
   6  -3  -9 1069.15 753.856  17
   6  -3  -8 17318.4 2788.44  24
   6  -3  -8 15959.5 2307.97  22
   6  -3  -7 7769.37 1851.82  24
   6  -3  -7 4044.75 1283.92  22
   6  -3  -6 3889.76 1310.72  22
   6  -3  -5 28675.0 3154.90  26
   6  -3  -4 340.435 663.034  26
   6  -3  -3 52365.8 4301.63  26
   6  -3  -2 67622.7 4241.50  21
   6  -3  -1 71601.7 4439.78  21
   6  -3   0 38152.0 3306.01  21
   6  -3   0 39600.0 2984.31  10
   6  -3   1 2207.05 992.692  21
   6  -3   1 1542.96 566.713  10
   6  -3   2 22761.3 2742.74  21
   6  -3   2 26152.5 2637.13  10
   6  -3   3 679.823 620.158  21
   6  -3   3 947.012 794.045  10
   6  -3   4 68566.7 4737.15  10
   6  -3   5 3328.14 1076.40  10
   6  -3   5 3151.52 953.016  13
   6  -3   6 1436.91 842.273  13
   6  -3   6-34.1832 514.326  10
   6  -3   7 9009.61 1791.95  10
   6  -3   7 9949.09 1534.08  13
   6  -3   8 8274.10 1584.24  10
   6  -3   9 1491.45 715.418  10
   6  -3  10 3896.45 828.624  10
   6  -2 -14 4751.27 811.021  17
   6  -2 -13 411.434 509.085  17
   6  -2 -12 31381.0 2823.39  17
   6  -2 -11 4498.90 1274.80  17
   6  -2 -10 1373.09 901.305  17
   6  -2  -9 28314.1 3101.49  17
   6  -2  -8 10057.3 1710.84  22
   6  -2  -8 9486.30 1904.28  17
   6  -2  -3 68219.0 4269.12   9
   6  -2  -2 59318.4 4285.71   9
   6  -2  -1 19362.9 2640.39   9
   6  -2   0 58034.0 4336.14   9
   6  -2   1 12218.0 2143.79   9
   6  -2   2 35833.2 3260.73   9
   6  -2   3 1729.80 655.194   7
   6  -2   4 4126.76 966.968   7
   6  -2   5 7189.33 1567.13  19
   6  -2   5 5798.82 1162.80   7
   6  -2   5 5337.18 1350.37  10
   6  -2   6 22425.9 2601.66  20
   6  -2   6 21769.7 2755.54  10
   6  -2   7 5170.19 1301.41  20
   6  -2   7 2679.86 941.029  10
   6  -2   8 6689.55 1622.79  10
   6  -2   9 34056.9 3185.73  10
   6  -2  10 1801.86 826.798  10
   6  -2  11 2229.02 675.981  10
   6  -2  12 4229.26 732.491  10
   6  -1 -14 5994.82 1048.17  17
   6  -1 -13 676.437 610.853  17
   6  -1 -12 6803.33 1400.07  17
   6  -1 -11 9076.56 1713.37  17
   6  -1 -10 33296.3 3137.66  17
   6  -1  -9 10745.5 1798.91   8
   6  -1  -9 10452.6 1761.81  17
   6  -1  -8 7623.91 1538.82   8
   6  -1  -7 10116.3 1773.26   8
   6  -1  -6 80017.3 4663.51   8
   6  -1  -5 4338.32 902.376   9
   6  -1  -5 5457.48 1219.29   8
   6  -1  -4 199662. 6190.60   9
   6  -1  -4 198544. 6265.48   8
   6  -1  -3 16935.7 1627.27   8
   6  -1  -3 18465.5 2025.70   9
   6  -1  -2 4604.88 744.249   8
   6  -1  -2 3771.08 1035.42   9
   6  -1  -1 25133.9 2690.27   9
   6  -1   0 68758.0 4362.33   9
   6  -1   1 22791.2 2537.49   9
   6  -1   2 6722.51 1154.57   7
   6  -1   2 14836.5 1997.51   9
   6  -1   3 17695.7 1889.28   7
   6  -1   3 18473.3 2090.60   9
   6  -1   4 7946.20 1304.85   7
   6  -1   4 6475.79 1152.75   9
   6  -1   5 77.4483 327.747   7
   6  -1   6 7553.75 1443.40   7
   6  -1   7 32941.4 3156.47  20
   6  -1   8 992.996 628.843  20
   6  -1   9 4186.91 1168.53  20
   6  -1  10 4401.73 1125.57  20
   6  -1  11 2585.94 820.504  20
   6  -1  12 9713.26 1209.95  20
   6  -1  12 10504.8 1325.22  10
   6   0 -15 9404.08 1101.35  12
  -6   0  15 8426.88 1008.14  13
  -6   0  14 3041.59 778.626  13
  -6   0  13 9409.21 1472.28  13
   6   0 -13 10597.1 1580.42  17
  -6   0  12 1388.32 632.331  13
   6   0 -12 106.823 359.632  17
   6   0 -11 323.519 421.259  17
   6   0 -10 5083.26 1266.90  17
   6   0  -9 16021.5 2158.60   8
   6   0  -8 158904. 6817.04   8
   6   0  -7 31461.6 3005.78   8
   6   0  -6 17292.5 2164.75   8
   6   0  -5 8924.39 1569.45   8
   6   0  -5 9386.81 1284.19   9
   6   0  -4 93121.1 4549.47   8
   6   0  -4 92206.4 4184.06   9
   6   0  -3 10455.7 1436.75   8
   6   0  -3 10116.1 1545.11   9
   6   0  -2 69474.5 3186.87   8
   6   0  -2 66217.4 4028.45   9
   6   0  -1 251204. 8105.21   9
   6   0   0 113295. 5609.64   9
   6   0   1 2287.73 953.411   9
   6   0   2 17412.1 1752.57   7
   6   0   2 18238.1 2245.53   9
   6   0   3 5.34197 424.489   7
   6   0   3 363.163 533.345   9
   6   0   4 42541.0 3024.66   7
   6   0   4 37767.8 2936.23   9
   6   0   5 7195.33 1324.11   7
   6   0   6 27379.7 2695.43   7
   6   0   7-478.702 434.225  23
   6   0   7-83.2317 455.041  20
   6   0   7 369.542 437.683   7
   6   0   8 4085.21 1226.07  23
   6   0   8 3068.41 1052.24  20
   6   0   9 728.374 558.088  23
   6   0   9 777.062 740.511  20
   6   0  10 30585.1 3039.55  20
   6   0  11 377.235 471.957  20
   6   0  12 3957.39 867.237  20
   6   0  13 1283.85 424.964  20
   6   1 -15 8140.51 916.997  12
  -6   1  15 7601.15 984.671  13
  -6   1  14 5760.14 1075.97  13
   6   1 -14 5452.19 936.915  12
  -6   1  13 2046.30 735.249  13
   6   1 -13 744.726 510.174  12
   6   1 -12 7199.37 1324.27  12
   6   1 -11 7211.34 1402.54  12
   6   1 -10 25021.6 2704.58  17
   6   1  -9 9232.51 1635.64   8
   6   1  -9 11060.7 1803.57  17
   6   1  -8 6511.69 1447.07   8
   6   1  -7 10560.3 1824.41   8
   6   1  -6 97429.1 5368.58   8
   6   1  -5 6665.13 1457.10   8
   6   1  -4 203279. 7436.76   8
   6   1  -4 179586. 6293.60   9
   6   1  -3 15364.6 1993.75   8
   6   1  -3 15095.0 1959.43   9
   6   1  -2 2572.16 864.320   8
   6   1  -2 4041.52 775.409   4
   6   1  -1 23673.2 1752.12   4
   6   1   0 76429.2 3186.62   4
   6   1   1 24147.0 1832.50   4
   6   1   2 5692.58 934.692   4
   6   1   2 1851.05 789.890   9
   6   1   3 20725.7 1865.62   4
   6   1   3 14125.1 2007.09   9
   6   1   4 8232.01 1344.84   3
   6   1   4 8263.93 1333.59   7
   6   1   4 5977.79 1270.80   9
   6   1   5 424.773 415.919   7
   6   1   5 678.854 406.059   3
   6   1   6 6966.28 1283.03   7
   6   1   6 7057.45 1381.25   3
   6   1   7 25209.8 2821.87  23
   6   1   7 27701.8 2898.39  20
   6   1   8 2914.08 1042.51  23
   6   1   8 1347.30 735.358  20
   6   1   9 2427.43 1001.34  23
   6   1   9 3455.48 1186.25  20
   6   1  10 5979.65 1329.08  23
   6   1  10 4140.30 1132.04  20
   6   1  11 4075.87 1097.93  20
   6   1  12 7848.14 1189.13  20
  -6   2  14 3758.04 790.521  13
   6   2 -14 4765.58 692.465  12
   6   2 -14 5353.15 846.806  14
   6   2 -13 2336.55 686.753  12
   6   2 -13 2030.25 694.761  14
   6   2 -12 33358.7 2656.08  12
   6   2 -11 2701.85 880.470  12
   6   2 -10 1546.03 775.960  12
   6   2  -9 33380.7 3107.25  12
   6   2  -8 11511.1 1810.93  12
   6   2  -7 14916.5 2358.05   8
  -6   2   7 11279.3 1992.24   6
   6   2  -6 14297.4 2331.38   8
  -6   2   6 17222.5 2329.93   6
   6   2  -5 5153.12 1419.43   8
  -6   2   5 4128.48 1080.29   6
   6   2  -4 15409.6 2261.01   8
  -6   2   4 19506.0 2128.32   6
   6   2  -3 52389.4 3352.70   4
   6   2  -3 44568.3 3708.19   8
  -6   2   3 55014.9 3278.11   6
   6   2  -2 49952.6 3176.73   4
  -6   2   2 45744.0 2735.07   6
   6   2  -2 45514.6 3546.12   8
   6   2  -1 14321.1 1688.87   4
   6   2   0 55044.4 3273.00   4
   6   2   1 5723.20 1166.31   4
   6   2   2 24433.4 2329.10   4
   6   2   3 596.117 465.448   4
   6   2   4 3874.48 999.931   4
   6   2   5 6597.74 1515.65  23
   6   2   5 6056.40 1252.65   4
   6   2   6 20543.4 2651.19  23
   6   2   7 3776.39 1222.90  23
   6   2   8 6020.21 1500.34  23
   6   2   9 27490.3 2839.09  23
   6   2   9 23058.8 2431.67  20
   6   2  10 1875.06 690.128  20
   6   2  10 2197.36 768.535  23
   6   2  11 404.943 428.988  20
  -6   3  13 3864.80 711.121  13
   6   3 -13 8499.17 978.738  14
   6   3 -12 3087.27 794.746  14
   6   3 -11 3001.21 779.338  12
   6   3 -11 3369.87 946.997  14
   6   3 -10 2855.11 941.673  12
   6   3 -10 2644.38 922.572  14
   6   3  -9 825.628 744.463  12
   6   3  -9 855.698 624.818  14
   6   3  -8 20212.2 2446.25  12
   6   3  -8 21888.8 2530.83  14
   6   3  -7 8827.56 1709.84  12
   6   3  -7 9148.10 1723.06  14
   6   3  -6 4350.05 1074.89  12
   6   3  -6 5367.09 1224.78  14
   6   3  -5 23170.1 2519.92  12
   6   3  -5 26058.2 2596.06  14
   6   3  -4 2538.63 741.339  14
  -6   3   3 47101.7 3377.77   6
   6   3  -3 40325.3 2968.51  14
   6   3  -3 42813.3 3970.29   8
   6   3  -2 67542.5 4234.03   4
  -6   3   2 69691.2 3844.21   6
   6   3  -2 61578.9 3642.48  14
   6   3  -2 71220.2 4967.43   8
   6   3  -1 71437.2 4193.95   4
   6   3  -1 63070.3 3664.08  14
   6   3  -1 64148.9 3846.81  18
   6   3   0 40250.0 3168.38   4
   6   3   0 33098.7 2779.86  18
   6   3   0 35073.4 2771.15  14
   6   3   1 2439.23 859.645  18
   6   3   1 2608.32 833.072  14
   6   3   2 21455.3 2360.72  18
   6   3   2 21039.2 2317.22  14
   6   3   3 1898.28 777.513  18
   6   3   3 2334.88 849.743  14
   6   3   4 51504.4 4157.54  23
   6   3   4 51162.5 3848.30  14
   6   3   5 2658.78 1005.13  23
   6   3   5 1909.63 815.532  14
   6   3   6 445.673 539.350  23
   6   3   6-269.913 478.687  14
   6   3   7 8860.88 1627.53  23
   6   3   7 5916.61 1346.46  14
   6   3   8 5425.32 1208.77  23
   6   3   8 6273.20 1242.59  14
   6   3   9 886.440 417.068  23
   6   3   9 1988.52 661.253  14
   6   4 -10 31956.2 2231.16  14
   6   4  -9 15899.8 1851.90  14
   6   4  -8 404.383 431.058  14
   6   4  -7 4882.79 1225.90  14
   6   4  -6 2470.79 879.759  14
   6   4  -5 3134.81 1004.59  14
   6   4  -4 1715.29 869.572  18
   6   4  -4 1485.00 710.161  14
   6   4  -3 3097.97 968.383  18
   6   4  -3 3265.71 976.831  14
   6   4  -2 7427.97 1447.59  18
   6   4  -2 8996.15 1524.59  14
   6   4  -1 5332.27 1223.20  18
   6   4  -1 6433.57 1314.28  14
   6   4   0 10903.3 1727.30  18
   6   4   0 10569.4 1670.29  14
   6   4   1 3775.64 1113.64  18
   6   4   1 4880.60 1183.60  14
   6   4   2 11877.2 1810.19  14
   6   4   3 1253.94 672.259  23
   6   4   3 1103.78 497.980  14
   6   4   4 556.432 417.641  23
   6   4   4 1641.91 778.988  14
   6   4   5 557.118 488.510  23
   6   4   5 364.729 531.738  14
   6   4   6 11810.5 1474.80  23
   6   4   6 16863.8 1960.65  14
   6   4   7 791.632 430.124  14
   6   5  -6 9070.62 1198.93  14
   6   5  -5 1343.08 534.959  18
   6   5  -5 2862.61 701.383  14
   6   5  -4 3822.89 912.421  18
   6   5  -4 4588.21 1030.49  14
   6   5  -3 3509.91 808.559  18
   6   5  -3 2748.05 738.588  14
   6   5  -2 148.775 337.277  18
   6   5  -2 1140.99 555.761  14
   6   5  -1 3304.67 902.645  14
   6   5   0-383.069 340.715  23
   6   5   0 924.736 532.155  14
   6   5   1 119.258 267.200  23
   6   5   1 2049.23 700.346  14
   6   5   2 5462.37 1025.64  14
   6   5   3 245.692 256.766  14
   7  -5  -4 6412.01 1080.29  22
   7  -5  -3 8246.54 1334.31  22
   7  -5  -3 7694.99 1174.31  26
   7  -5  -2 705.979 548.747  22
   7  -5  -2-790.822 550.225  26
   7  -5  -1 4388.23 940.610  22
   7  -5  -1 4054.48 964.302  26
   7  -5   0 1843.31 690.684  26
   7  -5   1 95.7425 397.631  26
   7  -4 -10 4109.67 745.561  17
   7  -4  -9 18641.9 1556.45  22
   7  -4  -9 23163.6 1984.20  17
   7  -4  -8 2308.40 744.117  22
   7  -4  -8 2581.71 764.162  17
   7  -4  -7 18983.2 2298.50  22
   7  -4  -7 18309.7 2164.62  17
   7  -4  -6 1075.07 845.779  22
   7  -4  -6 1788.27 721.418  26
   7  -4  -5 4650.18 1382.32  22
   7  -4  -5 7129.26 1465.83  26
   7  -4  -4 7440.78 1800.22  22
   7  -4  -4 14603.3 2264.52  26
   7  -4  -3 8999.98 1985.12  22
   7  -4  -3 10464.9 2045.29  26
   7  -4  -2 2108.80 1177.20  22
   7  -4  -2 3702.86 1345.63  26
   7  -4  -1 12907.2 2246.62  22
   7  -4  -1 14004.8 2400.42  26
   7  -4   0 8837.98 1908.71  22
   7  -4   0 13555.5 2374.80  26
   7  -4   1 4674.22 1104.73  10
   7  -4   1 6956.85 1736.93  26
   7  -4   2 14956.8 1966.91  10
   7  -4   2 13724.7 2191.16  26
   7  -4   3 1084.18 697.557  10
   7  -4   3 1397.31 783.666  26
   7  -4   4 627.833 525.113  10
   7  -4   5 2215.54 743.293  10
   7  -4   6 9802.96 1358.63  10
   7  -4   7 2154.47 568.773  10
   7  -3 -12 3405.99 801.508  17
   7  -3 -11 15693.5 1873.84  17
   7  -3 -10 2670.48 952.040  17
   7  -3  -9 5823.73 1307.24  22
   7  -3  -9 5502.33 1339.88  17
   7  -3  -8 3118.31 1064.63  22
   7  -3  -8 875.468 705.956  17
   7  -3  -7 9925.48 1855.26  22
   7  -3  -6 2505.52 1107.22  22
   7  -3  -6 4760.07 1347.13  26
   7  -3  -5 19364.2 2839.74  22
   7  -3  -5 30709.4 3351.47  26
   7  -3  -4 483.620 560.846  22
   7  -3  -4 1282.06 999.813  26
   7  -3  -3 19117.7 2713.44  26
   7  -3  -2 34226.2 3150.16  21
   7  -3  -2 34672.2 3751.56  26
   7  -3  -1 7497.50 1536.03  21
   7  -3  -1 7063.55 1727.76  26
   7  -3   0 15259.7 2239.48  21
   7  -3   0 15125.4 2496.79  26
   7  -3   1 6689.61 1605.75  21
   7  -3   1 6720.49 1345.66  10
   7  -3   1 7003.82 1708.95  26
   7  -3   2 6213.72 1508.81  21
   7  -3   2 7823.07 1490.37  10
   7  -3   2 8632.53 1837.34  26
   7  -3   3 739.622 728.155  21
   7  -3   3 1001.30 558.018  10
   7  -3   4 21002.0 2794.29  21
   7  -3   4 22691.3 2639.68  10
   7  -3   5 1598.44 793.948  21
   7  -3   5 2608.91 942.965  10
   7  -3   6 4872.47 1221.21  10
   7  -3   7 1716.12 886.069  10
   7  -3   8 6087.68 1188.59  10
   7  -3   9 4234.12 880.189  10
   7  -2 -14 6989.36 941.868  17
   7  -2 -13 1910.02 681.445  17
   7  -2 -12 12149.7 1691.78  17
   7  -2 -11 8258.43 1576.84  17
   7  -2 -10 7194.60 1527.28  17
   7  -2  -9 28302.2 2908.78  22
   7  -2  -9 27193.5 3016.57  17
   7  -2  -8 3121.32 1040.92  22
   7  -2  -8 3734.09 1232.48  17
   7  -2  -7 17303.8 2445.46  22
   7  -2  -7 14889.4 2194.79  17
   7  -2  -6 4770.76 1417.93  22
   7  -2  -3 58155.6 4353.22   9
   7  -2  -2 12012.8 2383.04   9
   7  -2  -1 12194.7 2479.79   9
   7  -2   0 42110.6 3954.46   9
   7  -2   1 29171.5 3283.68   9
   7  -2   2 59141.7 4467.34   9
   7  -2   3 3436.83 1212.64  19
   7  -2   3 10679.8 1899.91   9
   7  -2   4 2054.06 959.826  19
   7  -2   4 2462.09 888.695  10
   7  -2   5 10683.7 1935.88  19
   7  -2   5 12257.8 1965.56  10
   7  -2   6 11587.6 1871.94  19
   7  -2   6 9243.50 1806.35  10
   7  -2   7 4526.45 1169.13  10
   7  -2   8 3322.27 1100.40  10
   7  -2   9 2797.51 969.069  10
   7  -2  10 1586.79 644.022  10
   7  -2  11 6552.11 926.548  10
   7  -1 -15 576.261 241.549  12
   7  -1 -14 2208.20 618.857  17
   7  -1 -13 21393.7 2178.87  17
   7  -1 -12 28682.6 2688.82  17
   7  -1 -11 21188.0 2487.82  17
   7  -1 -10 16865.7 2304.95  17
   7  -1  -9 4556.91 1110.64  22
   7  -1  -9 4886.60 1257.71  17
   7  -1  -8 57834.0 4186.16   8
   7  -1  -7 17405.4 2290.93   8
   7  -1  -6 33202.6 3059.58   8
   7  -1  -5 26330.1 2546.28   8
   7  -1  -5 27048.1 2325.22   9
   7  -1  -4 14969.2 1742.13   8
   7  -1  -4 13475.9 1709.96   9
   7  -1  -3 45181.4 2659.59   8
   7  -1  -3 50252.3 3634.34   9
   7  -1  -2 13102.0 1950.96   9
   7  -1  -1 49724.8 3982.18   9
   7  -1   0 3346.64 1148.10   9
   7  -1   1 72733.0 4784.61   9
   7  -1   2 17536.4 2275.89   9
   7  -1   3 75336.6 4189.56   7
   7  -1   3 79252.0 4593.64   9
   7  -1   4 3277.62 944.549   7
   7  -1   5 51667.3 3831.65  20
   7  -1   5 54017.3 3842.44   7
   7  -1   6 43198.5 3628.89  19
   7  -1   6 40774.3 3527.02  20
   7  -1   7 22805.9 2727.95  20
   7  -1   7 25181.2 2626.93  19
   7  -1   8 1828.69 819.096  20
   7  -1   9 15153.7 2079.35  20
   7  -1  10 536.757 476.717  20
   7  -1  11 347.827 375.517  20
   7  -1  11 723.542 301.286  10
   7  -1  12 2584.10 580.528  10
   7   0 -15 29561.6 1779.60  12
   7   0 -14 11355.6 1358.39  12
   7   0 -13 351.075 461.611  17
   7   0 -12 2478.54 762.984  17
   7   0 -11 12781.7 1892.02  17
   7   0 -10 52082.7 3834.45  17
   7   0  -9 3326.58 956.155  17
   7   0  -8 137667. 6433.77   8
   7   0  -7 13259.5 2011.79   8
   7   0  -6 30534.0 2927.68   8
   7   0  -5 2662.42 822.659   8
   7   0  -5 1522.96 619.968   9
   7   0  -4 34003.0 2795.01   8
   7   0  -4 32968.8 2777.72   9
   7   0  -3 81013.6 3930.20   8
   7   0  -3 83228.0 4682.48   9
   7   0  -2-19.7807 477.966   9
   7   0  -1-111.775 645.026   9
   7   0   0 13366.7 2113.96   9
   7   0   1 256119. 9018.56   9
   7   0   2 1072.87 614.046   9
   7   0   3 183807. 6507.08   7
   7   0   3 180372. 7188.74   9
   7   0   4 15812.7 2007.23   7
   7   0   4 14620.4 1942.94   9
   7   0   5 20562.0 2357.99   7
   7   0   6 12226.6 1997.23  23
   7   0   6 14508.0 2101.49  20
   7   0   7 13353.3 2115.02  23
   7   0   7 18080.6 2404.68  20
   7   0   8 3033.10 1013.82  23
   7   0   8 3555.33 1070.52  20
   7   0   9 2526.44 955.998  20
   7   0  10 249.429 565.190  20
   7   0  11 7306.67 1293.99  20
   7   0  12 519.920 352.500  20
   7   1 -15 845.356 311.274  12
  -7   1  14 1836.86 581.943  13
   7   1 -14 2457.54 638.885  12
   7   1 -13 18327.0 1880.83  12
  -7   1  13 16460.8 1798.40  13
   7   1 -12 32476.3 2699.81  12
  -7   1  12 29210.7 2642.37  13
   7   1 -11 24748.6 2490.35  12
   7   1 -10 15886.9 2026.30  12
   7   1  -9 6013.51 1264.60  12
   7   1  -9 8205.62 1567.47  17
   7   1  -8 50161.3 3933.77   8
   7   1  -8 49587.2 3359.53  12
   7   1  -7 13409.4 2045.62   8
   7   1  -6 43229.5 3643.61   8
   7   1  -5 30458.7 3011.29   8
   7   1  -4 19809.7 2384.29   8
   7   1  -4 15573.4 2027.10   9
   7   1  -3 46573.5 3495.66   8
   7   1  -3 36563.5 3240.56   9
   7   1  -2 15728.1 1579.95   4
   7   1  -2 16867.9 2255.61   9
   7   1  -1 50632.2 4018.36   9
   7   1   0 4464.81 1264.05   9
   7   1   1 61724.1 4555.42   9
   7   1   2 10626.9 1859.84   9
   7   1   3 65921.8 4586.91   9
   7   1   4 5144.34 1293.26   9
   7   1   5 33722.4 3215.26  23
   7   1   6 31603.0 3218.82  23
   7   1   6 35701.0 3230.65  20
   7   1   7 18337.8 2497.66  23
   7   1   7 22172.1 2649.85  20
   7   1   8 964.890 719.855  23
   7   1   8 399.428 527.548  20
   7   1   9 14855.0 2096.23  23
   7   1   9 13267.6 1992.19  20
   7   1  10 743.803 541.417  20
   7   1  11 518.025 478.508  20
   7   1  12 1386.85 437.387  20
   7   2 -14 6607.07 770.894  12
   7   2 -14 8589.82 917.248  14
  -7   2  13 516.127 411.151  13
   7   2 -13 722.332 396.198  12
   7   2 -13 960.793 422.578  14
   7   2 -12 10478.2 1472.78  12
   7   2 -12 11399.9 1519.33  14
   7   2 -11 9143.20 1575.41  12
   7   2 -11 11672.4 1691.90  14
   7   2 -10 8251.23 1532.29  12
   7   2 -10 10251.8 1683.20  14
   7   2  -9 24134.6 2614.92  12
   7   2  -9 29176.9 2743.73  14
   7   2  -8 3481.25 1077.24  12
   7   2  -8 4883.06 1152.40  14
   7   2  -7 18673.4 2226.20  12
   7   2  -7 18031.5 2054.28  14
   7   2  -6 3048.39 888.557  12
   7   2  -6 4946.32 1393.47   8
  -7   2   6 1915.79 805.060   6
   7   2  -5 3431.39 1177.13   8
  -7   2   5 3918.92 1063.37   6
  -7   2   4 66949.9 3968.40   6
   7   2  -4 52961.1 4352.60   8
   7   2  -3 30391.4 3227.00   8
   7   2  -3 34438.0 2839.85   4
  -7   2   3 33969.1 2609.75   6
   7   2  -2 3161.69 889.939   4
   7   2  -1 4529.40 1037.56   4
   7   2   0 39237.8 2881.75   4
   7   2   1 21994.6 2205.71   4
   7   2   2 33231.6 2815.41   4
   7   2   3 2783.80 970.076  23
   7   2   3 2509.78 863.356   4
   7   2   4 2001.24 795.241  23
   7   2   4 1047.92 708.959   9
   7   2   5 9733.64 1941.81  23
   7   2   6 7768.28 1718.77  23
   7   2   7 2812.45 1010.36  23
   7   2   8 4345.88 1243.55  23
   7   2   9 788.807 534.244  23
   7   2  10 1585.76 601.966  23
   7   3 -12 3588.73 731.751  14
   7   3 -11 19645.1 1934.18  14
   7   3 -10 2134.72 742.797  12
   7   3 -10 3413.81 932.853  14
   7   3  -9 6130.97 1373.92  12
   7   3  -9 7256.70 1369.66  14
   7   3  -8 766.425 596.842  12
   7   3  -8 2465.77 886.181  14
   7   3  -7 8871.40 1654.96  12
   7   3  -7 8872.70 1687.80  14
   7   3  -6 3159.18 993.782  12
   7   3  -6 3911.61 1024.30  14
   7   3  -5 26698.0 2568.27  14
   7   3  -4 1139.02 567.409  14
   7   3  -3 16453.7 1989.24  14
   7   3  -2 23068.2 2417.31  18
   7   3  -2 24549.6 2380.00  14
   7   3  -1 6044.90 1260.70  18
   7   3  -1 7081.63 1283.74  14
   7   3   0 13369.0 1832.75  18
   7   3   0 13801.5 1814.80  14
   7   3   1 4189.94 1128.27  18
   7   3   1 5183.65 1152.72  14
   7   3   2 3592.35 1015.44  18
   7   3   2 5203.19 1162.97  14
   7   3   3 902.792 618.205  23
   7   3   3 931.174 560.879  14
   7   3   4 19167.5 2584.55  23
   7   3   4 20734.3 2457.82  14
   7   3   5 3215.73 1062.24  23
   7   3   6 4094.59 1096.12  23
   7   3   7 194.198 456.800  23
   7   3   8 4243.10 942.501  23
   7   3   9 2469.14 616.475  23
   7   4 -10 6496.90 926.559  18
   7   4 -10 5361.47 820.485  14
   7   4  -9 24236.3 1987.21  14
   7   4  -8 3219.92 819.969  14
   7   4  -7 20410.1 2140.87  14
   7   4  -6 2312.67 878.707  18
   7   4  -6 1566.70 745.857  14
   7   4  -5 5343.73 1241.67  18
   7   4  -5 8359.88 1453.49  14
   7   4  -4 9811.85 1660.96  18
   7   4  -4 10358.5 1614.59  14
   7   4  -3 9491.04 1653.58  18
   7   4  -3 9098.45 1573.49  14
   7   4  -2 2456.15 891.562  18
   7   4  -2 2820.55 799.675  14
   7   4  -1 14633.4 1982.58  18
   7   4  -1 16989.2 2062.47  14
   7   4   0 9496.95 1612.56  18
   7   4   0 9104.75 1515.48  14
   7   4   1 5582.25 1242.49  18
   7   4   1 4614.52 1173.71  14
   7   4   2 11478.7 1786.54  23
   7   4   2 11709.7 1698.13  14
   7   4   3 840.200 495.982  23
   7   4   3 1326.33 576.318  14
   7   4   4-24.5391 362.311  23
   7   4   4 185.033 336.955  14
   7   4   5 642.708 331.955  23
   7   4   5 532.347 388.165  14
   7   4   6 3202.07 724.719  23
   7   4   6 4831.39 876.096  14
   7   5  -4 4828.98 864.257  18
   7   5  -4 8618.21 1162.18  14
   7   5  -3 9562.51 1246.80  14
   7   5  -2-188.398 325.101  14
   7   5  -1 1530.18 537.558  23
   7   5  -1 4856.30 938.855  14
   7   5   0 2139.80 661.764  14
   7   5   1-27.5428 324.628  14
   8  -4  -8 9450.24 1298.22  22
   8  -4  -8 8027.15 1063.36  17
   8  -4  -7 8189.18 1395.46  22
   8  -4  -6-310.452 577.292  22
   8  -4  -5 5453.71 1401.57  22
   8  -4  -5 3188.18 1065.22  26
   8  -4  -4 4909.89 1406.98  22
   8  -4  -4 4955.72 1344.54  26
   8  -4  -3 9118.79 1818.17  22
   8  -4  -3 9933.19 1883.24  26
   8  -4  -2 4936.90 1385.43  22
   8  -4  -2 4099.15 1336.77  26
   8  -4  -1 4488.76 1293.28  22
   8  -4  -1 4859.93 1413.32  26
   8  -4   0 1849.98 912.200  26
   8  -4   1 9902.38 1901.70  26
   8  -4   2 5196.40 1309.94  26
   8  -4   3 5592.48 1030.00  10
   8  -4   4 784.014 421.358  10
   8  -4   5 3020.66 667.058  10
   8  -3 -12 4546.30 749.932  17
   8  -3 -11 12113.0 1425.67  17
   8  -3 -10 864.754 546.245  22
   8  -3 -10 669.105 539.609  17
   8  -3  -9 6888.79 1347.25  22
   8  -3  -9 6232.86 1270.81  17
   8  -3  -8 356.596 615.028  22
   8  -3  -8-269.241 492.546  17
   8  -3  -7 13769.0 2071.77  17
   8  -3  -7 16796.9 2468.93  22
   8  -3  -6 2380.39 1020.92  22
   8  -3  -6 2696.19 957.378  26
   8  -3  -5 9220.92 2073.58  22
   8  -3  -5 13608.5 2296.76  26
   8  -3  -4 2127.65 1005.32  22
   8  -3  -4 3645.01 1343.72  26
   8  -3  -3-446.261 671.652  22
   8  -3  -3 1398.51 999.754  26
   8  -3  -2 32618.8 3702.27  22
   8  -3  -2 35205.3 3290.35  21
   8  -3  -2 32932.4 3737.49  26
   8  -3  -1 6159.46 1625.36  22
   8  -3  -1 12190.3 2029.04  21
   8  -3  -1 11058.6 2174.53  26
   8  -3   0 3356.95 1146.51  21
   8  -3   0 4841.04 1628.14  26
   8  -3   1 4740.15 1291.66  21
   8  -3   1 5273.22 1550.17  26
   8  -3   2 3859.70 1240.72  21
   8  -3   2 5799.99 1615.10  26
   8  -3   3 372.672 678.632  21
   8  -3   3 317.028 440.587  10
   8  -3   4 5689.70 1450.21  21
   8  -3   4 7180.45 1489.23  10
   8  -3   5 7870.32 1521.36  21
   8  -3   5 5388.47 1246.34  10
   8  -3   6 6332.93 1300.49  10
   8  -3   7 8810.47 1329.71  10
   8  -3   8-265.798 415.512  10
   8  -2 -13 4438.15 866.391  17
   8  -2 -12 5317.75 1088.36  17
   8  -2 -11 4404.75 1091.78  17
   8  -2 -10 468.438 638.705  22
   8  -2 -10 531.479 464.856  17
   8  -2  -9 16002.6 2234.23  22
   8  -2  -9 17920.9 2347.31  17
   8  -2  -8 2994.09 1052.38  22
   8  -2  -8 4103.81 1159.84  17
   8  -2  -7 14185.3 2324.46  22
   8  -2  -6 36649.7 3758.41  22
   8  -2  -6 34414.3 3432.37  26
   8  -2  -5 52721.5 4462.62  22
   8  -2  -5 53850.9 4314.83  26
   8  -2  -4 23795.8 3041.42  22
   8  -2  -4 22359.3 2325.51  21
   8  -2  -4 25002.8 3074.51  26
   8  -2  -3 3498.50 945.814  21
   8  -2  -3 4465.14 1342.51  26
   8  -2  -2 29013.3 3473.22   9
   8  -2  -1 18580.1 2936.68   9
   8  -2   0 39243.1 3207.45  21
   8  -2   0 47868.2 4002.32  19
   8  -2   0 45009.9 4384.89   9
   8  -2   0 45723.1 4140.91  26
   8  -2   1 43943.4 4004.07  19
   8  -2   1 51889.3 4629.67   9
   8  -2   1 41751.5 3908.68  26
   8  -2   2 50639.6 4421.53  19
   8  -2   2 62396.8 4598.64   9
   8  -2   3 6475.36 1659.77  19
   8  -2   4 1054.33 772.903  19
   8  -2   5 14239.9 2242.51  19
   8  -2   5 11131.1 1853.99  10
   8  -2   6 6426.38 1410.94  19
   8  -2   6 6342.31 1395.78  10
   8  -2   7 4529.44 1171.14  10
   8  -2   8 5141.34 1133.04  10
   8  -2   9 9036.28 1317.02  10
   8  -2  10 3933.88 726.336  10
   8  -1 -14 1720.35 461.637  12
   8  -1 -14 3720.01 756.002  17
   8  -1 -13 1293.34 487.915  17
   8  -1 -12 2055.40 694.530  17
   8  -1 -11 6404.70 1371.72  17
   8  -1 -10 24604.8 2445.69  22
   8  -1 -10 18958.9 2322.03  17
   8  -1  -9 285.935 419.931  22
   8  -1  -9-392.105 455.282  17
   8  -1  -8 48264.6 3794.05  22
   8  -1  -8 45757.7 3614.96  17
   8  -1  -7 11803.3 1769.13  25
   8  -1  -7 11735.0 1879.66   8
   8  -1  -7 11671.3 1929.59  22
   8  -1  -6 22151.9 2466.10   8
   8  -1  -5 36531.4 2928.39   8
   8  -1  -5 34323.9 2885.72   9
   8  -1  -4 20076.3 2283.82   9
   8  -1  -3 90802.5 5213.12   9
   8  -1  -2 20731.5 2601.07   9
   8  -1  -1 23844.7 2894.79   9
   8  -1   0 9334.70 1855.43   9
   8  -1   1 3451.77 1132.54   9
   8  -1   2 20044.8 2526.56   9
   8  -1   3 27438.3 2798.23   9
   8  -1   4 36199.5 3297.18  11
   8  -1   4 29743.7 2993.16  20
   8  -1   4 26801.0 3084.87  19
   8  -1   5 353.320 487.979  20
   8  -1   5 542.617 420.445  19
   8  -1   6 334.841 495.979  20
   8  -1   6 762.654 622.947  19
   8  -1   7 2255.55 1026.88  20
   8  -1   7 3413.12 960.392  19
   8  -1   8 18827.4 2354.87  20
   8  -1   9 7388.78 1378.03  20
   8  -1   9 5443.63 1149.48  10
   8  -1  10 10422.6 1365.21  10
   8  -1  11 224.979 251.823  10
   8   0 -15 2946.68 519.162  12
   8   0 -14 795.800 365.546  12
   8   0 -13 3906.41 883.147  12
   8   0 -12 2551.23 776.050  12
   8   0 -12 2881.66 895.578  17
   8   0 -11 198.219 412.140  17
   8   0 -10 3906.77 1101.15  17
   8   0  -9 29084.9 2721.23  22
   8   0  -9 28861.6 2811.53  17
   8   0  -8 4219.89 1142.23  22
   8   0  -8 2341.86 866.143  17
   8   0  -8 4013.13 975.746  25
   8   0  -7 11645.0 1888.82   8
   8   0  -6 125969. 6005.23   8
   8   0  -5 50560.6 3635.70   8
   8   0  -5 48434.2 3408.07   9
   8   0  -4 238.241 413.367   9
   8   0  -3 2468.67 914.061   9
   8   0  -2 13840.1 2117.28   9
   8   0  -1 11489.4 1988.23   9
   8   0   0 7471.13 1661.38   9
   8   0   1 29764.5 3249.95   9
   8   0   2 13060.5 2106.26   9
   8   0   3 1164.60 743.045   9
   8   0   4 65648.6 4269.41  11
   8   0   4 66084.6 4266.15  20
   8   0   4 59999.7 4035.26   9
   8   0   5 8122.78 1528.87  23
   8   0   5 13226.9 2232.97  11
   8   0   5 8824.38 1671.50  20
   8   0   6 3010.35 970.096  23
   8   0   6 3802.75 1140.24  20
   8   0   7 7233.93 1495.35  23
   8   0   7 6192.51 1547.92  20
   8   0   8 4542.02 1300.80  20
   8   0   8 4155.28 1070.80  19
   8   0   9 266.231 534.565  20
   8   0  10 5709.63 1119.79  20
   8   0  11 1254.67 513.917  20
   8   0  11 611.988 344.983  10
   8   1 -14 3516.84 695.001  12
   8   1 -13 1466.78 576.324  12
   8   1 -12 2866.93 794.798  12
   8   1 -11 5680.84 1201.12  12
   8   1 -10 19056.8 2197.27  12
   8   1  -9 311.878 393.369  12
   8   1  -8 43280.2 3238.49  12
   8   1  -7 11223.6 1600.39  12
   8   1  -7 11687.3 1901.62   8
   8   1  -6 24159.7 2712.42   8
   8   1  -5 33027.4 3104.38   8
   8   1  -5 29576.4 2805.95   9
   8   1  -4 21041.4 2493.01   9
   8   1  -3 79289.1 4970.27   9
   8   1  -2 19924.7 2583.24   9
   8   1  -1 19489.5 2643.51   9
   8   1   0 7388.20 1691.29   9
   8   1   1 4577.55 1366.76   9
   8   1   2 20345.9 2671.83   9
   8   1   3 21770.8 2705.57   9
   8   1   4 21030.5 2623.93  23
   8   1   4 27515.5 2783.93  11
   8   1   4 24381.5 2764.51   9
   8   1   5-613.914 560.209  23
   8   1   5 1009.99 730.554  20
   8   1   6 1458.50 801.443  23
   8   1   6 339.032 459.572  20
   8   1   7 837.389 589.724  23
   8   1   7 403.921 463.894  20
   8   1   8 15005.7 2084.84  23
   8   1   8 16848.8 2192.26  20
   8   1   9 8944.61 1546.69  23
   8   1   9 7685.17 1400.64  20
   8   1  10 11617.5 1492.92  20
   8   1  11 223.313 268.483  20
   8   2 -13 3722.92 723.938  12
   8   2 -12 5643.14 1050.95  12
   8   2 -12 5764.98 960.916  14
   8   2 -11 4645.39 1092.94  12
   8   2 -11 4287.18 901.095  14
   8   2 -10 133.671 415.263  12
   8   2  -9 19333.7 2357.39  12
   8   2  -8 2449.83 850.326  12
   8   2  -7 16342.0 2111.73  12
   8   2  -6 30181.9 2739.58  12
   8   2  -5 49040.5 3361.43  12
   8   2  -4 22422.6 2179.37  12
   8   2  -4 22153.0 2748.04   9
   8   2  -3 2835.10 1047.61   9
   8   2  -2 14823.3 1906.25   4
   8   2  -2 11576.6 2174.16   9
   8   2  -1 8834.53 1480.74   4
   8   2  -1 9442.67 1984.92   9
   8   2   0 35891.6 3887.43   9
   8   2   1 37132.9 2909.04  18
   8   2   1 36822.7 3947.94   9
   8   2   2 44635.7 3781.68  23
   8   2   2 48527.1 3429.06  18
   8   2   2 39143.9 4046.88   9
   8   2   3 5509.55 1442.89  23
   8   2   3 4172.63 1353.07   9
   8   2   4 815.024 720.631  23
   8   2   4 2415.24 958.858   9
   8   2   5 7919.09 1715.85  23
   8   2   6 3762.60 1161.62  23
   8   2   7 749.557 626.730  23
   8   2   8 4496.31 1199.53  23
   8   2   9 8406.54 1347.97  23
   8   3 -11 12427.1 1298.46  14
   8   3 -10 50.7553 305.250  14
   8   3  -9 9477.75 1425.09  14
   8   3  -8 685.734 468.937  14
   8   3  -7 17143.6 2015.48  14
   8   3  -6 2330.39 820.141  14
   8   3  -5 18785.3 2215.68  11
   8   3  -5 16536.7 1996.09  14
   8   3  -4 1492.74 617.731  14
   8   3  -3 312.238 465.735  18
   8   3  -2 30913.3 2868.67  18
   8   3  -1 7938.95 1505.24  18
   8   3   0 3696.08 1028.85  18
   8   3   1 3276.15 970.414  18
   8   3   2 3258.32 1142.08  23
   8   3   3 1651.04 897.367  23
   8   3   4 3649.85 1156.79  23
   8   3   5 3383.94 1085.33  23
   8   3   6 2872.23 965.748  23
   8   3   7 5671.36 1158.03  23
   8   3   8-108.542 249.755  23
   8   4  -9 5927.84 915.492  18
   8   4  -8 8533.11 1244.56  18
   8   4  -8 7850.45 1078.20  14
   8   4  -7 12159.1 1613.78  18
   8   4  -7 10317.6 1328.09  14
   8   4  -6 966.435 638.053  18
   8   4  -6 238.940 345.515  14
   8   4  -5 4030.19 1042.35  18
   8   4  -5 4985.68 1065.78  14
   8   4  -4 4233.02 1109.34  18
   8   4  -4 5723.56 1139.01  14
   8   4  -3 11287.1 1687.28  18
   8   4  -3 12720.7 1669.41  14
   8   4  -2 3706.05 974.877  18
   8   4  -2 4954.86 1077.02  14
   8   4  -1 4058.80 1077.12  18
   8   4  -1 4275.63 961.409  14
   8   4   0 740.656 439.396  18
   8   4   0 738.887 515.769  14
   8   4   1 6311.48 1419.82  23
   8   4   1 9798.34 1481.42  14
   8   4   2 4295.70 1106.87  23
   8   4   2 5760.25 1099.28  14
   8   4   3 2319.70 764.467  23
   8   4   3 2618.71 799.210  14
   8   4   4 857.600 439.277  23
   8   4   5 1850.29 552.010  23
   9  -4  -7 5246.89 951.956  22
   9  -4  -6 19545.4 2036.35  22
   9  -4  -6 18388.4 1712.79  25
   9  -4  -5 4718.62 1124.84  22
   9  -4  -4 8085.50 1500.48  22
   9  -4  -4 7769.55 1430.34  26
   9  -4  -3 740.266 455.772  22
   9  -4  -3 16.9646 510.038  26
   9  -4  -2 2497.40 928.982  22
   9  -4  -2 1319.55 842.016  26
   9  -4  -1 3005.35 842.780  22
   9  -4  -1 2442.01 889.381  26
   9  -4   0 799.009 581.780  26
   9  -4   1-227.669 436.134  26
   9  -4   2 8213.46 1284.55  26
   9  -3 -11 14369.6 1221.58  17
   9  -3 -10 6314.12 956.544  22
   9  -3 -10 6348.15 950.992  17
   9  -3  -9 16186.0 1842.47  22
   9  -3  -9 16125.5 1685.29  17
   9  -3  -8 4632.09 1187.02  22
   9  -3  -7 4913.88 1192.06  25
   9  -3  -7 4354.79 1223.46  22
   9  -3  -6 2957.12 1178.53  22
   9  -3  -5 3370.17 1255.33  22
   9  -3  -5 4518.20 1391.33  26
   9  -3  -4 7188.36 1792.28  22
   9  -3  -4 6005.77 1600.03  26
   9  -3  -3 2310.42 1187.76  22
   9  -3  -3 3172.12 1226.06  26
   9  -3  -2 15141.3 2415.37  22
   9  -3  -2 14596.4 2119.74  21
   9  -3  -2 17211.2 2757.30  26
   9  -3  -1 3165.92 1148.23  22
   9  -3  -1 3759.41 1140.59  21
   9  -3  -1 5432.44 1660.51  26
   9  -3   0 23724.3 2820.91  21
   9  -3   0 16694.1 2715.80  26
   9  -3   1 6980.29 1535.75  21
   9  -3   1 8629.55 1883.59  26
   9  -3   2 300.331 509.858  21
   9  -3   2 583.695 755.775  26
   9  -3   3 11036.4 1872.81  21
   9  -3   4 9603.66 1678.21  21
   9  -3   5 1240.39 602.758  21
   9  -3   5 1256.24 531.832  10
   9  -3   6 3718.81 773.341  21
   9  -3   6 4253.54 827.561  10
   9  -2 -13 10422.5 1038.83  17
   9  -2 -12 7170.62 1055.21  17
   9  -2 -11 2365.58 739.796  17
   9  -2 -10 7860.87 1342.45  22
   9  -2 -10 8563.65 1384.41  17
   9  -2  -9 11822.6 1849.98  22
   9  -2  -9 12027.2 1763.62  17
   9  -2  -8 6690.27 1355.49  25
   9  -2  -8 8338.15 1720.44  22
   9  -2  -7 15756.0 2266.93  25
   9  -2  -7 16000.3 2431.49  22
   9  -2  -6 3353.10 1069.31  22
   9  -2  -5 6215.04 1669.91  22
   9  -2  -4 14565.1 2456.81  22
   9  -2  -4 17604.6 2203.09  21
   9  -2  -4 17589.5 2688.72  26
   9  -2  -3 4307.06 1352.61  22
   9  -2  -3 4624.08 1135.57  21
   9  -2  -3 3624.74 1360.76  26
   9  -2  -2 7238.78 1726.41  22
   9  -2  -2 7095.68 1434.85  21
   9  -2  -2 5899.95 1503.86  26
   9  -2  -1 6790.97 1385.28  21
   9  -2  -1 11699.7 1988.88  19
   9  -2  -1 8532.56 1923.57  26
   9  -2   0 6653.89 1442.29  21
   9  -2   0 6274.84 1494.14  19
   9  -2   0 5369.84 1476.24  26
   9  -2   1 957.997 690.420  21
   9  -2   1 936.807 777.402  19
   9  -2   2 26928.9 3326.59  19
   9  -2   3 23439.9 3086.91  19
   9  -2   4 4549.18 1393.69  19
   9  -2   5 3983.01 1149.96  19
   9  -2   6 1588.51 678.969  19
   9  -2   7 8809.11 1350.56  10
   9  -2   8 699.644 408.849  21
   9  -2   8 2726.78 714.877  10
   9  -1 -13 7046.31 912.879  12
   9  -1 -13 7462.63 1084.56  17
   9  -1 -12 23384.6 1873.30  12
   9  -1 -12 24820.3 2184.13  17
   9  -1 -11 10139.8 1357.23  12
   9  -1 -11 10211.7 1542.39  17
   9  -1 -10 21783.5 2287.56  22
   9  -1 -10 20826.7 2334.66  17
   9  -1  -9 6793.71 1405.11  22
   9  -1  -9 6745.02 1365.71  17
   9  -1  -8 19153.0 2453.80  22
   9  -1  -8 18996.5 2276.61  25
   9  -1  -7 18583.2 2395.59  25
   9  -1  -7 20269.8 2584.93  22
   9  -1  -6 66443.9 4776.39  22
   9  -1  -6 69528.9 4660.73  25
   9  -1  -5 5974.75 1489.04  25
   9  -1  -5 6487.54 1535.29  22
   9  -1  -5 3518.10 758.220   9
   9  -1  -4 392.511 632.863  25
   9  -1  -4-292.780 793.462  22
   9  -1  -3 5225.07 1123.37   9
   9  -1  -2 11325.3 1887.40   9
   9  -1  -1 9576.33 1899.76   9
   9  -1   0 23901.6 2972.44   9
   9  -1   1 19390.0 2271.88  11
   9  -1   1 19177.5 2527.92  19
   9  -1   1 18137.4 2488.79   9
   9  -1   2 66689.4 4335.61  11
   9  -1   2 68613.0 4907.41  19
   9  -1   2 68403.6 4721.78   9
   9  -1   3 23222.6 2708.32  11
   9  -1   3 18601.4 2681.55  19
   9  -1   3 17476.3 2184.70   9
   9  -1   4 7730.31 1755.44  19
   9  -1   5 6625.28 1490.83  19
   9  -1   6 4399.62 1273.34  19
   9  -1   7 1006.76 568.828  19
   9  -1   8 5801.73 1010.70  19
   9  -1   8 5711.81 1106.13  10
   9  -1   9 2722.39 716.129  10
   9   0 -14 63011.3 2570.70  12
   9   0 -13 8792.99 1178.28  12
   9   0 -13 7078.51 945.895  16
   9   0 -12 14907.3 1701.12  12
   9   0 -11 4175.34 961.176  12
   9   0 -11 4387.23 1105.11  17
   9   0 -10-313.073 413.047  12
   9   0 -10 1044.04 609.967  17
   9   0  -9 646.575 325.678  12
   9   0  -9 690.376 546.498  17
   9   0  -8 103686. 5489.22  22
   9   0  -8 108033. 4793.63  12
   9   0  -8 106740. 5230.58  25
   9   0  -7 11780.7 1885.98  25
   9   0  -7 12556.6 2012.07  22
   9   0  -6 373.727 556.741  25
   9   0  -6 1510.76 736.978  22
   9   0  -6 1164.81 592.950  11
   9   0  -5 951.159 556.065   9
   9   0  -4 3973.87 1093.68   9
   9   0  -3 9477.30 1764.66   9
   9   0  -2 205.741 622.477   9
   9   0  -1 7215.83 1660.72   9
   9   0   0 9400.49 1894.14   9
   9   0   1 3261.90 1170.48   9
   9   0   2 717.582 519.517  11
   9   0   2-144.617 507.306   9
   9   0   3 16554.6 2226.95  20
   9   0   3 18206.0 2344.62  11
   9   0   3 13272.2 2067.68   9
   9   0   4 99745.3 5504.85  11
   9   0   4 112459. 5812.86  20
   9   0   5 529.281 511.025  23
   9   0   5-194.125 465.105  20
   9   0   6 4410.53 1169.01  23
   9   0   6 4280.55 1240.73  20
   9   0   7 6701.88 1400.29  23
   9   0   7 6952.57 1495.62  20
   9   0   7 7464.46 1433.08  19
   9   0   8 495.384 442.705  20
   9   0   8 376.141 377.171  19
   9   0   9 214.626 448.850  20
   9   1 -14 3398.92 611.305  12
   9   1 -13 7694.21 1079.38  12
   9   1 -12 25635.8 2211.64  12
   9   1 -11 8298.37 1398.64  12
   9   1 -10 20386.7 2209.26  12
   9   1  -9 7870.44 1466.58  12
   9   1  -9 7486.74 1382.75  16
   9   1  -8 16680.1 2057.21  12
   9   1  -8 20085.9 2296.84  16
   9   1  -7 16333.2 1984.69  12
   9   1  -7 19134.7 2286.44  16
   9   1  -6 60577.2 3610.24  12
   9   1  -6 63794.0 3999.91  16
   9   1  -5 4788.36 1015.26  12
   9   1  -5 3319.80 932.947  16
   9   1  -4 244.126 383.591  11
   9   1  -4 107.083 470.258  16
   9   1  -4-1064.28 666.567   9
   9   1  -3 7711.39 1680.09   9
   9   1  -2 7556.68 1675.60   9
   9   1  -1 8936.72 1884.82   9
   9   1   0 22103.7 2405.28  11
   9   1   0 22694.8 2989.92   9
   9   1   1 20365.6 2368.46  11
   9   1   1 17635.6 2628.20   9
   9   1   2 68004.4 4578.48  23
   9   1   2 73323.7 4498.21  11
   9   1   2 65495.9 4933.54   9
   9   1   3 21072.1 2635.69  23
   9   1   3 22704.7 2569.18  11
   9   1   3 18440.8 2494.93   9
   9   1   4 5510.45 1406.22  23
   9   1   4 5336.26 1323.56  11
   9   1   5 6617.08 1497.60  23
   9   1   5 5754.43 1348.18  20
   9   1   6 3107.57 1065.00  23
   9   1   6 3141.30 978.945  20
   9   1   7 467.772 376.035  23
   9   1   7 719.134 537.374  20
   9   1   8 4973.53 1147.70  23
   9   1   8 5093.79 1085.07  20
   9   1   9 2376.60 668.635  20
   9   1   9 605.073 368.252  19
   9   2 -13 12471.8 1123.18  12
   9   2 -13 6057.24 873.354  11
   9   2 -12 6882.31 1041.67  12
   9   2 -11 2184.76 741.077  12
   9   2 -10 10588.4 1617.93  12
   9   2  -9 9072.81 1621.88  12
   9   2  -8 8081.61 1489.78  12
   9   2  -7 17462.6 2167.82  12
   9   2  -6 3744.53 1017.37  12
   9   2  -5 5459.57 1207.80  12
   9   2  -5 7039.10 1439.74  11
   9   2  -4 13595.7 1978.25  11
   9   2  -4 12371.1 2078.64   9
   9   2  -3 5251.76 1233.00  11
   9   2  -3 5120.22 1444.32   9
   9   2  -2 5007.55 1213.92  11
   9   2  -2 4427.56 1433.17   9
   9   2  -1 6593.90 1339.41  11
   9   2  -1 8115.48 1876.50   9
   9   2   0 3962.08 1054.75  11
   9   2   0 1622.69 934.010   9
   9   2   1 691.121 574.680  23
   9   2   1 925.344 505.293  11
   9   2   1 1073.46 743.865   9
   9   2   2 24347.4 2926.91  23
   9   2   3 13702.7 2225.59  23
   9   2   4 2725.19 1069.45  23
   9   2   5 3303.51 1150.68  23
   9   2   6 1953.01 894.607  23
   9   2   7 5675.90 1291.83  23
   9   2   8 945.359 549.473  23
   9   3 -11 7732.58 997.551  11
   9   3 -10 5599.37 978.605  11
   9   3  -9 14641.5 1767.81  11
   9   3  -8 1864.70 710.130  11
   9   3  -7 5159.18 1129.86  11
   9   3  -6 3607.84 1010.01  11
   9   3  -5 5069.46 1158.45  11
   9   3  -4 8359.00 1481.92  18
   9   3  -3 728.816 524.828  18
   9   3  -2 15477.0 2008.00  18
   9   3  -1 3216.59 910.950  18
   9   3   0 19223.2 2230.32  18
   9   3   1 6119.65 1474.00  23
   9   3   2-15.5790 552.723  23
   9   3   3 8713.73 1682.08  23
   9   3   4 5695.32 1342.20  23
   9   3   5 1412.70 704.345  23
   9   3   6 2482.38 757.322  23
   9   3   7 2221.59 637.371  23
   9   4  -8 1796.15 497.229  18
   9   4  -7 4488.58 861.630  18
   9   4  -6 18807.1 1846.24  18
   9   4  -6 19410.6 1605.96  14
   9   4  -5 4300.55 959.582  18
   9   4  -5 6114.16 971.538  14
   9   4  -4 8721.59 1372.08  18
   9   4  -3-7.15050 398.931  18
   9   4  -2 1702.76 646.532  18
   9   4  -1 813.287 641.238  23
   9   4  -1 1294.59 602.233  18
   9   4   0 1464.62 722.352  23
   9   4   1-579.354 471.483  23
   9   4   2 5051.88 1028.40  23
   9   4   3 1311.31 586.424  23
   9   4   4 222.402 214.090  23
  10  -4  -6 1247.41 484.528  22
  10  -4  -5 3500.49 745.262  25
  10  -4  -5 2519.66 686.545  22
  10  -4  -4 2767.79 800.172  25
  10  -4  -4 789.932 432.644  22
  10  -4  -3 4390.71 878.993  22
  10  -4  -2 35.5063 281.196  22
  10  -3  -9 10897.9 1316.66  22
  10  -3  -8 3002.86 866.839  22
  10  -3  -7 5691.72 1155.65  25
  10  -3  -7 5889.08 1293.04  22
  10  -3  -6 7946.53 1513.72  25
  10  -3  -6 8675.34 1725.03  22
  10  -3  -5 3083.29 1194.00  22
  10  -3  -4 3356.53 1120.14  22
  10  -3  -3 10294.1 1862.07  22
  10  -3  -2 19411.9 2478.89  22
  10  -3  -2 16915.4 2601.04  26
  10  -3  -1 1421.02 815.133  21
  10  -3  -1 1252.51 871.855  26
  10  -3   0 5270.46 1302.40  21
  10  -3   0 5962.50 1524.20  26
  10  -3   1 3515.25 1095.24  21
  10  -3   2 1346.35 702.008  21
  10  -3   3 12287.3 1756.73  21
  10  -3   4 775.425 500.355  21
  10  -3   5 2577.57 680.962  21
  10  -2 -11 3946.88 747.514  17
  10  -2 -10 4792.27 971.788  22
  10  -2  -9 1199.96 703.686  22
  10  -2  -8-188.251 401.362  25
  10  -2  -8 165.577 459.068  22
  10  -2  -7 3436.49 1120.46  25
  10  -2  -7 4129.83 1201.57  22
  10  -2  -6 4116.76 1275.29  25
  10  -2  -6 3690.52 1297.90  22
  10  -2  -5 20886.7 2828.46  22
  10  -2  -5 18126.3 2586.97  25
  10  -2  -4 34220.9 3631.32  22
  10  -2  -4 35293.5 3083.04  21
  10  -2  -3 1868.31 987.065  22
  10  -2  -3 1923.24 744.998  21
  10  -2  -2 23169.6 2871.46  22
  10  -2  -2 25809.7 2713.09  21
  10  -2  -1 788.036 513.084  21
  10  -2  -1 2093.76 889.103  19
  10  -2   0 3360.60 1019.53  21
  10  -2   0 3192.08 1140.39  19
  10  -2   1 13210.7 2048.42  21
  10  -2   1 14541.5 2369.15  19
  10  -2   2 5567.02 1360.43  21
  10  -2   2 6210.04 1583.50  19
  10  -2   3 5431.86 1410.89  21
  10  -2   3 6429.12 1451.67  19
  10  -2   4-871.438 602.914  21
  10  -2   4 104.846 572.316  19
  10  -2   5 4334.88 1159.17  21
  10  -2   5 5097.69 1226.34  19
  10  -2   6 3852.22 940.909  21
  10  -2   7 3261.05 755.368  21
  10  -1 -13 747.498 357.445  16
  10  -1 -12 3482.56 773.063  17
  10  -1 -11 6573.76 1108.57  17
  10  -1 -10 2929.59 814.283  22
  10  -1  -9 1490.91 683.322  22
  10  -1  -9 2260.04 752.170  25
  10  -1  -8 10948.3 1831.08  22
  10  -1  -8 11536.1 1797.43  25
  10  -1  -7 47249.9 3957.85  22
  10  -1  -7 43239.1 3645.36  25
  10  -1  -6 11137.8 1983.78  25
  10  -1  -6 10544.2 1946.05  22
  10  -1  -5 18200.6 2579.39  22
  10  -1  -5 14180.1 1902.69   9
  10  -1  -5 15186.6 2317.09  25
  10  -1  -4 38245.8 3703.69  22
  10  -1  -4 37613.3 2976.56  16
  10  -1  -4 31461.1 3045.57   9
  10  -1  -4 34729.2 3589.78  25
  10  -1  -3 8851.38 1842.91  25
  10  -1  -3 9853.47 1884.93  22
  10  -1  -3 7074.10 1279.36  16
  10  -1  -3 5048.13 1304.82   9
  10  -1  -2 10892.8 2074.12  25
  10  -1  -2 16333.1 2296.20  22
  10  -1  -2 15428.1 1973.15  21
  10  -1  -2 16185.8 2098.61  19
  10  -1  -2 13838.2 1717.59  16
  10  -1  -2 8675.53 1389.82   9
  10  -1  -1 23447.7 2449.93  21
  10  -1  -1 19426.2 2342.58  11
  10  -1  -1 19906.8 2446.07  19
  10  -1  -1 15333.7 2409.50   9
  10  -1  -1 21696.6 2809.41  25
  10  -1   0 23457.1 2600.74  11
  10  -1   0 22923.8 2727.86  19
  10  -1   0 18809.8 2611.50   9
  10  -1   0 18320.7 2539.44  25
  10  -1   1 17354.5 2249.02  11
  10  -1   1 18172.2 2525.49  19
  10  -1   1 11426.7 1971.44   9
  10  -1   2 2263.38 1074.41  11
  10  -1   2 1061.51 875.251  19
  10  -1   3 16060.3 2416.95  11
  10  -1   3 4072.08 1248.98  19
  10  -1   4 6521.67 1537.19  19
  10  -1   5 542.765 746.554  19
  10  -1   6 450.862 631.457  19
  10  -1   7 2408.67 670.522  19
  10  -1   8 3514.31 679.553  19
  10   0 -13 3134.64 592.232  12
  10   0 -13 2081.05 486.403  16
  10   0 -12 508.132 390.101  12
  10   0 -12 121.081 292.023  16
  10   0 -11 6340.51 1091.64  12
  10   0 -11 5605.31 1089.99  16
  10   0 -10 41898.4 2859.19  12
  10   0  -9 45417.0 3492.02  11
  10   0  -8 59276.7 4173.33  22
  10   0  -8 60216.0 4150.07  11
  10   0  -7 6611.67 1521.38  22
  10   0  -7 6759.43 1466.24  11
  10   0  -7 5914.40 1361.16  25
  10   0  -6 41317.3 3698.45  22
  10   0  -6 38105.2 3392.46  11
  10   0  -6 37045.6 3129.03  16
  10   0  -6 44483.1 3736.79  25
  10   0  -5 43702.5 3868.50  22
  10   0  -5 42622.8 3553.72  11
  10   0  -5 40688.6 3219.75  16
  10   0  -5 34014.6 3067.24   9
  10   0  -5 40132.3 3698.38  25
  10   0  -4 10658.9 1996.65  25
  10   0  -4 11443.2 1985.07  22
  10   0  -4 10794.2 1801.15  11
  10   0  -4 10698.7 1624.05  16
  10   0  -4 10340.7 1804.99   9
  10   0  -3 37331.9 3411.43  22
  10   0  -3 35366.7 3185.43  11
  10   0  -3 32778.4 2780.27  16
  10   0  -3 35921.3 3453.28   9
  10   0  -3 41083.9 3827.95  25
  10   0  -2 9246.66 1883.66  25
  10   0  -2 10840.4 1709.96  22
  10   0  -2 11220.3 1790.63  11
  10   0  -2 9301.99 1474.85  16
  10   0  -2 9865.59 1922.21   9
  10   0  -1 674.435 677.892  25
  10   0  -1 107.622 400.173  11
  10   0  -1 33.0244 353.073  16
  10   0  -1 1217.44 785.343   9
  10   0   0 5846.26 1330.67  11
  10   0   0 4906.02 1276.06  19
  10   0   0 5413.45 1453.03   9
  10   0   1 21364.1 2523.29  11
  10   0   1 19049.0 2629.69   9
  10   0   2 3832.95 1126.11  11
  10   0   2 4190.10 1347.96   9
  10   0   3-25.8727 768.450  11
  10   0   4 44770.1 3812.71  11
  10   0   5 7278.71 1524.61  19
  10   0   6 19403.9 2284.98  19
  10   0   7 85.2426 377.699  19
  10   0   8 3495.36 750.190  19
  10   1 -13 436.417 236.130  12
  10   1 -12 2956.96 729.889  12
  10   1 -12 2589.01 670.027  11
  10   1 -11 7369.60 1213.29  12
  10   1 -11 4509.53 1045.03  11
  10   1 -10 3692.19 927.188  12
  10   1 -10 3454.61 891.096  16
  10   1  -9 1359.70 612.060  12
  10   1  -9 2125.94 826.858  16
  10   1  -8 12550.3 1724.20  12
  10   1  -8 11618.6 1922.74  11
  10   1  -8 10085.5 1683.93  16
  10   1  -7 38075.3 2946.77  12
  10   1  -7 39153.5 3527.30  11
  10   1  -7 38430.7 3233.24  16
  10   1  -6 8525.23 1673.01  11
  10   1  -6 8510.24 1538.26  16
  10   1  -5 19437.6 2502.48  11
  10   1  -5 18409.2 2225.57  16
  10   1  -4 42209.7 3600.25  11
  10   1  -4 41369.0 3316.59  16
  10   1  -4 36678.5 3412.41   9
  10   1  -3 7498.61 1495.23  11
  10   1  -3 5362.61 1175.42  16
  10   1  -3 8848.97 1786.42   9
  10   1  -2 12498.2 1955.69  11
  10   1  -2 10722.2 1654.39  16
  10   1  -2 12833.7 2186.07   9
  10   1  -1 22282.4 2590.83  11
  10   1  -1 19827.8 2761.03   9
  10   1   0 23065.3 2639.52  11
  10   1   0 17799.5 2616.76   9
  10   1   1 16092.5 2186.19  11
  10   1   1 14926.4 2388.48   9
  10   1   2 2210.47 908.276  11
  10   1   3 6523.21 1449.43  23
  10   1   3 7121.25 1453.70  11
  10   1   4 4929.33 1313.95  23
  10   1   4 8124.07 1771.72  11
  10   1   5-302.557 455.237  23
  10   1   6 997.086 638.444  23
  10   1   7 1894.35 744.924  23
  10   1   8 2701.16 684.131  19
  10   2 -12-82.2161 291.521  12
  10   2 -12-506.939 336.171  11
  10   2 -11 4552.19 874.583  12
  10   2 -11 3337.24 834.389  11
  10   2 -10 4445.25 972.650  12
  10   2 -10 4601.94 1120.12  11
  10   2  -9 1258.56 571.826  12
  10   2  -9 1193.89 705.303  11
  10   2  -8 171.948 311.889  12
  10   2  -8 504.670 493.462  11
  10   2  -7 3851.17 1048.70  12
  10   2  -7 5718.26 1359.61  11
  10   2  -6 5469.21 1175.24  12
  10   2  -6 5933.20 1410.54  11
  10   2  -5 15869.7 2210.38  11
  10   2  -4 32542.1 3138.52  11
  10   2  -3 1879.87 855.421  11
  10   2  -2 22027.8 2530.64  11
  10   2  -1-396.042 474.343  23
  10   2  -1 1502.99 698.525  11
  10   2   0 3807.97 1138.83  23
  10   2   0 4421.64 1122.08  11
  10   2   1 13727.9 2184.20  23
  10   2   1 12352.9 1824.22  11
  10   2   2 3060.73 1012.46  23
  10   2   2 3752.89 999.101  11
  10   2   3 4609.19 1269.71  23
  10   2   4 251.793 557.002  23
  10   2   5 4614.11 1198.11  23
  10   2   6 2925.50 897.380  23
  10   2   7 5031.42 1020.06  23
  10   2   8 1507.54 454.892  19
  10   3 -10 357.515 324.525  11
  10   3  -9 8632.41 1194.94  11
  10   3  -9 12388.1 1341.92  18
  10   3  -8 3544.47 841.315  11
  10   3  -8 4604.47 951.908  18
  10   3  -7 5708.41 1102.91  11
  10   3  -7 6934.17 1184.02  18
  10   3  -6 9210.55 1424.07  18
  10   3  -6 7459.34 1305.28  11
  10   3  -5 3977.79 1009.26  11
  10   3  -5 2883.32 854.535  18
  10   3  -4 822.409 527.195  18
  10   3  -3 9958.13 1545.71  18
  10   3  -2 14811.2 1877.64  18
  10   3  -1 1827.74 950.050  23
  10   3  -1 860.735 533.920  18
  10   3   0 3368.47 1232.11  23
  10   3   1 2510.64 983.133  23
  10   3   2-43.2043 589.862  23
  10   3   3 7152.18 1452.81  23
  10   3   4 386.489 410.828  23
  10   3   5 1167.01 535.347  23
  10   3   6 885.018 394.882  23
  10   4  -5 1813.62 512.304  18
  10   4  -4 2534.88 622.008  18
  10   4  -3 490.112 430.786  23
  10   4  -3 2091.53 633.426  18
  10   4  -2 96.7333 350.748  23
  10   4  -1 2427.17 830.593  23
  10   4   0 2101.86 637.390  23
  10   4   1 52.5373 252.690  23
  11  -3  -8 3825.49 784.679  22
  11  -3  -7 7477.96 1102.15  25
  11  -3  -7 8093.65 1269.55  22
  11  -3  -6 5338.30 1094.80  25
  11  -3  -6 5104.56 1085.51  22
  11  -3  -5 44.1066 378.744  25
  11  -3  -5 253.678 498.706  22
  11  -3  -4 4377.27 1116.93  25
  11  -3  -4 5200.47 1159.53  22
  11  -3  -3 14340.1 1860.97  22
  11  -3  -3 13881.9 1979.86  25
  11  -3  -2 3590.73 1091.40  25
  11  -3  -1 1801.77 853.162  25
  11  -3   0 8092.65 1399.46  25
  11  -3   0 9524.76 1546.96  21
  11  -3   1 1489.62 537.754  25
  11  -3   1 2351.78 820.069  21
  11  -3   2 599.617 432.917  21
  11  -3   3 3273.40 787.320  21
  11  -2 -11 11720.3 1106.17  16
  11  -2 -10 606.141 264.635  22
  11  -2 -10 882.751 422.273  16
  11  -2  -9 3778.75 910.095  22
  11  -2  -9 3204.89 746.267  16
  11  -2  -8 7236.01 1241.91  25
  11  -2  -8 7177.57 1339.70  22
  11  -2  -8 8526.23 1282.86  16
  11  -2  -7 2280.62 811.927  25
  11  -2  -7 4695.50 1285.82  22
  11  -2  -7 4063.84 860.218  16
  11  -2  -6 6684.55 1439.49  25
  11  -2  -6 7645.34 1626.33  22
  11  -2  -6 5312.01 1019.25  16
  11  -2  -5 4253.82 1260.02  25
  11  -2  -5 6094.02 1504.23  22
  11  -2  -4 25422.4 2878.63  22
  11  -2  -4 25692.0 3008.80  25
  11  -2  -3 1936.81 841.753  25
  11  -2  -3 1581.80 817.680  22
  11  -2  -3 1370.15 685.548  21
  11  -2  -2 12763.7 2173.30  25
  11  -2  -2 13899.6 2055.90  22
  11  -2  -2 13054.9 1870.61  21
  11  -2  -1 18927.1 2273.97  21
  11  -2  -1 17995.7 2494.69  25
  11  -2   0 22405.6 2503.01  21
  11  -2   0 22419.3 2623.10  25
  11  -2   1 2916.66 967.254  21
  11  -2   1 1308.89 756.516  19
  11  -2   2 8925.36 1611.90  21
  11  -2   2 9103.05 1765.70  19
  11  -2   3 6502.82 1345.93  21
  11  -2   4 2493.28 850.825  21
  11  -2   5 4886.69 1022.09  21
  11  -2   6 2916.86 722.299  21
  11  -1 -12 1108.17 409.814  16
  11  -1 -11 14855.8 1570.09  16
  11  -1 -10 33086.0 2582.58  16
  11  -1  -9 4314.61 1068.74  22
  11  -1  -9 4219.01 1010.53  16
  11  -1  -8 638.044 527.182  25
  11  -1  -8 1025.40 620.021  22
  11  -1  -8 978.686 618.580  16
  11  -1  -7 5648.96 1235.85  25
  11  -1  -7 7725.61 1601.17  22
  11  -1  -7 7261.46 1377.38  16
  11  -1  -6 12243.1 1983.20  25
  11  -1  -6 11673.4 1973.45  22
  11  -1  -6 11915.8 1750.91  16
  11  -1  -5 1419.70 678.057  25
  11  -1  -5 1341.75 785.063  22
  11  -1  -5 1955.74 745.550  16
  11  -1  -4 4923.89 1426.24  25
  11  -1  -4 5472.93 1423.30  22
  11  -1  -4 5403.94 1169.17  16
  11  -1  -3 4109.08 1356.23  25
  11  -1  -3 5088.56 1339.30  22
  11  -1  -3 4808.26 1143.77  16
  11  -1  -2 9344.60 1944.18  25
  11  -1  -2 10053.3 1621.92  21
  11  -1  -2 7779.83 1513.37  11
  11  -1  -2 10594.0 1728.27  19
  11  -1  -2 11156.6 1583.12  16
  11  -1  -1 17042.9 2116.92  21
  11  -1  -1 15082.8 2130.01  11
  11  -1  -1 18491.0 2342.60  19
  11  -1  -1 15930.9 2344.77  25
  11  -1   0 4549.02 1248.17  25
  11  -1   0 4939.87 1216.40  21
  11  -1   0 4971.32 1163.40  11
  11  -1   0 4966.76 1347.06  19
  11  -1   1 6186.53 1443.29  11
  11  -1   1 4637.20 1280.88  19
  11  -1   2 16329.5 2403.03  11
  11  -1   2 7783.17 1642.46  19
  11  -1   3 14817.3 2181.71  19
  11  -1   4 22025.9 2527.84  19
  11  -1   5 17396.1 2092.87  19
  11  -1   6 3819.93 924.305  19
  11  -1   7 2460.64 603.803  19
  11   0 -12 11006.6 1141.72  16
  11   0 -11 182.368 286.570  16
  11   0 -10 1621.43 722.341  16
  11   0  -9 3981.10 947.071  11
  11   0  -9 3940.89 1009.20  16
  11   0  -8-214.081 385.801  11
  11   0  -8 606.310 546.456  16
  11   0  -7 11842.1 1835.39  11
  11   0  -7 12164.3 1867.57  16
  11   0  -6 1073.44 655.491  11
  11   0  -6-1116.65 613.805  16
  11   0  -6-236.171 603.919  25
  11   0  -5 9.08225 565.662  22
  11   0  -5 1104.68 737.633  11
  11   0  -5 643.021 546.036  16
  11   0  -5 690.152 735.473  25
  11   0  -4 1431.76 797.386  25
  11   0  -4 1528.31 817.990  22
  11   0  -4 2213.25 927.052  11
  11   0  -4 947.596 589.007  16
  11   0  -3 10792.5 1774.99  11
  11   0  -3 9729.94 1643.28  16
  11   0  -3 14153.6 2310.14  25
  11   0  -2 830.945 886.161  25
  11   0  -2 1892.37 914.574  11
  11   0  -2 1156.93 653.537  16
  11   0  -1 9426.66 1716.04  25
  11   0  -1 8671.82 1635.71  11
  11   0  -1 9661.17 1619.35  19
  11   0   0 11940.8 1926.82  11
  11   0   0 10393.4 1771.93  19
  11   0   1 4039.05 1160.22  11
  11   0   1 3079.34 1064.89  19
  11   0   2 5600.65 1273.12  11
  11   0   2 6247.63 1400.84  19
  11   0   3 4406.32 1567.75  11
  11   0   3 1693.59 886.366  19
  11   0   4 15613.3 2174.53  19
  11   0   5 3275.44 1049.56  19
  11   0   6 1619.43 660.711  19
  11   0   7 2392.23 647.833  19
  11   1 -12 1047.85 364.855  12
  11   1 -12 450.515 321.797  11
  11   1 -11 14689.8 1430.34  12
  11   1 -11 12310.4 1476.19  11
  11   1 -10 38787.5 2529.87  12
  11   1 -10 34219.4 2757.88  11
  11   1 -10 37131.0 2461.31  16
  11   1  -9 3134.40 833.668  12
  11   1  -9 2884.93 940.961  11
  11   1  -9 3035.64 829.358  16
  11   1  -8 1315.38 571.668  12
  11   1  -8 1302.07 713.451  11
  11   1  -8 1979.13 734.037  16
  11   1  -7 7097.04 1520.51  11
  11   1  -7 5798.16 1340.74  16
  11   1  -6 10305.9 1820.68  11
  11   1  -6 12145.9 1841.99  16
  11   1  -5 1658.26 804.773  11
  11   1  -5 1288.68 696.681  16
  11   1  -4 5663.29 1362.91  11
  11   1  -4 4655.89 1256.47  16
  11   1  -3 3933.02 1203.67  11
  11   1  -2 10394.8 1834.57  11
  11   1  -1 17121.0 2333.31  11
  11   1   0 4321.56 1217.81  11
  11   1   1 4885.53 1280.65  11
  11   1   2 8550.59 1627.04  11
  11   1   3 16180.4 2219.77  11
  11   1   4 20928.0 2293.22  23
  11   1   5 15350.2 1872.57  23
  11   1   6 1769.44 673.947  23
  11   1   6 2074.09 691.076  19
  11   1   7 2963.15 729.272  19
  11   2 -11 10182.2 1164.73  11
  11   2 -10 923.456 470.513  11
  11   2  -9 3555.36 893.773  11
  11   2  -8 7113.81 1361.34  11
  11   2  -7 4301.72 1117.15  11
  11   2  -6 7480.43 1490.55  11
  11   2  -5 3899.39 1131.04  11
  11   2  -4 29181.5 2904.67  11
  11   2  -3 1575.05 721.781  11
  11   2  -2 14031.7 1994.77  11
  11   2  -1 21589.6 2408.88  11
  11   2   0 19514.5 2448.53  23
  11   2   0 21096.7 2343.58  11
  11   2   1 2113.83 869.861  23
  11   2   1 2695.36 842.314  11
  11   2   2 6142.94 1318.94  23
  11   2   2 3921.75 934.777  11
  11   2   3 4921.73 1191.94  23
  11   2   4 3769.13 986.583  23
  11   2   5 3127.45 826.675  23
  11   2   6 775.060 408.272  23
  11   3  -8 4171.22 771.214  11
  11   3  -7 7131.59 1061.61  11
  11   3  -6 4109.54 847.260  11
  11   3  -5 547.979 385.532  11
  11   3  -4 1704.74 668.377  23
  11   3  -3 8455.74 1463.42  23
  11   3  -2 1687.85 708.529  23
  11   3  -1 954.958 597.421  23
  11   3   0 5128.83 1204.31  23
  11   3   1 1126.94 685.397  23
  11   3   2 967.934 556.741  23
  11   3   3 970.987 491.305  23
  11   3   4 120.660 232.325  23
  12  -3  -6 4979.87 821.088  25
  12  -3  -6 4671.46 809.772  22
  12  -3  -5 1151.51 484.639  25
  12  -3  -5 1423.27 516.655  22
  12  -3  -4 7476.34 1194.23  25
  12  -3  -4 5698.82 926.366  22
  12  -3  -3 17863.4 1839.63  25
  12  -3  -2 2827.06 791.321  25
  12  -3  -1 6570.10 1060.04  25
  12  -2  -9 9089.23 1006.69  16
  12  -2  -8 3299.01 805.583  22
  12  -2  -8 3399.94 669.283  16
  12  -2  -8 2684.44 646.604  25
  12  -2  -7 395.639 395.786  25
  12  -2  -7 1124.04 562.732  22
  12  -2  -7 675.954 303.732  16
  12  -2  -6 2874.08 888.651  25
  12  -2  -6 1983.87 728.231  22
  12  -2  -5 1042.36 715.365  25
  12  -2  -5 84.6729 485.691  22
  12  -2  -4 16053.4 1982.42  22
  12  -2  -4 16185.1 2196.87  25
  12  -2  -3 5265.96 1297.49  25
  12  -2  -3 3683.71 945.975  22
  12  -2  -2 6204.64 1366.01  25
  12  -2  -2 5989.67 1204.92  21
  12  -2  -1 2179.87 845.125  25
  12  -2  -1 2503.51 840.200  21
  12  -2   0-345.708 470.727  25
  12  -2   0-24.8372 425.860  21
  12  -2   1 3583.40 969.585  21
  12  -2   2 131.894 387.720  21
  12  -2   3 1251.51 555.391  21
  12  -2   4 3607.98 775.307  21
  12  -1 -11 11709.0 1161.49  16
  12  -1 -10 115.591 361.881  16
  12  -1  -9 1981.76 567.838  16
  12  -1  -8 10727.4 1472.46  16
  12  -1  -7 10134.9 1656.54  22
  12  -1  -7 10524.3 1525.66  16
  12  -1  -7 9645.42 1598.71  25
  12  -1  -6 5062.33 1243.50  25
  12  -1  -6 6631.52 1448.86  22
  12  -1  -6 7104.68 1280.48  16
  12  -1  -5 20381.2 2444.91  22
  12  -1  -5 20877.8 2195.39  16
  12  -1  -5 20101.2 2563.18  25
  12  -1  -4 1098.48 734.090  25
  12  -1  -4 1240.36 742.270  22
  12  -1  -4 1752.55 659.415  16
  12  -1  -3 1014.86 721.793  25
  12  -1  -3 482.077 413.993  22
  12  -1  -3 1330.64 556.989  16
  12  -1  -2 2783.29 1021.52  25
  12  -1  -2 1711.83 750.157  11
  12  -1  -1 11857.4 1852.07  25
  12  -1  -1 14431.6 1830.79  21
  12  -1  -1 10441.5 1593.17  11
  12  -1  -1 14502.4 1929.29  19
  12  -1   0 510.166 400.897  21
  12  -1   0 752.574 923.912  11
  12  -1   0 378.221 528.315  19
  12  -1   1 293.295 423.274  21
  12  -1   1 531.570 539.926  19
  12  -1   2 1221.90 606.301  21
  12  -1   2 830.685 684.865  19
  12  -1   3 3079.64 888.752  21
  12  -1   3 5022.74 1147.30  19
  12  -1   4 1509.11 655.537  21
  12  -1   4 1511.62 726.021  19
  12  -1   5-299.363 312.274  21
  12  -1   5-299.744 379.627  19
  12  -1   6 10372.6 1141.01  21
  12   0 -11 6143.17 861.592  16
  12   0 -10 5168.31 954.708  16
  12   0  -9 13140.7 1622.11  16
  12   0  -8 36119.6 2800.56  11
  12   0  -8 37695.1 2929.31  16
  12   0  -7 6953.37 1326.46  11
  12   0  -7 5236.30 1190.00  16
  12   0  -6 634.422 503.633  11
  12   0  -6 322.305 396.397  16
  12   0  -5 3490.46 1006.55  11
  12   0  -5 3277.01 980.933  16
  12   0  -4 12187.5 1932.94  11
  12   0  -4 13750.0 1899.33  16
  12   0  -3 54646.0 3993.41  11
  12   0  -2-369.666 539.114  11
  12   0  -1 1265.28 599.564  11
  12   0   0 616.625 591.007  11
  12   0   0 256.191 407.692  19
  12   0   1-613.379 761.454  11
  12   0   1 1164.50 689.935  19
  12   0   2 14577.5 2221.70  11
  12   0   2 8867.14 1540.80  19
  12   0   3 1950.09 801.381  19
  12   0   4 251.671 379.199  19
  12   0   5 13927.0 1647.93  19
  12   0   6 8364.89 1107.81  19
  12   1 -10 1211.46 566.398  11
  12   1  -9 2672.27 767.108  11
  12   1  -9 2258.86 636.096  16
  12   1  -8 10786.8 1625.30  11
  12   1  -8 11366.2 1512.31  16
  12   1  -7 11982.5 1814.40  11
  12   1  -7 13085.7 1738.46  16
  12   1  -6 6430.46 1379.17  11
  12   1  -5 20522.7 2502.51  11
  12   1  -4 746.941 630.056  11
  12   1  -3 1522.54 758.057  11
  12   1  -2 1416.94 770.680  11
  12   1  -1 11020.3 1844.46  11
  12   1   0 846.503 627.609  11
  12   1   0-764.675 539.977  19
  12   1   1-779.671 552.353  11
  12   1   1-1051.46 593.250  19
  12   1   2 847.093 677.983  11
  12   1   2 1781.50 727.124  19
  12   1   3 14978.4 2168.41  11
  12   1   3 1917.61 803.347  19
  12   1   4 2780.06 794.812  19
  12   1   5-1564.92 604.122  19
  12   1   6 11119.5 1179.11  19
  12   2  -9 8098.96 1133.98  11
  12   2  -8 3836.93 873.305  11
  12   2  -7 789.087 493.126  11
  12   2  -6 1715.10 732.572  11
  12   2  -5 688.960 491.880  11
  12   2  -4 11740.2 1715.82  11
  12   2  -3 5849.31 1240.97  11
  12   2  -2 5995.42 1263.09  11
  12   2  -1 2651.02 845.650  11
  12   2   0 936.960 512.162  11
  12   2   1 3298.72 835.172  11
  12   2   2 6507.48 1114.85  11
  12   2   3 656.403 476.143  23
  12   2   3 2245.20 654.679  19
  12   2   4 3791.23 753.338  19
  13  -2  -6 4600.65 901.755  25
  13  -2  -5 1895.74 658.241  25
  13  -2  -5 2297.70 631.486  22
  13  -2  -4 3888.32 944.609  25
  13  -2  -3 204.282 390.043  25
  13  -2  -2 1520.33 568.666  25
  13  -2  -1 703.811 458.665  25
  13  -2   0 8283.80 1136.70  21
  13  -2   1 9073.01 1135.97  21
  13  -1  -9 4387.87 761.440  16
  13  -1  -8 5589.05 938.528  16
  13  -1  -7 3439.12 807.384  16
  13  -1  -6 4189.30 900.309  16
  13  -1  -5 2668.79 702.714  16
  13  -1  -5 3112.46 966.695  25
  13  -1  -4 4814.62 1117.86  25
  13  -1  -3 9694.69 1561.62  25
  13  -1  -2 8541.01 1433.20  25
  13  -1  -1 12946.6 1752.33  11
  13  -1   0 750.573 387.845  21
  13  -1   0 919.766 530.648  19
  13  -1   1 3201.84 797.605  21
  13  -1   1 2502.38 723.972  19
  13  -1   2 4230.77 896.429  21
  13  -1   2 4196.28 911.351  19
  13  -1   3 1793.49 568.222  21
  13  -1   3 1381.78 577.268  19
  13   0 -10-14.8732 197.873  16
  13   0  -9 3118.40 703.159  16
  13   0  -8 1923.93 620.864  16
  13   0  -7 1016.90 505.945  11
  13   0  -7 2264.09 754.833  16
  13   0  -6 3216.89 876.959  11
  13   0  -6 3393.33 908.902  16
  13   0  -5 13750.7 1809.08  11
  13   0  -4 530.987 442.146  11
  13   0  -3-380.084 467.372  11
  13   0  -2 654.281 438.698  11
  13   0  -1 15189.4 1953.10  11
  13   0   0 4028.06 1092.47  11
  13   0   0 2537.10 766.532  19
  13   0   1 8403.35 1667.96  11
  13   0   1 1803.02 698.506  19
  13   0   2 3419.61 865.109  19
  13   0   3-245.581 394.837  19
  13   0   4 1261.21 502.502  19
  13   1  -9 4086.24 725.389  11
  13   1  -8 3459.30 792.478  11
  13   1  -7 2971.26 781.022  11
  13   1  -6 3464.64 934.347  11
  13   1  -5 2755.97 885.003  11
  13   1  -4 6144.84 1277.77  11
  13   1  -3 9884.66 1633.16  11
  13   1  -2 7108.48 1356.53  11
  13   1  -1 5456.95 1185.21  11
  13   1   0 403.692 488.602  11
  13   1   1 8755.57 1451.89  11
  13   1   1 3748.86 856.861  19
  13   1   2 2946.56 729.705  19
  13   1   3 995.832 465.911  19
  13   2  -7 1722.26 556.343  11
  13   2  -6 2645.83 657.890  11
  13   2  -5 2615.92 755.937  11
  13   2  -4 3768.15 852.575  11
  13   2  -3 23.6942 281.763  11
  13   2  -2 2015.56 659.824  11
  13   2  -1-736.051 446.407  11
  13   2   0 9541.97 1196.31  11
  14   0  -6 1049.90 429.443  11
  14   0  -5 138.467 306.188  11
  14   0  -4 3079.54 788.075  11
  14   0  -3 9671.56 1357.83  11
  14   0  -2 3484.92 845.229  11
  14   0  -1 4958.00 1204.39  11
  14   1  -6 8586.96 1120.23  11
  14   1  -5 16984.9 1669.43  11
  14   1  -4 1864.92 637.509  11
  14   1  -3 1140.63 543.291  11
  14   1  -2 145.682 372.112  11
  14   1  -1 9261.70 1264.92  11
  14   1   0 11946.6 1465.12  11
   0   0   0    0.00    0.00   0
TITL HSY-176 in P2(1)
REM P2(1) (#4 in standard setting)
CELL 1.54184  11.844136   4.728760  13.098146  90.0000 101.3099  90.0000
ZERR    2.00   0.000664   0.000264   0.000700   0.0000   0.0056   0.0000
LATT -1
SYMM -x, y+1/2,-z
SFAC C H N O Cl
UNIT 28.00 28.00 2.00 2.00 6.00
TREF
HKLF 4
END
;
_shelx_hkl_checksum              49615
_shelx_res_file
;
TITL cg176
CELL 1.54184 11.8441 4.7288 13.0981 90.00 101.310 90.00
ZERR 2       0.0007  0.0003 0.0007  0.000 0.006 0.000
LATT -1
SYMM -X,0.5+Y,-Z
SFAC C H N O Cl
UNIT 30 24 2 2 6
L.S. 20
PLAN 20
TEMP -100
OMIT -2 180.0
SIZE 0.16 0.08 0.06
fmap 2
ACTA
BOND $H
CONF
HTAB
WGHT    0.074000    0.155800
FVAR      10.28550
C1    1    0.264157    0.476846    0.571261    11.00000    0.03138    0.02240 =
         0.02838    0.00172    0.00941   -0.00302
O1    4    0.259860    0.732829    0.558777    11.00000    0.06242    0.02362 =
         0.03778    0.00179    0.02243   -0.00053
N1    3    0.298476    0.296217    0.504500    11.00000    0.03521    0.01945 =
         0.03042    0.00113    0.00965   -0.00142
AFIX  43
H1    2    0.298008    0.114472    0.518851    11.00000   -1.20000
AFIX   0
C2    1    0.233294    0.337718    0.667247    11.00000    0.05237    0.02914 =
         0.03509    0.00562    0.01957    0.00090
AFIX  23
H2A   2    0.172748    0.193938    0.644844    11.00000   -1.20000
H2B   2    0.301987    0.239795    0.706869    11.00000   -1.20000
AFIX   0
C11   1    0.336008    0.380170    0.410955    11.00000    0.02719    0.02315 =
         0.02716   -0.00258    0.00442    0.00004
C12   1    0.273634    0.575508    0.343811    11.00000    0.02811    0.02869 =
         0.03004   -0.00253    0.00701    0.00060
AFIX  43
H12   2    0.206454    0.657598    0.360773    11.00000   -1.20000
AFIX   0
C13   1    0.307715    0.654000    0.251605    11.00000    0.02907    0.03609 =
         0.02919    0.00273    0.00390   -0.00129
C14   1    0.408088    0.531279    0.232056    11.00000    0.03502    0.05613 =
         0.02595    0.00277    0.01133   -0.00351
CL14  5    0.455591    0.622971    0.117613    11.00000    0.04555    0.09538 =
         0.03876    0.01966    0.01825    0.00726
C15   1    0.470235    0.336656    0.297846    11.00000    0.03242    0.05511 =
         0.03805   -0.00010    0.01381    0.01038
AFIX  43
H15   2    0.537739    0.255035    0.281365    11.00000   -1.20000
AFIX   0
C16   1    0.434129    0.259296    0.388671    11.00000    0.03716    0.03940 =
         0.03322    0.00809    0.00628    0.00410
AFIX  43
H16   2    0.476580    0.124824    0.434758    11.00000   -1.20000
AFIX   0
C17   1    0.236928    0.860677    0.178389    11.00000    0.04568    0.04877 =
         0.03554    0.01200    0.00719    0.00686
AFIX 137
H17A  2    0.204064    0.764876    0.112957    11.00000   -1.50000
H17B  2    0.285969    1.017129    0.164356    11.00000   -1.50000
H17C  2    0.174629    0.934685    0.210150    11.00000   -1.50000
AFIX   0
C21   1    0.191373    0.547675    0.736650    11.00000    0.04072    0.02437 =
         0.03215    0.00714    0.01703   -0.00358
C22   1    0.080346    0.655729    0.717460    11.00000    0.03977    0.02896 =
         0.02791    0.00752    0.00596   -0.01009
CL22  5   -0.017548    0.536163    0.609235    11.00000    0.04833    0.05768 =
         0.04001   -0.00274    0.00178   -0.01075
C23   1    0.042894    0.854895    0.779696    11.00000    0.03568    0.02876 =
         0.03617    0.00455    0.01289    0.00157
AFIX  43
H23   2   -0.034137    0.922317    0.764410    11.00000   -1.20000
AFIX   0
C24   1    0.121083    0.955503    0.865992    11.00000    0.04216    0.02336 =
         0.03296    0.00379    0.02071    0.00236
CL24  5    0.075780    1.208344    0.945060    11.00000    0.05540    0.03093 =
         0.04057    0.00159    0.02566    0.00524
C25   1    0.232224    0.855079    0.887795    11.00000    0.03784    0.03672 =
         0.02813    0.00276    0.01089   -0.00450
AFIX  43
H25   2    0.285364    0.925743    0.946102    11.00000   -1.20000
AFIX   0
C26   1    0.266257    0.651500    0.824744    11.00000    0.03219    0.03661 =
         0.03279    0.01149    0.01037    0.00247
AFIX  43
H26   2    0.342583    0.579843    0.841572    11.00000   -1.20000
AFIX   0
HKLF 4
REM  cg176
REM R1 =  0.0581 for    2214 Fo > 4sig(Fo)  and  0.0690 for all    2566 data
REM    182 parameters refined using      1 restraints
END
WGHT      0.0740      0.1558
REM Instructions for potential hydrogen bonds
EQIV $1 x, y-1, z
HTAB N1 O1_$1
EQIV $2 -x, y+1/2, -z+1
HTAB C12 Cl22_$2
REM Highest difference peak  0.554,  deepest hole -0.289,  1-sigma level  0.076
Q1    1   0.3629  0.4668  0.8359  11.00000  0.05    0.55
Q2    1   0.4186  0.4429  0.0924  11.00000  0.05    0.49
Q3    1   0.0988  1.0917  0.8982  11.00000  0.05    0.39
Q4    1   0.4229  0.5617  0.1797  11.00000  0.05    0.35
Q5    1   0.3423  0.7123  0.8191  11.00000  0.05    0.29
Q6    1   0.0759  1.1718  1.0240  11.00000  0.05    0.27
Q7    1   0.0252  0.6034  0.5527  11.00000  0.05    0.26
Q8    1   0.3740  0.9446  0.8334  11.00000  0.05    0.26
Q9    1   0.3437  0.5507  0.2178  11.00000  0.05    0.25
Q10   1   0.4626  1.0451  0.1170  11.00000  0.05    0.25
Q11   1   0.0933  1.2757  0.8835  11.00000  0.05    0.25
Q12   1   0.4832  0.6560  0.0539  11.00000  0.05    0.25
Q13   1   0.4111  0.9456  0.1073  11.00000  0.05    0.23
Q14   1   0.5235  0.8764  0.0133  11.00000  0.05    0.23
Q15   1   0.1064  0.1903  0.6632  11.00000  0.05    0.23
Q16   1   0.4185  0.8841  0.2467  11.00000  0.05    0.23
Q17   1   0.0421  0.4904  0.5727  11.00000  0.05    0.23
Q18   1   0.2176  1.1099  0.1489  11.00000  0.05    0.23
Q19   1   0.0234  0.6827  0.7558  11.00000  0.05    0.22
Q20   1   0.0078  0.4035  0.5592  11.00000  0.05    0.22
;
_shelx_res_checksum              10504
_shelxl_version_number           2.014
loop_
_space_group_symop_operation_xyz
'x, y, z'
'-x, y+1/2, -z'
loop_
_atom_site_type_symbol
_atom_site_label
_atom_site_fract_x
_atom_site_fract_y
_atom_site_fract_z
_atom_site_U_iso_or_equiv
_atom_site_adp_type
_atom_site_calc_flag
_atom_site_occupancy
C C1 0.2642(5) 0.4768(13) 0.5713(5) 0.0269(12) Uani d 1
O O1 0.2599(4) 0.7328(11) 0.5588(4) 0.0396(11) Uani d 1
N N1 0.2985(4) 0.2962(11) 0.5045(4) 0.0279(11) Uani d 1
H H1 0.2980 0.1145 0.5189 0.034 Uiso calc 1
C C2 0.2333(7) 0.3377(15) 0.6672(5) 0.0374(15) Uani d 1
H H2A 0.1727 0.1939 0.6448 0.045 Uiso calc 1
H H2B 0.3020 0.2398 0.7069 0.045 Uiso calc 1
C C11 0.3360(5) 0.3802(13) 0.4110(5) 0.0260(12) Uani d 1
C C12 0.2736(5) 0.5755(14) 0.3438(5) 0.0288(12) Uani d 1
H H12 0.2065 0.6576 0.3608 0.035 Uiso calc 1
C C13 0.3077(5) 0.6540(14) 0.2516(5) 0.0317(14) Uani d 1
C C14 0.4081(5) 0.5313(18) 0.2321(5) 0.0383(16) Uani d 1
Cl Cl14 0.45559(16) 0.6230(6) 0.11761(14) 0.0585(7) Uani d 1
C C15 0.4702(6) 0.3367(18) 0.2978(5) 0.0409(16) Uani d 1
H H15 0.5377 0.2550 0.2814 0.049 Uiso calc 1
C C16 0.4341(6) 0.2593(16) 0.3887(5) 0.0367(15) Uani d 1
H H16 0.4766 0.1248 0.4348 0.044 Uiso calc 1
C C17 0.2369(7) 0.8607(18) 0.1784(6) 0.0434(17) Uani d 1
H H17A 0.2041 0.7649 0.1130 0.065 Uiso calc 1
H H17B 0.2860 1.0171 0.1644 0.065 Uiso calc 1
H H17C 0.1746 0.9347 0.2102 0.065 Uiso calc 1
C C21 0.1914(5) 0.5477(14) 0.7367(5) 0.0311(13) Uani d 1
C C22 0.0803(6) 0.6557(13) 0.7175(5) 0.0323(14) Uani d 1
Cl Cl22 -0.01755(16) 0.5362(5) 0.60924(14) 0.0496(5) Uani d 1
C C23 0.0429(6) 0.8549(15) 0.7797(5) 0.0327(13) Uani d 1
H H23 -0.0341 0.9223 0.7644 0.039 Uiso calc 1
C C24 0.1211(6) 0.9555(13) 0.8660(5) 0.0310(14) Uani d 1
Cl Cl24 0.07578(15) 1.2083(4) 0.94506(12) 0.0401(4) Uani d 1
C C25 0.2322(6) 0.8551(16) 0.8878(5) 0.0336(14) Uani d 1
H H25 0.2854 0.9257 0.9461 0.040 Uiso calc 1
C C26 0.2663(5) 0.6515(14) 0.8247(5) 0.0333(15) Uani d 1
H H26 0.3426 0.5798 0.8416 0.040 Uiso calc 1
loop_
_atom_site_aniso_label
_atom_site_aniso_U_11
_atom_site_aniso_U_22
_atom_site_aniso_U_33
_atom_site_aniso_U_12
_atom_site_aniso_U_13
_atom_site_aniso_U_23
C1 0.031(3) 0.022(3) 0.028(3) -0.003(2) 0.009(2) 0.002(2)
O1 0.062(3) 0.024(2) 0.038(2) -0.001(2) 0.022(2) 0.002(2)
N1 0.035(3) 0.019(2) 0.030(3) -0.001(2) 0.010(2) 0.001(2)
C2 0.052(4) 0.029(3) 0.035(3) 0.001(3) 0.020(3) 0.006(3)
C11 0.027(3) 0.023(3) 0.027(3) 0.000(2) 0.004(2) -0.003(2)
C12 0.028(3) 0.029(3) 0.030(3) 0.001(3) 0.007(2) -0.003(3)
C13 0.029(3) 0.036(4) 0.029(3) -0.001(2) 0.004(2) 0.003(3)
C14 0.035(3) 0.056(5) 0.026(3) -0.004(3) 0.011(2) 0.003(3)
Cl14 0.0456(9) 0.0954(18) 0.0388(8) 0.0073(10) 0.0183(7) 0.0197(10)
C15 0.032(3) 0.055(4) 0.038(3) 0.010(3) 0.014(3) 0.000(3)
C16 0.037(3) 0.039(4) 0.033(3) 0.004(3) 0.006(3) 0.008(3)
C17 0.046(4) 0.049(4) 0.036(3) 0.007(3) 0.007(3) 0.012(3)
C21 0.041(3) 0.024(3) 0.032(3) -0.004(3) 0.017(2) 0.007(3)
C22 0.040(3) 0.029(4) 0.028(3) -0.010(3) 0.006(2) 0.008(3)
Cl22 0.0483(10) 0.0577(12) 0.0400(9) -0.0107(9) 0.0018(7) -0.0027(9)
C23 0.036(3) 0.029(3) 0.036(3) 0.002(3) 0.013(3) 0.005(3)
C24 0.042(3) 0.023(3) 0.033(3) 0.002(3) 0.021(3) 0.004(2)
Cl24 0.0554(10) 0.0309(8) 0.0406(8) 0.0052(7) 0.0257(7) 0.0016(7)
C25 0.038(3) 0.037(4) 0.028(3) -0.005(3) 0.011(3) 0.003(3)
C26 0.032(3) 0.037(4) 0.033(3) 0.002(3) 0.010(2) 0.011(3)
loop_
_atom_type_symbol
_atom_type_description
_atom_type_scat_dispersion_real
_atom_type_scat_dispersion_imag
_atom_type_scat_source
C C 0.0181 0.0091 'International Tables Vol C Tables 4.2.6.8 and 6.1.1.4'
H H 0.0000 0.0000 'International Tables Vol C Tables 4.2.6.8 and 6.1.1.4'
N N 0.0311 0.0180 'International Tables Vol C Tables 4.2.6.8 and 6.1.1.4'
O O 0.0492 0.0322 'International Tables Vol C Tables 4.2.6.8 and 6.1.1.4'
Cl Cl 0.3639 0.7018 'International Tables Vol C Tables 4.2.6.8 and 6.1.1.4'
loop_
_geom_angle_atom_site_label_1
_geom_angle_atom_site_label_2
_geom_angle_atom_site_label_3
_geom_angle
O1 C1 N1 123.6(6)
O1 C1 C2 121.8(6)
N1 C1 C2 114.5(5)
C1 N1 C11 124.3(5)
C1 N1 H1 117.9
C11 N1 H1 117.9
C21 C2 C1 112.1(6)
C21 C2 H2A 109.2
C1 C2 H2A 109.2
C21 C2 H2B 109.2
C1 C2 H2B 109.2
H2A C2 H2B 107.9
C16 C11 C12 120.6(6)
C16 C11 N1 118.7(5)
C12 C11 N1 120.6(5)
C11 C12 C13 121.2(5)
C11 C12 H12 119.4
C13 C12 H12 119.4
C14 C13 C12 116.8(6)
C14 C13 C17 122.9(6)
C12 C13 C17 120.3(6)
C15 C14 C13 122.5(6)
C15 C14 Cl14 118.7(5)
C13 C14 Cl14 118.9(5)
C14 C15 C16 119.8(6)
C14 C15 H15 120.1
C16 C15 H15 120.1
C11 C16 C15 119.1(6)
C11 C16 H16 120.4
C15 C16 H16 120.4
C13 C17 H17A 109.5
C13 C17 H17B 109.5
H17A C17 H17B 109.5
C13 C17 H17C 109.5
H17A C17 H17C 109.5
H17B C17 H17C 109.5
C22 C21 C26 116.4(6)
C22 C21 C2 123.4(6)
C26 C21 C2 120.1(6)
C23 C22 C21 123.3(6)
C23 C22 Cl22 117.7(5)
C21 C22 Cl22 119.0(5)
C22 C23 C24 118.3(6)
C22 C23 H23 120.9
C24 C23 H23 120.9
C25 C24 C23 120.4(6)
C25 C24 Cl24 120.6(6)
C23 C24 Cl24 119.0(5)
C24 C25 C26 119.8(6)
C24 C25 H25 120.1
C26 C25 H25 120.1
C25 C26 C21 121.8(6)
C25 C26 H26 119.1
C21 C26 H26 119.1
loop_
_geom_bond_atom_site_label_1
_geom_bond_atom_site_label_2
_geom_bond_distance
C1 O1 1.221(8)
C1 N1 1.341(8)
C1 C2 1.526(8)
N1 C11 1.439(7)
N1 H1 0.8800
C2 C21 1.495(9)
C2 H2A 0.9900
C2 H2B 0.9900
C11 C16 1.377(9)
C11 C12 1.385(9)
C12 C13 1.397(8)
C12 H12 0.9500
C13 C14 1.391(9)
C13 C17 1.504(9)
C14 C15 1.372(11)
C14 Cl14 1.756(6)
C15 C16 1.390(9)
C15 H15 0.9500
C16 H16 0.9500
C17 H17A 0.9800
C17 H17B 0.9800
C17 H17C 0.9800
C21 C22 1.387(9)
C21 C26 1.399(9)
C22 C23 1.375(9)
C22 Cl22 1.740(6)
C23 C24 1.397(10)
C23 H23 0.9500
C24 C25 1.376(9)
C24 Cl24 1.734(6)
C25 C26 1.379(9)
C25 H25 0.9500
C26 H26 0.9500
loop_
_geom_hbond_atom_site_label_D
_geom_hbond_atom_site_label_H
_geom_hbond_atom_site_label_A
_geom_hbond_site_symmetry_A
_geom_hbond_distance_DH
_geom_hbond_distance_HA
_geom_hbond_distance_DA
_geom_hbond_angle_DHA
_geom_hbond_publ_flag
N1 H1 O1 1_545 0.88 1.96 2.818(7) 166 no
C2 H2A Cg1 1_545 0.99 2.96 3.498(8) 115 no
loop_
_geom_torsion_atom_site_label_1
_geom_torsion_atom_site_label_2
_geom_torsion_atom_site_label_3
_geom_torsion_atom_site_label_4
_geom_torsion
O1 C1 N1 C11 0.9(10)
C2 C1 N1 C11 -177.5(5)
O1 C1 C2 C21 3.8(10)
N1 C1 C2 C21 -177.8(6)
C1 N1 C11 C16 134.5(7)
C1 N1 C11 C12 -46.5(9)
C16 C11 C12 C13 0.4(10)
N1 C11 C12 C13 -178.5(6)
C11 C12 C13 C14 -1.3(10)
C11 C12 C13 C17 178.3(6)
C12 C13 C14 C15 1.6(11)
C17 C13 C14 C15 -178.0(7)
C12 C13 C14 Cl14 -179.7(5)
C17 C13 C14 Cl14 0.6(10)
C13 C14 C15 C16 -1.0(12)
Cl14 C14 C15 C16 -179.7(6)
C12 C11 C16 C15 0.2(10)
N1 C11 C16 C15 179.2(6)
C14 C15 C16 C11 0.0(12)
C1 C2 C21 C22 79.3(8)
C1 C2 C21 C26 -98.9(7)
C26 C21 C22 C23 0.2(9)
C2 C21 C22 C23 -178.0(6)
C26 C21 C22 Cl22 -180.0(4)
C2 C21 C22 Cl22 1.8(8)
C21 C22 C23 C24 0.7(10)
Cl22 C22 C23 C24 -179.1(5)
C22 C23 C24 C25 -0.4(9)
C22 C23 C24 Cl24 179.6(5)
C23 C24 C25 C26 -0.7(9)
Cl24 C24 C25 C26 179.2(5)
C24 C25 C26 C21 1.7(9)
C22 C21 C26 C25 -1.4(9)
C2 C21 C26 C25 176.9(6)
